REMARK SMILES O=C(NCCCNC(=O)C1(CCc2ccc3c(c2)CCO3)CCCCCC1)c1ccc(-c2c3nc(c(-c4c(F)c(F)c(F)c(F)c4F)c4ccc([nH]4)c(-c4c(F)c(F)c(F)c(F)c4F)c4nc(c(-c5c(F)c(F)c(F)c(F)c5F)c5ccc2[nH]5)C=C4)C=C3)cc1
REMARK SMILES IDX 6 1 5 2 4 3 3 4 1 5 2 6 28 8 29 9 90 10 30 11 89 12 31 13
REMARK SMILES IDX 32 14 33 15 83 16 34 17 88 18 82 19 84 20 35 21 87 22 81 23
REMARK SMILES IDX 80 24 36 26 68 27 48 28 67 29 49 30 52 31 66 32 85 33 50 34
REMARK SMILES IDX 51 35 65 37 86 38 53 39 37 40 38 41 46 42 39 43 40 44 44 45
REMARK SMILES IDX 47 46 41 47 42 48 45 49 43 50 69 51 70 52 78 53 71 54 72 55
REMARK SMILES IDX 76 56 79 57 73 58 74 59 77 60 75 61 54 62 55 63 63 64 56 65
REMARK SMILES IDX 57 66 61 67 64 68 58 69 59 70 62 71 60 72 7 73 8 74 9 76
REMARK SMILES IDX 10 77 11 78 12 79 13 80 14 81 18 82 15 83 17 84 16 85 19 86
REMARK SMILES IDX 21 87 20 88 22 89 23 90 24 91 25 92 27 94 26 95
REMARK H PARENT 3 7 84 25 52 36 7 75
REMARK Flexibility Score: 100.00
ROOT
ATOM      1  C   UNL     1       4.421  -1.552   3.199  1.00  0.00     0.117 C 
ENDROOT
BRANCH   1   2
ATOM      2  C   UNL     1       4.756  -0.515   2.139  1.00  0.00     0.042 C 
BRANCH   2   3
ATOM      3  C   UNL     1       4.449  -1.000   0.733  1.00  0.00     0.118 C 
BRANCH   3   4
ATOM      4  N   UNL     1       3.016  -1.037   0.478  1.00  0.00    -0.352 N 
ATOM      5  O   UNL     1       1.012  -0.171  -0.092  1.00  0.00    -0.269 OA
ATOM      6  C   UNL     1       2.237  -0.138  -0.202  1.00  0.00     0.251 C 
ATOM      7  H   UNL     1       2.541  -1.817   0.846  1.00  0.00     0.163 HD
BRANCH   6   8
ATOM      8  C   UNL     1       2.875   0.883  -1.055  1.00  0.00     0.039 A 
ATOM      9  C   UNL     1       3.946   0.541  -1.885  1.00  0.00     0.014 A 
ATOM     10  C   UNL     1       2.386   2.191  -1.040  1.00  0.00     0.014 A 
ATOM     11  C   UNL     1       4.627   1.529  -2.581  1.00  0.00     0.010 A 
ATOM     12  C   UNL     1       3.002   3.163  -1.827  1.00  0.00     0.010 A 
ATOM     13  C   UNL     1       4.140   2.843  -2.586  1.00  0.00    -0.014 A 
BRANCH  13  14
ATOM     14  C   UNL     1       4.776   3.861  -3.454  1.00  0.00     0.031 A 
ATOM     15  C   UNL     1       5.402   5.087  -2.866  1.00  0.00     0.074 A 
ATOM     16  C   UNL     1       4.740   3.682  -4.788  1.00  0.00     0.049 A 
ATOM     17  N   UNL     1       5.887   6.140  -3.473  1.00  0.00    -0.248 NA
ATOM     18  C   UNL     1       5.482   5.147  -1.399  1.00  0.00     0.031 C 
ATOM     19  C   UNL     1       4.159   2.520  -5.466  1.00  0.00     0.029 A 
ATOM     20  N   UNL     1       5.183   4.477  -5.812  1.00  0.00    -0.354 N 
ATOM     21  C   UNL     1       6.300   7.001  -2.466  1.00  0.00     0.074 A 
ATOM     22  C   UNL     1       5.989   6.357  -1.207  1.00  0.00     0.031 C 
ATOM     23  C   UNL     1       4.287   2.674  -6.790  1.00  0.00     0.029 A 
ATOM     24  C   UNL     1       4.885   3.976  -7.055  1.00  0.00     0.049 A 
ATOM     25  H   UNL     1       5.666   5.323  -5.671  1.00  0.00     0.167 HD
ATOM     26  C   UNL     1       6.885   8.217  -2.590  1.00  0.00     0.037 A 
ATOM     27  C   UNL     1       5.029   4.524  -8.275  1.00  0.00     0.037 A 
ATOM     28  C   UNL     1       7.188   8.837  -3.855  1.00  0.00     0.049 A 
ATOM     29  C   UNL     1       5.635   5.891  -8.387  1.00  0.00     0.074 A 
ATOM     30  C   UNL     1       7.813  10.047  -4.096  1.00  0.00     0.029 A 
ATOM     31  N   UNL     1       6.871   8.297  -5.096  1.00  0.00    -0.354 N 
ATOM     32  N   UNL     1       6.049   6.689  -7.433  1.00  0.00    -0.248 NA
ATOM     33  C   UNL     1       5.795   6.436  -9.740  1.00  0.00     0.031 C 
ATOM     34  C   UNL     1       7.816  10.269  -5.477  1.00  0.00     0.029 A 
ATOM     35  C   UNL     1       7.259   9.165  -6.104  1.00  0.00     0.049 A 
ATOM     36  H   UNL     1       6.434   7.426  -5.238  1.00  0.00     0.167 HD
ATOM     37  C   UNL     1       6.545   7.817  -8.067  1.00  0.00     0.074 A 
ATOM     38  C   UNL     1       6.380   7.600  -9.491  1.00  0.00     0.031 C 
ATOM     39  C   UNL     1       7.096   8.927  -7.518  1.00  0.00     0.037 A 
BRANCH  26  40
ATOM     40  C   UNL     1       7.188   8.973  -1.326  1.00  0.00     0.064 A 
ATOM     41  C   UNL     1       8.162   8.540  -0.414  1.00  0.00     0.173 A 
ATOM     42  C   UNL     1       6.492  10.154  -1.025  1.00  0.00     0.173 A 
ATOM     43  F   UNL     1       8.853   7.414  -0.646  1.00  0.00    -0.203 F 
ATOM     44  C   UNL     1       8.394   9.234   0.772  1.00  0.00     0.198 A 
ATOM     45  C   UNL     1       6.751  10.865   0.144  1.00  0.00     0.198 A 
ATOM     46  F   UNL     1       5.555  10.621  -1.865  1.00  0.00    -0.203 F 
ATOM     47  F   UNL     1       9.280   8.762   1.660  1.00  0.00    -0.200 F 
ATOM     48  C   UNL     1       7.692  10.398   1.048  1.00  0.00     0.200 A 
ATOM     49  F   UNL     1       6.082  11.998   0.400  1.00  0.00    -0.200 F 
ATOM     50  F   UNL     1       7.912  11.061   2.191  1.00  0.00    -0.200 F 
ENDBRANCH  26  40
BRANCH  27  51
ATOM     51  C   UNL     1       4.568   3.766  -9.464  1.00  0.00     0.064 A 
ATOM     52  C   UNL     1       5.485   3.205 -10.362  1.00  0.00     0.173 A 
ATOM     53  C   UNL     1       3.203   3.525  -9.686  1.00  0.00     0.173 A 
ATOM     54  F   UNL     1       6.798   3.418 -10.197  1.00  0.00    -0.203 F 
ATOM     55  C   UNL     1       5.053   2.435 -11.440  1.00  0.00     0.198 A 
ATOM     56  C   UNL     1       2.775   2.730 -10.746  1.00  0.00     0.198 A 
ATOM     57  F   UNL     1       2.287   4.028  -8.845  1.00  0.00    -0.203 F 
ATOM     58  F   UNL     1       5.949   1.928 -12.298  1.00  0.00    -0.200 F 
ATOM     59  C   UNL     1       3.700   2.189 -11.624  1.00  0.00     0.200 A 
ATOM     60  F   UNL     1       1.469   2.476 -10.905  1.00  0.00    -0.200 F 
ATOM     61  F   UNL     1       3.289   1.428 -12.648  1.00  0.00    -0.200 F 
ENDBRANCH  27  51
BRANCH  39  62
ATOM     62  C   UNL     1       7.615   9.978  -8.455  1.00  0.00     0.064 A 
ATOM     63  C   UNL     1       6.756  10.819  -9.175  1.00  0.00     0.173 A 
ATOM     64  C   UNL     1       8.997  10.194  -8.569  1.00  0.00     0.173 A 
ATOM     65  F   UNL     1       5.427  10.640  -9.114  1.00  0.00    -0.203 F 
ATOM     66  C   UNL     1       7.262  11.835  -9.982  1.00  0.00     0.198 A 
ATOM     67  C   UNL     1       9.499  11.229  -9.351  1.00  0.00     0.198 A 
ATOM     68  F   UNL     1       9.861   9.417  -7.897  1.00  0.00    -0.203 F 
ATOM     69  F   UNL     1       6.425  12.608 -10.687  1.00  0.00    -0.200 F 
ATOM     70  C   UNL     1       8.631  12.047 -10.059  1.00  0.00     0.200 A 
ATOM     71  F   UNL     1      10.820  11.441  -9.412  1.00  0.00    -0.200 F 
ATOM     72  F   UNL     1       9.115  13.039 -10.818  1.00  0.00    -0.200 F 
ENDBRANCH  39  62
ENDBRANCH  13  14
ENDBRANCH   6   8
ENDBRANCH   3   4
ENDBRANCH   2   3
ENDBRANCH   1   2
BRANCH   1  73
ATOM     73  N   UNL     1       5.329  -2.680   3.104  1.00  0.00    -0.356 N 
ATOM     74  C   UNL     1       6.225  -3.251   3.938  1.00  0.00     0.226 C 
ATOM     75  H   UNL     1       5.280  -3.133   2.232  1.00  0.00     0.163 HD
ATOM     76  O   UNL     1       7.060  -3.962   3.363  1.00  0.00    -0.274 OA
BRANCH  74  77
ATOM     77  C   UNL     1       6.305  -3.017   5.466  1.00  0.00     0.049 C 
BRANCH  77  78
ATOM     78  C   UNL     1       6.873  -4.364   6.096  1.00  0.00     0.021 C 
BRANCH  78  79
ATOM     79  C   UNL     1       5.956  -5.610   6.276  1.00  0.00     0.036 C 
BRANCH  79  80
ATOM     80  C   UNL     1       5.503  -6.354   5.040  1.00  0.00    -0.047 A 
ATOM     81  C   UNL     1       4.610  -5.774   4.114  1.00  0.00     0.007 A 
ATOM     82  C   UNL     1       5.949  -7.667   4.811  1.00  0.00     0.011 A 
ATOM     83  C   UNL     1       4.324  -6.387   2.890  1.00  0.00     0.047 A 
ATOM     84  C   UNL     1       5.606  -8.290   3.624  1.00  0.00    -0.002 A 
ATOM     85  C   UNL     1       4.857  -7.632   2.662  1.00  0.00     0.122 A 
ATOM     86  C   UNL     1       5.853  -9.673   3.160  1.00  0.00     0.081 C 
ATOM     87  O   UNL     1       4.690  -8.358   1.508  1.00  0.00    -0.493 OA
ATOM     88  C   UNL     1       5.650  -9.433   1.665  1.00  0.00     0.234 C 
ENDBRANCH  79  80
ENDBRANCH  78  79
ENDBRANCH  77  78
BRANCH  77  89
ATOM     89  C   UNL     1       7.439  -1.948   5.633  1.00  0.00     0.017 C 
BRANCH  89  90
ATOM     90  C   UNL     1       7.081  -0.484   5.372  1.00  0.00     0.001 C 
BRANCH  90  91
ATOM     91  C   UNL     1       6.490   0.237   6.577  1.00  0.00     0.000 C 
BRANCH  91  92
ATOM     92  C   UNL     1       5.144  -0.277   7.066  1.00  0.00     0.000 CG0
ATOM     93  G   UNL     1       5.115  -1.760   7.423  1.00  0.00     0.000 G0
ENDBRANCH  91  92
ENDBRANCH  90  91
ENDBRANCH  89  90
ENDBRANCH  77  89
BRANCH  77  94
ATOM     94  C   UNL     1       4.986  -2.668   6.199  1.00  0.00     0.017 C 
BRANCH  94  95
ATOM     95  C   UNL     1       5.115  -1.760   7.423  1.00  0.00     0.001 CG0
ATOM     96  G   UNL     1       5.144  -0.277   7.066  1.00  0.00     0.000 G0
ENDBRANCH  94  95
ENDBRANCH  77  94
ENDBRANCH  74  77
ENDBRANCH   1  73
TORSDOF 13
