REMARK SMILES O=C(NCCCNC(=O)c1cn(-c2cc(Cl)ncn2)cn1)c1ccc(-c2c3nc(c(-c4c(F)c(F)c(F)c(F)c4F)c4ccc([nH]4)c(-c4c(F)c(F)c(F)c(F)c4F)c4nc(c(-c5c(F)c(F)c(F)c(F)c5F)c5ccc2[nH]5)C=C4)C=C3)cc1
REMARK SMILES IDX 4 1 3 2 1 3 2 4 22 6 23 7 84 8 24 9 83 10 25 11 26 12 27 13
REMARK SMILES IDX 77 14 28 15 82 16 76 17 78 18 29 19 81 20 75 21 74 22 30 24
REMARK SMILES IDX 62 25 42 26 61 27 43 28 46 29 60 30 79 31 44 32 45 33 59 35
REMARK SMILES IDX 80 36 47 37 31 38 32 39 40 40 33 41 34 42 38 43 41 44 35 45
REMARK SMILES IDX 36 46 39 47 37 48 63 49 64 50 72 51 65 52 66 53 70 54 73 55
REMARK SMILES IDX 67 56 68 57 71 58 69 59 48 60 49 61 57 62 50 63 51 64 55 65
REMARK SMILES IDX 58 66 52 67 53 68 56 69 54 70 5 71 6 72 7 73 8 74 9 76 10 77
REMARK SMILES IDX 11 78 21 79 12 80 20 81 13 82 14 83 19 84 15 85 18 86 16 87
REMARK SMILES IDX 17 88
REMARK H PARENT 3 5 78 23 46 34 7 75
REMARK Flexibility Score: inf
ROOT
ATOM      1  C   UNL     1       4.780  -1.154  -0.578  1.00  0.00     0.118 C 
ENDROOT
BRANCH   1   2
ATOM      2  N   UNL     1       3.395  -0.885  -0.915  1.00  0.00    -0.352 N 
ATOM      3  O   UNL     1       1.321  -0.128  -0.947  1.00  0.00    -0.269 OA
ATOM      4  C   UNL     1       2.330  -0.325  -0.265  1.00  0.00     0.251 C 
ATOM      5  H   UNL     1       3.167  -1.175  -1.828  1.00  0.00     0.163 HD
BRANCH   4   6
ATOM      6  C   UNL     1       2.281   0.000   1.186  1.00  0.00     0.039 A 
ATOM      7  C   UNL     1       3.376   0.040   2.048  1.00  0.00     0.014 A 
ATOM      8  C   UNL     1       1.004   0.279   1.712  1.00  0.00     0.014 A 
ATOM      9  C   UNL     1       3.198   0.271   3.411  1.00  0.00     0.010 A 
ATOM     10  C   UNL     1       0.822   0.537   3.067  1.00  0.00     0.010 A 
ATOM     11  C   UNL     1       1.920   0.505   3.923  1.00  0.00    -0.014 A 
BRANCH  11  12
ATOM     12  C   UNL     1       1.797   0.866   5.336  1.00  0.00     0.031 A 
ATOM     13  C   UNL     1       2.373   2.188   5.718  1.00  0.00     0.074 A 
ATOM     14  C   UNL     1       1.060   0.168   6.222  1.00  0.00     0.049 A 
ATOM     15  N   UNL     1       3.212   2.458   6.667  1.00  0.00    -0.248 NA
ATOM     16  C   UNL     1       1.992   3.356   4.907  1.00  0.00     0.031 C 
ATOM     17  C   UNL     1       0.182  -0.967   5.933  1.00  0.00     0.029 A 
ATOM     18  N   UNL     1       0.845   0.406   7.553  1.00  0.00    -0.354 N 
ATOM     19  C   UNL     1       3.341   3.847   6.683  1.00  0.00     0.074 A 
ATOM     20  C   UNL     1       2.663   4.336   5.513  1.00  0.00     0.031 C 
ATOM     21  C   UNL     1      -0.628  -1.177   6.992  1.00  0.00     0.029 A 
ATOM     22  C   UNL     1      -0.251  -0.272   8.067  1.00  0.00     0.049 A 
ATOM     23  H   UNL     1       1.413   1.001   8.093  1.00  0.00     0.167 HD
ATOM     24  C   UNL     1       3.797   4.505   7.783  1.00  0.00     0.037 A 
ATOM     25  C   UNL     1      -0.860  -0.063   9.259  1.00  0.00     0.037 A 
ATOM     26  C   UNL     1       4.548   3.633   8.649  1.00  0.00     0.049 A 
ATOM     27  C   UNL     1       0.084   0.649  10.149  1.00  0.00     0.074 A 
ATOM     28  C   UNL     1       5.710   2.896   8.552  1.00  0.00     0.029 A 
ATOM     29  N   UNL     1       3.933   3.218   9.799  1.00  0.00    -0.354 N 
ATOM     30  N   UNL     1       1.152   0.118  10.674  1.00  0.00    -0.248 NA
ATOM     31  C   UNL     1      -0.009   2.099  10.259  1.00  0.00     0.031 C 
ATOM     32  C   UNL     1       5.540   1.793   9.441  1.00  0.00     0.029 A 
ATOM     33  C   UNL     1       4.286   1.921  10.039  1.00  0.00     0.049 A 
ATOM     34  H   UNL     1       3.335   3.764  10.359  1.00  0.00     0.167 HD
ATOM     35  C   UNL     1       2.043   1.170  10.783  1.00  0.00     0.074 A 
ATOM     36  C   UNL     1       1.225   2.370  10.690  1.00  0.00     0.031 C 
ATOM     37  C   UNL     1       3.382   0.961  10.626  1.00  0.00     0.037 A 
BRANCH  24  38
ATOM     38  C   UNL     1       3.207   5.806   8.301  1.00  0.00     0.064 A 
ATOM     39  C   UNL     1       3.781   6.401   9.447  1.00  0.00     0.173 A 
ATOM     40  C   UNL     1       1.920   6.276   7.960  1.00  0.00     0.173 A 
ATOM     41  F   UNL     1       5.005   6.042   9.863  1.00  0.00    -0.203 F 
ATOM     42  C   UNL     1       3.065   7.282  10.261  1.00  0.00     0.198 A 
ATOM     43  C   UNL     1       1.230   7.199   8.747  1.00  0.00     0.198 A 
ATOM     44  F   UNL     1       1.228   5.785   6.926  1.00  0.00    -0.203 F 
ATOM     45  F   UNL     1       3.591   7.688  11.425  1.00  0.00    -0.200 F 
ATOM     46  C   UNL     1       1.783   7.667   9.920  1.00  0.00     0.200 A 
ATOM     47  F   UNL     1      -0.015   7.555   8.403  1.00  0.00    -0.200 F 
ATOM     48  F   UNL     1       1.062   8.442  10.741  1.00  0.00    -0.200 F 
ENDBRANCH  24  38
BRANCH  25  49
ATOM     49  C   UNL     1      -2.282  -0.266   9.624  1.00  0.00     0.064 A 
ATOM     50  C   UNL     1      -2.684  -0.333  10.969  1.00  0.00     0.173 A 
ATOM     51  C   UNL     1      -3.311  -0.146   8.670  1.00  0.00     0.173 A 
ATOM     52  F   UNL     1      -1.770  -0.400  11.947  1.00  0.00    -0.203 F 
ATOM     53  C   UNL     1      -4.032  -0.262  11.336  1.00  0.00     0.198 A 
ATOM     54  C   UNL     1      -4.656  -0.094   9.036  1.00  0.00     0.198 A 
ATOM     55  F   UNL     1      -3.030   0.016   7.369  1.00  0.00    -0.203 F 
ATOM     56  F   UNL     1      -4.371  -0.261  12.632  1.00  0.00    -0.200 F 
ATOM     57  C   UNL     1      -5.016  -0.137  10.370  1.00  0.00     0.200 A 
ATOM     58  F   UNL     1      -5.595   0.060   8.092  1.00  0.00    -0.200 F 
ATOM     59  F   UNL     1      -6.303  -0.015  10.723  1.00  0.00    -0.200 F 
ENDBRANCH  25  49
BRANCH  37  60
ATOM     60  C   UNL     1       3.890  -0.432  10.829  1.00  0.00     0.064 A 
ATOM     61  C   UNL     1       3.525  -1.531  10.035  1.00  0.00     0.173 A 
ATOM     62  C   UNL     1       4.856  -0.640  11.823  1.00  0.00     0.173 A 
ATOM     63  F   UNL     1       2.688  -1.388   8.998  1.00  0.00    -0.203 F 
ATOM     64  C   UNL     1       4.057  -2.796  10.274  1.00  0.00     0.198 A 
ATOM     65  C   UNL     1       5.417  -1.895  12.032  1.00  0.00     0.198 A 
ATOM     66  F   UNL     1       5.283   0.389  12.573  1.00  0.00    -0.203 F 
ATOM     67  F   UNL     1       3.672  -3.839   9.524  1.00  0.00    -0.200 F 
ATOM     68  C   UNL     1       5.005  -2.976  11.269  1.00  0.00     0.200 A 
ATOM     69  F   UNL     1       6.369  -2.054  12.961  1.00  0.00    -0.200 F 
ATOM     70  F   UNL     1       5.541  -4.187  11.476  1.00  0.00    -0.200 F 
ENDBRANCH  37  60
ENDBRANCH  11  12
ENDBRANCH   4   6
ENDBRANCH   1   2
BRANCH   1  71
ATOM     71  C   UNL     1       5.020  -2.401   0.274  1.00  0.00     0.042 C 
BRANCH  71  72
ATOM     72  C   UNL     1       4.455  -3.697  -0.304  1.00  0.00     0.118 C 
BRANCH  72  73
ATOM     73  N   UNL     1       4.999  -4.012  -1.613  1.00  0.00    -0.351 N 
ATOM     74  C   UNL     1       5.879  -4.995  -1.983  1.00  0.00     0.271 C 
ATOM     75  H   UNL     1       4.690  -3.430  -2.345  1.00  0.00     0.163 HD
ATOM     76  O   UNL     1       6.332  -4.974  -3.137  1.00  0.00    -0.267 OA
BRANCH  74  77
ATOM     77  C   UNL     1       6.231  -6.037  -1.027  1.00  0.00     0.146 A 
ATOM     78  C   UNL     1       5.364  -6.923  -0.408  1.00  0.00     0.128 A 
ATOM     79  N   UNL     1       7.526  -6.300  -0.632  1.00  0.00    -0.231 NA
ATOM     80  N   UNL     1       6.141  -7.703   0.419  1.00  0.00    -0.290 N 
ATOM     81  C   UNL     1       7.437  -7.283   0.235  1.00  0.00     0.206 A 
BRANCH  80  82
ATOM     82  C   UNL     1       5.728  -8.720   1.320  1.00  0.00     0.142 A 
ATOM     83  C   UNL     1       4.465  -9.259   1.226  1.00  0.00     0.088 A 
ATOM     84  N   UNL     1       6.618  -9.107   2.263  1.00  0.00    -0.219 NA
ATOM     85  C   UNL     1       4.175 -10.216   2.167  1.00  0.00     0.134 A 
ATOM     86  C   UNL     1       6.198 -10.024   3.146  1.00  0.00     0.226 A 
ATOM     87  Cl  UNL     1       2.660 -11.022   2.151  1.00  0.00    -0.062 Cl
ATOM     88  N   UNL     1       5.002 -10.613   3.146  1.00  0.00    -0.224 NA
ENDBRANCH  80  82
ENDBRANCH  74  77
ENDBRANCH  72  73
ENDBRANCH  71  72
ENDBRANCH   1  71
TORSDOF 11
