REMARK SMILES C/C(C(=O)NCCCNC(=O)c1ccc(-c2c3nc(c(-c4c(F)c(F)c(F)c(F)c4F)c4ccc([nH]4)c(-c4c(F)c(F)c(F)c(F)c4F)c4nc(c(-c5c(F)c(F)c(F)c(F)c5F)c5ccc2[nH]5)C=C4)C=C3)cc1)=C(\C)C(=O)N[C@H]1CCCC1(C)C
REMARK SMILES IDX 7 1 6 2 5 3 3 4 4 5 2 7 1 8 75 9 76 10 77 11 78 12 79 13
REMARK SMILES IDX 80 15 81 16 84 17 82 18 83 19 85 20 86 21 8 22 9 23 10 24
REMARK SMILES IDX 11 26 12 27 13 28 74 29 14 30 73 31 15 32 16 33 17 34 67 35
REMARK SMILES IDX 18 36 72 37 66 38 68 39 19 40 71 41 65 42 64 43 20 45 52 46
REMARK SMILES IDX 32 47 51 48 33 49 36 50 50 51 69 52 34 53 35 54 49 56 70 57
REMARK SMILES IDX 37 58 21 59 22 60 30 61 23 62 24 63 28 64 31 65 25 66 26 67
REMARK SMILES IDX 29 68 27 69 53 70 54 71 62 72 55 73 56 74 60 75 63 76 57 77
REMARK SMILES IDX 58 78 61 79 59 80 38 81 39 82 47 83 40 84 41 85 45 86 48 87
REMARK SMILES IDX 42 88 43 89 46 90 44 91
REMARK H PARENT 5 6 79 14 9 25 68 44 36 55
REMARK Flexibility Score: inf
ROOT
ATOM      1  C   UNL     1      -1.112   2.525   1.165  1.00  0.00     0.042 C 
ENDROOT
BRANCH   1   2
ATOM      2  C   UNL     1       0.057   1.866   1.898  1.00  0.00     0.118 C 
BRANCH   2   3
ATOM      3  N   UNL     1      -0.215   0.526   2.400  1.00  0.00    -0.352 N 
ATOM      4  C   UNL     1       0.088  -0.743   1.994  1.00  0.00     0.247 C 
ATOM      5  O   UNL     1       0.106  -1.574   2.904  1.00  0.00    -0.270 OA
ATOM      6  H   UNL     1      -0.745   0.538   3.230  1.00  0.00     0.163 HD
BRANCH   4   7
ATOM      7  C   UNL     1       0.429  -1.129   0.569  1.00  0.00     0.022 C 
ATOM      8  C   UNL     1       0.838  -0.037  -0.380  1.00  0.00     0.051 C 
ATOM      9  C   UNL     1       0.406  -2.431   0.154  1.00  0.00     0.022 C 
ATOM     10  C   UNL     1       0.670  -2.837  -1.271  1.00  0.00     0.051 C 
BRANCH   9  11
ATOM     11  C   UNL     1      -0.048  -3.563   1.032  1.00  0.00     0.247 C 
ATOM     12  O   UNL     1      -1.162  -3.533   1.554  1.00  0.00    -0.270 OA
ATOM     13  N   UNL     1       0.716  -4.692   1.182  1.00  0.00    -0.349 N 
ATOM     14  H   UNL     1       0.479  -5.237   1.968  1.00  0.00     0.164 HD
BRANCH  13  15
ATOM     15  C   UNL     1       1.821  -5.237   0.387  1.00  0.00     0.088 C 
ATOM     16  C   UNL     1       3.133  -4.460   0.580  1.00  0.00     0.025 C 
ATOM     17  C   UNL     1       2.197  -6.721   0.692  1.00  0.00    -0.015 C 
ATOM     18  C   UNL     1       4.080  -5.356   1.377  1.00  0.00     0.003 C 
ATOM     19  C   UNL     1       3.275  -6.585   1.774  1.00  0.00     0.008 C 
ATOM     20  C   UNL     1       1.048  -7.615   1.174  1.00  0.00     0.013 C 
ATOM     21  C   UNL     1       2.786  -7.373  -0.582  1.00  0.00     0.013 C 
ENDBRANCH  13  15
ENDBRANCH   9  11
ENDBRANCH   4   7
ENDBRANCH   2   3
ENDBRANCH   1   2
BRANCH   1  22
ATOM     22  C   UNL     1      -2.221   3.052   2.074  1.00  0.00     0.118 C 
BRANCH  22  23
ATOM     23  N   UNL     1      -1.778   4.155   2.919  1.00  0.00    -0.352 N 
ATOM     24  C   UNL     1      -2.141   5.477   2.936  1.00  0.00     0.251 C 
ATOM     25  H   UNL     1      -1.102   3.908   3.592  1.00  0.00     0.163 HD
ATOM     26  O   UNL     1      -1.462   6.279   3.584  1.00  0.00    -0.269 OA
BRANCH  24  27
ATOM     27  C   UNL     1      -3.325   5.966   2.199  1.00  0.00     0.039 A 
ATOM     28  C   UNL     1      -3.264   7.218   1.575  1.00  0.00     0.014 A 
ATOM     29  C   UNL     1      -4.520   5.242   2.180  1.00  0.00     0.014 A 
ATOM     30  C   UNL     1      -4.375   7.713   0.886  1.00  0.00     0.010 A 
ATOM     31  C   UNL     1      -5.605   5.704   1.437  1.00  0.00     0.010 A 
ATOM     32  C   UNL     1      -5.546   6.946   0.786  1.00  0.00    -0.014 A 
BRANCH  32  33
ATOM     33  C   UNL     1      -6.716   7.418   0.002  1.00  0.00     0.031 A 
ATOM     34  C   UNL     1      -8.023   7.709   0.687  1.00  0.00     0.074 A 
ATOM     35  C   UNL     1      -6.621   7.511  -1.339  1.00  0.00     0.049 A 
ATOM     36  N   UNL     1      -9.178   8.038   0.165  1.00  0.00    -0.248 NA
ATOM     37  C   UNL     1      -8.040   7.587   2.152  1.00  0.00     0.031 C 
ATOM     38  C   UNL     1      -5.420   7.215  -2.122  1.00  0.00     0.029 A 
ATOM     39  N   UNL     1      -7.553   7.865  -2.282  1.00  0.00    -0.354 N 
ATOM     40  C   UNL     1     -10.059   8.144   1.232  1.00  0.00     0.074 A 
ATOM     41  C   UNL     1      -9.319   7.799   2.427  1.00  0.00     0.031 C 
ATOM     42  C   UNL     1      -5.684   7.413  -3.423  1.00  0.00     0.029 A 
ATOM     43  C   UNL     1      -7.080   7.810  -3.570  1.00  0.00     0.049 A 
ATOM     44  H   UNL     1      -8.474   8.132  -2.057  1.00  0.00     0.167 HD
ATOM     45  C   UNL     1     -11.363   8.515   1.218  1.00  0.00     0.037 A 
ATOM     46  C   UNL     1      -7.706   8.042  -4.740  1.00  0.00     0.037 A 
ATOM     47  C   UNL     1     -12.087   8.881   0.029  1.00  0.00     0.049 A 
ATOM     48  C   UNL     1      -9.155   8.446  -4.728  1.00  0.00     0.074 A 
ATOM     49  C   UNL     1     -13.390   9.332  -0.085  1.00  0.00     0.029 A 
ATOM     50  N   UNL     1     -11.568   8.832  -1.257  1.00  0.00    -0.354 N 
ATOM     51  N   UNL     1      -9.960   8.609  -3.707  1.00  0.00    -0.248 NA
ATOM     52  C   UNL     1      -9.781   8.703  -6.032  1.00  0.00     0.031 C 
ATOM     53  C   UNL     1     -13.675   9.513  -1.442  1.00  0.00     0.029 A 
ATOM     54  C   UNL     1     -12.533   9.223  -2.172  1.00  0.00     0.049 A 
ATOM     55  H   UNL     1     -10.650   8.560  -1.486  1.00  0.00     0.167 HD
ATOM     56  C   UNL     1     -11.177   9.011  -4.240  1.00  0.00     0.074 A 
ATOM     57  C   UNL     1     -11.000   9.084  -5.675  1.00  0.00     0.031 C 
ATOM     58  C   UNL     1     -12.337   9.294  -3.598  1.00  0.00     0.037 A 
BRANCH  45  59
ATOM     59  C   UNL     1     -12.092   8.545   2.531  1.00  0.00     0.064 A 
ATOM     60  C   UNL     1     -11.803   9.507   3.512  1.00  0.00     0.173 A 
ATOM     61  C   UNL     1     -13.119   7.627   2.799  1.00  0.00     0.173 A 
ATOM     62  F   UNL     1     -10.825  10.403   3.312  1.00  0.00    -0.203 F 
ATOM     63  C   UNL     1     -12.493   9.527   4.722  1.00  0.00     0.198 A 
ATOM     64  C   UNL     1     -13.827   7.670   3.997  1.00  0.00     0.198 A 
ATOM     65  F   UNL     1     -13.443   6.691   1.893  1.00  0.00    -0.203 F 
ATOM     66  F   UNL     1     -12.165  10.424   5.663  1.00  0.00    -0.200 F 
ATOM     67  C   UNL     1     -13.508   8.614   4.961  1.00  0.00     0.200 A 
ATOM     68  F   UNL     1     -14.818   6.795   4.220  1.00  0.00    -0.200 F 
ATOM     69  F   UNL     1     -14.175   8.640   6.123  1.00  0.00    -0.200 F 
ENDBRANCH  45  59
BRANCH  46  70
ATOM     70  C   UNL     1      -6.958   7.918  -6.018  1.00  0.00     0.064 A 
ATOM     71  C   UNL     1      -6.652   9.052  -6.784  1.00  0.00     0.173 A 
ATOM     72  C   UNL     1      -6.532   6.672  -6.499  1.00  0.00     0.173 A 
ATOM     73  F   UNL     1      -7.056  10.264  -6.375  1.00  0.00    -0.203 F 
ATOM     74  C   UNL     1      -5.963   8.942  -7.990  1.00  0.00     0.198 A 
ATOM     75  C   UNL     1      -5.818   6.566  -7.691  1.00  0.00     0.198 A 
ATOM     76  F   UNL     1      -6.794   5.557  -5.801  1.00  0.00    -0.203 F 
ATOM     77  F   UNL     1      -5.721  10.037  -8.723  1.00  0.00    -0.200 F 
ATOM     78  C   UNL     1      -5.542   7.700  -8.440  1.00  0.00     0.200 A 
ATOM     79  F   UNL     1      -5.399   5.365  -8.114  1.00  0.00    -0.200 F 
ATOM     80  F   UNL     1      -4.874   7.595  -9.597  1.00  0.00    -0.200 F 
ENDBRANCH  46  70
BRANCH  58  81
ATOM     81  C   UNL     1     -13.497   9.739  -4.440  1.00  0.00     0.064 A 
ATOM     82  C   UNL     1     -14.191   8.844  -5.268  1.00  0.00     0.173 A 
ATOM     83  C   UNL     1     -13.944  11.068  -4.387  1.00  0.00     0.173 A 
ATOM     84  F   UNL     1     -13.792   7.567  -5.366  1.00  0.00    -0.203 F 
ATOM     85  C   UNL     1     -15.276   9.269  -6.029  1.00  0.00     0.198 A 
ATOM     86  C   UNL     1     -15.048  11.482  -5.126  1.00  0.00     0.198 A 
ATOM     87  F   UNL     1     -13.318  11.962  -3.607  1.00  0.00    -0.203 F 
ATOM     88  F   UNL     1     -15.896   8.408  -6.848  1.00  0.00    -0.200 F 
ATOM     89  C   UNL     1     -15.709  10.585  -5.952  1.00  0.00     0.200 A 
ATOM     90  F   UNL     1     -15.473  12.750  -5.040  1.00  0.00    -0.200 F 
ATOM     91  F   UNL     1     -16.759  10.990  -6.679  1.00  0.00    -0.200 F 
ENDBRANCH  58  81
ENDBRANCH  32  33
ENDBRANCH  24  27
ENDBRANCH  22  23
ENDBRANCH   1  22
TORSDOF 12
