REMARK SMILES C[C@H](C(=O)NCCCNC(=O)c1ccc(-c2c3nc(c(-c4c(F)c(F)c(F)c(F)c4F)c4ccc([nH]4)c(-c4c(F)c(F)c(F)c(F)c4F)c4nc(c(-c5c(F)c(F)c(F)c(F)c5F)c5ccc2[nH]5)C=C4)C=C3)cc1)c1ccc2c3cc(Cl)ccc3n(C(=O)c3ccc(Cl)cc3)c2c1
REMARK SMILES IDX 6 1 5 2 3 3 4 4 2 6 1 7 75 8 76 9 97 10 77 11 96 12 78 13
REMARK SMILES IDX 86 14 79 15 85 16 80 17 84 18 81 19 83 20 82 21 87 22 88 23
REMARK SMILES IDX 89 24 90 25 95 26 91 27 94 28 92 29 93 30 7 31 8 32 9 33
REMARK SMILES IDX 10 34 11 36 12 37 13 38 74 39 14 40 73 41 15 42 16 43 17 44
REMARK SMILES IDX 67 45 18 46 72 47 66 48 68 49 19 50 71 51 65 52 64 53 20 55
REMARK SMILES IDX 52 56 32 57 51 58 33 59 36 60 50 61 69 62 34 63 35 64 49 66
REMARK SMILES IDX 70 67 37 68 21 69 22 70 30 71 23 72 24 73 28 74 31 75 25 76
REMARK SMILES IDX 26 77 29 78 27 79 53 80 54 81 62 82 55 83 56 84 60 85 63 86
REMARK SMILES IDX 57 87 58 88 61 89 59 90 38 91 39 92 47 93 40 94 41 95 45 96
REMARK SMILES IDX 48 97 42 98 43 99 46 100 44 101
REMARK H PARENT 5 5 9 35 68 54 36 65
REMARK Flexibility Score: inf
ROOT
ATOM      1  C   UNL     1      -0.192  -1.772  -1.240  1.00  0.00     0.117 C 
ENDROOT
BRANCH   1   2
ATOM      2  N   UNL     1       0.715  -0.638  -1.143  1.00  0.00    -0.356 N 
ATOM      3  C   UNL     1       1.115   0.095  -0.057  1.00  0.00     0.227 C 
ATOM      4  O   UNL     1       1.865   1.049  -0.278  1.00  0.00    -0.274 OA
ATOM      5  H   UNL     1       1.105  -0.350  -2.000  1.00  0.00     0.163 HD
BRANCH   3   6
ATOM      6  C   UNL     1       0.659  -0.295   1.363  1.00  0.00     0.105 C 
ATOM      7  C   UNL     1       1.361   0.500   2.473  1.00  0.00     0.023 C 
BRANCH   6   8
ATOM      8  C   UNL     1      -0.852  -0.200   1.508  1.00  0.00    -0.034 A 
ATOM      9  C   UNL     1      -1.542   0.964   1.176  1.00  0.00     0.005 A 
ATOM     10  C   UNL     1      -1.563  -1.352   1.878  1.00  0.00     0.032 A 
ATOM     11  C   UNL     1      -2.935   0.950   1.082  1.00  0.00     0.011 A 
ATOM     12  C   UNL     1      -2.962  -1.386   1.729  1.00  0.00     0.057 A 
ATOM     13  C   UNL     1      -3.646  -0.249   1.313  1.00  0.00     0.008 A 
ATOM     14  N   UNL     1      -3.884  -2.448   1.846  1.00  0.00    -0.276 N 
ATOM     15  C   UNL     1      -5.016  -0.590   1.235  1.00  0.00     0.009 A 
ATOM     16  C   UNL     1      -5.169  -1.898   1.720  1.00  0.00     0.057 A 
ATOM     17  C   UNL     1      -6.142   0.157   0.839  1.00  0.00     0.031 A 
ATOM     18  C   UNL     1      -6.458  -2.398   1.990  1.00  0.00     0.029 A 
ATOM     19  C   UNL     1      -7.408  -0.374   1.040  1.00  0.00     0.041 A 
ATOM     20  C   UNL     1      -7.569  -1.613   1.645  1.00  0.00     0.023 A 
ATOM     21  Cl  UNL     1      -8.780   0.536   0.562  1.00  0.00    -0.084 Cl
BRANCH  14  22
ATOM     22  C   UNL     1      -3.485  -3.805   2.031  1.00  0.00     0.262 C 
ATOM     23  O   UNL     1      -2.280  -3.999   2.220  1.00  0.00    -0.268 OA
BRANCH  22  24
ATOM     24  C   UNL     1      -4.255  -5.075   1.973  1.00  0.00     0.040 A 
ATOM     25  C   UNL     1      -3.723  -6.152   2.717  1.00  0.00     0.015 A 
ATOM     26  C   UNL     1      -5.301  -5.330   1.083  1.00  0.00     0.015 A 
ATOM     27  C   UNL     1      -4.210  -7.450   2.572  1.00  0.00     0.021 A 
ATOM     28  C   UNL     1      -5.812  -6.634   0.961  1.00  0.00     0.021 A 
ATOM     29  C   UNL     1      -5.255  -7.687   1.690  1.00  0.00     0.041 A 
ATOM     30  Cl  UNL     1      -5.827  -9.293   1.467  1.00  0.00    -0.084 Cl
ENDBRANCH  22  24
ENDBRANCH  14  22
ENDBRANCH   6   8
ENDBRANCH   3   6
ENDBRANCH   1   2
BRANCH   1  31
ATOM     31  C   UNL     1      -1.570  -1.371  -1.764  1.00  0.00     0.042 C 
BRANCH  31  32
ATOM     32  C   UNL     1      -1.582  -0.944  -3.227  1.00  0.00     0.118 C 
BRANCH  32  33
ATOM     33  N   UNL     1      -1.337  -2.053  -4.138  1.00  0.00    -0.352 N 
ATOM     34  C   UNL     1      -2.087  -2.497  -5.202  1.00  0.00     0.251 C 
ATOM     35  H   UNL     1      -0.511  -2.561  -3.966  1.00  0.00     0.163 HD
ATOM     36  O   UNL     1      -1.809  -3.553  -5.751  1.00  0.00    -0.269 OA
BRANCH  34  37
ATOM     37  C   UNL     1      -3.246  -1.706  -5.669  1.00  0.00     0.039 A 
ATOM     38  C   UNL     1      -4.443  -2.365  -5.967  1.00  0.00     0.014 A 
ATOM     39  C   UNL     1      -3.152  -0.321  -5.821  1.00  0.00     0.014 A 
ATOM     40  C   UNL     1      -5.568  -1.627  -6.348  1.00  0.00     0.010 A 
ATOM     41  C   UNL     1      -4.289   0.418  -6.127  1.00  0.00     0.010 A 
ATOM     42  C   UNL     1      -5.508  -0.227  -6.395  1.00  0.00    -0.014 A 
BRANCH  42  43
ATOM     43  C   UNL     1      -6.688   0.605  -6.745  1.00  0.00     0.031 A 
ATOM     44  C   UNL     1      -6.641   1.470  -7.974  1.00  0.00     0.074 A 
ATOM     45  C   UNL     1      -7.739   0.673  -5.908  1.00  0.00     0.049 A 
ATOM     46  N   UNL     1      -7.463   2.413  -8.361  1.00  0.00    -0.248 NA
ATOM     47  C   UNL     1      -5.489   1.273  -8.866  1.00  0.00     0.031 C 
ATOM     48  C   UNL     1      -7.893  -0.091  -4.669  1.00  0.00     0.029 A 
ATOM     49  N   UNL     1      -8.869   1.452  -5.959  1.00  0.00    -0.354 N 
ATOM     50  C   UNL     1      -6.907   2.944  -9.518  1.00  0.00     0.074 A 
ATOM     51  C   UNL     1      -5.657   2.250  -9.743  1.00  0.00     0.031 C 
ATOM     52  C   UNL     1      -9.048   0.256  -4.077  1.00  0.00     0.029 A 
ATOM     53  C   UNL     1      -9.695   1.295  -4.873  1.00  0.00     0.049 A 
ATOM     54  H   UNL     1      -9.068   2.064  -6.704  1.00  0.00     0.167 HD
ATOM     55  C   UNL     1      -7.402   3.913 -10.326  1.00  0.00     0.037 A 
ATOM     56  C   UNL     1     -10.832   1.937  -4.546  1.00  0.00     0.037 A 
ATOM     57  C   UNL     1      -8.655   4.584 -10.101  1.00  0.00     0.049 A 
ATOM     58  C   UNL     1     -11.353   3.023  -5.444  1.00  0.00     0.074 A 
ATOM     59  C   UNL     1      -9.277   5.538 -10.886  1.00  0.00     0.029 A 
ATOM     60  N   UNL     1      -9.475   4.375  -9.001  1.00  0.00    -0.354 N 
ATOM     61  N   UNL     1     -10.844   3.494  -6.555  1.00  0.00    -0.248 NA
ATOM     62  C   UNL     1     -12.609   3.669  -5.037  1.00  0.00     0.031 C 
ATOM     63  C   UNL     1     -10.442   5.951 -10.232  1.00  0.00     0.029 A 
ATOM     64  C   UNL     1     -10.585   5.202  -9.074  1.00  0.00     0.049 A 
ATOM     65  H   UNL     1      -9.296   3.735  -8.275  1.00  0.00     0.167 HD
ATOM     66  C   UNL     1     -11.728   4.469  -6.997  1.00  0.00     0.074 A 
ATOM     67  C   UNL     1     -12.806   4.525  -6.030  1.00  0.00     0.031 C 
ATOM     68  C   UNL     1     -11.655   5.240  -8.109  1.00  0.00     0.037 A 
BRANCH  55  69
ATOM     69  C   UNL     1      -6.570   4.317 -11.511  1.00  0.00     0.064 A 
ATOM     70  C   UNL     1      -6.324   3.441 -12.580  1.00  0.00     0.173 A 
ATOM     71  C   UNL     1      -6.007   5.601 -11.579  1.00  0.00     0.173 A 
ATOM     72  F   UNL     1      -6.831   2.199 -12.566  1.00  0.00    -0.203 F 
ATOM     73  C   UNL     1      -5.503   3.815 -13.642  1.00  0.00     0.198 A 
ATOM     74  C   UNL     1      -5.220   5.986 -12.662  1.00  0.00     0.198 A 
ATOM     75  F   UNL     1      -6.217   6.486 -10.592  1.00  0.00    -0.203 F 
ATOM     76  F   UNL     1      -5.222   2.933 -14.611  1.00  0.00    -0.200 F 
ATOM     77  C   UNL     1      -4.956   5.088 -13.684  1.00  0.00     0.200 A 
ATOM     78  F   UNL     1      -4.707   7.223 -12.709  1.00  0.00    -0.200 F 
ATOM     79  F   UNL     1      -4.164   5.446 -14.704  1.00  0.00    -0.200 F 
ENDBRANCH  55  69
BRANCH  56  80
ATOM     80  C   UNL     1     -11.562   1.566  -3.309  1.00  0.00     0.064 A 
ATOM     81  C   UNL     1     -12.726   0.789  -3.373  1.00  0.00     0.173 A 
ATOM     82  C   UNL     1     -11.124   1.991  -2.049  1.00  0.00     0.173 A 
ATOM     83  F   UNL     1     -13.205   0.399  -4.563  1.00  0.00    -0.203 F 
ATOM     84  C   UNL     1     -13.423   0.444  -2.218  1.00  0.00     0.198 A 
ATOM     85  C   UNL     1     -11.826   1.649  -0.894  1.00  0.00     0.198 A 
ATOM     86  F   UNL     1     -10.018   2.742  -1.942  1.00  0.00    -0.203 F 
ATOM     87  F   UNL     1     -14.548  -0.279  -2.306  1.00  0.00    -0.200 F 
ATOM     88  C   UNL     1     -12.968   0.867  -0.978  1.00  0.00     0.200 A 
ATOM     89  F   UNL     1     -11.411   2.090   0.300  1.00  0.00    -0.200 F 
ATOM     90  F   UNL     1     -13.637   0.532   0.134  1.00  0.00    -0.200 F 
ENDBRANCH  56  80
BRANCH  68  91
ATOM     91  C   UNL     1     -12.797   6.175  -8.384  1.00  0.00     0.064 A 
ATOM     92  C   UNL     1     -12.991   7.349  -7.644  1.00  0.00     0.173 A 
ATOM     93  C   UNL     1     -13.662   5.924  -9.461  1.00  0.00     0.173 A 
ATOM     94  F   UNL     1     -12.202   7.625  -6.595  1.00  0.00    -0.203 F 
ATOM     95  C   UNL     1     -14.016   8.235  -7.968  1.00  0.00     0.198 A 
ATOM     96  C   UNL     1     -14.665   6.827  -9.800  1.00  0.00     0.198 A 
ATOM     97  F   UNL     1     -13.516   4.815 -10.202  1.00  0.00    -0.203 F 
ATOM     98  F   UNL     1     -14.205   9.337  -7.228  1.00  0.00    -0.200 F 
ATOM     99  C   UNL     1     -14.844   7.980  -9.051  1.00  0.00     0.200 A 
ATOM    100  F   UNL     1     -15.453   6.584 -10.857  1.00  0.00    -0.200 F 
ATOM    101  F   UNL     1     -15.815   8.845  -9.373  1.00  0.00    -0.200 F 
ENDBRANCH  68  91
ENDBRANCH  42  43
ENDBRANCH  34  37
ENDBRANCH  32  33
ENDBRANCH  31  32
ENDBRANCH   1  31
TORSDOF 13
