REMARK SMILES CC(=O)N[C@@H](C(=O)N(CC(=O)NCCCNC(=O)c1ccc(-c2c3nc(c(-c4c(F)c(F)c(F)c(F)c4F)c4ccc([nH]4)c(-c4c(F)c(F)c(F)c(F)c4F)c4nc(c(-c5c(F)c(F)c(F)c(F)c5F)c5ccc2[nH]5)C=C4)C=C3)cc1)C(C)(C)C)C(C)C
REMARK SMILES IDX 13 1 12 2 10 3 11 4 9 6 8 7 6 8 7 9 5 10 4 11 1 12 2 13 3 14
REMARK SMILES IDX 86 16 87 17 88 18 82 19 83 20 84 21 85 22 14 23 15 24 16 25
REMARK SMILES IDX 17 26 18 28 19 29 20 30 81 31 21 32 80 33 22 34 23 35 24 36
REMARK SMILES IDX 74 37 25 38 79 39 73 40 75 41 26 42 78 43 72 44 71 45 27 47
REMARK SMILES IDX 59 48 39 49 58 50 40 51 43 52 57 53 76 54 41 55 42 56 56 58
REMARK SMILES IDX 77 59 44 60 28 61 29 62 37 63 30 64 31 65 35 66 38 67 32 68
REMARK SMILES IDX 33 69 36 70 34 71 60 72 61 73 69 74 62 75 63 76 67 77 70 78
REMARK SMILES IDX 64 79 65 80 68 81 66 82 45 83 46 84 54 85 47 86 48 87 52 88
REMARK SMILES IDX 55 89 49 90 50 91 53 92 51 93
REMARK H PARENT 12 5 4 15 16 27 75 46 43 57
REMARK Flexibility Score: inf
ROOT
ATOM      1  C   UNL     1       1.586   2.704  -3.343  1.00  0.00     0.117 C 
ENDROOT
BRANCH   1   2
ATOM      2  N   UNL     1       2.685   1.908  -3.822  1.00  0.00    -0.354 N 
ATOM      3  C   UNL     1       3.548   1.170  -3.059  1.00  0.00     0.239 C 
ATOM      4  O   UNL     1       4.142   0.238  -3.608  1.00  0.00    -0.273 OA
ATOM      5  H   UNL     1       2.830   1.893  -4.795  1.00  0.00     0.163 HD
BRANCH   3   6
ATOM      6  C   UNL     1       3.686   1.404  -1.535  1.00  0.00     0.220 C 
BRANCH   6   7
ATOM      7  N   UNL     1       3.926   2.787  -1.084  1.00  0.00    -0.327 N 
BRANCH   7   8
ATOM      8  C   UNL     1       2.995   3.514  -0.310  1.00  0.00     0.246 C 
ATOM      9  O   UNL     1       3.102   4.743  -0.221  1.00  0.00    -0.272 OA
BRANCH   8  10
ATOM     10  C   UNL     1       1.824   2.797   0.522  1.00  0.00     0.174 C 
BRANCH  10  11
ATOM     11  N   UNL     1       0.780   2.210  -0.329  1.00  0.00    -0.344 N 
ATOM     12  C   UNL     1       0.810  -0.118   0.503  1.00  0.00     0.114 C 
ATOM     13  C   UNL     1       0.302   0.942  -0.431  1.00  0.00     0.217 C 
ATOM     14  O   UNL     1      -0.543   0.702  -1.291  1.00  0.00    -0.275 OA
ATOM     15  H   UNL     1       0.347   2.853  -0.936  1.00  0.00     0.164 HD
ENDBRANCH  10  11
BRANCH  10  16
ATOM     16  C   UNL     1       1.103   3.844   1.443  1.00  0.00     0.015 C 
ATOM     17  C   UNL     1      -0.238   3.344   2.008  1.00  0.00     0.010 C 
ATOM     18  C   UNL     1       1.983   4.294   2.612  1.00  0.00     0.010 C 
ENDBRANCH  10  16
ENDBRANCH   8  10
ENDBRANCH   7   8
BRANCH   7  19
ATOM     19  C   UNL     1       5.244   3.446  -1.494  1.00  0.00     0.035 C 
ATOM     20  C   UNL     1       5.040   4.653  -2.434  1.00  0.00     0.034 C 
ATOM     21  C   UNL     1       6.014   3.900  -0.233  1.00  0.00     0.034 C 
ATOM     22  C   UNL     1       6.224   2.506  -2.255  1.00  0.00     0.034 C 
ENDBRANCH   7  19
ENDBRANCH   6   7
ENDBRANCH   3   6
ENDBRANCH   1   2
BRANCH   1  23
ATOM     23  C   UNL     1       1.587   4.157  -3.755  1.00  0.00     0.042 C 
BRANCH  23  24
ATOM     24  C   UNL     1       1.329   4.341  -5.229  1.00  0.00     0.118 C 
BRANCH  24  25
ATOM     25  N   UNL     1      -0.062   4.077  -5.572  1.00  0.00    -0.352 N 
ATOM     26  C   UNL     1      -1.001   4.937  -6.088  1.00  0.00     0.251 C 
ATOM     27  H   UNL     1      -0.373   3.157  -5.411  1.00  0.00     0.163 HD
ATOM     28  O   UNL     1      -2.186   4.622  -6.118  1.00  0.00    -0.269 OA
BRANCH  26  29
ATOM     29  C   UNL     1      -0.572   6.259  -6.588  1.00  0.00     0.039 A 
ATOM     30  C   UNL     1      -1.335   7.390  -6.288  1.00  0.00     0.014 A 
ATOM     31  C   UNL     1       0.606   6.381  -7.327  1.00  0.00     0.014 A 
ATOM     32  C   UNL     1      -0.879   8.651  -6.678  1.00  0.00     0.010 A 
ATOM     33  C   UNL     1       1.118   7.639  -7.603  1.00  0.00     0.010 A 
ATOM     34  C   UNL     1       0.369   8.787  -7.306  1.00  0.00    -0.014 A 
BRANCH  34  35
ATOM     35  C   UNL     1       0.903  10.105  -7.728  1.00  0.00     0.031 A 
ATOM     36  C   UNL     1       1.194  10.343  -9.186  1.00  0.00     0.074 A 
ATOM     37  C   UNL     1       1.207  11.042  -6.810  1.00  0.00     0.049 A 
ATOM     38  N   UNL     1       1.801  11.351  -9.758  1.00  0.00    -0.248 NA
ATOM     39  C   UNL     1       0.786   9.281 -10.122  1.00  0.00     0.031 C 
ATOM     40  C   UNL     1       1.007  10.914  -5.367  1.00  0.00     0.029 A 
ATOM     41  N   UNL     1       1.770  12.285  -6.958  1.00  0.00    -0.354 N 
ATOM     42  C   UNL     1       1.875  11.026 -11.107  1.00  0.00     0.074 A 
ATOM     43  C   UNL     1       1.311   9.705 -11.261  1.00  0.00     0.031 C 
ATOM     44  C   UNL     1       1.418  12.041  -4.764  1.00  0.00     0.029 A 
ATOM     45  C   UNL     1       1.957  12.950  -5.771  1.00  0.00     0.049 A 
ATOM     46  H   UNL     1       2.017  12.664  -7.832  1.00  0.00     0.167 HD
ATOM     47  C   UNL     1       2.348  11.775 -12.130  1.00  0.00     0.037 A 
ATOM     48  C   UNL     1       2.515  14.151  -5.526  1.00  0.00     0.037 A 
ATOM     49  C   UNL     1       2.866  13.107 -11.974  1.00  0.00     0.049 A 
ATOM     50  C   UNL     1       3.037  14.964  -6.682  1.00  0.00     0.074 A 
ATOM     51  C   UNL     1       3.310  13.979 -12.952  1.00  0.00     0.029 A 
ATOM     52  N   UNL     1       3.007  13.760 -10.758  1.00  0.00    -0.354 N 
ATOM     53  N   UNL     1       3.049  14.675  -7.961  1.00  0.00    -0.248 NA
ATOM     54  C   UNL     1       3.619  16.275  -6.361  1.00  0.00     0.031 C 
ATOM     55  C   UNL     1       3.769  15.139 -12.323  1.00  0.00     0.029 A 
ATOM     56  C   UNL     1       3.551  15.017 -10.960  1.00  0.00     0.049 A 
ATOM     57  H   UNL     1       2.759  13.385  -9.882  1.00  0.00     0.167 HD
ATOM     58  C   UNL     1       3.595  15.780  -8.599  1.00  0.00     0.074 A 
ATOM     59  C   UNL     1       3.901  16.748  -7.567  1.00  0.00     0.031 C 
ATOM     60  C   UNL     1       3.818  15.978  -9.921  1.00  0.00     0.037 A 
BRANCH  47  61
ATOM     61  C   UNL     1       2.323  11.174 -13.506  1.00  0.00     0.064 A 
ATOM     62  C   UNL     1       1.120  10.924 -14.183  1.00  0.00     0.173 A 
ATOM     63  C   UNL     1       3.522  10.875 -14.170  1.00  0.00     0.173 A 
ATOM     64  F   UNL     1      -0.056  11.178 -13.589  1.00  0.00    -0.203 F 
ATOM     65  C   UNL     1       1.117  10.367 -15.459  1.00  0.00     0.198 A 
ATOM     66  C   UNL     1       3.517  10.352 -15.461  1.00  0.00     0.198 A 
ATOM     67  F   UNL     1       4.702  11.098 -13.572  1.00  0.00    -0.203 F 
ATOM     68  F   UNL     1      -0.046  10.084 -16.062  1.00  0.00    -0.200 F 
ATOM     69  C   UNL     1       2.315  10.090 -16.100  1.00  0.00     0.200 A 
ATOM     70  F   UNL     1       4.676  10.100 -16.085  1.00  0.00    -0.200 F 
ATOM     71  F   UNL     1       2.311   9.564 -17.333  1.00  0.00    -0.200 F 
ENDBRANCH  47  61
BRANCH  48  72
ATOM     72  C   UNL     1       2.587  14.672  -4.135  1.00  0.00     0.064 A 
ATOM     73  C   UNL     1       1.825  15.783  -3.744  1.00  0.00     0.173 A 
ATOM     74  C   UNL     1       3.424  14.087  -3.174  1.00  0.00     0.173 A 
ATOM     75  F   UNL     1       1.024  16.390  -4.632  1.00  0.00    -0.203 F 
ATOM     76  C   UNL     1       1.918  16.304  -2.455  1.00  0.00     0.198 A 
ATOM     77  C   UNL     1       3.493  14.590  -1.876  1.00  0.00     0.198 A 
ATOM     78  F   UNL     1       4.170  13.020  -3.493  1.00  0.00    -0.203 F 
ATOM     79  F   UNL     1       1.219  17.399  -2.126  1.00  0.00    -0.200 F 
ATOM     80  C   UNL     1       2.748  15.704  -1.520  1.00  0.00     0.200 A 
ATOM     81  F   UNL     1       4.285  13.998  -0.971  1.00  0.00    -0.200 F 
ATOM     82  F   UNL     1       2.837  16.206  -0.281  1.00  0.00    -0.200 F 
ENDBRANCH  48  72
BRANCH  60  83
ATOM     83  C   UNL     1       4.355  17.315 -10.345  1.00  0.00     0.064 A 
ATOM     84  C   UNL     1       5.679  17.698 -10.092  1.00  0.00     0.173 A 
ATOM     85  C   UNL     1       3.543  18.194 -11.080  1.00  0.00     0.173 A 
ATOM     86  F   UNL     1       6.490  16.899  -9.383  1.00  0.00    -0.203 F 
ATOM     87  C   UNL     1       6.166  18.922 -10.544  1.00  0.00     0.198 A 
ATOM     88  C   UNL     1       4.044  19.401 -11.558  1.00  0.00     0.198 A 
ATOM     89  F   UNL     1       2.271  17.870 -11.355  1.00  0.00    -0.203 F 
ATOM     90  F   UNL     1       7.423  19.287 -10.257  1.00  0.00    -0.200 F 
ATOM     91  C   UNL     1       5.353  19.766 -11.285  1.00  0.00     0.200 A 
ATOM     92  F   UNL     1       3.261  20.206 -12.290  1.00  0.00    -0.200 F 
ATOM     93  F   UNL     1       5.830  20.935 -11.735  1.00  0.00    -0.200 F 
ENDBRANCH  60  83
ENDBRANCH  34  35
ENDBRANCH  26  29
ENDBRANCH  24  25
ENDBRANCH  23  24
ENDBRANCH   1  23
TORSDOF 16
