REMARK SMILES [NH3+][C@@H]1CCCCC[C@H]1C(=O)NCC(=O)NCCCNC(=O)c1ccc(-c2c3nc(c(-c4c(F)c(F)c(F)c(F)c4F)c4ccc([nH]4)c(-c4c(F)c(F)c(F)c(F)c4F)c4nc(c(-c5c(F)c(F)c(F)c(F)c5F)c5ccc2[nH]5)C=C4)C=C3)cc1
REMARK SMILES IDX 13 1 14 2 15 3 12 5 11 6 9 7 10 8 8 10 2 11 1 12 3 16 7 18
REMARK SMILES IDX 6 19 5 20 4 21 16 23 17 24 18 25 19 26 20 27 21 29 22 30
REMARK SMILES IDX 23 31 84 32 24 33 83 34 25 35 26 36 27 37 77 38 28 39 82 40
REMARK SMILES IDX 76 41 78 42 29 43 81 44 75 45 74 46 30 48 62 49 42 50 61 51
REMARK SMILES IDX 43 52 46 53 60 54 79 55 44 56 45 57 59 59 80 60 47 61 31 62
REMARK SMILES IDX 32 63 40 64 33 65 34 66 38 67 41 68 35 69 36 70 39 71 37 72
REMARK SMILES IDX 63 73 64 74 72 75 65 76 66 77 70 78 73 79 67 80 68 81 71 82
REMARK SMILES IDX 69 83 48 84 49 85 57 86 50 87 51 88 55 89 58 90 52 91 53 92
REMARK SMILES IDX 56 93 54 94
REMARK H PARENT 15 4 11 9 1 13 1 14 1 15 19 28 78 47 46 58
REMARK Flexibility Score: 90.00
ROOT
ATOM      1  C   UNL     1       3.163   1.682   3.185  1.00  0.00     0.239 C 
ATOM      2  O   UNL     1       3.948   1.955   4.094  1.00  0.00    -0.273 OA
ATOM      3  N   UNL     1       3.681   1.443   1.940  1.00  0.00    -0.355 N 
ATOM      4  H   UNL     1       4.627   1.682   1.809  1.00  0.00     0.163 HD
ENDROOT
BRANCH   1   5
ATOM      5  C   UNL     1       1.662   1.469   3.462  1.00  0.00     0.216 C 
BRANCH   5   6
ATOM      6  N   UNL     1       0.798   2.223   2.562  1.00  0.00    -0.347 N 
ATOM      7  C   UNL     1      -0.296   1.870   1.837  1.00  0.00     0.229 C 
ATOM      8  O   UNL     1      -0.720   2.715   1.041  1.00  0.00    -0.275 OA
ATOM      9  H   UNL     1       1.056   3.168   2.460  1.00  0.00     0.164 HD
BRANCH   7  10
ATOM     10  C   UNL     1      -0.973   0.491   1.933  1.00  0.00     0.136 C 
BRANCH  10  11
ATOM     11  C   UNL     1      -0.151  -0.622   1.234  1.00  0.00     0.193 C 
BRANCH  11  12
ATOM     12  N   UNL     1      -0.142  -0.407  -0.222  1.00  0.00    -0.354 N 
ATOM     13  H   UNL     1       0.401  -1.144  -0.671  1.00  0.00     0.344 HD
ATOM     14  H   UNL     1       0.278   0.499  -0.429  1.00  0.00     0.344 HD
ATOM     15  H   UNL     1      -1.099  -0.426  -0.574  1.00  0.00     0.344 HD
ENDBRANCH  11  12
BRANCH  11  16
ATOM     16  C   UNL     1      -0.596  -2.075   1.453  1.00  0.00     0.066 CG0
ATOM     17  G   UNL     1      -0.448  -2.526   2.902  1.00  0.00     0.000 G0
ENDBRANCH  11  16
ENDBRANCH  10  11
BRANCH  10  18
ATOM     18  C   UNL     1      -1.432   0.243   3.379  1.00  0.00     0.020 C 
BRANCH  18  19
ATOM     19  C   UNL     1      -2.389  -0.938   3.510  1.00  0.00     0.001 C 
BRANCH  19  20
ATOM     20  C   UNL     1      -1.686  -2.269   3.752  1.00  0.00     0.000 C 
BRANCH  20  21
ATOM     21  C   UNL     1      -0.448  -2.526   2.902  1.00  0.00     0.006 CG0
ATOM     22  G   UNL     1      -0.596  -2.075   1.453  1.00  0.00     0.000 G0
ENDBRANCH  20  21
ENDBRANCH  19  20
ENDBRANCH  18  19
ENDBRANCH  10  18
ENDBRANCH   7  10
ENDBRANCH   5   6
ENDBRANCH   1   5
BRANCH   3  23
ATOM     23  C   UNL     1       3.001   0.879   0.796  1.00  0.00     0.117 C 
BRANCH  23  24
ATOM     24  C   UNL     1       3.264   1.606  -0.504  1.00  0.00     0.042 C 
BRANCH  24  25
ATOM     25  C   UNL     1       4.577   1.206  -1.145  1.00  0.00     0.118 C 
BRANCH  25  26
ATOM     26  N   UNL     1       4.558  -0.158  -1.672  1.00  0.00    -0.352 N 
ATOM     27  C   UNL     1       4.589  -0.623  -2.968  1.00  0.00     0.251 C 
ATOM     28  H   UNL     1       4.516  -0.862  -0.985  1.00  0.00     0.163 HD
ATOM     29  O   UNL     1       4.398  -1.812  -3.192  1.00  0.00    -0.269 OA
BRANCH  27  30
ATOM     30  C   UNL     1       4.816   0.314  -4.090  1.00  0.00     0.039 A 
ATOM     31  C   UNL     1       4.082   0.167  -5.271  1.00  0.00     0.014 A 
ATOM     32  C   UNL     1       5.736   1.354  -3.971  1.00  0.00     0.014 A 
ATOM     33  C   UNL     1       4.190   1.130  -6.279  1.00  0.00     0.010 A 
ATOM     34  C   UNL     1       5.745   2.374  -4.910  1.00  0.00     0.010 A 
ATOM     35  C   UNL     1       4.975   2.275  -6.078  1.00  0.00    -0.014 A 
BRANCH  35  36
ATOM     36  C   UNL     1       5.038   3.389  -7.059  1.00  0.00     0.031 A 
ATOM     37  C   UNL     1       6.372   3.812  -7.615  1.00  0.00     0.074 A 
ATOM     38  C   UNL     1       3.930   4.101  -7.348  1.00  0.00     0.049 A 
ATOM     39  N   UNL     1       6.688   4.884  -8.295  1.00  0.00    -0.248 NA
ATOM     40  C   UNL     1       7.515   2.933  -7.317  1.00  0.00     0.031 C 
ATOM     41  C   UNL     1       2.586   3.830  -6.836  1.00  0.00     0.029 A 
ATOM     42  N   UNL     1       3.767   5.221  -8.126  1.00  0.00    -0.354 N 
ATOM     43  C   UNL     1       8.066   4.831  -8.459  1.00  0.00     0.074 A 
ATOM     44  C   UNL     1       8.533   3.650  -7.767  1.00  0.00     0.031 C 
ATOM     45  C   UNL     1       1.734   4.743  -7.328  1.00  0.00     0.029 A 
ATOM     46  C   UNL     1       2.477   5.694  -8.148  1.00  0.00     0.049 A 
ATOM     47  H   UNL     1       4.505   5.646  -8.621  1.00  0.00     0.167 HD
ATOM     48  C   UNL     1       8.868   5.678  -9.146  1.00  0.00     0.037 A 
ATOM     49  C   UNL     1       1.957   6.782  -8.747  1.00  0.00     0.037 A 
ATOM     50  C   UNL     1       8.390   6.813  -9.888  1.00  0.00     0.049 A 
ATOM     51  C   UNL     1       2.862   7.686  -9.540  1.00  0.00     0.074 A 
ATOM     52  C   UNL     1       9.109   7.691 -10.680  1.00  0.00     0.029 A 
ATOM     53  N   UNL     1       7.064   7.217  -9.941  1.00  0.00    -0.354 N 
ATOM     54  N   UNL     1       4.157   7.601  -9.727  1.00  0.00    -0.248 NA
ATOM     55  C   UNL     1       2.234   8.835 -10.207  1.00  0.00     0.031 C 
ATOM     56  C   UNL     1       8.221   8.644 -11.190  1.00  0.00     0.029 A 
ATOM     57  C   UNL     1       6.944   8.335 -10.749  1.00  0.00     0.049 A 
ATOM     58  H   UNL     1       6.319   6.774  -9.473  1.00  0.00     0.167 HD
ATOM     59  C   UNL     1       4.492   8.661 -10.558  1.00  0.00     0.074 A 
ATOM     60  C   UNL     1       3.264   9.374 -10.843  1.00  0.00     0.031 C 
ATOM     61  C   UNL     1       5.708   9.011 -11.043  1.00  0.00     0.037 A 
BRANCH  48  62
ATOM     62  C   UNL     1      10.343   5.401  -9.136  1.00  0.00     0.064 A 
ATOM     63  C   UNL     1      10.889   4.296  -9.807  1.00  0.00     0.173 A 
ATOM     64  C   UNL     1      11.225   6.266  -8.471  1.00  0.00     0.173 A 
ATOM     65  F   UNL     1      10.088   3.430 -10.446  1.00  0.00    -0.203 F 
ATOM     66  C   UNL     1      12.259   4.048  -9.783  1.00  0.00     0.198 A 
ATOM     67  C   UNL     1      12.598   6.032  -8.477  1.00  0.00     0.198 A 
ATOM     68  F   UNL     1      10.757   7.340  -7.818  1.00  0.00    -0.203 F 
ATOM     69  F   UNL     1      12.750   2.955 -10.383  1.00  0.00    -0.200 F 
ATOM     70  C   UNL     1      13.113   4.920  -9.125  1.00  0.00     0.200 A 
ATOM     71  F   UNL     1      13.424   6.883  -7.850  1.00  0.00    -0.200 F 
ATOM     72  F   UNL     1      14.431   4.682  -9.107  1.00  0.00    -0.200 F 
ENDBRANCH  48  62
BRANCH  49  73
ATOM     73  C   UNL     1       0.501   7.061  -8.646  1.00  0.00     0.064 A 
ATOM     74  C   UNL     1      -0.335   6.899  -9.760  1.00  0.00     0.173 A 
ATOM     75  C   UNL     1      -0.085   7.488  -7.447  1.00  0.00     0.173 A 
ATOM     76  F   UNL     1       0.183   6.512 -10.935  1.00  0.00    -0.203 F 
ATOM     77  C   UNL     1      -1.699   7.173  -9.682  1.00  0.00     0.198 A 
ATOM     78  C   UNL     1      -1.453   7.737  -7.363  1.00  0.00     0.198 A 
ATOM     79  F   UNL     1       0.672   7.653  -6.351  1.00  0.00    -0.203 F 
ATOM     80  F   UNL     1      -2.467   7.052 -10.774  1.00  0.00    -0.200 F 
ATOM     81  C   UNL     1      -2.258   7.587  -8.483  1.00  0.00     0.200 A 
ATOM     82  F   UNL     1      -1.992   8.126  -6.200  1.00  0.00    -0.200 F 
ATOM     83  F   UNL     1      -3.570   7.848  -8.408  1.00  0.00    -0.200 F 
ENDBRANCH  49  73
BRANCH  61  84
ATOM     84  C   UNL     1       5.769  10.179 -11.979  1.00  0.00     0.064 A 
ATOM     85  C   UNL     1       5.649  11.498 -11.520  1.00  0.00     0.173 A 
ATOM     86  C   UNL     1       6.020   9.975 -13.345  1.00  0.00     0.173 A 
ATOM     87  F   UNL     1       5.396  11.742 -10.226  1.00  0.00    -0.203 F 
ATOM     88  C   UNL     1       5.766  12.572 -12.399  1.00  0.00     0.198 A 
ATOM     89  C   UNL     1       6.160  11.051 -14.215  1.00  0.00     0.198 A 
ATOM     90  F   UNL     1       6.149   8.730 -13.829  1.00  0.00    -0.203 F 
ATOM     91  F   UNL     1       5.617  13.824 -11.946  1.00  0.00    -0.200 F 
ATOM     92  C   UNL     1       6.030  12.348 -13.742  1.00  0.00     0.200 A 
ATOM     93  F   UNL     1       6.429  10.833 -15.510  1.00  0.00    -0.200 F 
ATOM     94  F   UNL     1       6.156  13.383 -14.583  1.00  0.00    -0.200 F 
ENDBRANCH  61  84
ENDBRANCH  35  36
ENDBRANCH  27  30
ENDBRANCH  25  26
ENDBRANCH  24  25
ENDBRANCH  23  24
ENDBRANCH   3  23
TORSDOF 13
