REMARK SMILES O=C(CCc1cc2n(n1)CCCN(S(=O)(=O)CCC(F)(F)F)C2)NCCCNC(=O)c1ccc(-c2c3nc(c(-c4c(F)c(F)c(F)c(F)c4F)c4ccc([nH]4)c(-c4c(F)c(F)c(F)c(F)c4F)c4nc(c(-c5c(F)c(F)c(F)c(F)c5F)c5ccc2[nH]5)C=C4)C=C3)cc1
REMARK SMILES IDX 3 1 2 2 1 3 24 4 25 6 26 7 27 8 28 9 29 10 30 12 31 13 32 14
REMARK SMILES IDX 93 15 33 16 92 17 34 18 35 19 36 20 86 21 37 22 91 23 85 24
REMARK SMILES IDX 87 25 38 26 90 27 84 28 83 29 39 31 71 32 51 33 70 34 52 35
REMARK SMILES IDX 55 36 69 37 88 38 53 39 54 40 68 42 89 43 56 44 40 45 41 46
REMARK SMILES IDX 49 47 42 48 43 49 47 50 50 51 44 52 45 53 48 54 46 55 72 56
REMARK SMILES IDX 73 57 81 58 74 59 75 60 79 61 82 62 76 63 77 64 80 65 78 66
REMARK SMILES IDX 57 67 58 68 66 69 59 70 60 71 64 72 67 73 61 74 62 75 65 76
REMARK SMILES IDX 63 77 4 78 5 79 6 80 9 81 7 82 8 83 23 84 13 85 12 86 14 88
REMARK SMILES IDX 15 89 16 90 17 91 18 92 19 93 20 94 21 95 22 96 10 97 11 98
REMARK H PARENT 24 5 28 11 87 30 55 41
REMARK Flexibility Score: 90.00
ROOT
ATOM      1  C   UNL     1       2.897  -0.874   0.893  1.00  0.00     0.106 C 
ENDROOT
BRANCH   1   2
ATOM      2  C   UNL     1       1.848  -0.199   0.008  1.00  0.00     0.220 C 
ATOM      3  O   UNL     1       0.666  -0.529   0.044  1.00  0.00    -0.275 OA
ATOM      4  N   UNL     1       2.327   0.805  -0.803  1.00  0.00    -0.356 N 
ATOM      5  H   UNL     1       3.258   1.096  -0.671  1.00  0.00     0.163 HD
BRANCH   4   6
ATOM      6  C   UNL     1       1.551   1.463  -1.843  1.00  0.00     0.117 C 
BRANCH   6   7
ATOM      7  C   UNL     1       1.509   2.987  -1.731  1.00  0.00     0.042 C 
BRANCH   7   8
ATOM      8  C   UNL     1       2.866   3.670  -1.802  1.00  0.00     0.118 C 
BRANCH   8   9
ATOM      9  N   UNL     1       3.473   3.881  -3.109  1.00  0.00    -0.352 N 
ATOM     10  C   UNL     1       4.669   4.507  -3.449  1.00  0.00     0.251 C 
ATOM     11  H   UNL     1       2.957   3.527  -3.869  1.00  0.00     0.163 HD
ATOM     12  O   UNL     1       4.951   4.596  -4.644  1.00  0.00    -0.269 OA
BRANCH  10  13
ATOM     13  C   UNL     1       5.693   4.939  -2.432  1.00  0.00     0.039 A 
ATOM     14  C   UNL     1       6.996   5.300  -2.841  1.00  0.00     0.014 A 
ATOM     15  C   UNL     1       5.480   4.791  -1.069  1.00  0.00     0.014 A 
ATOM     16  C   UNL     1       8.065   5.304  -1.914  1.00  0.00     0.010 A 
ATOM     17  C   UNL     1       6.528   4.702  -0.178  1.00  0.00     0.010 A 
ATOM     18  C   UNL     1       7.837   4.898  -0.593  1.00  0.00    -0.014 A 
BRANCH  18  19
ATOM     19  C   UNL     1       8.805   4.985   0.510  1.00  0.00     0.031 A 
ATOM     20  C   UNL     1       8.799   6.356   1.064  1.00  0.00     0.074 A 
ATOM     21  C   UNL     1       9.323   3.959   1.226  1.00  0.00     0.049 A 
ATOM     22  N   UNL     1       9.579   7.327   0.718  1.00  0.00    -0.248 NA
ATOM     23  C   UNL     1       7.632   6.786   1.862  1.00  0.00     0.031 C 
ATOM     24  C   UNL     1       9.114   2.538   1.010  1.00  0.00     0.029 A 
ATOM     25  N   UNL     1      10.105   3.952   2.350  1.00  0.00    -0.354 N 
ATOM     26  C   UNL     1       9.149   8.388   1.502  1.00  0.00     0.074 A 
ATOM     27  C   UNL     1       7.778   8.112   1.813  1.00  0.00     0.031 C 
ATOM     28  C   UNL     1       9.595   1.800   2.030  1.00  0.00     0.029 A 
ATOM     29  C   UNL     1      10.260   2.695   2.949  1.00  0.00     0.049 A 
ATOM     30  H   UNL     1      10.526   4.766   2.709  1.00  0.00     0.167 HD
ATOM     31  C   UNL     1      10.047   9.081   2.257  1.00  0.00     0.037 A 
ATOM     32  C   UNL     1      10.924   2.382   4.091  1.00  0.00     0.037 A 
ATOM     33  C   UNL     1      11.392   8.698   1.893  1.00  0.00     0.049 A 
ATOM     34  C   UNL     1      11.889   3.475   4.324  1.00  0.00     0.074 A 
ATOM     35  C   UNL     1      12.236   8.897   0.823  1.00  0.00     0.029 A 
ATOM     36  N   UNL     1      11.851   7.600   2.575  1.00  0.00    -0.354 N 
ATOM     37  N   UNL     1      12.909   3.694   3.540  1.00  0.00    -0.248 NA
ATOM     38  C   UNL     1      11.504   4.587   5.185  1.00  0.00     0.031 C 
ATOM     39  C   UNL     1      13.164   7.813   0.833  1.00  0.00     0.029 A 
ATOM     40  C   UNL     1      12.902   7.004   1.934  1.00  0.00     0.049 A 
ATOM     41  H   UNL     1      11.469   7.279   3.423  1.00  0.00     0.167 HD
ATOM     42  C   UNL     1      12.988   5.070   3.481  1.00  0.00     0.074 A 
ATOM     43  C   UNL     1      12.235   5.558   4.629  1.00  0.00     0.031 C 
ATOM     44  C   UNL     1      13.348   5.687   2.321  1.00  0.00     0.037 A 
BRANCH  31  45
ATOM     45  C   UNL     1       9.774   9.675   3.628  1.00  0.00     0.064 A 
ATOM     46  C   UNL     1      10.763  10.507   4.190  1.00  0.00     0.173 A 
ATOM     47  C   UNL     1       8.754   9.273   4.522  1.00  0.00     0.173 A 
ATOM     48  F   UNL     1      11.787  10.945   3.443  1.00  0.00    -0.203 F 
ATOM     49  C   UNL     1      10.766  10.845   5.547  1.00  0.00     0.198 A 
ATOM     50  C   UNL     1       8.733   9.654   5.862  1.00  0.00     0.198 A 
ATOM     51  F   UNL     1       7.789   8.410   4.192  1.00  0.00    -0.203 F 
ATOM     52  F   UNL     1      11.790  11.544   6.054  1.00  0.00    -0.200 F 
ATOM     53  C   UNL     1       9.754  10.414   6.383  1.00  0.00     0.200 A 
ATOM     54  F   UNL     1       7.751   9.202   6.656  1.00  0.00    -0.200 F 
ATOM     55  F   UNL     1       9.782  10.688   7.693  1.00  0.00    -0.200 F 
ENDBRANCH  31  45
BRANCH  32  56
ATOM     56  C   UNL     1      10.707   1.293   5.076  1.00  0.00     0.064 A 
ATOM     57  C   UNL     1      11.722   0.886   5.961  1.00  0.00     0.173 A 
ATOM     58  C   UNL     1       9.406   0.844   5.373  1.00  0.00     0.173 A 
ATOM     59  F   UNL     1      12.986   1.288   5.768  1.00  0.00    -0.203 F 
ATOM     60  C   UNL     1      11.443   0.122   7.102  1.00  0.00     0.198 A 
ATOM     61  C   UNL     1       9.129   0.083   6.512  1.00  0.00     0.198 A 
ATOM     62  F   UNL     1       8.367   1.226   4.616  1.00  0.00    -0.203 F 
ATOM     63  F   UNL     1      12.427  -0.184   7.960  1.00  0.00    -0.200 F 
ATOM     64  C   UNL     1      10.144  -0.262   7.387  1.00  0.00     0.200 A 
ATOM     65  F   UNL     1       7.862  -0.251   6.797  1.00  0.00    -0.200 F 
ATOM     66  F   UNL     1       9.863  -0.919   8.521  1.00  0.00    -0.200 F 
ENDBRANCH  32  56
BRANCH  44  67
ATOM     67  C   UNL     1      14.159   4.893   1.348  1.00  0.00     0.064 A 
ATOM     68  C   UNL     1      13.672   3.825   0.577  1.00  0.00     0.173 A 
ATOM     69  C   UNL     1      15.487   5.289   1.144  1.00  0.00     0.173 A 
ATOM     70  F   UNL     1      12.393   3.436   0.660  1.00  0.00    -0.203 F 
ATOM     71  C   UNL     1      14.496   3.168  -0.336  1.00  0.00     0.198 A 
ATOM     72  C   UNL     1      16.297   4.652   0.211  1.00  0.00     0.198 A 
ATOM     73  F   UNL     1      15.987   6.331   1.827  1.00  0.00    -0.203 F 
ATOM     74  F   UNL     1      14.014   2.151  -1.065  1.00  0.00    -0.200 F 
ATOM     75  C   UNL     1      15.805   3.585  -0.521  1.00  0.00     0.200 A 
ATOM     76  F   UNL     1      17.546   5.091   0.005  1.00  0.00    -0.200 F 
ATOM     77  F   UNL     1      16.583   2.976  -1.427  1.00  0.00    -0.200 F 
ENDBRANCH  44  67
ENDBRANCH  18  19
ENDBRANCH  10  13
ENDBRANCH   8   9
ENDBRANCH   7   8
ENDBRANCH   6   7
ENDBRANCH   4   6
ENDBRANCH   1   2
BRANCH   1  78
ATOM     78  C   UNL     1       3.778  -1.903   0.163  1.00  0.00     0.068 C 
BRANCH  78  79
ATOM     79  C   UNL     1       4.885  -1.335  -0.677  1.00  0.00     0.063 A 
ATOM     80  C   UNL     1       6.035  -1.966  -1.230  1.00  0.00     0.050 A 
ATOM     81  N   UNL     1       4.837  -0.057  -1.049  1.00  0.00    -0.178 NA
ATOM     82  C   UNL     1       6.640  -1.017  -2.045  1.00  0.00     0.054 A 
ATOM     83  N   UNL     1       5.800   0.059  -1.969  1.00  0.00    -0.268 N 
BRANCH  82  84
ATOM     84  C   UNL     1       7.857  -1.071  -2.940  1.00  0.00     0.157 C 
BRANCH  84  85
ATOM     85  N   UNL     1       8.820   0.076  -2.805  1.00  0.00    -0.196 NA
BRANCH  85  86
ATOM     86  C   UNL     1       8.313   1.211  -2.054  1.00  0.00     0.104 CG0
ATOM     87  G   UNL     1       7.224   1.900  -2.831  1.00  0.00     0.000 G0
ENDBRANCH  85  86
BRANCH  85  88
ATOM     88  S   UNL     1      10.422  -0.353  -2.520  1.00  0.00     0.214 S 
ATOM     89  O   UNL     1      10.484  -0.791  -1.145  1.00  0.00    -0.212 OA
ATOM     90  O   UNL     1      10.825  -1.240  -3.595  1.00  0.00    -0.212 OA
BRANCH  88  91
ATOM     91  C   UNL     1      11.422   1.141  -2.639  1.00  0.00     0.163 C 
BRANCH  91  92
ATOM     92  C   UNL     1      11.588   1.776  -4.010  1.00  0.00     0.133 C 
BRANCH  92  93
ATOM     93  C   UNL     1      10.373   2.489  -4.539  1.00  0.00     0.390 C 
ATOM     94  F   UNL     1       9.854   3.320  -3.610  1.00  0.00    -0.171 F 
ATOM     95  F   UNL     1      10.699   3.246  -5.610  1.00  0.00    -0.171 F 
ATOM     96  F   UNL     1       9.417   1.633  -4.934  1.00  0.00    -0.171 F 
ENDBRANCH  92  93
ENDBRANCH  91  92
ENDBRANCH  88  91
ENDBRANCH  85  88
ENDBRANCH  84  85
ENDBRANCH  82  84
BRANCH  83  97
ATOM     97  C   UNL     1       5.853   1.300  -2.690  1.00  0.00     0.146 C 
BRANCH  97  98
ATOM     98  C   UNL     1       7.224   1.900  -2.831  1.00  0.00     0.040 CG0
ATOM     99  G   UNL     1       8.313   1.211  -2.054  1.00  0.00     0.000 G0
ENDBRANCH  97  98
ENDBRANCH  83  97
ENDBRANCH  78  79
ENDBRANCH   1  78
TORSDOF 16
