REMARK SMILES CC(C)(CC(=O)NCCCNC(=O)c1ccc(-c2c3nc(c(-c4c(F)c(F)c(F)c(F)c4F)c4ccc([nH]4)c(-c4c(F)c(F)c(F)c(F)c4F)c4nc(c(-c5c(F)c(F)c(F)c(F)c5F)c5ccc2[nH]5)C=C4)C=C3)cc1)Cc1nc([C@@]2(C)CCCO2)no1
REMARK SMILES IDX 8 1 7 2 5 3 6 4 4 6 2 7 1 8 3 9 77 10 78 11 79 12 88 13
REMARK SMILES IDX 80 14 87 15 81 16 82 17 83 18 86 19 84 20 85 21 9 22 10 23
REMARK SMILES IDX 11 24 12 25 13 27 14 28 15 29 76 30 16 31 75 32 17 33 18 34
REMARK SMILES IDX 19 35 69 36 20 37 74 38 68 39 70 40 21 41 73 42 67 43 66 44
REMARK SMILES IDX 22 46 54 47 34 48 53 49 35 50 38 51 52 52 71 53 36 54 37 55
REMARK SMILES IDX 51 57 72 58 39 59 23 60 24 61 32 62 25 63 26 64 30 65 33 66
REMARK SMILES IDX 27 67 28 68 31 69 29 70 55 71 56 72 64 73 57 74 58 75 62 76
REMARK SMILES IDX 65 77 59 78 60 79 63 80 61 81 40 82 41 83 49 84 42 85 43 86
REMARK SMILES IDX 47 87 50 88 44 89 45 90 48 91 46 92
REMARK H PARENT 7 5 11 26 70 45 38 56
REMARK Flexibility Score: inf
ROOT
ATOM      1  C   UNL     1      -0.886   0.590  -1.754  1.00  0.00     0.117 C 
ENDROOT
BRANCH   1   2
ATOM      2  N   UNL     1      -1.491  -0.661  -1.331  1.00  0.00    -0.356 N 
ATOM      3  C   UNL     1      -1.522  -1.289  -0.130  1.00  0.00     0.220 C 
ATOM      4  O   UNL     1      -2.161  -2.340  -0.044  1.00  0.00    -0.275 OA
ATOM      5  H   UNL     1      -1.967  -1.140  -2.048  1.00  0.00     0.163 HD
BRANCH   3   6
ATOM      6  C   UNL     1      -0.818  -0.723   1.083  1.00  0.00     0.107 C 
BRANCH   6   7
ATOM      7  C   UNL     1       0.622  -1.213   1.413  1.00  0.00    -0.018 C 
ATOM      8  C   UNL     1       1.697  -0.372   0.697  1.00  0.00     0.012 C 
ATOM      9  C   UNL     1       0.827  -0.909   2.928  1.00  0.00     0.012 C 
BRANCH   7  10
ATOM     10  C   UNL     1       0.862  -2.742   1.237  1.00  0.00     0.107 C 
BRANCH  10  11
ATOM     11  C   UNL     1       0.720  -3.366  -0.112  1.00  0.00     0.227 A 
ATOM     12  N   UNL     1       0.393  -4.605  -0.407  1.00  0.00    -0.193 NA
ATOM     13  O   UNL     1       1.004  -2.620  -1.216  1.00  0.00    -0.339 OA
ATOM     14  C   UNL     1       0.450  -4.613  -1.784  1.00  0.00     0.203 A 
ATOM     15  N   UNL     1       0.797  -3.434  -2.326  1.00  0.00    -0.059 NA
BRANCH  14  16
ATOM     16  C   UNL     1       0.138  -5.834  -2.613  1.00  0.00     0.128 C 
ATOM     17  C   UNL     1       0.480  -7.121  -1.847  1.00  0.00     0.051 C 
ATOM     18  C   UNL     1      -1.326  -5.841  -3.077  1.00  0.00     0.046 C 
ATOM     19  O   UNL     1       0.931  -5.886  -3.837  1.00  0.00    -0.367 OA
ATOM     20  C   UNL     1      -1.263  -6.555  -4.406  1.00  0.00     0.032 C 
ATOM     21  C   UNL     1       0.056  -6.069  -4.956  1.00  0.00     0.161 C 
ENDBRANCH  14  16
ENDBRANCH  10  11
ENDBRANCH   7  10
ENDBRANCH   6   7
ENDBRANCH   3   6
ENDBRANCH   1   2
BRANCH   1  22
ATOM     22  C   UNL     1       0.339   0.390  -2.643  1.00  0.00     0.042 C 
BRANCH  22  23
ATOM     23  C   UNL     1       0.094  -0.433  -3.903  1.00  0.00     0.118 C 
BRANCH  23  24
ATOM     24  N   UNL     1      -0.423   0.376  -4.994  1.00  0.00    -0.352 N 
ATOM     25  C   UNL     1       0.189   0.799  -6.146  1.00  0.00     0.251 C 
ATOM     26  H   UNL     1      -1.358   0.665  -4.890  1.00  0.00     0.163 HD
ATOM     27  O   UNL     1      -0.366   1.657  -6.836  1.00  0.00    -0.269 OA
BRANCH  25  28
ATOM     28  C   UNL     1       1.506   0.268  -6.576  1.00  0.00     0.039 A 
ATOM     29  C   UNL     1       2.418   1.152  -7.166  1.00  0.00     0.014 A 
ATOM     30  C   UNL     1       1.833  -1.088  -6.482  1.00  0.00     0.014 A 
ATOM     31  C   UNL     1       3.658   0.690  -7.619  1.00  0.00     0.010 A 
ATOM     32  C   UNL     1       3.099  -1.536  -6.867  1.00  0.00     0.010 A 
ATOM     33  C   UNL     1       4.020  -0.656  -7.455  1.00  0.00    -0.014 A 
BRANCH  33  34
ATOM     34  C   UNL     1       5.346  -1.154  -7.915  1.00  0.00     0.031 A 
ATOM     35  C   UNL     1       5.436  -2.162  -9.030  1.00  0.00     0.074 A 
ATOM     36  C   UNL     1       6.470  -0.733  -7.303  1.00  0.00     0.049 A 
ATOM     37  N   UNL     1       6.494  -2.746  -9.536  1.00  0.00    -0.248 NA
ATOM     38  C   UNL     1       4.169  -2.586  -9.647  1.00  0.00     0.031 C 
ATOM     39  C   UNL     1       6.522   0.203  -6.180  1.00  0.00     0.029 A 
ATOM     40  N   UNL     1       7.788  -1.050  -7.531  1.00  0.00    -0.354 N 
ATOM     41  C   UNL     1       6.020  -3.620 -10.507  1.00  0.00     0.074 A 
ATOM     42  C   UNL     1       4.577  -3.515 -10.500  1.00  0.00     0.031 C 
ATOM     43  C   UNL     1       7.803   0.392  -5.822  1.00  0.00     0.029 A 
ATOM     44  C   UNL     1       8.661  -0.433  -6.668  1.00  0.00     0.049 A 
ATOM     45  H   UNL     1       8.079  -1.662  -8.245  1.00  0.00     0.167 HD
ATOM     46  C   UNL     1       6.725  -4.422 -11.340  1.00  0.00     0.037 A 
ATOM     47  C   UNL     1      10.001  -0.530  -6.560  1.00  0.00     0.037 A 
ATOM     48  C   UNL     1       8.162  -4.493 -11.382  1.00  0.00     0.049 A 
ATOM     49  C   UNL     1      10.758  -1.413  -7.516  1.00  0.00     0.074 A 
ATOM     50  C   UNL     1       8.963  -5.208 -12.256  1.00  0.00     0.029 A 
ATOM     51  N   UNL     1       9.011  -3.827 -10.513  1.00  0.00    -0.354 N 
ATOM     52  N   UNL     1      10.301  -2.166  -8.486  1.00  0.00    -0.248 NA
ATOM     53  C   UNL     1      12.220  -1.452  -7.367  1.00  0.00     0.031 C 
ATOM     54  C   UNL     1      10.298  -5.009 -11.889  1.00  0.00     0.029 A 
ATOM     55  C   UNL     1      10.329  -4.134 -10.815  1.00  0.00     0.049 A 
ATOM     56  H   UNL     1       8.722  -3.225  -9.790  1.00  0.00     0.167 HD
ATOM     57  C   UNL     1      11.416  -2.747  -9.076  1.00  0.00     0.074 A 
ATOM     58  C   UNL     1      12.574  -2.246  -8.368  1.00  0.00     0.031 C 
ATOM     59  C   UNL     1      11.473  -3.620 -10.110  1.00  0.00     0.037 A 
BRANCH  46  60
ATOM     60  C   UNL     1       5.959  -5.293 -12.292  1.00  0.00     0.064 A 
ATOM     61  C   UNL     1       5.312  -4.761 -13.417  1.00  0.00     0.173 A 
ATOM     62  C   UNL     1       5.942  -6.686 -12.120  1.00  0.00     0.173 A 
ATOM     63  F   UNL     1       5.295  -3.436 -13.621  1.00  0.00    -0.203 F 
ATOM     64  C   UNL     1       4.664  -5.591 -14.328  1.00  0.00     0.198 A 
ATOM     65  C   UNL     1       5.314  -7.514 -13.047  1.00  0.00     0.198 A 
ATOM     66  F   UNL     1       6.554  -7.245 -11.065  1.00  0.00    -0.203 F 
ATOM     67  F   UNL     1       4.028  -5.059 -15.381  1.00  0.00    -0.200 F 
ATOM     68  C   UNL     1       4.673  -6.966 -14.148  1.00  0.00     0.200 A 
ATOM     69  F   UNL     1       5.336  -8.844 -12.879  1.00  0.00    -0.200 F 
ATOM     70  F   UNL     1       4.064  -7.764 -15.035  1.00  0.00    -0.200 F 
ENDBRANCH  46  60
BRANCH  47  71
ATOM     71  C   UNL     1      10.721   0.233  -5.508  1.00  0.00     0.064 A 
ATOM     72  C   UNL     1      11.568   1.300  -5.840  1.00  0.00     0.173 A 
ATOM     73  C   UNL     1      10.600  -0.106  -4.153  1.00  0.00     0.173 A 
ATOM     74  F   UNL     1      11.735   1.647  -7.125  1.00  0.00    -0.203 F 
ATOM     75  C   UNL     1      12.288   1.980  -4.860  1.00  0.00     0.198 A 
ATOM     76  C   UNL     1      11.297   0.593  -3.170  1.00  0.00     0.198 A 
ATOM     77  F   UNL     1       9.801  -1.117  -3.782  1.00  0.00    -0.203 F 
ATOM     78  F   UNL     1      13.133   2.959  -5.210  1.00  0.00    -0.200 F 
ATOM     79  C   UNL     1      12.149   1.629  -3.525  1.00  0.00     0.200 A 
ATOM     80  F   UNL     1      11.151   0.259  -1.881  1.00  0.00    -0.200 F 
ATOM     81  F   UNL     1      12.843   2.281  -2.583  1.00  0.00    -0.200 F 
ENDBRANCH  47  71
BRANCH  59  82
ATOM     82  C   UNL     1      12.832  -4.067 -10.561  1.00  0.00     0.064 A 
ATOM     83  C   UNL     1      13.600  -4.961  -9.801  1.00  0.00     0.173 A 
ATOM     84  C   UNL     1      13.353  -3.630 -11.789  1.00  0.00     0.173 A 
ATOM     85  F   UNL     1      13.152  -5.396  -8.614  1.00  0.00    -0.203 F 
ATOM     86  C   UNL     1      14.851  -5.383 -10.243  1.00  0.00     0.198 A 
ATOM     87  C   UNL     1      14.592  -4.076 -12.240  1.00  0.00     0.198 A 
ATOM     88  F   UNL     1      12.655  -2.780 -12.556  1.00  0.00    -0.203 F 
ATOM     89  F   UNL     1      15.587  -6.204  -9.480  1.00  0.00    -0.200 F 
ATOM     90  C   UNL     1      15.342  -4.947 -11.464  1.00  0.00     0.200 A 
ATOM     91  F   UNL     1      15.060  -3.663 -13.426  1.00  0.00    -0.200 F 
ATOM     92  F   UNL     1      16.544  -5.361 -11.891  1.00  0.00    -0.200 F 
ENDBRANCH  59  82
ENDBRANCH  33  34
ENDBRANCH  25  28
ENDBRANCH  23  24
ENDBRANCH  22  23
ENDBRANCH   1  22
TORSDOF 14
