REMARK SMILES O=C(NCCCNC(=O)c1cccnc1-c1ccccn1)c1ccc(-c2c3nc(c(-c4c(F)c(F)c(F)c(F)c4F)c4ccc([nH]4)c(-c4c(F)c(F)c(F)c(F)c4F)c4nc(c(-c5c(F)c(F)c(F)c(F)c5F)c5ccc2[nH]5)C=C4)C=C3)cc1
REMARK SMILES IDX 4 1 3 2 1 3 2 4 22 6 23 7 84 8 24 9 83 10 25 11 26 12 27 13
REMARK SMILES IDX 77 14 28 15 82 16 76 17 78 18 29 19 81 20 75 21 74 22 30 24
REMARK SMILES IDX 62 25 42 26 61 27 43 28 46 29 60 30 79 31 44 32 45 33 59 35
REMARK SMILES IDX 80 36 47 37 31 38 32 39 40 40 33 41 34 42 38 43 41 44 35 45
REMARK SMILES IDX 36 46 39 47 37 48 63 49 64 50 72 51 65 52 66 53 70 54 73 55
REMARK SMILES IDX 67 56 68 57 71 58 69 59 48 60 49 61 57 62 50 63 51 64 55 65
REMARK SMILES IDX 58 66 52 67 53 68 56 69 54 70 5 71 6 72 7 73 8 74 9 76 10 77
REMARK SMILES IDX 11 78 15 79 12 80 14 81 13 82 16 83 17 84 21 85 18 86 20 87
REMARK SMILES IDX 19 88
REMARK H PARENT 3 5 78 23 46 34 7 75
REMARK Flexibility Score: inf
ROOT
ATOM      1  C   UNL     1       4.647  -0.855   1.158  1.00  0.00     0.118 C 
ENDROOT
BRANCH   1   2
ATOM      2  N   UNL     1       3.211  -0.858   0.922  1.00  0.00    -0.352 N 
ATOM      3  O   UNL     1       1.229  -0.210   0.089  1.00  0.00    -0.269 OA
ATOM      4  C   UNL     1       2.453  -0.200  -0.013  1.00  0.00     0.251 C 
ATOM      5  H   UNL     1       2.697  -1.429   1.537  1.00  0.00     0.163 HD
BRANCH   4   6
ATOM      6  C   UNL     1       3.084   0.540  -1.128  1.00  0.00     0.039 A 
ATOM      7  C   UNL     1       4.167   0.015  -1.836  1.00  0.00     0.014 A 
ATOM      8  C   UNL     1       2.530   1.765  -1.515  1.00  0.00     0.014 A 
ATOM      9  C   UNL     1       4.777   0.767  -2.838  1.00  0.00     0.010 A 
ATOM     10  C   UNL     1       3.094   2.485  -2.571  1.00  0.00     0.010 A 
ATOM     11  C   UNL     1       4.240   2.004  -3.222  1.00  0.00    -0.014 A 
BRANCH  11  12
ATOM     12  C   UNL     1       4.845   2.768  -4.341  1.00  0.00     0.031 A 
ATOM     13  C   UNL     1       5.481   4.106  -4.102  1.00  0.00     0.074 A 
ATOM     14  C   UNL     1       4.788   2.261  -5.587  1.00  0.00     0.049 A 
ATOM     15  N   UNL     1       5.989   4.947  -4.967  1.00  0.00    -0.248 NA
ATOM     16  C   UNL     1       5.545   4.566  -2.707  1.00  0.00     0.031 C 
ATOM     17  C   UNL     1       4.182   0.978  -5.945  1.00  0.00     0.029 A 
ATOM     18  N   UNL     1       5.230   2.767  -6.783  1.00  0.00    -0.354 N 
ATOM     19  C   UNL     1       6.409   6.045  -4.228  1.00  0.00     0.074 A 
ATOM     20  C   UNL     1       6.078   5.772  -2.845  1.00  0.00     0.031 C 
ATOM     21  C   UNL     1       4.293   0.794  -7.268  1.00  0.00     0.029 A 
ATOM     22  C   UNL     1       4.928   1.969  -7.858  1.00  0.00     0.049 A 
ATOM     23  H   UNL     1       5.717   3.619  -6.862  1.00  0.00     0.167 HD
ATOM     24  C   UNL     1       7.018   7.173  -4.666  1.00  0.00     0.037 A 
ATOM     25  C   UNL     1       5.110   2.172  -9.176  1.00  0.00     0.037 A 
ATOM     26  C   UNL     1       7.360   7.428  -6.042  1.00  0.00     0.049 A 
ATOM     27  C   UNL     1       5.770   3.437  -9.641  1.00  0.00     0.074 A 
ATOM     28  C   UNL     1       8.035   8.511  -6.577  1.00  0.00     0.029 A 
ATOM     29  N   UNL     1       7.042   6.591  -7.103  1.00  0.00    -0.354 N 
ATOM     30  N   UNL     1       6.207   4.446  -8.929  1.00  0.00    -0.248 NA
ATOM     31  C   UNL     1       5.961   3.593 -11.088  1.00  0.00     0.031 C 
ATOM     32  C   UNL     1       8.083   8.354  -7.966  1.00  0.00     0.029 A 
ATOM     33  C   UNL     1       7.481   7.149  -8.293  1.00  0.00     0.049 A 
ATOM     34  H   UNL     1       6.574   5.729  -7.022  1.00  0.00     0.167 HD
ATOM     35  C   UNL     1       6.740   5.350  -9.835  1.00  0.00     0.074 A 
ATOM     36  C   UNL     1       6.579   4.766 -11.152  1.00  0.00     0.031 C 
ATOM     37  C   UNL     1       7.313   6.554  -9.595  1.00  0.00     0.037 A 
BRANCH  24  38
ATOM     38  C   UNL     1       7.331   8.231  -3.649  1.00  0.00     0.064 A 
ATOM     39  C   UNL     1       8.344   8.062  -2.693  1.00  0.00     0.173 A 
ATOM     40  C   UNL     1       6.623   9.443  -3.647  1.00  0.00     0.173 A 
ATOM     41  F   UNL     1       9.043   6.918  -2.645  1.00  0.00    -0.203 F 
ATOM     42  C   UNL     1       8.613   9.053  -1.752  1.00  0.00     0.198 A 
ATOM     43  C   UNL     1       6.913  10.442  -2.722  1.00  0.00     0.198 A 
ATOM     44  F   UNL     1       5.650   9.659  -4.544  1.00  0.00    -0.203 F 
ATOM     45  F   UNL     1       9.550   8.848  -0.815  1.00  0.00    -0.200 F 
ATOM     46  C   UNL     1       7.901  10.243  -1.770  1.00  0.00     0.200 A 
ATOM     47  F   UNL     1       6.232  11.596  -2.748  1.00  0.00    -0.200 F 
ATOM     48  F   UNL     1       8.161  11.195  -0.863  1.00  0.00    -0.200 F 
ENDBRANCH  24  38
BRANCH  25  49
ATOM     49  C   UNL     1       4.639   1.141 -10.134  1.00  0.00     0.064 A 
ATOM     50  C   UNL     1       5.544   0.311 -10.805  1.00  0.00     0.173 A 
ATOM     51  C   UNL     1       3.268   0.925 -10.345  1.00  0.00     0.173 A 
ATOM     52  F   UNL     1       6.863   0.491 -10.645  1.00  0.00    -0.203 F 
ATOM     53  C   UNL     1       5.096  -0.701 -11.652  1.00  0.00     0.198 A 
ATOM     54  C   UNL     1       2.822  -0.102 -11.172  1.00  0.00     0.198 A 
ATOM     55  F   UNL     1       2.364   1.691  -9.717  1.00  0.00    -0.203 F 
ATOM     56  F   UNL     1       5.982  -1.473 -12.296  1.00  0.00    -0.200 F 
ATOM     57  C   UNL     1       3.736  -0.913 -11.826  1.00  0.00     0.200 A 
ATOM     58  F   UNL     1       1.508  -0.315 -11.322  1.00  0.00    -0.200 F 
ATOM     59  F   UNL     1       3.307  -1.901 -12.623  1.00  0.00    -0.200 F 
ENDBRANCH  25  49
BRANCH  37  60
ATOM     60  C   UNL     1       7.835   7.317 -10.777  1.00  0.00     0.064 A 
ATOM     61  C   UNL     1       6.972   7.987 -11.655  1.00  0.00     0.173 A 
ATOM     62  C   UNL     1       9.216   7.432 -10.992  1.00  0.00     0.173 A 
ATOM     63  F   UNL     1       5.643   7.893 -11.498  1.00  0.00    -0.203 F 
ATOM     64  C   UNL     1       7.474   8.740 -12.713  1.00  0.00     0.198 A 
ATOM     65  C   UNL     1       9.715   8.204 -12.037  1.00  0.00     0.198 A 
ATOM     66  F   UNL     1      10.081   6.811 -10.176  1.00  0.00    -0.203 F 
ATOM     67  F   UNL     1       6.632   9.351 -13.558  1.00  0.00    -0.200 F 
ATOM     68  C   UNL     1       8.845   8.855 -12.897  1.00  0.00     0.200 A 
ATOM     69  F   UNL     1      11.039   8.322 -12.207  1.00  0.00    -0.200 F 
ATOM     70  F   UNL     1       9.326   9.592 -13.908  1.00  0.00    -0.200 F 
ENDBRANCH  37  60
ENDBRANCH  11  12
ENDBRANCH   4   6
ENDBRANCH   1   2
BRANCH   1  71
ATOM     71  C   UNL     1       5.033  -0.175   2.466  1.00  0.00     0.042 C 
BRANCH  71  72
ATOM     72  C   UNL     1       4.467  -0.835   3.718  1.00  0.00     0.118 C 
BRANCH  72  73
ATOM     73  N   UNL     1       4.878  -2.224   3.854  1.00  0.00    -0.352 N 
ATOM     74  C   UNL     1       5.648  -2.839   4.809  1.00  0.00     0.253 C 
ATOM     75  H   UNL     1       4.550  -2.821   3.144  1.00  0.00     0.163 HD
ATOM     76  O   UNL     1       5.934  -4.027   4.663  1.00  0.00    -0.269 OA
BRANCH  74  77
ATOM     77  C   UNL     1       6.107  -2.093   5.993  1.00  0.00     0.067 A 
ATOM     78  C   UNL     1       5.165  -1.431   6.793  1.00  0.00     0.018 A 
ATOM     79  C   UNL     1       7.449  -2.074   6.379  1.00  0.00     0.101 A 
ATOM     80  C   UNL     1       5.589  -0.706   7.900  1.00  0.00     0.021 A 
ATOM     81  N   UNL     1       7.871  -1.337   7.452  1.00  0.00    -0.254 NA
ATOM     82  C   UNL     1       6.942  -0.682   8.181  1.00  0.00     0.112 A 
BRANCH  79  83
ATOM     83  C   UNL     1       8.512  -2.826   5.691  1.00  0.00     0.089 A 
ATOM     84  C   UNL     1       8.962  -2.484   4.416  1.00  0.00     0.031 A 
ATOM     85  N   UNL     1       9.037  -3.874   6.383  1.00  0.00    -0.255 NA
ATOM     86  C   UNL     1       9.965  -3.250   3.825  1.00  0.00     0.004 A 
ATOM     87  C   UNL     1      10.002  -4.601   5.783  1.00  0.00     0.112 A 
ATOM     88  C   UNL     1      10.494  -4.332   4.518  1.00  0.00     0.020 A 
ENDBRANCH  79  83
ENDBRANCH  74  77
ENDBRANCH  72  73
ENDBRANCH  71  72
ENDBRANCH   1  71
TORSDOF 11
