REMARK SMILES Cc1ccc(NC(=O)C[C@@H](C(=O)NCCCNC(=O)c2ccc(-c3c4nc(c(-c5c(F)c(F)c(F)c(F)c5F)c5ccc([nH]5)c(-c5c(F)c(F)c(F)c(F)c5F)c5nc(c(-c6c(F)c(F)c(F)c(F)c6F)c6ccc3[nH]6)C=C5)C=C4)cc2)[NH+](C)C)cc1Cl
REMARK SMILES IDX 14 1 13 2 11 3 12 4 10 6 9 7 7 8 6 9 8 11 5 12 1 13 2 14
REMARK SMILES IDX 3 15 87 16 4 17 86 18 88 19 83 20 84 21 85 22 15 24 16 25
REMARK SMILES IDX 17 26 18 27 19 29 20 30 21 31 82 32 22 33 81 34 23 35 24 36
REMARK SMILES IDX 25 37 75 38 26 39 80 40 74 41 76 42 27 43 79 44 73 45 72 46
REMARK SMILES IDX 28 48 60 49 40 50 59 51 41 52 44 53 58 54 77 55 42 56 43 57
REMARK SMILES IDX 57 59 78 60 45 61 29 62 30 63 38 64 31 65 32 66 36 67 39 68
REMARK SMILES IDX 33 69 34 70 37 71 35 72 61 73 62 74 70 75 63 76 64 77 68 78
REMARK SMILES IDX 71 79 65 80 66 81 69 82 67 83 46 84 47 85 55 86 48 87 49 88
REMARK SMILES IDX 53 89 56 90 50 91 51 92 54 93 52 94
REMARK H PARENT 13 5 6 10 83 23 17 28 76 47 44 58
REMARK Flexibility Score: inf
ROOT
ATOM      1  C   UNL     1      -3.062  -2.869  -2.065  1.00  0.00     0.118 C 
ENDROOT
BRANCH   1   2
ATOM      2  N   UNL     1      -1.954  -1.952  -1.838  1.00  0.00    -0.351 N 
ATOM      3  C   UNL     1      -0.638  -2.141  -1.524  1.00  0.00     0.278 C 
ATOM      4  O   UNL     1       0.072  -1.134  -1.598  1.00  0.00    -0.268 OA
ATOM      5  H   UNL     1      -2.204  -1.004  -1.928  1.00  0.00     0.163 HD
BRANCH   3   6
ATOM      6  C   UNL     1      -0.080  -3.532  -1.122  1.00  0.00     0.283 C 
BRANCH   6   7
ATOM      7  C   UNL     1      -0.240  -3.901   0.367  1.00  0.00     0.175 C 
BRANCH   7   8
ATOM      8  C   UNL     1      -1.538  -3.544   1.044  1.00  0.00     0.230 C 
ATOM      9  N   UNL     1      -1.846  -2.288   1.484  1.00  0.00    -0.326 N 
ATOM     10  H   UNL     1      -2.720  -2.233   1.934  1.00  0.00     0.169 HD
ATOM     11  O   UNL     1      -2.403  -4.417   1.187  1.00  0.00    -0.274 OA
BRANCH   9  12
ATOM     12  C   UNL     1      -1.168  -1.059   1.423  1.00  0.00     0.042 A 
ATOM     13  C   UNL     1       0.572   2.741   0.339  1.00  0.00     0.046 C 
ATOM     14  C   UNL     1      -0.012   1.448   0.831  1.00  0.00    -0.032 A 
ATOM     15  C   UNL     1      -1.399   1.317   0.962  1.00  0.00     0.007 A 
ATOM     16  C   UNL     1       0.789   0.338   1.127  1.00  0.00     0.046 A 
ATOM     17  C   UNL     1      -1.967   0.082   1.288  1.00  0.00     0.026 A 
ATOM     18  C   UNL     1       0.214  -0.904   1.427  1.00  0.00     0.047 A 
ATOM     19  Cl  UNL     1       2.515   0.443   1.099  1.00  0.00    -0.084 Cl
ENDBRANCH   9  12
ENDBRANCH   7   8
ENDBRANCH   6   7
BRANCH   6  20
ATOM     20  N   UNL     1       1.338  -3.764  -1.589  1.00  0.00    -0.329 N 
ATOM     21  C   UNL     1       1.556  -3.387  -2.989  1.00  0.00     0.333 C 
ATOM     22  C   UNL     1       2.380  -3.150  -0.762  1.00  0.00     0.333 C 
ATOM     23  H   UNL     1       1.434  -4.775  -1.491  1.00  0.00     0.348 HD
ENDBRANCH   6  20
ENDBRANCH   3   6
ENDBRANCH   1   2
BRANCH   1  24
ATOM     24  C   UNL     1      -4.250  -2.694  -1.109  1.00  0.00     0.042 C 
BRANCH  24  25
ATOM     25  C   UNL     1      -4.703  -1.264  -0.816  1.00  0.00     0.118 C 
BRANCH  25  26
ATOM     26  N   UNL     1      -5.777  -0.805  -1.678  1.00  0.00    -0.352 N 
ATOM     27  C   UNL     1      -7.058  -0.418  -1.377  1.00  0.00     0.251 C 
ATOM     28  H   UNL     1      -5.548  -0.763  -2.635  1.00  0.00     0.163 HD
ATOM     29  O   UNL     1      -7.837  -0.173  -2.305  1.00  0.00    -0.269 OA
BRANCH  27  30
ATOM     30  C   UNL     1      -7.556  -0.307   0.018  1.00  0.00     0.039 A 
ATOM     31  C   UNL     1      -8.848  -0.771   0.292  1.00  0.00     0.014 A 
ATOM     32  C   UNL     1      -6.828   0.319   1.036  1.00  0.00     0.014 A 
ATOM     33  C   UNL     1      -9.390  -0.649   1.576  1.00  0.00     0.010 A 
ATOM     34  C   UNL     1      -7.351   0.393   2.336  1.00  0.00     0.010 A 
ATOM     35  C   UNL     1      -8.641  -0.083   2.619  1.00  0.00    -0.014 A 
BRANCH  35  36
ATOM     36  C   UNL     1      -9.215   0.013   3.992  1.00  0.00     0.031 A 
ATOM     37  C   UNL     1      -9.561   1.348   4.596  1.00  0.00     0.074 A 
ATOM     38  C   UNL     1      -9.427  -1.108   4.711  1.00  0.00     0.049 A 
ATOM     39  N   UNL     1     -10.083   1.618   5.769  1.00  0.00    -0.248 NA
ATOM     40  C   UNL     1      -9.270   2.538   3.784  1.00  0.00     0.031 C 
ATOM     41  C   UNL     1      -9.113  -2.466   4.267  1.00  0.00     0.029 A 
ATOM     42  N   UNL     1      -9.957  -1.283   5.967  1.00  0.00    -0.354 N 
ATOM     43  C   UNL     1     -10.175   3.002   5.837  1.00  0.00     0.074 A 
ATOM     44  C   UNL     1      -9.617   3.520   4.605  1.00  0.00     0.031 C 
ATOM     45  C   UNL     1      -9.477  -3.336   5.223  1.00  0.00     0.029 A 
ATOM     46  C   UNL     1     -10.025  -2.598   6.359  1.00  0.00     0.049 A 
ATOM     47  H   UNL     1     -10.260  -0.536   6.532  1.00  0.00     0.167 HD
ATOM     48  C   UNL     1     -10.695   3.772   6.824  1.00  0.00     0.037 A 
ATOM     49  C   UNL     1     -10.479  -3.151   7.501  1.00  0.00     0.037 A 
ATOM     50  C   UNL     1     -11.277   3.267   8.041  1.00  0.00     0.049 A 
ATOM     51  C   UNL     1     -11.045  -2.273   8.584  1.00  0.00     0.074 A 
ATOM     52  C   UNL     1     -11.883   3.974   9.067  1.00  0.00     0.029 A 
ATOM     53  N   UNL     1     -11.324   1.929   8.400  1.00  0.00    -0.354 N 
ATOM     54  N   UNL     1     -11.188  -0.971   8.603  1.00  0.00    -0.248 NA
ATOM     55  C   UNL     1     -11.521  -2.946   9.802  1.00  0.00     0.031 C 
ATOM     56  C   UNL     1     -12.259   3.069  10.065  1.00  0.00     0.029 A 
ATOM     57  C   UNL     1     -11.928   1.793   9.642  1.00  0.00     0.049 A 
ATOM     58  H   UNL     1     -10.980   1.185   7.854  1.00  0.00     0.167 HD
ATOM     59  C   UNL     1     -11.791  -0.672   9.818  1.00  0.00     0.074 A 
ATOM     60  C   UNL     1     -12.001  -1.929  10.504  1.00  0.00     0.031 C 
ATOM     61  C   UNL     1     -12.139   0.539  10.317  1.00  0.00     0.037 A 
BRANCH  48  62
ATOM     62  C   UNL     1     -10.663   5.261   6.633  1.00  0.00     0.064 A 
ATOM     63  C   UNL     1     -11.511   5.901   5.716  1.00  0.00     0.173 A 
ATOM     64  C   UNL     1      -9.815   6.061   7.412  1.00  0.00     0.173 A 
ATOM     65  F   UNL     1     -12.335   5.179   4.942  1.00  0.00    -0.203 F 
ATOM     66  C   UNL     1     -11.492   7.285   5.570  1.00  0.00     0.198 A 
ATOM     67  C   UNL     1      -9.817   7.448   7.282  1.00  0.00     0.198 A 
ATOM     68  F   UNL     1      -8.991   5.500   8.310  1.00  0.00    -0.203 F 
ATOM     69  F   UNL     1     -12.282   7.872   4.660  1.00  0.00    -0.200 F 
ATOM     70  C   UNL     1     -10.651   8.058   6.357  1.00  0.00     0.200 A 
ATOM     71  F   UNL     1      -9.013   8.194   8.052  1.00  0.00    -0.200 F 
ATOM     72  F   UNL     1     -10.640   9.391   6.219  1.00  0.00    -0.200 F 
ENDBRANCH  48  62
BRANCH  49  73
ATOM     73  C   UNL     1     -10.441  -4.627   7.672  1.00  0.00     0.064 A 
ATOM     74  C   UNL     1     -11.621  -5.382   7.662  1.00  0.00     0.173 A 
ATOM     75  C   UNL     1      -9.229  -5.307   7.859  1.00  0.00     0.173 A 
ATOM     76  F   UNL     1     -12.806  -4.771   7.512  1.00  0.00    -0.203 F 
ATOM     77  C   UNL     1     -11.592  -6.763   7.847  1.00  0.00     0.198 A 
ATOM     78  C   UNL     1      -9.200  -6.690   8.020  1.00  0.00     0.198 A 
ATOM     79  F   UNL     1      -8.073  -4.627   7.878  1.00  0.00    -0.203 F 
ATOM     80  F   UNL     1     -12.738  -7.457   7.875  1.00  0.00    -0.200 F 
ATOM     81  C   UNL     1     -10.382  -7.416   8.020  1.00  0.00     0.200 A 
ATOM     82  F   UNL     1      -8.027  -7.319   8.177  1.00  0.00    -0.200 F 
ATOM     83  F   UNL     1     -10.354  -8.744   8.197  1.00  0.00    -0.200 F 
ENDBRANCH  49  73
BRANCH  61  84
ATOM     84  C   UNL     1     -12.811   0.566  11.659  1.00  0.00     0.064 A 
ATOM     85  C   UNL     1     -12.099   0.320  12.842  1.00  0.00     0.173 A 
ATOM     86  C   UNL     1     -14.175   0.876  11.765  1.00  0.00     0.173 A 
ATOM     87  F   UNL     1     -10.796   0.003  12.792  1.00  0.00    -0.203 F 
ATOM     88  C   UNL     1     -12.733   0.362  14.081  1.00  0.00     0.198 A 
ATOM     89  C   UNL     1     -14.800   0.943  13.008  1.00  0.00     0.198 A 
ATOM     90  F   UNL     1     -14.900   1.124  10.665  1.00  0.00    -0.203 F 
ATOM     91  F   UNL     1     -12.043   0.083  15.195  1.00  0.00    -0.200 F 
ATOM     92  C   UNL     1     -14.081   0.680  14.164  1.00  0.00     0.200 A 
ATOM     93  F   UNL     1     -16.100   1.259  13.087  1.00  0.00    -0.200 F 
ATOM     94  F   UNL     1     -14.688   0.725  15.357  1.00  0.00    -0.200 F 
ENDBRANCH  61  84
ENDBRANCH  35  36
ENDBRANCH  27  30
ENDBRANCH  25  26
ENDBRANCH  24  25
ENDBRANCH   1  24
TORSDOF 14
