REMARK SMILES Cc1ccc(F)c(C(=O)N[C@@H]2C=C[C@@H](C(=O)NCCCNC(=O)c3ccc(-c4c5nc(c(-c6c(F)c(F)c(F)c(F)c6F)c6ccc([nH]6)c(-c6c(F)c(F)c(F)c(F)c6F)c6nc(c(-c7c(F)c(F)c(F)c(F)c7F)c7ccc4[nH]7)C=C6)C=C5)cc3)C2)c1
REMARK SMILES IDX 19 1 18 2 17 3 15 4 16 5 14 7 11 8 12 9 87 10 13 11 10 12
REMARK SMILES IDX 8 13 9 14 7 16 1 17 2 18 3 19 88 20 4 21 5 22 6 23 20 24
REMARK SMILES IDX 21 25 22 26 23 28 24 29 25 30 86 31 26 32 85 33 27 34 28 35
REMARK SMILES IDX 29 36 79 37 30 38 84 39 78 40 80 41 31 42 83 43 77 44 76 45
REMARK SMILES IDX 32 47 64 48 44 49 63 50 45 51 48 52 62 53 81 54 46 55 47 56
REMARK SMILES IDX 61 58 82 59 49 60 33 61 34 62 42 63 35 64 36 65 40 66 43 67
REMARK SMILES IDX 37 68 38 69 41 70 39 71 65 72 66 73 74 74 67 75 68 76 72 77
REMARK SMILES IDX 75 78 69 79 70 80 73 81 71 82 50 83 51 84 59 85 52 86 53 87
REMARK SMILES IDX 57 88 60 89 54 90 55 91 58 92 56 93
REMARK H PARENT 17 6 10 15 21 27 80 46 48 57
REMARK Flexibility Score: inf
ROOT
ATOM      1  C   UNL     1      -0.375  -4.049   2.750  1.00  0.00     0.042 C 
ENDROOT
BRANCH   1   2
ATOM      2  C   UNL     1       0.720  -3.352   3.538  1.00  0.00     0.117 C 
BRANCH   2   3
ATOM      3  N   UNL     1       1.830  -4.242   3.823  1.00  0.00    -0.356 N 
ATOM      4  C   UNL     1       2.961  -4.536   3.127  1.00  0.00     0.227 C 
ATOM      5  O   UNL     1       3.732  -5.343   3.660  1.00  0.00    -0.274 OA
ATOM      6  H   UNL     1       1.750  -4.722   4.679  1.00  0.00     0.163 HD
BRANCH   4   7
ATOM      7  C   UNL     1       3.264  -4.025   1.706  1.00  0.00     0.103 C 
ATOM      8  C   UNL     1       1.558  -3.914  -0.077  1.00  0.00     0.106 C 
ATOM      9  C   UNL     1       2.017  -2.559   0.351  1.00  0.00    -0.006 C 
ATOM     10  C   UNL     1       2.545  -4.852   0.634  1.00  0.00     0.047 C 
ATOM     11  C   UNL     1       2.916  -2.620   1.342  1.00  0.00    -0.016 C 
BRANCH   8  12
ATOM     12  N   UNL     1       1.504  -4.001  -1.516  1.00  0.00    -0.346 N 
ATOM     13  C   UNL     1       1.154  -5.055  -2.332  1.00  0.00     0.254 C 
ATOM     14  O   UNL     1       0.919  -4.833  -3.517  1.00  0.00    -0.269 OA
ATOM     15  H   UNL     1       1.757  -3.176  -1.990  1.00  0.00     0.164 HD
BRANCH  13  16
ATOM     16  C   UNL     1       1.120  -6.445  -1.824  1.00  0.00     0.075 A 
ATOM     17  C   UNL     1       0.181  -8.389   1.307  1.00  0.00     0.044 C 
ATOM     18  C   UNL     1       0.684  -8.075  -0.072  1.00  0.00    -0.050 A 
ATOM     19  C   UNL     1       1.401  -9.035  -0.796  1.00  0.00     0.006 A 
ATOM     20  C   UNL     1       0.470  -6.808  -0.638  1.00  0.00     0.020 A 
ATOM     21  C   UNL     1       1.948  -8.712  -2.038  1.00  0.00     0.040 A 
ATOM     22  C   UNL     1       1.827  -7.417  -2.534  1.00  0.00     0.135 A 
ATOM     23  F   UNL     1       2.449  -7.122  -3.684  1.00  0.00    -0.206 F 
ENDBRANCH  13  16
ENDBRANCH   8  12
ENDBRANCH   4   7
ENDBRANCH   2   3
ENDBRANCH   1   2
BRANCH   1  24
ATOM     24  C   UNL     1      -1.288  -4.872   3.622  1.00  0.00     0.118 C 
BRANCH  24  25
ATOM     25  N   UNL     1      -2.302  -4.094   4.287  1.00  0.00    -0.352 N 
ATOM     26  C   UNL     1      -3.510  -4.486   4.821  1.00  0.00     0.251 C 
ATOM     27  H   UNL     1      -2.100  -3.134   4.374  1.00  0.00     0.163 HD
ATOM     28  O   UNL     1      -4.318  -3.619   5.101  1.00  0.00    -0.269 OA
BRANCH  26  29
ATOM     29  C   UNL     1      -3.796  -5.911   5.167  1.00  0.00     0.039 A 
ATOM     30  C   UNL     1      -4.959  -6.168   5.919  1.00  0.00     0.014 A 
ATOM     31  C   UNL     1      -2.898  -6.952   4.948  1.00  0.00     0.014 A 
ATOM     32  C   UNL     1      -5.118  -7.385   6.583  1.00  0.00     0.010 A 
ATOM     33  C   UNL     1      -3.043  -8.147   5.596  1.00  0.00     0.010 A 
ATOM     34  C   UNL     1      -4.106  -8.327   6.472  1.00  0.00    -0.014 A 
BRANCH  34  35
ATOM     35  C   UNL     1      -3.966  -9.531   7.258  1.00  0.00     0.031 A 
ATOM     36  C   UNL     1      -4.507 -10.798   6.762  1.00  0.00     0.074 A 
ATOM     37  C   UNL     1      -3.036  -9.498   8.236  1.00  0.00     0.049 A 
ATOM     38  N   UNL     1      -4.691 -11.832   7.502  1.00  0.00    -0.248 NA
ATOM     39  C   UNL     1      -4.852 -11.003   5.360  1.00  0.00     0.031 C 
ATOM     40  C   UNL     1      -2.375 -10.610   8.902  1.00  0.00     0.029 A 
ATOM     41  N   UNL     1      -2.564  -8.364   8.913  1.00  0.00    -0.354 N 
ATOM     42  C   UNL     1      -4.877 -12.899   6.658  1.00  0.00     0.074 A 
ATOM     43  C   UNL     1      -5.053 -12.325   5.341  1.00  0.00     0.031 C 
ATOM     44  C   UNL     1      -1.857 -10.166  10.060  1.00  0.00     0.029 A 
ATOM     45  C   UNL     1      -2.302  -8.793  10.236  1.00  0.00     0.049 A 
ATOM     46  H   UNL     1      -2.442  -7.459   8.546  1.00  0.00     0.167 HD
ATOM     47  C   UNL     1      -4.707 -14.162   7.140  1.00  0.00     0.037 A 
ATOM     48  C   UNL     1      -3.125  -8.342  11.233  1.00  0.00     0.037 A 
ATOM     49  C   UNL     1      -4.331 -14.146   8.553  1.00  0.00     0.049 A 
ATOM     50  C   UNL     1      -4.048  -9.411  11.785  1.00  0.00     0.074 A 
ATOM     51  C   UNL     1      -3.122 -14.222   9.228  1.00  0.00     0.029 A 
ATOM     52  N   UNL     1      -5.238 -13.646   9.470  1.00  0.00    -0.354 N 
ATOM     53  N   UNL     1      -4.046 -10.657  11.396  1.00  0.00    -0.248 NA
ATOM     54  C   UNL     1      -5.106  -9.136  12.757  1.00  0.00     0.031 C 
ATOM     55  C   UNL     1      -3.309 -13.683  10.537  1.00  0.00     0.029 A 
ATOM     56  C   UNL     1      -4.632 -13.300  10.664  1.00  0.00     0.049 A 
ATOM     57  H   UNL     1      -6.202 -13.548   9.294  1.00  0.00     0.167 HD
ATOM     58  C   UNL     1      -5.098 -11.315  11.966  1.00  0.00     0.074 A 
ATOM     59  C   UNL     1      -5.726 -10.326  12.825  1.00  0.00     0.031 C 
ATOM     60  C   UNL     1      -5.417 -12.608  11.675  1.00  0.00     0.037 A 
BRANCH  47  61
ATOM     61  C   UNL     1      -4.637 -15.369   6.245  1.00  0.00     0.064 A 
ATOM     62  C   UNL     1      -3.776 -16.443   6.543  1.00  0.00     0.173 A 
ATOM     63  C   UNL     1      -5.386 -15.509   5.061  1.00  0.00     0.173 A 
ATOM     64  F   UNL     1      -3.061 -16.471   7.675  1.00  0.00    -0.203 F 
ATOM     65  C   UNL     1      -3.608 -17.525   5.678  1.00  0.00     0.198 A 
ATOM     66  C   UNL     1      -5.176 -16.563   4.167  1.00  0.00     0.198 A 
ATOM     67  F   UNL     1      -6.364 -14.644   4.754  1.00  0.00    -0.203 F 
ATOM     68  F   UNL     1      -2.775 -18.520   6.013  1.00  0.00    -0.200 F 
ATOM     69  C   UNL     1      -4.282 -17.569   4.474  1.00  0.00     0.200 A 
ATOM     70  F   UNL     1      -5.844 -16.595   3.005  1.00  0.00    -0.200 F 
ATOM     71  F   UNL     1      -4.084 -18.585   3.623  1.00  0.00    -0.200 F 
ENDBRANCH  47  61
BRANCH  48  72
ATOM     72  C   UNL     1      -3.482  -6.906  11.008  1.00  0.00     0.064 A 
ATOM     73  C   UNL     1      -2.409  -5.989  10.965  1.00  0.00     0.173 A 
ATOM     74  C   UNL     1      -4.662  -6.552  10.340  1.00  0.00     0.173 A 
ATOM     75  F   UNL     1      -1.264  -6.269  11.609  1.00  0.00    -0.203 F 
ATOM     76  C   UNL     1      -2.439  -4.888  10.114  1.00  0.00     0.198 A 
ATOM     77  C   UNL     1      -4.700  -5.422   9.520  1.00  0.00     0.198 A 
ATOM     78  F   UNL     1      -5.726  -7.367  10.361  1.00  0.00    -0.203 F 
ATOM     79  F   UNL     1      -1.336  -4.145   9.945  1.00  0.00    -0.200 F 
ATOM     80  C   UNL     1      -3.570  -4.631   9.359  1.00  0.00     0.200 A 
ATOM     81  F   UNL     1      -5.804  -5.156   8.807  1.00  0.00    -0.200 F 
ATOM     82  F   UNL     1      -3.554  -3.651   8.446  1.00  0.00    -0.200 F 
ENDBRANCH  48  72
BRANCH  60  83
ATOM     83  C   UNL     1      -6.528 -13.322  12.376  1.00  0.00     0.064 A 
ATOM     84  C   UNL     1      -6.612 -13.338  13.777  1.00  0.00     0.173 A 
ATOM     85  C   UNL     1      -7.460 -14.117  11.680  1.00  0.00     0.173 A 
ATOM     86  F   UNL     1      -5.738 -12.642  14.521  1.00  0.00    -0.203 F 
ATOM     87  C   UNL     1      -7.589 -14.078  14.439  1.00  0.00     0.198 A 
ATOM     88  C   UNL     1      -8.395 -14.903  12.346  1.00  0.00     0.198 A 
ATOM     89  F   UNL     1      -7.500 -14.132  10.339  1.00  0.00    -0.203 F 
ATOM     90  F   UNL     1      -7.671 -14.024  15.775  1.00  0.00    -0.200 F 
ATOM     91  C   UNL     1      -8.468 -14.874  13.725  1.00  0.00     0.200 A 
ATOM     92  F   UNL     1      -9.225 -15.686  11.643  1.00  0.00    -0.200 F 
ATOM     93  F   UNL     1      -9.388 -15.608  14.365  1.00  0.00    -0.200 F 
ENDBRANCH  60  83
ENDBRANCH  34  35
ENDBRANCH  26  29
ENDBRANCH  24  25
ENDBRANCH   1  24
TORSDOF 12
