REMARK SMILES Cc1cc(OCC(=O)NCCCNC(=O)c2ccc(-c3c4nc(c(-c5c(F)c(F)c(F)c(F)c5F)c5ccc([nH]5)c(-c5c(F)c(F)c(F)c(F)c5F)c5nc(c(-c6c(F)c(F)c(F)c(F)c6F)c6ccc3[nH]6)C=C5)C=C4)cc2)ccc1NC(=O)c1ccc(N2C(=O)[C@@H]3[C@H](C2=O)[C@H]2C=C[C@@H]3C2)cc1
REMARK SMILES IDX 7 1 8 2 9 3 6 5 5 6 4 7 1 8 2 9 3 10 81 11 80 12 79 13 82 14
REMARK SMILES IDX 83 15 84 17 85 18 86 19 102 20 87 21 101 22 88 23 89 24
REMARK SMILES IDX 90 25 94 26 91 27 92 28 93 29 95 30 99 31 96 32 98 33 100 34
REMARK SMILES IDX 97 35 10 36 11 37 12 38 13 39 14 40 15 42 16 43 17 44 78 45
REMARK SMILES IDX 18 46 77 47 19 48 20 49 21 50 71 51 22 52 76 53 70 54 72 55
REMARK SMILES IDX 23 56 75 57 69 58 68 59 24 61 56 62 36 63 55 64 37 65 40 66
REMARK SMILES IDX 54 67 73 68 38 69 39 70 53 72 74 73 41 74 25 75 26 76 34 77
REMARK SMILES IDX 27 78 28 79 32 80 35 81 29 82 30 83 33 84 31 85 57 86 58 87
REMARK SMILES IDX 66 88 59 89 60 90 64 91 67 92 61 93 62 94 65 95 63 96 42 97
REMARK SMILES IDX 43 98 51 99 44 100 45 101 49 102 52 103 46 104 47 105 50 106
REMARK SMILES IDX 48 107
REMARK H PARENT 9 4 82 16 13 41 72 60 40 71
REMARK Flexibility Score: inf
ROOT
ATOM      1  C   UNL     1      -3.845  -2.025   1.160  1.00  0.00     0.257 C 
ATOM      2  O   UNL     1      -4.557  -1.026   1.280  1.00  0.00    -0.271 OA
ATOM      3  N   UNL     1      -3.606  -2.790   2.270  1.00  0.00    -0.353 N 
ATOM      4  H   UNL     1      -3.996  -2.458   3.110  1.00  0.00     0.163 HD
ENDROOT
BRANCH   1   5
ATOM      5  C   UNL     1      -3.252  -2.433  -0.197  1.00  0.00     0.329 C 
BRANCH   5   6
ATOM      6  O   UNL     1      -1.837  -2.361  -0.300  1.00  0.00    -0.484 OA
BRANCH   6   7
ATOM      7  C   UNL     1      -1.260  -1.121  -0.304  1.00  0.00     0.120 A 
ATOM      8  C   UNL     1       2.366  -0.046   0.021  1.00  0.00     0.047 C 
ATOM      9  C   UNL     1       0.873   0.082  -0.130  1.00  0.00    -0.024 A 
ATOM     10  C   UNL     1       0.133  -1.118  -0.190  1.00  0.00     0.052 A 
ATOM     11  C   UNL     1       0.185   1.306  -0.190  1.00  0.00     0.044 A 
ATOM     12  C   UNL     1      -1.204   1.292  -0.366  1.00  0.00     0.030 A 
ATOM     13  C   UNL     1      -1.922   0.093  -0.417  1.00  0.00     0.048 A 
BRANCH  11  14
ATOM     14  N   UNL     1       0.899   2.520  -0.136  1.00  0.00    -0.322 N 
ATOM     15  C   UNL     1       0.490   3.792   0.199  1.00  0.00     0.255 C 
ATOM     16  H   UNL     1       1.850   2.446  -0.379  1.00  0.00     0.170 HD
ATOM     17  O   UNL     1       1.172   4.764  -0.123  1.00  0.00    -0.269 OA
BRANCH  15  18
ATOM     18  C   UNL     1      -0.709   4.016   1.040  1.00  0.00     0.040 A 
ATOM     19  C   UNL     1      -1.606   5.020   0.675  1.00  0.00     0.016 A 
ATOM     20  C   UNL     1      -0.922   3.286   2.212  1.00  0.00     0.016 A 
ATOM     21  C   UNL     1      -2.750   5.246   1.448  1.00  0.00     0.027 A 
ATOM     22  C   UNL     1      -2.052   3.540   3.000  1.00  0.00     0.027 A 
ATOM     23  C   UNL     1      -2.991   4.513   2.622  1.00  0.00     0.052 A 
BRANCH  23  24
ATOM     24  N   UNL     1      -4.155   4.758   3.401  1.00  0.00    -0.250 N 
ATOM     25  C   UNL     1      -5.367   5.128   2.853  1.00  0.00     0.238 C 
ATOM     26  C   UNL     1      -4.215   4.614   4.772  1.00  0.00     0.238 C 
ATOM     27  O   UNL     1      -5.660   5.271   1.672  1.00  0.00    -0.274 OA
ATOM     28  C   UNL     1      -6.383   5.259   3.947  1.00  0.00     0.099 C 
ATOM     29  C   UNL     1      -5.591   5.008   5.240  1.00  0.00     0.099 C 
ATOM     30  O   UNL     1      -3.334   4.254   5.543  1.00  0.00    -0.274 OA
ATOM     31  C   UNL     1      -7.443   4.130   3.962  1.00  0.00     0.025 C 
ATOM     32  C   UNL     1      -6.349   3.837   5.882  1.00  0.00     0.025 C 
ATOM     33  C   UNL     1      -8.407   4.471   5.079  1.00  0.00    -0.027 C 
ATOM     34  C   UNL     1      -6.708   2.980   4.663  1.00  0.00     0.017 C 
ATOM     35  C   UNL     1      -7.741   4.312   6.234  1.00  0.00    -0.027 C 
ENDBRANCH  23  24
ENDBRANCH  15  18
ENDBRANCH  11  14
ENDBRANCH   6   7
ENDBRANCH   5   6
ENDBRANCH   1   5
BRANCH   3  36
ATOM     36  C   UNL     1      -2.850  -4.028   2.371  1.00  0.00     0.117 C 
BRANCH  36  37
ATOM     37  C   UNL     1      -1.369  -3.797   2.645  1.00  0.00     0.042 C 
BRANCH  37  38
ATOM     38  C   UNL     1      -1.065  -3.403   4.085  1.00  0.00     0.118 C 
BRANCH  38  39
ATOM     39  N   UNL     1      -0.710  -4.524   4.947  1.00  0.00    -0.352 N 
ATOM     40  C   UNL     1      -0.422  -4.544   6.303  1.00  0.00     0.251 C 
ATOM     41  H   UNL     1      -0.669  -5.399   4.498  1.00  0.00     0.163 HD
ATOM     42  O   UNL     1      -0.117  -5.587   6.848  1.00  0.00    -0.269 OA
BRANCH  40  43
ATOM     43  C   UNL     1      -0.612  -3.311   7.109  1.00  0.00     0.039 A 
ATOM     44  C   UNL     1      -1.309  -3.418   8.319  1.00  0.00     0.014 A 
ATOM     45  C   UNL     1      -0.268  -2.059   6.608  1.00  0.00     0.014 A 
ATOM     46  C   UNL     1      -1.865  -2.276   8.892  1.00  0.00     0.010 A 
ATOM     47  C   UNL     1      -0.892  -0.939   7.119  1.00  0.00     0.010 A 
ATOM     48  C   UNL     1      -1.743  -1.059   8.221  1.00  0.00    -0.014 A 
BRANCH  48  49
ATOM     49  C   UNL     1      -2.616   0.076   8.488  1.00  0.00     0.031 A 
ATOM     50  C   UNL     1      -2.131   1.308   9.143  1.00  0.00     0.074 A 
ATOM     51  C   UNL     1      -3.871   0.044   7.989  1.00  0.00     0.049 A 
ATOM     52  N   UNL     1      -2.879   2.095   9.846  1.00  0.00    -0.248 NA
ATOM     53  C   UNL     1      -0.747   1.754   9.051  1.00  0.00     0.031 C 
ATOM     54  C   UNL     1      -4.783   1.171   7.870  1.00  0.00     0.029 A 
ATOM     55  N   UNL     1      -4.636  -1.067   7.596  1.00  0.00    -0.354 N 
ATOM     56  C   UNL     1      -2.181   3.268  10.025  1.00  0.00     0.074 A 
ATOM     57  C   UNL     1      -0.832   2.974   9.590  1.00  0.00     0.031 C 
ATOM     58  C   UNL     1      -6.032   0.712   7.693  1.00  0.00     0.029 A 
ATOM     59  C   UNL     1      -5.982  -0.726   7.861  1.00  0.00     0.049 A 
ATOM     60  H   UNL     1      -4.302  -1.910   7.214  1.00  0.00     0.167 HD
ATOM     61  C   UNL     1      -2.840   4.417  10.361  1.00  0.00     0.037 A 
ATOM     62  C   UNL     1      -6.735  -1.419   8.763  1.00  0.00     0.037 A 
ATOM     63  C   UNL     1      -4.284   4.210  10.429  1.00  0.00     0.049 A 
ATOM     64  C   UNL     1      -7.241  -0.570   9.904  1.00  0.00     0.074 A 
ATOM     65  C   UNL     1      -5.289   4.484   9.516  1.00  0.00     0.029 A 
ATOM     66  N   UNL     1      -4.844   3.376  11.393  1.00  0.00    -0.354 N 
ATOM     67  N   UNL     1      -6.689   0.555  10.264  1.00  0.00    -0.248 NA
ATOM     68  C   UNL     1      -8.383  -0.926  10.741  1.00  0.00     0.031 C 
ATOM     69  C   UNL     1      -6.449   3.788   9.912  1.00  0.00     0.029 A 
ATOM     70  C   UNL     1      -6.160   3.096  11.073  1.00  0.00     0.049 A 
ATOM     71  H   UNL     1      -4.372   3.035  12.187  1.00  0.00     0.167 HD
ATOM     72  C   UNL     1      -7.364   1.070  11.338  1.00  0.00     0.074 A 
ATOM     73  C   UNL     1      -8.415   0.106  11.602  1.00  0.00     0.031 C 
ATOM     74  C   UNL     1      -7.004   2.258  11.907  1.00  0.00     0.037 A 
BRANCH  61  75
ATOM     75  C   UNL     1      -2.193   5.784  10.265  1.00  0.00     0.064 A 
ATOM     76  C   UNL     1      -2.917   6.922   9.847  1.00  0.00     0.173 A 
ATOM     77  C   UNL     1      -0.833   6.021  10.536  1.00  0.00     0.173 A 
ATOM     78  F   UNL     1      -4.245   6.895   9.688  1.00  0.00    -0.203 F 
ATOM     79  C   UNL     1      -2.301   8.146   9.575  1.00  0.00     0.198 A 
ATOM     80  C   UNL     1      -0.205   7.230  10.217  1.00  0.00     0.198 A 
ATOM     81  F   UNL     1      -0.082   5.094  11.150  1.00  0.00    -0.203 F 
ATOM     82  F   UNL     1      -3.042   9.184   9.158  1.00  0.00    -0.200 F 
ATOM     83  C   UNL     1      -0.938   8.288   9.718  1.00  0.00     0.200 A 
ATOM     84  F   UNL     1       1.117   7.361  10.393  1.00  0.00    -0.200 F 
ATOM     85  F   UNL     1      -0.340   9.446   9.405  1.00  0.00    -0.200 F 
ENDBRANCH  61  75
BRANCH  62  86
ATOM     86  C   UNL     1      -6.332  -2.843   8.876  1.00  0.00     0.064 A 
ATOM     87  C   UNL     1      -6.482  -3.667   7.744  1.00  0.00     0.173 A 
ATOM     88  C   UNL     1      -5.464  -3.274   9.886  1.00  0.00     0.173 A 
ATOM     89  F   UNL     1      -7.296  -3.291   6.744  1.00  0.00    -0.203 F 
ATOM     90  C   UNL     1      -5.701  -4.807   7.573  1.00  0.00     0.198 A 
ATOM     91  C   UNL     1      -4.694  -4.425   9.715  1.00  0.00     0.198 A 
ATOM     92  F   UNL     1      -5.269  -2.524  10.979  1.00  0.00    -0.203 F 
ATOM     93  F   UNL     1      -5.775  -5.502   6.428  1.00  0.00    -0.200 F 
ATOM     94  C   UNL     1      -4.787  -5.169   8.547  1.00  0.00     0.200 A 
ATOM     95  F   UNL     1      -3.787  -4.762  10.643  1.00  0.00    -0.200 F 
ATOM     96  F   UNL     1      -3.965  -6.207   8.341  1.00  0.00    -0.200 F 
ENDBRANCH  62  86
BRANCH  74  97
ATOM     97  C   UNL     1      -7.537   2.818  13.199  1.00  0.00     0.064 A 
ATOM     98  C   UNL     1      -7.960   2.021  14.274  1.00  0.00     0.173 A 
ATOM     99  C   UNL     1      -7.503   4.213  13.446  1.00  0.00     0.173 A 
ATOM    100  F   UNL     1      -7.932   0.684  14.201  1.00  0.00    -0.203 F 
ATOM    101  C   UNL     1      -8.378   2.580  15.485  1.00  0.00     0.198 A 
ATOM    102  C   UNL     1      -7.872   4.762  14.672  1.00  0.00     0.198 A 
ATOM    103  F   UNL     1      -7.093   5.082  12.511  1.00  0.00    -0.203 F 
ATOM    104  F   UNL     1      -8.812   1.779  16.469  1.00  0.00    -0.200 F 
ATOM    105  C   UNL     1      -8.324   3.947  15.688  1.00  0.00     0.200 A 
ATOM    106  F   UNL     1      -7.769   6.085  14.866  1.00  0.00    -0.200 F 
ATOM    107  F   UNL     1      -8.688   4.474  16.864  1.00  0.00    -0.200 F 
ENDBRANCH  74  97
ENDBRANCH  48  49
ENDBRANCH  40  43
ENDBRANCH  38  39
ENDBRANCH  37  38
ENDBRANCH  36  37
ENDBRANCH   3  36
TORSDOF 15
