REMARK SMILES CC[C@@H]1C=CCN1S(=O)(=O)c1sc2c(c1C(=O)NCCCNC(=O)c1ccc(-c3c4nc(c(-c5c(F)c(F)c(F)c(F)c5F)c5ccc([nH]5)c(-c5c(F)c(F)c(F)c(F)c5F)c5nc(c(-c6c(F)c(F)c(F)c(F)c6F)c6ccc3[nH]6)C=C5)C=C4)cc1)CC[NH2+]C2
REMARK SMILES IDX 19 1 18 2 16 3 17 4 15 6 11 7 12 8 13 9 14 10 91 11 88 12
REMARK SMILES IDX 90 13 89 14 8 17 9 18 10 19 7 20 3 21 4 22 5 23 6 24 2 25
REMARK SMILES IDX 1 26 20 27 21 28 22 29 23 30 24 32 25 33 26 34 87 35 27 36
REMARK SMILES IDX 86 37 28 38 29 39 30 40 80 41 31 42 85 43 79 44 81 45 32 46
REMARK SMILES IDX 84 47 78 48 77 49 33 51 65 52 45 53 64 54 46 55 49 56 63 57
REMARK SMILES IDX 82 58 47 59 48 60 62 62 83 63 50 64 34 65 35 66 43 67 36 68
REMARK SMILES IDX 37 69 41 70 44 71 38 72 39 73 42 74 40 75 66 76 67 77 75 78
REMARK SMILES IDX 68 79 69 80 73 81 76 82 70 83 71 84 74 85 72 86 51 87 52 88
REMARK SMILES IDX 60 89 53 90 54 91 58 92 61 93 55 94 56 95 59 96 57 97
REMARK H PARENT 18 5 90 15 90 16 22 31 81 50 49 61
REMARK Flexibility Score: inf
ROOT
ATOM      1  C   UNL     1       1.956   1.957  -2.810  1.00  0.00     0.118 C 
ENDROOT
BRANCH   1   2
ATOM      2  N   UNL     1       3.066   2.212  -3.652  1.00  0.00    -0.352 N 
ATOM      3  C   UNL     1       3.548   1.486  -4.689  1.00  0.00     0.253 C 
ATOM      4  O   UNL     1       4.473   2.088  -5.252  1.00  0.00    -0.269 OA
ATOM      5  H   UNL     1       3.560   3.040  -3.454  1.00  0.00     0.163 HD
BRANCH   3   6
ATOM      6  C   UNL     1       3.103   0.137  -5.167  1.00  0.00     0.074 A 
ATOM      7  C   UNL     1       2.176  -0.872  -4.744  1.00  0.00     0.148 A 
ATOM      8  S   UNL     1       2.257  -2.241  -5.840  1.00  0.00    -0.120 S 
ATOM      9  C   UNL     1       3.467  -1.611  -6.783  1.00  0.00     0.064 A 
ATOM     10  C   UNL     1       3.788  -0.329  -6.422  1.00  0.00    -0.009 A 
ATOM     11  C   UNL     1       4.027  -2.380  -7.940  1.00  0.00     0.308 C 
ATOM     12  C   UNL     1       4.796   0.416  -7.291  1.00  0.00     0.099 C 
ATOM     13  N   UNL     1       5.260  -1.762  -8.450  1.00  0.00    -0.342 N 
ATOM     14  C   UNL     1       5.054  -0.314  -8.629  1.00  0.00     0.265 C 
ATOM     15  H   UNL     1       6.017  -1.917  -7.785  1.00  0.00     0.346 HD
ATOM     16  H   UNL     1       5.501  -2.182  -9.348  1.00  0.00     0.346 HD
BRANCH   7  17
ATOM     17  S   UNL     1       0.840  -1.359  -3.490  1.00  0.00     0.254 S 
ATOM     18  O   UNL     1      -0.062  -2.240  -4.192  1.00  0.00    -0.206 OA
ATOM     19  O   UNL     1       0.259  -0.159  -2.914  1.00  0.00    -0.206 OA
BRANCH  17  20
ATOM     20  N   UNL     1       1.521  -2.269  -2.177  1.00  0.00    -0.186 NA
ATOM     21  C   UNL     1       0.497  -2.569  -1.079  1.00  0.00     0.096 C 
ATOM     22  C   UNL     1       0.221  -4.026  -1.262  1.00  0.00    -0.010 C 
ATOM     23  C   UNL     1       1.115  -4.597  -2.065  1.00  0.00    -0.013 C 
ATOM     24  C   UNL     1       2.070  -3.598  -2.607  1.00  0.00     0.130 C 
BRANCH  21  25
ATOM     25  C   UNL     1       1.094  -2.295   0.319  1.00  0.00     0.021 C 
ATOM     26  C   UNL     1       0.340  -2.991   1.458  1.00  0.00     0.006 C 
ENDBRANCH  21  25
ENDBRANCH  17  20
ENDBRANCH   7  17
ENDBRANCH   3   6
ENDBRANCH   1   2
BRANCH   1  27
ATOM     27  C   UNL     1       2.408   1.219  -1.547  1.00  0.00     0.042 C 
BRANCH  27  28
ATOM     28  C   UNL     1       2.401   2.185  -0.385  1.00  0.00     0.118 C 
BRANCH  28  29
ATOM     29  N   UNL     1       1.038   2.604  -0.011  1.00  0.00    -0.352 N 
ATOM     30  C   UNL     1       0.647   3.455   1.013  1.00  0.00     0.251 C 
ATOM     31  H   UNL     1       0.310   2.231  -0.560  1.00  0.00     0.163 HD
ATOM     32  O   UNL     1      -0.505   3.496   1.420  1.00  0.00    -0.269 OA
BRANCH  30  33
ATOM     33  C   UNL     1       1.669   4.354   1.567  1.00  0.00     0.039 A 
ATOM     34  C   UNL     1       1.829   4.677   2.915  1.00  0.00     0.014 A 
ATOM     35  C   UNL     1       2.555   4.862   0.644  1.00  0.00     0.014 A 
ATOM     36  C   UNL     1       2.944   5.447   3.268  1.00  0.00     0.010 A 
ATOM     37  C   UNL     1       3.816   5.021   1.098  1.00  0.00     0.010 A 
ATOM     38  C   UNL     1       3.940   5.651   2.304  1.00  0.00    -0.014 A 
BRANCH  38  39
ATOM     39  C   UNL     1       5.270   6.190   2.522  1.00  0.00     0.031 A 
ATOM     40  C   UNL     1       5.957   5.485   3.625  1.00  0.00     0.074 A 
ATOM     41  C   UNL     1       5.858   7.055   1.654  1.00  0.00     0.049 A 
ATOM     42  N   UNL     1       6.025   5.892   4.846  1.00  0.00    -0.248 NA
ATOM     43  C   UNL     1       6.356   4.074   3.455  1.00  0.00     0.031 C 
ATOM     44  C   UNL     1       5.360   7.589   0.376  1.00  0.00     0.029 A 
ATOM     45  N   UNL     1       7.092   7.640   1.738  1.00  0.00    -0.354 N 
ATOM     46  C   UNL     1       6.758   4.925   5.517  1.00  0.00     0.074 A 
ATOM     47  C   UNL     1       6.676   3.740   4.709  1.00  0.00     0.031 C 
ATOM     48  C   UNL     1       6.354   8.231  -0.288  1.00  0.00     0.029 A 
ATOM     49  C   UNL     1       7.516   8.305   0.574  1.00  0.00     0.049 A 
ATOM     50  H   UNL     1       7.642   7.598   2.553  1.00  0.00     0.167 HD
ATOM     51  C   UNL     1       7.651   5.314   6.468  1.00  0.00     0.037 A 
ATOM     52  C   UNL     1       8.736   8.889   0.388  1.00  0.00     0.037 A 
ATOM     53  C   UNL     1       7.404   6.692   6.841  1.00  0.00     0.049 A 
ATOM     54  C   UNL     1       9.291   9.135   1.749  1.00  0.00     0.074 A 
ATOM     55  C   UNL     1       6.330   7.378   7.377  1.00  0.00     0.029 A 
ATOM     56  N   UNL     1       8.187   7.638   6.227  1.00  0.00    -0.354 N 
ATOM     57  N   UNL     1       8.752   9.977   2.589  1.00  0.00    -0.248 NA
ATOM     58  C   UNL     1      10.056   8.047   2.340  1.00  0.00     0.031 C 
ATOM     59  C   UNL     1       6.282   8.612   6.659  1.00  0.00     0.029 A 
ATOM     60  C   UNL     1       7.393   8.677   5.817  1.00  0.00     0.049 A 
ATOM     61  H   UNL     1       9.162   7.580   6.101  1.00  0.00     0.167 HD
ATOM     62  C   UNL     1       8.710   9.284   3.790  1.00  0.00     0.074 A 
ATOM     63  C   UNL     1       9.547   8.099   3.574  1.00  0.00     0.031 C 
ATOM     64  C   UNL     1       7.745   9.549   4.720  1.00  0.00     0.037 A 
BRANCH  51  65
ATOM     65  C   UNL     1       9.001   4.668   6.690  1.00  0.00     0.064 A 
ATOM     66  C   UNL     1       9.801   5.148   7.748  1.00  0.00     0.173 A 
ATOM     67  C   UNL     1       9.668   3.848   5.754  1.00  0.00     0.173 A 
ATOM     68  F   UNL     1       9.278   5.946   8.691  1.00  0.00    -0.203 F 
ATOM     69  C   UNL     1      11.176   4.907   7.804  1.00  0.00     0.198 A 
ATOM     70  C   UNL     1      11.031   3.570   5.841  1.00  0.00     0.198 A 
ATOM     71  F   UNL     1       9.074   3.370   4.656  1.00  0.00    -0.203 F 
ATOM     72  F   UNL     1      11.915   5.497   8.752  1.00  0.00    -0.200 F 
ATOM     73  C   UNL     1      11.791   4.125   6.845  1.00  0.00     0.200 A 
ATOM     74  F   UNL     1      11.611   2.827   4.887  1.00  0.00    -0.200 F 
ATOM     75  F   UNL     1      13.118   3.945   6.859  1.00  0.00    -0.200 F 
ENDBRANCH  51  65
BRANCH  52  76
ATOM     76  C   UNL     1       9.626   8.882  -0.809  1.00  0.00     0.064 A 
ATOM     77  C   UNL     1      10.774   9.699  -0.880  1.00  0.00     0.173 A 
ATOM     78  C   UNL     1       9.556   7.841  -1.753  1.00  0.00     0.173 A 
ATOM     79  F   UNL     1      10.956  10.685   0.011  1.00  0.00    -0.203 F 
ATOM     80  C   UNL     1      11.797   9.466  -1.812  1.00  0.00     0.198 A 
ATOM     81  C   UNL     1      10.579   7.606  -2.679  1.00  0.00     0.198 A 
ATOM     82  F   UNL     1       8.541   6.966  -1.726  1.00  0.00    -0.203 F 
ATOM     83  F   UNL     1      12.902  10.228  -1.805  1.00  0.00    -0.200 F 
ATOM     84  C   UNL     1      11.705   8.409  -2.701  1.00  0.00     0.200 A 
ATOM     85  F   UNL     1      10.499   6.552  -3.503  1.00  0.00    -0.200 F 
ATOM     86  F   UNL     1      12.712   8.138  -3.543  1.00  0.00    -0.200 F 
ENDBRANCH  52  76
BRANCH  64  87
ATOM     87  C   UNL     1       6.885  10.768   4.515  1.00  0.00     0.064 A 
ATOM     88  C   UNL     1       5.969  10.945   3.461  1.00  0.00     0.173 A 
ATOM     89  C   UNL     1       6.898  11.743   5.520  1.00  0.00     0.173 A 
ATOM     90  F   UNL     1       5.827  10.017   2.508  1.00  0.00    -0.203 F 
ATOM     91  C   UNL     1       5.137  12.066   3.403  1.00  0.00     0.198 A 
ATOM     92  C   UNL     1       6.046  12.841   5.478  1.00  0.00     0.198 A 
ATOM     93  F   UNL     1       7.712  11.600   6.577  1.00  0.00    -0.203 F 
ATOM     94  F   UNL     1       4.275  12.216   2.385  1.00  0.00    -0.200 F 
ATOM     95  C   UNL     1       5.174  13.010   4.415  1.00  0.00     0.200 A 
ATOM     96  F   UNL     1       6.053  13.723   6.487  1.00  0.00    -0.200 F 
ATOM     97  F   UNL     1       4.355  14.071   4.381  1.00  0.00    -0.200 F 
ENDBRANCH  64  87
ENDBRANCH  38  39
ENDBRANCH  30  33
ENDBRANCH  28  29
ENDBRANCH  27  28
ENDBRANCH   1  27
TORSDOF 13
