REMARK SMILES CS(=O)(=O)c1ccc(N2N=C(C(=O)NCCCNC(=O)c3ccc(-c4c5nc(c(-c6c(F)c(F)c(F)c(F)c6F)c6ccc([nH]6)c(-c6c(F)c(F)c(F)c(F)c6F)c6nc(c(-c7c(F)c(F)c(F)c(F)c7F)c7ccc4[nH]7)C=C6)C=C5)cc3)C[C@H]2c2ccco2)cc1
REMARK SMILES IDX 16 1 15 2 14 3 12 4 13 5 11 7 9 8 10 9 85 10 84 11 8 12 5 13
REMARK SMILES IDX 6 14 92 15 7 16 91 17 2 18 1 19 3 20 4 21 86 22 87 23 90 24
REMARK SMILES IDX 88 25 89 26 17 27 18 28 19 29 20 31 21 32 22 33 83 34 23 35
REMARK SMILES IDX 82 36 24 37 25 38 26 39 76 40 27 41 81 42 75 43 77 44 28 45
REMARK SMILES IDX 80 46 74 47 73 48 29 50 61 51 41 52 60 53 42 54 45 55 59 56
REMARK SMILES IDX 78 57 43 58 44 59 58 61 79 62 46 63 30 64 31 65 39 66 32 67
REMARK SMILES IDX 33 68 37 69 40 70 34 71 35 72 38 73 36 74 62 75 63 76 71 77
REMARK SMILES IDX 64 78 65 79 69 80 72 81 66 82 67 83 70 84 68 85 47 86 48 87
REMARK SMILES IDX 56 88 49 89 50 90 54 91 57 92 51 93 52 94 55 95 53 96
REMARK H PARENT 14 6 18 30 77 49 45 60
REMARK Flexibility Score: inf
ROOT
ATOM      1  C   UNL     1       1.561   7.820   9.396  1.00  0.00     0.042 C 
ENDROOT
BRANCH   1   2
ATOM      2  C   UNL     1       2.302   8.227   8.131  1.00  0.00     0.118 C 
BRANCH   2   3
ATOM      3  N   UNL     1       3.318   7.253   7.778  1.00  0.00    -0.351 N 
ATOM      4  C   UNL     1       3.431   6.282   6.816  1.00  0.00     0.267 C 
ATOM      5  O   UNL     1       4.405   5.535   6.881  1.00  0.00    -0.268 OA
ATOM      6  H   UNL     1       4.108   7.300   8.364  1.00  0.00     0.163 HD
BRANCH   4   7
ATOM      7  C   UNL     1       2.455   6.110   5.664  1.00  0.00     0.128 C 
ATOM      8  N   UNL     1       1.729   5.468   3.761  1.00  0.00    -0.254 N 
ATOM      9  N   UNL     1       2.689   5.264   4.706  1.00  0.00    -0.171 NA
ATOM     10  C   UNL     1       0.678   6.404   4.180  1.00  0.00     0.180 C 
ATOM     11  C   UNL     1       1.188   6.881   5.541  1.00  0.00     0.099 C 
BRANCH   8  12
ATOM     12  C   UNL     1       1.482   4.507   2.784  1.00  0.00     0.060 A 
ATOM     13  C   UNL     1       0.808   2.609   0.824  1.00  0.00     0.067 A 
ATOM     14  C   UNL     1       1.131   2.185   2.114  1.00  0.00     0.022 A 
ATOM     15  C   UNL     1       0.870   3.961   0.490  1.00  0.00     0.022 A 
ATOM     16  C   UNL     1       1.480   3.137   3.081  1.00  0.00     0.029 A 
ATOM     17  C   UNL     1       1.210   4.895   1.467  1.00  0.00     0.029 A 
BRANCH  13  18
ATOM     18  S   UNL     1       0.303   1.475  -0.444  1.00  0.00     0.175 S 
ATOM     19  C   UNL     1       1.031  -0.090  -0.060  1.00  0.00     0.163 C 
ATOM     20  O   UNL     1       0.910   1.931  -1.682  1.00  0.00    -0.224 OA
ATOM     21  O   UNL     1      -1.136   1.344  -0.323  1.00  0.00    -0.224 OA
ENDBRANCH  13  18
ENDBRANCH   8  12
BRANCH  10  22
ATOM     22  C   UNL     1       0.363   7.559   3.271  1.00  0.00     0.128 A 
ATOM     23  C   UNL     1      -0.538   7.723   2.237  1.00  0.00     0.048 A 
ATOM     24  O   UNL     1       1.054   8.726   3.456  1.00  0.00    -0.467 OA
ATOM     25  C   UNL     1      -0.376   9.047   1.762  1.00  0.00     0.042 A 
ATOM     26  C   UNL     1       0.590   9.622   2.552  1.00  0.00     0.195 A 
ENDBRANCH  10  22
ENDBRANCH   4   7
ENDBRANCH   2   3
ENDBRANCH   1   2
BRANCH   1  27
ATOM     27  C   UNL     1       2.403   7.995  10.651  1.00  0.00     0.118 C 
BRANCH  27  28
ATOM     28  N   UNL     1       2.749   9.392  10.884  1.00  0.00    -0.352 N 
ATOM     29  C   UNL     1       2.389  10.240  11.898  1.00  0.00     0.251 C 
ATOM     30  H   UNL     1       3.337   9.790  10.202  1.00  0.00     0.163 HD
ATOM     31  O   UNL     1       2.576  11.447  11.772  1.00  0.00    -0.269 OA
BRANCH  29  32
ATOM     32  C   UNL     1       1.779   9.715  13.137  1.00  0.00     0.039 A 
ATOM     33  C   UNL     1       0.809  10.479  13.789  1.00  0.00     0.014 A 
ATOM     34  C   UNL     1       2.197   8.501  13.687  1.00  0.00     0.014 A 
ATOM     35  C   UNL     1       0.235  10.006  14.969  1.00  0.00     0.010 A 
ATOM     36  C   UNL     1       1.547   7.980  14.799  1.00  0.00     0.010 A 
ATOM     37  C   UNL     1       0.582   8.741  15.470  1.00  0.00    -0.014 A 
BRANCH  37  38
ATOM     38  C   UNL     1      -0.017   8.221  16.724  1.00  0.00     0.031 A 
ATOM     39  C   UNL     1       0.860   7.934  17.913  1.00  0.00     0.074 A 
ATOM     40  C   UNL     1      -1.338   7.970  16.776  1.00  0.00     0.049 A 
ATOM     41  N   UNL     1       0.534   7.450  19.086  1.00  0.00    -0.248 NA
ATOM     42  C   UNL     1       2.301   8.195  17.756  1.00  0.00     0.031 C 
ATOM     43  C   UNL     1      -2.279   8.154  15.670  1.00  0.00     0.029 A 
ATOM     44  N   UNL     1      -2.119   7.503  17.802  1.00  0.00    -0.354 N 
ATOM     45  C   UNL     1       1.725   7.336  19.791  1.00  0.00     0.074 A 
ATOM     46  C   UNL     1       2.789   7.732  18.896  1.00  0.00     0.031 C 
ATOM     47  C   UNL     1      -3.515   7.839  16.088  1.00  0.00     0.029 A 
ATOM     48  C   UNL     1      -3.448   7.395  17.476  1.00  0.00     0.049 A 
ATOM     49  H   UNL     1      -1.760   7.267  18.689  1.00  0.00     0.167 HD
ATOM     50  C   UNL     1       1.913   6.967  21.081  1.00  0.00     0.037 A 
ATOM     51  C   UNL     1      -4.494   6.984  18.217  1.00  0.00     0.037 A 
ATOM     52  C   UNL     1       0.847   6.600  21.974  1.00  0.00     0.049 A 
ATOM     53  C   UNL     1      -4.260   6.584  19.649  1.00  0.00     0.074 A 
ATOM     54  C   UNL     1       0.919   6.262  23.314  1.00  0.00     0.029 A 
ATOM     55  N   UNL     1      -0.491   6.522  21.613  1.00  0.00    -0.354 N 
ATOM     56  N   UNL     1      -3.139   6.551  20.329  1.00  0.00    -0.248 NA
ATOM     57  C   UNL     1      -5.441   6.175  20.421  1.00  0.00     0.031 C 
ATOM     58  C   UNL     1      -0.367   5.928  23.750  1.00  0.00     0.029 A 
ATOM     59  C   UNL     1      -1.251   6.120  22.700  1.00  0.00     0.049 A 
ATOM     60  H   UNL     1      -0.848   6.722  20.718  1.00  0.00     0.167 HD
ATOM     61  C   UNL     1      -3.483   6.155  21.614  1.00  0.00     0.074 A 
ATOM     62  C   UNL     1      -4.920   5.976  21.622  1.00  0.00     0.031 C 
ATOM     63  C   UNL     1      -2.683   5.957  22.692  1.00  0.00     0.037 A 
BRANCH  50  64
ATOM     64  C   UNL     1       3.323   6.947  21.600  1.00  0.00     0.064 A 
ATOM     65  C   UNL     1       4.065   8.128  21.770  1.00  0.00     0.173 A 
ATOM     66  C   UNL     1       3.934   5.736  21.959  1.00  0.00     0.173 A 
ATOM     67  F   UNL     1       3.535   9.313  21.430  1.00  0.00    -0.203 F 
ATOM     68  C   UNL     1       5.374   8.092  22.244  1.00  0.00     0.198 A 
ATOM     69  C   UNL     1       5.230   5.708  22.467  1.00  0.00     0.198 A 
ATOM     70  F   UNL     1       3.272   4.578  21.823  1.00  0.00    -0.203 F 
ATOM     71  F   UNL     1       6.081   9.227  22.339  1.00  0.00    -0.200 F 
ATOM     72  C   UNL     1       5.952   6.884  22.600  1.00  0.00     0.200 A 
ATOM     73  F   UNL     1       5.783   4.540  22.825  1.00  0.00    -0.200 F 
ATOM     74  F   UNL     1       7.210   6.852  23.063  1.00  0.00    -0.200 F 
ENDBRANCH  50  64
BRANCH  51  75
ATOM     75  C   UNL     1      -5.861   6.968  17.632  1.00  0.00     0.064 A 
ATOM     76  C   UNL     1      -6.849   7.855  18.083  1.00  0.00     0.173 A 
ATOM     77  C   UNL     1      -6.211   6.062  16.620  1.00  0.00     0.173 A 
ATOM     78  F   UNL     1      -6.568   8.729  19.060  1.00  0.00    -0.203 F 
ATOM     79  C   UNL     1      -8.142   7.817  17.565  1.00  0.00     0.198 A 
ATOM     80  C   UNL     1      -7.495   6.048  16.080  1.00  0.00     0.198 A 
ATOM     81  F   UNL     1      -5.301   5.199  16.146  1.00  0.00    -0.203 F 
ATOM     82  F   UNL     1      -9.080   8.640  18.052  1.00  0.00    -0.200 F 
ATOM     83  C   UNL     1      -8.463   6.917  16.560  1.00  0.00     0.200 A 
ATOM     84  F   UNL     1      -7.796   5.189  15.096  1.00  0.00    -0.200 F 
ATOM     85  F   UNL     1      -9.705   6.883  16.060  1.00  0.00    -0.200 F 
ENDBRANCH  51  75
BRANCH  63  86
ATOM     86  C   UNL     1      -3.351   5.572  23.981  1.00  0.00     0.064 A 
ATOM     87  C   UNL     1      -3.953   4.317  24.159  1.00  0.00     0.173 A 
ATOM     88  C   UNL     1      -3.369   6.467  25.062  1.00  0.00     0.173 A 
ATOM     89  F   UNL     1      -3.974   3.429  23.153  1.00  0.00    -0.203 F 
ATOM     90  C   UNL     1      -4.582   3.989  25.357  1.00  0.00     0.198 A 
ATOM     91  C   UNL     1      -3.966   6.121  26.270  1.00  0.00     0.198 A 
ATOM     92  F   UNL     1      -2.800   7.677  24.949  1.00  0.00    -0.203 F 
ATOM     93  F   UNL     1      -5.206   2.809  25.482  1.00  0.00    -0.200 F 
ATOM     94  C   UNL     1      -4.582   4.888  26.413  1.00  0.00     0.200 A 
ATOM     95  F   UNL     1      -3.949   6.984  27.296  1.00  0.00    -0.200 F 
ATOM     96  F   UNL     1      -5.185   4.568  27.567  1.00  0.00    -0.200 F 
ENDBRANCH  63  86
ENDBRANCH  37  38
ENDBRANCH  29  32
ENDBRANCH  27  28
ENDBRANCH   1  27
TORSDOF 13
