REMARK SMILES O=C(CC1CC[NH+](CCC(=O)NC2CC2)CC1)NCCCNC(=O)c1ccc(-c2c3nc(c(-c4c(F)c(F)c(F)c(F)c4F)c4ccc([nH]4)c(-c4c(F)c(F)c(F)c(F)c4F)c4nc(c(-c5c(F)c(F)c(F)c(F)c5F)c5ccc2[nH]5)C=C4)C=C3)cc1
REMARK SMILES IDX 1 1 2 2 18 3 3 5 4 6 5 7 17 8 6 9 16 10 7 11 8 13 9 14 10 15
REMARK SMILES IDX 11 16 12 17 13 19 14 20 15 21 19 22 20 23 21 24 22 25 23 26
REMARK SMILES IDX 24 28 25 29 26 30 87 31 27 32 86 33 28 34 29 35 30 36 80 37
REMARK SMILES IDX 31 38 85 39 79 40 81 41 32 42 84 43 78 44 77 45 33 47 65 48
REMARK SMILES IDX 45 49 64 50 46 51 49 52 63 53 82 54 47 55 48 56 62 58 83 59
REMARK SMILES IDX 50 60 34 61 35 62 43 63 36 64 37 65 41 66 44 67 38 68 39 69
REMARK SMILES IDX 42 70 40 71 66 72 67 73 75 74 68 75 69 76 73 77 76 78 70 79
REMARK SMILES IDX 71 80 74 81 72 82 51 83 52 84 60 85 53 86 54 87 58 88 61 89
REMARK SMILES IDX 55 90 56 91 59 92 57 93
REMARK H PARENT 18 4 7 12 12 18 22 27 81 46 49 57
REMARK Flexibility Score: inf
ROOT
ATOM      1  O   UNL     1       2.034  -1.045   0.593  1.00  0.00    -0.275 OA
ATOM      2  C   UNL     1       3.041  -0.352   0.479  1.00  0.00     0.220 C 
ATOM      3  N   UNL     1       3.301   0.698   1.319  1.00  0.00    -0.356 N 
ATOM      4  H   UNL     1       4.223   1.039   1.374  1.00  0.00     0.163 HD
ENDROOT
BRANCH   2   5
ATOM      5  C   UNL     1       4.141  -0.694  -0.520  1.00  0.00     0.104 C 
BRANCH   5   6
ATOM      6  C   UNL     1       4.628   0.305  -1.609  1.00  0.00     0.009 C 
ATOM      7  C   UNL     1       5.016   1.709  -1.158  1.00  0.00     0.066 C 
ATOM      8  C   UNL     1       3.783   0.346  -2.898  1.00  0.00     0.066 C 
ATOM      9  C   UNL     1       3.845   2.680  -1.087  1.00  0.00     0.262 C 
ATOM     10  C   UNL     1       3.117   1.686  -3.283  1.00  0.00     0.262 C 
ATOM     11  N   UNL     1       3.002   2.684  -2.250  1.00  0.00    -0.334 N 
ATOM     12  H   UNL     1       3.689   2.907  -2.971  1.00  0.00     0.348 HD
BRANCH  11  13
ATOM     13  C   UNL     1       1.924   3.661  -2.271  1.00  0.00     0.272 C 
BRANCH  13  14
ATOM     14  C   UNL     1       0.509   3.113  -2.078  1.00  0.00     0.161 C 
BRANCH  14  15
ATOM     15  C   UNL     1       0.239   2.546  -0.697  1.00  0.00     0.225 C 
ATOM     16  O   UNL     1       0.173   3.263   0.302  1.00  0.00    -0.275 OA
ATOM     17  N   UNL     1       0.034   1.193  -0.586  1.00  0.00    -0.353 N 
ATOM     18  H   UNL     1      -0.397   0.869   0.238  1.00  0.00     0.163 HD
BRANCH  17  19
ATOM     19  C   UNL     1       0.391   0.221  -1.558  1.00  0.00     0.082 C 
ATOM     20  C   UNL     1      -0.085  -1.200  -1.487  1.00  0.00     0.027 C 
ATOM     21  C   UNL     1      -0.566  -0.297  -2.583  1.00  0.00     0.027 C 
ENDBRANCH  17  19
ENDBRANCH  14  15
ENDBRANCH  13  14
ENDBRANCH  11  13
ENDBRANCH   5   6
ENDBRANCH   2   5
BRANCH   3  22
ATOM     22  C   UNL     1       2.277   1.331   2.132  1.00  0.00     0.117 C 
BRANCH  22  23
ATOM     23  C   UNL     1       2.577   1.304   3.617  1.00  0.00     0.042 C 
BRANCH  23  24
ATOM     24  C   UNL     1       3.987   1.728   3.983  1.00  0.00     0.118 C 
BRANCH  24  25
ATOM     25  N   UNL     1       4.376   3.052   3.513  1.00  0.00    -0.352 N 
ATOM     26  C   UNL     1       5.193   3.969   4.135  1.00  0.00     0.251 C 
ATOM     27  H   UNL     1       4.008   3.325   2.642  1.00  0.00     0.163 HD
ATOM     28  O   UNL     1       5.412   5.063   3.622  1.00  0.00    -0.269 OA
BRANCH  26  29
ATOM     29  C   UNL     1       5.753   3.647   5.464  1.00  0.00     0.039 A 
ATOM     30  C   UNL     1       5.607   4.576   6.497  1.00  0.00     0.014 A 
ATOM     31  C   UNL     1       6.330   2.400   5.713  1.00  0.00     0.014 A 
ATOM     32  C   UNL     1       5.962   4.217   7.798  1.00  0.00     0.010 A 
ATOM     33  C   UNL     1       6.578   2.008   7.022  1.00  0.00     0.010 A 
ATOM     34  C   UNL     1       6.405   2.914   8.079  1.00  0.00    -0.014 A 
BRANCH  34  35
ATOM     35  C   UNL     1       6.703   2.486   9.469  1.00  0.00     0.031 A 
ATOM     36  C   UNL     1       8.090   2.033   9.835  1.00  0.00     0.074 A 
ATOM     37  C   UNL     1       5.715   2.447  10.386  1.00  0.00     0.049 A 
ATOM     38  N   UNL     1       8.543   1.591  10.981  1.00  0.00    -0.248 NA
ATOM     39  C   UNL     1       9.095   2.039   8.759  1.00  0.00     0.031 C 
ATOM     40  C   UNL     1       4.312   2.783  10.135  1.00  0.00     0.029 A 
ATOM     41  N   UNL     1       5.741   2.106  11.715  1.00  0.00    -0.354 N 
ATOM     42  C   UNL     1       9.870   1.251  10.755  1.00  0.00     0.074 A 
ATOM     43  C   UNL     1      10.132   1.467   9.350  1.00  0.00     0.031 C 
ATOM     44  C   UNL     1       3.621   2.671  11.281  1.00  0.00     0.029 A 
ATOM     45  C   UNL     1       4.524   2.229  12.339  1.00  0.00     0.049 A 
ATOM     46  H   UNL     1       6.555   1.801  12.177  1.00  0.00     0.167 HD
ATOM     47  C   UNL     1      10.800   0.831  11.645  1.00  0.00     0.037 A 
ATOM     48  C   UNL     1       4.180   2.019  13.624  1.00  0.00     0.037 A 
ATOM     49  C   UNL     1      10.548   0.660  13.051  1.00  0.00     0.049 A 
ATOM     50  C   UNL     1       5.241   1.594  14.604  1.00  0.00     0.074 A 
ATOM     51  C   UNL     1      11.436   0.308  14.051  1.00  0.00     0.029 A 
ATOM     52  N   UNL     1       9.312   0.836  13.655  1.00  0.00    -0.354 N 
ATOM     53  N   UNL     1       6.513   1.357  14.396  1.00  0.00    -0.248 NA
ATOM     54  C   UNL     1       4.819   1.421  16.001  1.00  0.00     0.031 C 
ATOM     55  C   UNL     1      10.729   0.235  15.256  1.00  0.00     0.029 A 
ATOM     56  C   UNL     1       9.411   0.588  15.014  1.00  0.00     0.049 A 
ATOM     57  H   UNL     1       8.486   1.099  13.187  1.00  0.00     0.167 HD
ATOM     58  C   UNL     1       7.050   1.036  15.635  1.00  0.00     0.074 A 
ATOM     59  C   UNL     1       5.968   1.127  16.593  1.00  0.00     0.031 C 
ATOM     60  C   UNL     1       8.323   0.694  15.952  1.00  0.00     0.037 A 
BRANCH  47  61
ATOM     61  C   UNL     1      12.179   0.548  11.123  1.00  0.00     0.064 A 
ATOM     62  C   UNL     1      13.016   1.577  10.663  1.00  0.00     0.173 A 
ATOM     63  C   UNL     1      12.678  -0.762  11.099  1.00  0.00     0.173 A 
ATOM     64  F   UNL     1      12.581   2.846  10.650  1.00  0.00    -0.203 F 
ATOM     65  C   UNL     1      14.286   1.301  10.165  1.00  0.00     0.198 A 
ATOM     66  C   UNL     1      13.962  -1.031  10.631  1.00  0.00     0.198 A 
ATOM     67  F   UNL     1      11.922  -1.783  11.530  1.00  0.00    -0.203 F 
ATOM     68  F   UNL     1      15.043   2.293   9.676  1.00  0.00    -0.200 F 
ATOM     69  C   UNL     1      14.761  -0.002  10.156  1.00  0.00     0.200 A 
ATOM     70  F   UNL     1      14.425  -2.289  10.633  1.00  0.00    -0.200 F 
ATOM     71  F   UNL     1      15.986  -0.266   9.680  1.00  0.00    -0.200 F 
ENDBRANCH  47  61
BRANCH  48  72
ATOM     72  C   UNL     1       2.783   2.259  14.072  1.00  0.00     0.064 A 
ATOM     73  C   UNL     1       2.472   3.341  14.908  1.00  0.00     0.173 A 
ATOM     74  C   UNL     1       1.733   1.414  13.683  1.00  0.00     0.173 A 
ATOM     75  F   UNL     1       3.445   4.166  15.322  1.00  0.00    -0.203 F 
ATOM     76  C   UNL     1       1.171   3.555  15.357  1.00  0.00     0.198 A 
ATOM     77  C   UNL     1       0.427   1.645  14.111  1.00  0.00     0.198 A 
ATOM     78  F   UNL     1       1.976   0.368  12.879  1.00  0.00    -0.203 F 
ATOM     79  F   UNL     1       0.912   4.569  16.195  1.00  0.00    -0.200 F 
ATOM     80  C   UNL     1       0.148   2.710  14.954  1.00  0.00     0.200 A 
ATOM     81  F   UNL     1      -0.561   0.834  13.709  1.00  0.00    -0.200 F 
ATOM     82  F   UNL     1      -1.103   2.916  15.386  1.00  0.00    -0.200 F 
ENDBRANCH  48  72
BRANCH  60  83
ATOM     83  C   UNL     1       8.620   0.427  17.398  1.00  0.00     0.064 A 
ATOM     84  C   UNL     1       8.152  -0.726  18.046  1.00  0.00     0.173 A 
ATOM     85  C   UNL     1       9.409   1.323  18.136  1.00  0.00     0.173 A 
ATOM     86  F   UNL     1       7.383  -1.605  17.387  1.00  0.00    -0.203 F 
ATOM     87  C   UNL     1       8.439  -0.957  19.388  1.00  0.00     0.198 A 
ATOM     88  C   UNL     1       9.719   1.073  19.469  1.00  0.00     0.198 A 
ATOM     89  F   UNL     1       9.888   2.436  17.560  1.00  0.00    -0.203 F 
ATOM     90  F   UNL     1       7.938  -2.038  20.001  1.00  0.00    -0.200 F 
ATOM     91  C   UNL     1       9.226  -0.062  20.097  1.00  0.00     0.200 A 
ATOM     92  F   UNL     1      10.492   1.931  20.148  1.00  0.00    -0.200 F 
ATOM     93  F   UNL     1       9.504  -0.288  21.388  1.00  0.00    -0.200 F 
ENDBRANCH  60  83
ENDBRANCH  34  35
ENDBRANCH  26  29
ENDBRANCH  24  25
ENDBRANCH  23  24
ENDBRANCH  22  23
ENDBRANCH   3  22
TORSDOF 15
