REMARK SMILES Cc1cscc1CNC(=O)N[C@@H](C)c1nc(C(=O)NCCCNC(=O)c2ccc(-c3c4nc(c(-c5c(F)c(F)c(F)c(F)c5F)c5ccc([nH]5)c(-c5c(F)c(F)c(F)c(F)c5F)c5nc(c(-c6c(F)c(F)c(F)c(F)c6F)c6ccc3[nH]6)C=C5)C=C4)cc2)cs1
REMARK SMILES IDX 20 1 19 2 17 3 18 4 16 6 14 7 15 8 90 9 89 10 12 11 13 12
REMARK SMILES IDX 11 13 8 14 9 15 10 17 7 19 6 20 1 21 2 22 3 23 4 24 5 25
REMARK SMILES IDX 21 26 22 27 23 28 24 29 25 31 26 32 27 33 88 34 28 35 87 36
REMARK SMILES IDX 29 37 30 38 31 39 81 40 32 41 86 42 80 43 82 44 33 45 85 46
REMARK SMILES IDX 79 47 78 48 34 50 66 51 46 52 65 53 47 54 50 55 64 56 83 57
REMARK SMILES IDX 48 58 49 59 63 61 84 62 51 63 35 64 36 65 44 66 37 67 38 68
REMARK SMILES IDX 42 69 45 70 39 71 40 72 43 73 41 74 67 75 68 76 76 77 69 78
REMARK SMILES IDX 70 79 74 80 77 81 71 82 72 83 75 84 73 85 52 86 53 87 61 88
REMARK SMILES IDX 54 89 55 90 59 91 62 92 56 93 57 94 60 95 58 96
REMARK H PARENT 19 5 8 16 11 18 23 30 82 49 50 60
REMARK Flexibility Score: inf
ROOT
ATOM      1  C   UNL     1      -2.175   7.838   3.688  1.00  0.00     0.118 C 
ENDROOT
BRANCH   1   2
ATOM      2  N   UNL     1      -3.320   7.071   4.144  1.00  0.00    -0.351 N 
ATOM      3  C   UNL     1      -3.563   5.718   4.107  1.00  0.00     0.270 C 
ATOM      4  O   UNL     1      -4.611   5.318   4.612  1.00  0.00    -0.267 OA
ATOM      5  H   UNL     1      -4.040   7.607   4.546  1.00  0.00     0.163 HD
BRANCH   3   6
ATOM      6  C   UNL     1      -2.583   4.791   3.526  1.00  0.00     0.139 A 
ATOM      7  C   UNL     1      -0.746   4.139   2.442  1.00  0.00     0.116 A 
ATOM      8  N   UNL     1      -1.500   5.179   2.737  1.00  0.00    -0.234 NA
ATOM      9  S   UNL     1      -1.326   2.627   3.014  1.00  0.00    -0.124 S 
ATOM     10  C   UNL     1      -2.661   3.422   3.725  1.00  0.00     0.101 A 
BRANCH   7  11
ATOM     11  C   UNL     1       0.556   4.219   1.678  1.00  0.00     0.140 C 
ATOM     12  C   UNL     1       1.562   5.080   2.442  1.00  0.00     0.039 C 
BRANCH  11  13
ATOM     13  N   UNL     1       0.279   4.828   0.386  1.00  0.00    -0.329 N 
ATOM     14  N   UNL     1       1.077   3.381  -1.303  1.00  0.00    -0.334 N 
ATOM     15  C   UNL     1       0.467   4.492  -0.888  1.00  0.00     0.315 C 
ATOM     16  H   UNL     1       1.056   3.286  -2.282  1.00  0.00     0.165 HD
ATOM     17  O   UNL     1       0.031   5.258  -1.751  1.00  0.00    -0.249 OA
ATOM     18  H   UNL     1      -0.154   5.707   0.476  1.00  0.00     0.166 HD
BRANCH  14  19
ATOM     19  C   UNL     1       1.763   2.285  -0.661  1.00  0.00     0.154 C 
BRANCH  19  20
ATOM     20  C   UNL     1       0.832   1.132  -0.391  1.00  0.00    -0.015 A 
ATOM     21  C   UNL     1       2.713  -0.645  -0.035  1.00  0.00     0.045 C 
ATOM     22  C   UNL     1       1.282  -0.218  -0.106  1.00  0.00    -0.035 A 
ATOM     23  C   UNL     1       0.219  -1.079   0.090  1.00  0.00     0.068 A 
ATOM     24  S   UNL     1      -1.294  -0.309  -0.046  1.00  0.00    -0.152 S 
ATOM     25  C   UNL     1      -0.553   1.190  -0.381  1.00  0.00     0.070 A 
ENDBRANCH  19  20
ENDBRANCH  14  19
ENDBRANCH  11  13
ENDBRANCH   7  11
ENDBRANCH   3   6
ENDBRANCH   1   2
BRANCH   1  26
ATOM     26  C   UNL     1      -2.449   8.524   2.352  1.00  0.00     0.042 C 
BRANCH  26  27
ATOM     27  C   UNL     1      -3.463   9.664   2.456  1.00  0.00     0.118 C 
BRANCH  27  28
ATOM     28  N   UNL     1      -2.981  10.764   3.285  1.00  0.00    -0.352 N 
ATOM     29  C   UNL     1      -2.807  12.091   2.986  1.00  0.00     0.251 C 
ATOM     30  H   UNL     1      -2.742  10.513   4.207  1.00  0.00     0.163 HD
ATOM     31  O   UNL     1      -2.199  12.818   3.766  1.00  0.00    -0.269 OA
BRANCH  29  32
ATOM     32  C   UNL     1      -3.336  12.649   1.726  1.00  0.00     0.039 A 
ATOM     33  C   UNL     1      -2.534  13.523   0.986  1.00  0.00     0.014 A 
ATOM     34  C   UNL     1      -4.625  12.336   1.289  1.00  0.00     0.014 A 
ATOM     35  C   UNL     1      -2.997  14.026  -0.232  1.00  0.00     0.010 A 
ATOM     36  C   UNL     1      -5.062  12.789   0.047  1.00  0.00     0.010 A 
ATOM     37  C   UNL     1      -4.250  13.630  -0.728  1.00  0.00    -0.014 A 
BRANCH  37  38
ATOM     38  C   UNL     1      -4.722  14.058  -2.067  1.00  0.00     0.031 A 
ATOM     39  C   UNL     1      -5.929  14.941  -2.197  1.00  0.00     0.074 A 
ATOM     40  C   UNL     1      -4.114  13.575  -3.166  1.00  0.00     0.049 A 
ATOM     41  N   UNL     1      -6.566  15.320  -3.276  1.00  0.00    -0.248 NA
ATOM     42  C   UNL     1      -6.513  15.445  -0.944  1.00  0.00     0.031 C 
ATOM     43  C   UNL     1      -2.954  12.682  -3.167  1.00  0.00     0.029 A 
ATOM     44  N   UNL     1      -4.399  13.751  -4.497  1.00  0.00    -0.354 N 
ATOM     45  C   UNL     1      -7.632  16.091  -2.833  1.00  0.00     0.074 A 
ATOM     46  C   UNL     1      -7.582  16.092  -1.386  1.00  0.00     0.031 C 
ATOM     47  C   UNL     1      -2.618  12.399  -4.435  1.00  0.00     0.029 A 
ATOM     48  C   UNL     1      -3.562  13.055  -5.334  1.00  0.00     0.049 A 
ATOM     49  H   UNL     1      -5.133  14.322  -4.820  1.00  0.00     0.167 HD
ATOM     50  C   UNL     1      -8.557  16.751  -3.569  1.00  0.00     0.037 A 
ATOM     51  C   UNL     1      -3.567  12.945  -6.675  1.00  0.00     0.037 A 
ATOM     52  C   UNL     1      -8.591  16.763  -5.008  1.00  0.00     0.049 A 
ATOM     53  C   UNL     1      -4.622  13.666  -7.468  1.00  0.00     0.074 A 
ATOM     54  C   UNL     1      -9.452  17.448  -5.847  1.00  0.00     0.029 A 
ATOM     55  N   UNL     1      -7.723  16.049  -5.823  1.00  0.00    -0.354 N 
ATOM     56  N   UNL     1      -5.593  14.436  -7.043  1.00  0.00    -0.248 NA
ATOM     57  C   UNL     1      -4.582  13.499  -8.927  1.00  0.00     0.031 C 
ATOM     58  C   UNL     1      -9.131  17.118  -7.168  1.00  0.00     0.029 A 
ATOM     59  C   UNL     1      -8.043  16.260  -7.154  1.00  0.00     0.049 A 
ATOM     60  H   UNL     1      -6.989  15.478  -5.502  1.00  0.00     0.167 HD
ATOM     61  C   UNL     1      -6.266  14.864  -8.178  1.00  0.00     0.074 A 
ATOM     62  C   UNL     1      -5.584  14.277  -9.314  1.00  0.00     0.031 C 
ATOM     63  C   UNL     1      -7.350  15.671  -8.272  1.00  0.00     0.037 A 
BRANCH  50  64
ATOM     64  C   UNL     1      -9.612  17.518  -2.826  1.00  0.00     0.064 A 
ATOM     65  C   UNL     1      -9.308  18.698  -2.130  1.00  0.00     0.173 A 
ATOM     66  C   UNL     1     -10.946  17.085  -2.832  1.00  0.00     0.173 A 
ATOM     67  F   UNL     1      -8.045  19.148  -2.085  1.00  0.00    -0.203 F 
ATOM     68  C   UNL     1     -10.294  19.398  -1.442  1.00  0.00     0.198 A 
ATOM     69  C   UNL     1     -11.935  17.803  -2.166  1.00  0.00     0.198 A 
ATOM     70  F   UNL     1     -11.292  15.966  -3.487  1.00  0.00    -0.203 F 
ATOM     71  F   UNL     1      -9.971  20.496  -0.744  1.00  0.00    -0.200 F 
ATOM     72  C   UNL     1     -11.608  18.954  -1.465  1.00  0.00     0.200 A 
ATOM     73  F   UNL     1     -13.207  17.379  -2.198  1.00  0.00    -0.200 F 
ATOM     74  F   UNL     1     -12.557  19.632  -0.805  1.00  0.00    -0.200 F 
ENDBRANCH  50  64
BRANCH  51  75
ATOM     75  C   UNL     1      -2.525  12.133  -7.353  1.00  0.00     0.064 A 
ATOM     76  C   UNL     1      -1.510  12.752  -8.095  1.00  0.00     0.173 A 
ATOM     77  C   UNL     1      -2.515  10.734  -7.269  1.00  0.00     0.173 A 
ATOM     78  F   UNL     1      -1.493  14.087  -8.222  1.00  0.00    -0.203 F 
ATOM     79  C   UNL     1      -0.529  12.000  -8.737  1.00  0.00     0.198 A 
ATOM     80  C   UNL     1      -1.520   9.984  -7.892  1.00  0.00     0.198 A 
ATOM     81  F   UNL     1      -3.466  10.096  -6.570  1.00  0.00    -0.203 F 
ATOM     82  F   UNL     1       0.410  12.614  -9.471  1.00  0.00    -0.200 F 
ATOM     83  C   UNL     1      -0.531  10.617  -8.630  1.00  0.00     0.200 A 
ATOM     84  F   UNL     1      -1.519   8.649  -7.780  1.00  0.00    -0.200 F 
ATOM     85  F   UNL     1       0.416   9.895  -9.245  1.00  0.00    -0.200 F 
ENDBRANCH  51  75
BRANCH  63  86
ATOM     86  C   UNL     1      -7.850  15.990  -9.649  1.00  0.00     0.064 A 
ATOM     87  C   UNL     1      -8.547  15.044 -10.414  1.00  0.00     0.173 A 
ATOM     88  C   UNL     1      -7.668  17.271 -10.191  1.00  0.00     0.173 A 
ATOM     89  F   UNL     1      -8.730  13.800  -9.945  1.00  0.00    -0.203 F 
ATOM     90  C   UNL     1      -9.028  15.364 -11.680  1.00  0.00     0.198 A 
ATOM     91  C   UNL     1      -8.173  17.595 -11.447  1.00  0.00     0.198 A 
ATOM     92  F   UNL     1      -7.011  18.212  -9.496  1.00  0.00    -0.203 F 
ATOM     93  F   UNL     1      -9.658  14.433 -12.411  1.00  0.00    -0.200 F 
ATOM     94  C   UNL     1      -8.848  16.640 -12.192  1.00  0.00     0.200 A 
ATOM     95  F   UNL     1      -8.008  18.832 -11.935  1.00  0.00    -0.200 F 
ATOM     96  F   UNL     1      -9.320  16.949 -13.408  1.00  0.00    -0.200 F 
ENDBRANCH  63  86
ENDBRANCH  37  38
ENDBRANCH  29  32
ENDBRANCH  27  28
ENDBRANCH  26  27
ENDBRANCH   1  26
TORSDOF 14
