REMARK SMILES O=C(COc1ccc(/C=C2\SC(=O)N(Cc3cc4c(cc3Cl)OCO4)C2=O)cc1)NCCCNC(=O)c1ccc(-c2c3nc(c(-c4c(F)c(F)c(F)c(F)c4F)c4ccc([nH]4)c(-c4c(F)c(F)c(F)c(F)c4F)c4nc(c(-c5c(F)c(F)c(F)c(F)c5F)c5ccc2[nH]5)C=C4)C=C3)cc1
REMARK SMILES IDX 1 1 2 2 30 3 3 5 4 6 5 7 6 8 29 9 7 10 28 11 8 12 9 13 10 14
REMARK SMILES IDX 11 15 26 16 12 17 14 18 27 19 13 20 15 21 16 22 17 23 21 24
REMARK SMILES IDX 18 25 20 26 22 27 19 28 25 29 23 30 24 31 31 32 32 33 33 34
REMARK SMILES IDX 34 35 35 36 36 38 37 39 38 40 99 41 39 42 98 43 40 44 41 45
REMARK SMILES IDX 42 46 92 47 43 48 97 49 91 50 93 51 44 52 96 53 90 54 89 55
REMARK SMILES IDX 45 57 77 58 57 59 76 60 58 61 61 62 75 63 94 64 59 65 60 66
REMARK SMILES IDX 74 68 95 69 62 70 46 71 47 72 55 73 48 74 49 75 53 76 56 77
REMARK SMILES IDX 50 78 51 79 54 80 52 81 78 82 79 83 87 84 80 85 81 86 85 87
REMARK SMILES IDX 88 88 82 89 83 90 86 91 84 92 63 93 64 94 72 95 65 96 66 97
REMARK SMILES IDX 70 98 73 99 67 100 68 101 71 102 69 103
REMARK H PARENT 30 4 34 37 93 56 61 67
REMARK Flexibility Score: inf
ROOT
ATOM      1  O   UNL     1       1.308   1.132   0.222  1.00  0.00    -0.271 OA
ATOM      2  C   UNL     1       2.322   0.443   0.173  1.00  0.00     0.257 C 
ATOM      3  N   UNL     1       2.921   0.058  -1.010  1.00  0.00    -0.353 N 
ATOM      4  H   UNL     1       3.858  -0.244  -0.998  1.00  0.00     0.163 HD
ENDROOT
BRANCH   2   5
ATOM      5  C   UNL     1       2.986  -0.140   1.431  1.00  0.00     0.329 C 
BRANCH   5   6
ATOM      6  O   UNL     1       3.826  -1.283   1.257  1.00  0.00    -0.484 OA
BRANCH   6   7
ATOM      7  C   UNL     1       3.177  -2.479   1.083  1.00  0.00     0.120 A 
ATOM      8  C   UNL     1       3.742  -3.602   1.696  1.00  0.00     0.047 A 
ATOM      9  C   UNL     1       2.058  -2.642   0.271  1.00  0.00     0.047 A 
ATOM     10  C   UNL     1       3.172  -4.871   1.515  1.00  0.00     0.012 A 
ATOM     11  C   UNL     1       1.517  -3.897   0.057  1.00  0.00     0.012 A 
ATOM     12  C   UNL     1       2.060  -5.014   0.686  1.00  0.00    -0.024 A 
BRANCH  12  13
ATOM     13  C   UNL     1       1.335  -6.254   0.468  1.00  0.00     0.029 C 
ATOM     14  C   UNL     1       1.443  -7.027  -0.616  1.00  0.00     0.083 C 
ATOM     15  S   UNL     1       2.631  -7.072  -1.849  1.00  0.00    -0.022 SA
ATOM     16  C   UNL     1       0.432  -8.071  -0.867  1.00  0.00     0.268 C 
ATOM     17  C   UNL     1       2.061  -8.649  -2.408  1.00  0.00     0.293 C 
ATOM     18  N   UNL     1       0.972  -9.031  -1.677  1.00  0.00    -0.264 N 
ATOM     19  O   UNL     1      -0.717  -8.021  -0.453  1.00  0.00    -0.268 OA
ATOM     20  O   UNL     1       2.577  -9.249  -3.338  1.00  0.00    -0.261 OA
BRANCH  18  21
ATOM     21  C   UNL     1       0.306 -10.300  -1.851  1.00  0.00     0.167 C 
BRANCH  21  22
ATOM     22  C   UNL     1       0.902 -11.426  -1.016  1.00  0.00    -0.005 A 
ATOM     23  C   UNL     1       1.260 -12.610  -1.697  1.00  0.00     0.057 A 
ATOM     24  C   UNL     1       1.036 -11.404   0.402  1.00  0.00     0.050 A 
ATOM     25  C   UNL     1       1.696 -13.695  -0.963  1.00  0.00     0.166 A 
ATOM     26  C   UNL     1       1.530 -12.507   1.109  1.00  0.00     0.071 A 
ATOM     27  Cl  UNL     1       0.560 -10.085   1.404  1.00  0.00    -0.084 Cl
ATOM     28  C   UNL     1       1.831 -13.640   0.400  1.00  0.00     0.167 A 
ATOM     29  O   UNL     1       2.001 -14.924  -1.458  1.00  0.00    -0.454 OA
ATOM     30  O   UNL     1       2.245 -14.818   0.935  1.00  0.00    -0.454 OA
ATOM     31  C   UNL     1       2.212 -15.660  -0.234  1.00  0.00     0.468 C 
ENDBRANCH  21  22
ENDBRANCH  18  21
ENDBRANCH  12  13
ENDBRANCH   6   7
ENDBRANCH   5   6
ENDBRANCH   2   5
BRANCH   3  32
ATOM     32  C   UNL     1       2.205   0.087  -2.269  1.00  0.00     0.117 C 
BRANCH  32  33
ATOM     33  C   UNL     1       2.471   1.334  -3.087  1.00  0.00     0.042 C 
BRANCH  33  34
ATOM     34  C   UNL     1       3.934   1.512  -3.463  1.00  0.00     0.118 C 
BRANCH  34  35
ATOM     35  N   UNL     1       4.434   0.474  -4.358  1.00  0.00    -0.352 N 
ATOM     36  C   UNL     1       5.122   0.599  -5.542  1.00  0.00     0.251 C 
ATOM     37  H   UNL     1       4.252  -0.450  -4.073  1.00  0.00     0.163 HD
ATOM     38  O   UNL     1       5.368  -0.393  -6.220  1.00  0.00    -0.269 OA
BRANCH  36  39
ATOM     39  C   UNL     1       5.534   1.936  -6.016  1.00  0.00     0.039 A 
ATOM     40  C   UNL     1       5.312   2.277  -7.354  1.00  0.00     0.014 A 
ATOM     41  C   UNL     1       6.119   2.858  -5.144  1.00  0.00     0.014 A 
ATOM     42  C   UNL     1       5.598   3.570  -7.796  1.00  0.00     0.010 A 
ATOM     43  C   UNL     1       6.329   4.166  -5.565  1.00  0.00     0.010 A 
ATOM     44  C   UNL     1       6.068   4.537  -6.893  1.00  0.00    -0.014 A 
BRANCH  44  45
ATOM     45  C   UNL     1       6.303   5.944  -7.303  1.00  0.00     0.031 A 
ATOM     46  C   UNL     1       7.689   6.518  -7.232  1.00  0.00     0.074 A 
ATOM     47  C   UNL     1       5.261   6.729  -7.638  1.00  0.00     0.049 A 
ATOM     48  N   UNL     1       8.083   7.757  -7.383  1.00  0.00    -0.248 NA
ATOM     49  C   UNL     1       8.774   5.575  -6.918  1.00  0.00     0.031 C 
ATOM     50  C   UNL     1       3.864   6.301  -7.709  1.00  0.00     0.029 A 
ATOM     51  N   UNL     1       5.216   8.063  -7.958  1.00  0.00    -0.354 N 
ATOM     52  C   UNL     1       9.452   7.747  -7.151  1.00  0.00     0.074 A 
ATOM     53  C   UNL     1       9.815   6.388  -6.813  1.00  0.00     0.031 C 
ATOM     54  C   UNL     1       3.100   7.348  -8.060  1.00  0.00     0.029 A 
ATOM     55  C   UNL     1       3.946   8.530  -8.196  1.00  0.00     0.049 A 
ATOM     56  H   UNL     1       6.018   8.632  -8.013  1.00  0.00     0.167 HD
ATOM     57  C   UNL     1      10.328   8.776  -7.230  1.00  0.00     0.037 A 
ATOM     58  C   UNL     1       3.512   9.774  -8.472  1.00  0.00     0.037 A 
ATOM     59  C   UNL     1       9.970  10.118  -7.604  1.00  0.00     0.049 A 
ATOM     60  C   UNL     1       4.508  10.898  -8.562  1.00  0.00     0.074 A 
ATOM     61  C   UNL     1      10.794  11.218  -7.768  1.00  0.00     0.029 A 
ATOM     62  N   UNL     1       8.678  10.541  -7.879  1.00  0.00    -0.354 N 
ATOM     63  N   UNL     1       5.806  10.870  -8.385  1.00  0.00    -0.248 NA
ATOM     64  C   UNL     1       3.977  12.228  -8.894  1.00  0.00     0.031 C 
ATOM     65  C   UNL     1       9.996  12.315  -8.109  1.00  0.00     0.029 A 
ATOM     66  C   UNL     1       8.681  11.889  -8.200  1.00  0.00     0.049 A 
ATOM     67  H   UNL     1       7.877   9.969  -7.850  1.00  0.00     0.167 HD
ATOM     68  C   UNL     1       6.251  12.164  -8.614  1.00  0.00     0.074 A 
ATOM     69  C   UNL     1       5.085  12.954  -8.950  1.00  0.00     0.031 C 
ATOM     70  C   UNL     1       7.513  12.654  -8.553  1.00  0.00     0.037 A 
BRANCH  57  71
ATOM     71  C   UNL     1      11.765   8.488  -6.906  1.00  0.00     0.064 A 
ATOM     72  C   UNL     1      12.572   7.724  -7.762  1.00  0.00     0.173 A 
ATOM     73  C   UNL     1      12.349   9.007  -5.742  1.00  0.00     0.173 A 
ATOM     74  F   UNL     1      12.057   7.193  -8.881  1.00  0.00    -0.203 F 
ATOM     75  C   UNL     1      13.904   7.466  -7.449  1.00  0.00     0.198 A 
ATOM     76  C   UNL     1      13.689   8.772  -5.446  1.00  0.00     0.198 A 
ATOM     77  F   UNL     1      11.622   9.748  -4.892  1.00  0.00    -0.203 F 
ATOM     78  F   UNL     1      14.643   6.692  -8.256  1.00  0.00    -0.200 F 
ATOM     79  C   UNL     1      14.463   7.996  -6.296  1.00  0.00     0.200 A 
ATOM     80  F   UNL     1      14.231   9.294  -4.337  1.00  0.00    -0.200 F 
ATOM     81  F   UNL     1      15.747   7.752  -5.999  1.00  0.00    -0.200 F 
ENDBRANCH  57  71
BRANCH  58  82
ATOM     82  C   UNL     1       2.066  10.021  -8.704  1.00  0.00     0.064 A 
ATOM     83  C   UNL     1       1.587  10.323  -9.986  1.00  0.00     0.173 A 
ATOM     84  C   UNL     1       1.136   9.964  -7.655  1.00  0.00     0.173 A 
ATOM     85  F   UNL     1       2.442  10.410 -11.015  1.00  0.00    -0.203 F 
ATOM     86  C   UNL     1       0.236  10.579 -10.208  1.00  0.00     0.198 A 
ATOM     87  C   UNL     1      -0.219  10.195  -7.883  1.00  0.00     0.198 A 
ATOM     88  F   UNL     1       1.544   9.675  -6.411  1.00  0.00    -0.203 F 
ATOM     89  F   UNL     1      -0.188  10.909 -11.435  1.00  0.00    -0.200 F 
ATOM     90  C   UNL     1      -0.667  10.509  -9.157  1.00  0.00     0.200 A 
ATOM     91  F   UNL     1      -1.090  10.116  -6.868  1.00  0.00    -0.200 F 
ATOM     92  F   UNL     1      -1.967  10.753  -9.372  1.00  0.00    -0.200 F 
ENDBRANCH  58  82
BRANCH  70  93
ATOM     93  C   UNL     1       7.710  14.099  -8.904  1.00  0.00     0.064 A 
ATOM     94  C   UNL     1       7.322  15.128  -8.035  1.00  0.00     0.173 A 
ATOM     95  C   UNL     1       8.341  14.453 -10.107  1.00  0.00     0.173 A 
ATOM     96  F   UNL     1       6.701  14.840  -6.882  1.00  0.00    -0.203 F 
ATOM     97  C   UNL     1       7.542  16.462  -8.366  1.00  0.00     0.198 A 
ATOM     98  C   UNL     1       8.583  15.786 -10.422  1.00  0.00     0.198 A 
ATOM     99  F   UNL     1       8.735  13.503 -10.968  1.00  0.00    -0.203 F 
ATOM    100  F   UNL     1       7.129  17.433  -7.540  1.00  0.00    -0.200 F 
ATOM    101  C   UNL     1       8.179  16.790  -9.555  1.00  0.00     0.200 A 
ATOM    102  F   UNL     1       9.209  16.100 -11.565  1.00  0.00    -0.200 F 
ATOM    103  F   UNL     1       8.398  18.075  -9.867  1.00  0.00    -0.200 F 
ENDBRANCH  70  93
ENDBRANCH  44  45
ENDBRANCH  36  39
ENDBRANCH  34  35
ENDBRANCH  33  34
ENDBRANCH  32  33
ENDBRANCH   3  32
TORSDOF 15
