REMARK SMILES C[C@@H](Nc1cccc(C(=O)NCCCNC(=O)c2ccc(-c3c4nc(c(-c5c(F)c(F)c(F)c(F)c5F)c5ccc([nH]5)c(-c5c(F)c(F)c(F)c(F)c5F)c5nc(c(-c6c(F)c(F)c(F)c(F)c6F)c6ccc3[nH]6)C=C5)C=C4)cc2)c1)C1CC[NH+](C)CC1
REMARK SMILES IDX 12 1 11 2 9 3 10 4 8 6 4 7 5 8 81 9 6 10 7 11 3 12 2 14 1 15
REMARK SMILES IDX 82 16 83 17 88 18 84 19 87 20 85 21 86 22 13 24 14 25 15 26
REMARK SMILES IDX 16 27 17 29 18 30 19 31 80 32 20 33 79 34 21 35 22 36 23 37
REMARK SMILES IDX 73 38 24 39 78 40 72 41 74 42 25 43 77 44 71 45 70 46 26 48
REMARK SMILES IDX 58 49 38 50 57 51 39 52 42 53 56 54 75 55 40 56 41 57 55 59
REMARK SMILES IDX 76 60 43 61 27 62 28 63 36 64 29 65 30 66 34 67 37 68 31 69
REMARK SMILES IDX 32 70 35 71 33 72 59 73 60 74 68 75 61 76 62 77 66 78 69 79
REMARK SMILES IDX 63 80 64 81 67 82 65 83 44 84 45 85 53 86 46 87 47 88 51 89
REMARK SMILES IDX 54 90 48 91 49 92 52 93 50 94
REMARK H PARENT 11 5 3 13 85 23 15 28 74 47 42 58
REMARK Flexibility Score: inf
ROOT
ATOM      1  C   UNL     1      -3.610  -4.984   1.891  1.00  0.00     0.118 C 
ENDROOT
BRANCH   1   2
ATOM      2  N   UNL     1      -3.348  -5.264   3.292  1.00  0.00    -0.352 N 
ATOM      3  C   UNL     1      -2.544  -4.694   4.248  1.00  0.00     0.251 C 
ATOM      4  O   UNL     1      -2.627  -5.121   5.401  1.00  0.00    -0.269 OA
ATOM      5  H   UNL     1      -3.859  -6.034   3.631  1.00  0.00     0.163 HD
BRANCH   3   6
ATOM      6  C   UNL     1      -1.659  -3.535   4.032  1.00  0.00     0.041 A 
ATOM      7  C   UNL     1       0.923  -2.029   2.993  1.00  0.00     0.035 A 
ATOM      8  C   UNL     1       0.507  -0.589   4.037  1.00  0.00     0.026 A 
ATOM      9  C   UNL     1      -0.066  -3.563   3.107  1.00  0.00     0.039 A 
ATOM     10  C   UNL     1      -1.010  -0.616   5.053  1.00  0.00     0.003 A 
ATOM     11  C   UNL     1      -2.113  -2.063   4.989  1.00  0.00     0.014 A 
BRANCH   7  12
ATOM     12  N   UNL     1       1.678  -1.755   1.846  1.00  0.00    -0.382 N 
ATOM     13  H   UNL     1       2.631  -2.002   1.835  1.00  0.00     0.160 HD
BRANCH  12  14
ATOM     14  C   UNL     1       1.090  -1.101   0.638  1.00  0.00     0.079 C 
ATOM     15  C   UNL     1       1.973   0.114   0.294  1.00  0.00     0.031 C 
BRANCH  14  16
ATOM     16  C   UNL     1      -0.401  -0.632   0.500  1.00  0.00     0.022 C 
ATOM     17  C   UNL     1      -0.972   0.391   1.467  1.00  0.00     0.067 C 
ATOM     18  C   UNL     1      -1.456  -1.695   0.444  1.00  0.00     0.067 C 
ATOM     19  C   UNL     1      -1.560  -0.200   2.765  1.00  0.00     0.262 C 
ATOM     20  C   UNL     1      -1.573  -2.388   1.788  1.00  0.00     0.262 C 
ATOM     21  N   UNL     1      -1.112  -1.674   3.153  1.00  0.00    -0.337 N 
ATOM     22  C   UNL     1      -0.060  -2.425   4.791  1.00  0.00     0.332 C 
ATOM     23  H   UNL     1      -0.920  -2.048   4.082  1.00  0.00     0.347 HD
ENDBRANCH  14  16
ENDBRANCH  12  14
ENDBRANCH   7  12
ENDBRANCH   3   6
ENDBRANCH   1   2
BRANCH   1  24
ATOM     24  C   UNL     1      -2.461  -5.414   0.987  1.00  0.00     0.042 C 
BRANCH  24  25
ATOM     25  C   UNL     1      -2.812  -6.618   0.140  1.00  0.00     0.118 C 
BRANCH  25  26
ATOM     26  N   UNL     1      -3.636  -6.257  -1.005  1.00  0.00    -0.352 N 
ATOM     27  C   UNL     1      -3.659  -6.841  -2.249  1.00  0.00     0.251 C 
ATOM     28  H   UNL     1      -4.253  -5.502  -0.872  1.00  0.00     0.163 HD
ATOM     29  O   UNL     1      -4.281  -6.315  -3.167  1.00  0.00    -0.269 OA
BRANCH  27  30
ATOM     30  C   UNL     1      -2.895  -8.087  -2.486  1.00  0.00     0.039 A 
ATOM     31  C   UNL     1      -2.199  -8.237  -3.688  1.00  0.00     0.014 A 
ATOM     32  C   UNL     1      -2.850  -9.097  -1.522  1.00  0.00     0.014 A 
ATOM     33  C   UNL     1      -1.419  -9.375  -3.897  1.00  0.00     0.010 A 
ATOM     34  C   UNL     1      -1.994 -10.177  -1.685  1.00  0.00     0.010 A 
ATOM     35  C   UNL     1      -1.285 -10.337  -2.883  1.00  0.00    -0.014 A 
BRANCH  35  36
ATOM     36  C   UNL     1      -0.432 -11.536  -3.062  1.00  0.00     0.031 A 
ATOM     37  C   UNL     1      -1.052 -12.905  -3.036  1.00  0.00     0.074 A 
ATOM     38  C   UNL     1       0.901 -11.390  -3.184  1.00  0.00     0.049 A 
ATOM     39  N   UNL     1      -0.477 -14.078  -3.114  1.00  0.00    -0.248 NA
ATOM     40  C   UNL     1      -2.514 -12.967  -2.865  1.00  0.00     0.031 C 
ATOM     41  C   UNL     1       1.616 -10.113  -3.164  1.00  0.00     0.029 A 
ATOM     42  N   UNL     1       1.893 -12.323  -3.342  1.00  0.00    -0.354 N 
ATOM     43  C   UNL     1      -1.500 -15.009  -2.986  1.00  0.00     0.074 A 
ATOM     44  C   UNL     1      -2.721 -14.271  -2.760  1.00  0.00     0.031 C 
ATOM     45  C   UNL     1       2.928 -10.340  -3.335  1.00  0.00     0.029 A 
ATOM     46  C   UNL     1       3.151 -11.779  -3.436  1.00  0.00     0.049 A 
ATOM     47  H   UNL     1       1.720 -13.292  -3.384  1.00  0.00     0.167 HD
ATOM     48  C   UNL     1      -1.429 -16.358  -3.081  1.00  0.00     0.037 A 
ATOM     49  C   UNL     1       4.347 -12.378  -3.582  1.00  0.00     0.037 A 
ATOM     50  C   UNL     1      -0.210 -17.079  -3.332  1.00  0.00     0.049 A 
ATOM     51  C   UNL     1       4.398 -13.879  -3.683  1.00  0.00     0.074 A 
ATOM     52  C   UNL     1      -0.032 -18.439  -3.507  1.00  0.00     0.029 A 
ATOM     53  N   UNL     1       1.043 -16.493  -3.442  1.00  0.00    -0.354 N 
ATOM     54  N   UNL     1       3.416 -14.746  -3.639  1.00  0.00    -0.248 NA
ATOM     55  C   UNL     1       5.724 -14.484  -3.863  1.00  0.00     0.031 C 
ATOM     56  C   UNL     1       1.336 -18.682  -3.670  1.00  0.00     0.029 A 
ATOM     57  C   UNL     1       2.004 -17.467  -3.658  1.00  0.00     0.049 A 
ATOM     58  H   UNL     1       1.223 -15.527  -3.376  1.00  0.00     0.167 HD
ATOM     59  C   UNL     1       3.998 -15.994  -3.813  1.00  0.00     0.074 A 
ATOM     60  C   UNL     1       5.419 -15.768  -3.983  1.00  0.00     0.031 C 
ATOM     61  C   UNL     1       3.412 -17.217  -3.830  1.00  0.00     0.037 A 
BRANCH  48  62
ATOM     62  C   UNL     1      -2.704 -17.135  -2.916  1.00  0.00     0.064 A 
ATOM     63  C   UNL     1      -3.737 -17.070  -3.865  1.00  0.00     0.173 A 
ATOM     64  C   UNL     1      -2.887 -17.978  -1.809  1.00  0.00     0.173 A 
ATOM     65  F   UNL     1      -3.620 -16.270  -4.936  1.00  0.00    -0.203 F 
ATOM     66  C   UNL     1      -4.916 -17.791  -3.695  1.00  0.00     0.198 A 
ATOM     67  C   UNL     1      -4.054 -18.725  -1.660  1.00  0.00     0.198 A 
ATOM     68  F   UNL     1      -1.933 -18.084  -0.873  1.00  0.00    -0.203 F 
ATOM     69  F   UNL     1      -5.910 -17.666  -4.586  1.00  0.00    -0.200 F 
ATOM     70  C   UNL     1      -5.070 -18.623  -2.598  1.00  0.00     0.200 A 
ATOM     71  F   UNL     1      -4.196 -19.540  -0.606  1.00  0.00    -0.200 F 
ATOM     72  F   UNL     1      -6.203 -19.323  -2.439  1.00  0.00    -0.200 F 
ENDBRANCH  48  62
BRANCH  49  73
ATOM     73  C   UNL     1       5.585 -11.559  -3.670  1.00  0.00     0.064 A 
ATOM     74  C   UNL     1       6.312 -11.479  -4.867  1.00  0.00     0.173 A 
ATOM     75  C   UNL     1       6.066 -10.839  -2.567  1.00  0.00     0.173 A 
ATOM     76  F   UNL     1       5.902 -12.162  -5.946  1.00  0.00    -0.203 F 
ATOM     77  C   UNL     1       7.485 -10.731  -4.949  1.00  0.00     0.198 A 
ATOM     78  C   UNL     1       7.222 -10.066  -2.659  1.00  0.00     0.198 A 
ATOM     79  F   UNL     1       5.405 -10.874  -1.401  1.00  0.00    -0.203 F 
ATOM     80  F   UNL     1       8.185 -10.712  -6.091  1.00  0.00    -0.200 F 
ATOM     81  C   UNL     1       7.936 -10.021  -3.847  1.00  0.00     0.200 A 
ATOM     82  F   UNL     1       7.645  -9.367  -1.597  1.00  0.00    -0.200 F 
ATOM     83  F   UNL     1       9.061  -9.297  -3.928  1.00  0.00    -0.200 F 
ENDBRANCH  49  73
BRANCH  61  84
ATOM     84  C   UNL     1       4.303 -18.400  -4.075  1.00  0.00     0.064 A 
ATOM     85  C   UNL     1       5.219 -18.845  -3.111  1.00  0.00     0.173 A 
ATOM     86  C   UNL     1       4.207 -19.122  -5.275  1.00  0.00     0.173 A 
ATOM     87  F   UNL     1       5.359 -18.181  -1.954  1.00  0.00    -0.203 F 
ATOM     88  C   UNL     1       6.028 -19.952  -3.352  1.00  0.00     0.198 A 
ATOM     89  C   UNL     1       4.992 -20.249  -5.497  1.00  0.00     0.198 A 
ATOM     90  F   UNL     1       3.340 -18.742  -6.226  1.00  0.00    -0.203 F 
ATOM     91  F   UNL     1       6.934 -20.328  -2.439  1.00  0.00    -0.200 F 
ATOM     92  C   UNL     1       5.908 -20.658  -4.540  1.00  0.00     0.200 A 
ATOM     93  F   UNL     1       4.863 -20.939  -6.639  1.00  0.00    -0.200 F 
ATOM     94  F   UNL     1       6.681 -21.729  -4.766  1.00  0.00    -0.200 F 
ENDBRANCH  61  84
ENDBRANCH  35  36
ENDBRANCH  27  30
ENDBRANCH  25  26
ENDBRANCH  24  25
ENDBRANCH   1  24
TORSDOF 13
