REMARK SMILES O=Cc1ccc2c(c1)C=C(C(=O)NCCCNC(=O)c1ccc(-c3c4nc(c(-c5c(F)c(F)c(F)c(F)c5F)c5ccc([nH]5)c(-c5c(F)c(F)c(F)c(F)c5F)c5nc(c(-c6c(F)c(F)c(F)c(F)c6F)c6ccc3[nH]6)C=C5)C=C4)cc1)[C@H](C(F)(F)F)O2
REMARK SMILES IDX 15 1 14 2 13 3 11 4 12 5 10 7 3 8 4 9 8 10 5 11 7 12 6 13
REMARK SMILES IDX 9 14 88 15 83 16 2 17 1 18 84 19 85 20 86 21 87 22 16 23
REMARK SMILES IDX 17 24 18 25 19 27 20 28 21 29 82 30 22 31 81 32 23 33 24 34
REMARK SMILES IDX 25 35 75 36 26 37 80 38 74 39 76 40 27 41 79 42 73 43 72 44
REMARK SMILES IDX 28 46 60 47 40 48 59 49 41 50 44 51 58 52 77 53 42 54 43 55
REMARK SMILES IDX 57 57 78 58 45 59 29 60 30 61 38 62 31 63 32 64 36 65 39 66
REMARK SMILES IDX 33 67 34 68 37 69 35 70 61 71 62 72 70 73 63 74 64 75 68 76
REMARK SMILES IDX 71 77 65 78 66 79 69 80 67 81 46 82 47 83 55 84 48 85 49 86
REMARK SMILES IDX 53 87 56 88 50 89 51 90 54 91 52 92
REMARK H PARENT 13 6 17 26 76 45 44 56
REMARK Flexibility Score: inf
ROOT
ATOM      1  C   UNL     1       8.191   2.048   3.086  1.00  0.00     0.042 C 
ENDROOT
BRANCH   1   2
ATOM      2  C   UNL     1       8.739   0.650   2.778  1.00  0.00     0.118 C 
BRANCH   2   3
ATOM      3  N   UNL     1       8.795  -0.163   3.984  1.00  0.00    -0.352 N 
ATOM      4  C   UNL     1       7.944  -1.075   4.523  1.00  0.00     0.251 C 
ATOM      5  O   UNL     1       8.213  -1.537   5.628  1.00  0.00    -0.270 OA
ATOM      6  H   UNL     1       9.612  -0.025   4.515  1.00  0.00     0.163 HD
BRANCH   4   7
ATOM      7  C   UNL     1       6.744  -1.580   3.807  1.00  0.00     0.067 C 
ATOM      8  C   UNL     1       2.891  -1.103   0.938  1.00  0.00     0.015 A 
ATOM      9  C   UNL     1       2.638  -2.473   1.035  1.00  0.00     0.015 A 
ATOM     10  C   UNL     1       3.964  -0.532   1.628  1.00  0.00     0.023 A 
ATOM     11  C   UNL     1       3.472  -3.276   1.815  1.00  0.00     0.048 A 
ATOM     12  C   UNL     1       4.796  -1.341   2.411  1.00  0.00     0.018 A 
ATOM     13  C   UNL     1       4.549  -2.710   2.499  1.00  0.00     0.128 A 
ATOM     14  C   UNL     1       5.952  -0.776   3.084  1.00  0.00     0.025 C 
ATOM     15  O   UNL     1       5.346  -3.571   3.190  1.00  0.00    -0.475 OA
ATOM     16  C   UNL     1       6.366  -3.032   4.082  1.00  0.00     0.314 C 
BRANCH   8  17
ATOM     17  C   UNL     1       2.041  -0.246   0.088  1.00  0.00     0.260 C 
ATOM     18  O   UNL     1       1.071  -0.684  -0.516  1.00  0.00    -0.298 OA
ENDBRANCH   8  17
BRANCH  16  19
ATOM     19  C   UNL     1       7.543  -4.034   4.087  1.00  0.00     0.429 C 
ATOM     20  F   UNL     1       8.195  -4.072   5.270  1.00  0.00    -0.167 F 
ATOM     21  F   UNL     1       7.108  -5.303   3.866  1.00  0.00    -0.167 F 
ATOM     22  F   UNL     1       8.451  -3.758   3.120  1.00  0.00    -0.167 F 
ENDBRANCH  16  19
ENDBRANCH   4   7
ENDBRANCH   2   3
ENDBRANCH   1   2
BRANCH   1  23
ATOM     23  C   UNL     1       9.179   2.952   3.823  1.00  0.00     0.118 C 
BRANCH  23  24
ATOM     24  N   UNL     1      10.261   3.388   2.958  1.00  0.00    -0.352 N 
ATOM     25  C   UNL     1      10.736   4.645   2.687  1.00  0.00     0.251 C 
ATOM     26  H   UNL     1      10.732   2.660   2.491  1.00  0.00     0.163 HD
ATOM     27  O   UNL     1      11.524   4.788   1.755  1.00  0.00    -0.269 OA
BRANCH  25  28
ATOM     28  C   UNL     1      10.324   5.829   3.478  1.00  0.00     0.039 A 
ATOM     29  C   UNL     1      10.211   7.055   2.811  1.00  0.00     0.014 A 
ATOM     30  C   UNL     1      10.145   5.781   4.864  1.00  0.00     0.014 A 
ATOM     31  C   UNL     1       9.902   8.217   3.522  1.00  0.00     0.010 A 
ATOM     32  C   UNL     1       9.778   6.934   5.566  1.00  0.00     0.010 A 
ATOM     33  C   UNL     1       9.671   8.166   4.905  1.00  0.00    -0.014 A 
BRANCH  33  34
ATOM     34  C   UNL     1       9.335   9.405   5.654  1.00  0.00     0.031 A 
ATOM     35  C   UNL     1      10.302   9.986   6.649  1.00  0.00     0.074 A 
ATOM     36  C   UNL     1       8.148  10.005   5.443  1.00  0.00     0.049 A 
ATOM     37  N   UNL     1      10.193  11.075   7.370  1.00  0.00    -0.248 NA
ATOM     38  C   UNL     1      11.544   9.235   6.884  1.00  0.00     0.031 C 
ATOM     39  C   UNL     1       7.105   9.514   4.542  1.00  0.00     0.029 A 
ATOM     40  N   UNL     1       7.621  11.159   5.966  1.00  0.00    -0.354 N 
ATOM     41  C   UNL     1      11.344  11.135   8.145  1.00  0.00     0.074 A 
ATOM     42  C   UNL     1      12.116   9.948   7.843  1.00  0.00     0.031 C 
ATOM     43  C   UNL     1       6.075  10.375   4.553  1.00  0.00     0.029 A 
ATOM     44  C   UNL     1       6.377  11.467   5.475  1.00  0.00     0.049 A 
ATOM     45  H   UNL     1       8.091  11.713   6.631  1.00  0.00     0.167 HD
ATOM     46  C   UNL     1      11.732  12.101   9.013  1.00  0.00     0.037 A 
ATOM     47  C   UNL     1       5.575  12.518   5.728  1.00  0.00     0.037 A 
ATOM     48  C   UNL     1      10.976  13.294   9.294  1.00  0.00     0.049 A 
ATOM     49  C   UNL     1       6.045  13.594   6.667  1.00  0.00     0.074 A 
ATOM     50  C   UNL     1      11.308  14.354  10.120  1.00  0.00     0.029 A 
ATOM     51  N   UNL     1       9.733  13.585   8.752  1.00  0.00    -0.354 N 
ATOM     52  N   UNL     1       7.166  13.672   7.341  1.00  0.00    -0.248 NA
ATOM     53  C   UNL     1       5.143  14.737   6.867  1.00  0.00     0.031 C 
ATOM     54  C   UNL     1      10.251  15.272  10.103  1.00  0.00     0.029 A 
ATOM     55  C   UNL     1       9.280  14.803   9.234  1.00  0.00     0.049 A 
ATOM     56  H   UNL     1       9.244  13.011   8.118  1.00  0.00     0.167 HD
ATOM     57  C   UNL     1       7.118  14.881   8.021  1.00  0.00     0.074 A 
ATOM     58  C   UNL     1       5.863  15.511   7.667  1.00  0.00     0.031 C 
ATOM     59  C   UNL     1       8.032  15.420   8.865  1.00  0.00     0.037 A 
BRANCH  46  60
ATOM     60  C   UNL     1      13.042  11.910   9.722  1.00  0.00     0.064 A 
ATOM     61  C   UNL     1      14.265  12.028   9.046  1.00  0.00     0.173 A 
ATOM     62  C   UNL     1      13.076  11.645  11.099  1.00  0.00     0.173 A 
ATOM     63  F   UNL     1      14.287  12.270   7.726  1.00  0.00    -0.203 F 
ATOM     64  C   UNL     1      15.474  11.861   9.717  1.00  0.00     0.198 A 
ATOM     65  C   UNL     1      14.288  11.505  11.772  1.00  0.00     0.198 A 
ATOM     66  F   UNL     1      11.935  11.529  11.795  1.00  0.00    -0.203 F 
ATOM     67  F   UNL     1      16.630  11.933   9.041  1.00  0.00    -0.200 F 
ATOM     68  C   UNL     1      15.485  11.606  11.080  1.00  0.00     0.200 A 
ATOM     69  F   UNL     1      14.297  11.270  13.092  1.00  0.00    -0.200 F 
ATOM     70  F   UNL     1      16.649  11.451  11.725  1.00  0.00    -0.200 F 
ENDBRANCH  46  60
BRANCH  47  71
ATOM     71  C   UNL     1       4.264  12.628   5.039  1.00  0.00     0.064 A 
ATOM     72  C   UNL     1       4.059  13.582   4.034  1.00  0.00     0.173 A 
ATOM     73  C   UNL     1       3.196  11.780   5.364  1.00  0.00     0.173 A 
ATOM     74  F   UNL     1       5.046  14.428   3.702  1.00  0.00    -0.203 F 
ATOM     75  C   UNL     1       2.829  13.697   3.390  1.00  0.00     0.198 A 
ATOM     76  C   UNL     1       1.974  11.878   4.702  1.00  0.00     0.198 A 
ATOM     77  F   UNL     1       3.346  10.845   6.314  1.00  0.00    -0.203 F 
ATOM     78  F   UNL     1       2.647  14.643   2.460  1.00  0.00    -0.200 F 
ATOM     79  C   UNL     1       1.789  12.841   3.721  1.00  0.00     0.200 A 
ATOM     80  F   UNL     1       0.977  11.039   5.014  1.00  0.00    -0.200 F 
ATOM     81  F   UNL     1       0.608  12.946   3.098  1.00  0.00    -0.200 F 
ENDBRANCH  47  71
BRANCH  59  82
ATOM     82  C   UNL     1       7.720  16.772   9.435  1.00  0.00     0.064 A 
ATOM     83  C   UNL     1       6.738  16.946  10.421  1.00  0.00     0.173 A 
ATOM     84  C   UNL     1       8.428  17.904   9.004  1.00  0.00     0.173 A 
ATOM     85  F   UNL     1       6.024  15.896  10.854  1.00  0.00    -0.203 F 
ATOM     86  C   UNL     1       6.454  18.210  10.932  1.00  0.00     0.198 A 
ATOM     87  C   UNL     1       8.160  19.162   9.537  1.00  0.00     0.198 A 
ATOM     88  F   UNL     1       9.382  17.790   8.068  1.00  0.00    -0.203 F 
ATOM     89  F   UNL     1       5.476  18.360  11.836  1.00  0.00    -0.200 F 
ATOM     90  C   UNL     1       7.168  19.315  10.493  1.00  0.00     0.200 A 
ATOM     91  F   UNL     1       8.857  20.228   9.119  1.00  0.00    -0.200 F 
ATOM     92  F   UNL     1       6.892  20.530  10.986  1.00  0.00    -0.200 F 
ENDBRANCH  59  82
ENDBRANCH  33  34
ENDBRANCH  25  28
ENDBRANCH  23  24
ENDBRANCH   1  23
TORSDOF 12
