REMARK SMILES O=C(NCCCNC(=O)[C@@H]1CCCCC[C@H]1NC(=O)c1ccc(Cl)o1)c1ccc(-c2c3nc(c(-c4c(F)c(F)c(F)c(F)c4F)c4ccc([nH]4)c(-c4c(F)c(F)c(F)c(F)c4F)c4nc(c(-c5c(F)c(F)c(F)c(F)c5F)c5ccc2[nH]5)C=C4)C=C3)cc1
REMARK SMILES IDX 6 1 5 2 4 3 3 4 1 5 2 6 26 8 27 9 88 10 28 11 87 12 29 13
REMARK SMILES IDX 30 14 31 15 81 16 32 17 86 18 80 19 82 20 33 21 85 22 79 23
REMARK SMILES IDX 78 24 34 26 66 27 46 28 65 29 47 30 50 31 64 32 83 33 48 34
REMARK SMILES IDX 49 35 63 37 84 38 51 39 35 40 36 41 44 42 37 43 38 44 42 45
REMARK SMILES IDX 45 46 39 47 40 48 43 49 41 50 67 51 68 52 76 53 69 54 70 55
REMARK SMILES IDX 74 56 77 57 71 58 72 59 75 60 73 61 52 62 53 63 61 64 54 65
REMARK SMILES IDX 55 66 59 67 62 68 56 69 57 70 60 71 58 72 7 73 8 74 9 76
REMARK SMILES IDX 10 77 11 78 12 79 13 80 14 81 16 83 15 84 17 86 18 87 19 89
REMARK SMILES IDX 20 90 21 91 25 92 22 93 23 94 24 95
REMARK H PARENT 3 7 82 25 50 36 7 75 17 88
REMARK Flexibility Score: 90.00
ROOT
ATOM      1  C   UNL     1       4.276   0.717   3.583  1.00  0.00     0.117 C 
ENDROOT
BRANCH   1   2
ATOM      2  C   UNL     1       4.798   0.693   2.150  1.00  0.00     0.042 C 
BRANCH   2   3
ATOM      3  C   UNL     1       4.418  -0.562   1.377  1.00  0.00     0.118 C 
BRANCH   3   4
ATOM      4  N   UNL     1       3.010  -0.589   1.012  1.00  0.00    -0.352 N 
ATOM      5  O   UNL     1       1.147  -0.156  -0.159  1.00  0.00    -0.269 OA
ATOM      6  C   UNL     1       2.372  -0.252  -0.156  1.00  0.00     0.251 C 
ATOM      7  H   UNL     1       2.411  -0.904   1.727  1.00  0.00     0.163 HD
BRANCH   6   8
ATOM      8  C   UNL     1       3.124   0.017  -1.405  1.00  0.00     0.039 A 
ATOM      9  C   UNL     1       4.236  -0.741  -1.772  1.00  0.00     0.014 A 
ATOM     10  C   UNL     1       2.647   1.002  -2.280  1.00  0.00     0.014 A 
ATOM     11  C   UNL     1       4.952  -0.425  -2.923  1.00  0.00     0.010 A 
ATOM     12  C   UNL     1       3.307   1.251  -3.489  1.00  0.00     0.010 A 
ATOM     13  C   UNL     1       4.481   0.556  -3.810  1.00  0.00    -0.014 A 
BRANCH  13  14
ATOM     14  C   UNL     1       5.186   0.767  -5.100  1.00  0.00     0.031 A 
ATOM     15  C   UNL     1       5.851   2.074  -5.424  1.00  0.00     0.074 A 
ATOM     16  C   UNL     1       5.236  -0.251  -5.982  1.00  0.00     0.049 A 
ATOM     17  N   UNL     1       6.524   2.413  -6.496  1.00  0.00    -0.248 NA
ATOM     18  C   UNL     1       5.739   3.145  -4.423  1.00  0.00     0.031 C 
ATOM     19  C   UNL     1       4.599  -1.557  -5.795  1.00  0.00     0.029 A 
ATOM     20  N   UNL     1       5.860  -0.358  -7.199  1.00  0.00    -0.354 N 
ATOM     21  C   UNL     1       6.893   3.738  -6.311  1.00  0.00     0.074 A 
ATOM     22  C   UNL     1       6.355   4.150  -5.032  1.00  0.00     0.031 C 
ATOM     23  C   UNL     1       4.903  -2.348  -6.833  1.00  0.00     0.029 A 
ATOM     24  C   UNL     1       5.708  -1.591  -7.785  1.00  0.00     0.049 A 
ATOM     25  H   UNL     1       6.367   0.377  -7.612  1.00  0.00     0.167 HD
ATOM     26  C   UNL     1       7.620   4.533  -7.133  1.00  0.00     0.037 A 
ATOM     27  C   UNL     1       6.154  -2.060  -8.965  1.00  0.00     0.037 A 
ATOM     28  C   UNL     1       8.177   4.111  -8.393  1.00  0.00     0.049 A 
ATOM     29  C   UNL     1       6.970  -1.162  -9.847  1.00  0.00     0.074 A 
ATOM     30  C   UNL     1       8.975   4.829  -9.268  1.00  0.00     0.029 A 
ATOM     31  N   UNL     1       7.991   2.858  -8.959  1.00  0.00    -0.354 N 
ATOM     32  N   UNL     1       7.346   0.075  -9.639  1.00  0.00    -0.248 NA
ATOM     33  C   UNL     1       7.419  -1.723 -11.128  1.00  0.00     0.031 C 
ATOM     34  C   UNL     1       9.242   4.022 -10.380  1.00  0.00     0.029 A 
ATOM     35  C   UNL     1       8.641   2.789 -10.181  1.00  0.00     0.049 A 
ATOM     36  H   UNL     1       7.474   2.126  -8.552  1.00  0.00     0.167 HD
ATOM     37  C   UNL     1       8.075   0.444 -10.760  1.00  0.00     0.074 A 
ATOM     38  C   UNL     1       8.112  -0.712 -11.633  1.00  0.00     0.031 C 
ATOM     39  C   UNL     1       8.656   1.635 -11.042  1.00  0.00     0.037 A 
BRANCH  26  40
ATOM     40  C   UNL     1       7.846   5.953  -6.704  1.00  0.00     0.064 A 
ATOM     41  C   UNL     1       8.740   6.278  -5.674  1.00  0.00     0.173 A 
ATOM     42  C   UNL     1       7.191   7.005  -7.362  1.00  0.00     0.173 A 
ATOM     43  F   UNL     1       9.382   5.307  -5.006  1.00  0.00    -0.203 F 
ATOM     44  C   UNL     1       8.955   7.604  -5.304  1.00  0.00     0.198 A 
ATOM     45  C   UNL     1       7.424   8.331  -7.004  1.00  0.00     0.198 A 
ATOM     46  F   UNL     1       6.328   6.748  -8.356  1.00  0.00    -0.203 F 
ATOM     47  F   UNL     1       9.785   7.888  -4.290  1.00  0.00    -0.200 F 
ATOM     48  C   UNL     1       8.302   8.628  -5.972  1.00  0.00     0.200 A 
ATOM     49  F   UNL     1       6.798   9.320  -7.656  1.00  0.00    -0.200 F 
ATOM     50  F   UNL     1       8.512   9.903  -5.617  1.00  0.00    -0.200 F 
ENDBRANCH  26  40
BRANCH  27  51
ATOM     51  C   UNL     1       5.827  -3.450  -9.367  1.00  0.00     0.064 A 
ATOM     52  C   UNL     1       6.809  -4.449  -9.374  1.00  0.00     0.173 A 
ATOM     53  C   UNL     1       4.517  -3.816  -9.710  1.00  0.00     0.173 A 
ATOM     54  F   UNL     1       8.078  -4.143  -9.070  1.00  0.00    -0.203 F 
ATOM     55  C   UNL     1       6.492  -5.763  -9.712  1.00  0.00     0.198 A 
ATOM     56  C   UNL     1       4.197  -5.134 -10.023  1.00  0.00     0.198 A 
ATOM     57  F   UNL     1       3.542  -2.895  -9.710  1.00  0.00    -0.203 F 
ATOM     58  F   UNL     1       7.453  -6.697  -9.735  1.00  0.00    -0.200 F 
ATOM     59  C   UNL     1       5.185  -6.106 -10.027  1.00  0.00     0.200 A 
ATOM     60  F   UNL     1       2.930  -5.464 -10.310  1.00  0.00    -0.200 F 
ATOM     61  F   UNL     1       4.879  -7.373 -10.336  1.00  0.00    -0.200 F 
ENDBRANCH  27  51
BRANCH  39  62
ATOM     62  C   UNL     1       9.378   1.744 -12.350  1.00  0.00     0.064 A 
ATOM     63  C   UNL     1       8.678   1.857 -13.560  1.00  0.00     0.173 A 
ATOM     64  C   UNL     1      10.779   1.760 -12.392  1.00  0.00     0.173 A 
ATOM     65  F   UNL     1       7.337   1.827 -13.569  1.00  0.00    -0.203 F 
ATOM     66  C   UNL     1       9.358   1.963 -14.770  1.00  0.00     0.198 A 
ATOM     67  C   UNL     1      11.455   1.889 -13.602  1.00  0.00     0.198 A 
ATOM     68  F   UNL     1      11.491   1.657 -11.260  1.00  0.00    -0.203 F 
ATOM     69  F   UNL     1       8.671   2.030 -15.919  1.00  0.00    -0.200 F 
ATOM     70  C   UNL     1      10.745   1.984 -14.790  1.00  0.00     0.200 A 
ATOM     71  F   UNL     1      12.795   1.916 -13.620  1.00  0.00    -0.200 F 
ATOM     72  F   UNL     1      11.398   2.088 -15.955  1.00  0.00    -0.200 F 
ENDBRANCH  39  62
ENDBRANCH  13  14
ENDBRANCH   6   8
ENDBRANCH   3   4
ENDBRANCH   2   3
ENDBRANCH   1   2
BRANCH   1  73
ATOM     73  N   UNL     1       4.870  -0.330   4.394  1.00  0.00    -0.356 N 
ATOM     74  C   UNL     1       5.723  -0.326   5.447  1.00  0.00     0.225 C 
ATOM     75  H   UNL     1       4.595  -1.236   4.122  1.00  0.00     0.163 HD
ATOM     76  O   UNL     1       6.070  -1.436   5.863  1.00  0.00    -0.275 OA
BRANCH  74  77
ATOM     77  C   UNL     1       6.292   0.940   6.093  1.00  0.00     0.101 C 
BRANCH  77  78
ATOM     78  C   UNL     1       5.196   1.881   6.608  1.00  0.00     0.015 C 
BRANCH  78  79
ATOM     79  C   UNL     1       5.568   3.341   6.828  1.00  0.00     0.001 C 
BRANCH  79  80
ATOM     80  C   UNL     1       5.684   4.143   5.539  1.00  0.00     0.000 C 
BRANCH  80  81
ATOM     81  C   UNL     1       7.016   3.984   4.824  1.00  0.00     0.002 CG0
ATOM     82  G   UNL     1       7.290   2.587   4.278  1.00  0.00     0.000 G0
ENDBRANCH  80  81
ENDBRANCH  79  80
ENDBRANCH  78  79
ENDBRANCH  77  78
BRANCH  77  83
ATOM     83  C   UNL     1       7.511   1.465   5.298  1.00  0.00     0.094 C 
BRANCH  83  84
ATOM     84  C   UNL     1       7.290   2.587   4.278  1.00  0.00     0.026 CG0
ATOM     85  G   UNL     1       7.016   3.984   4.824  1.00  0.00     0.000 G0
ENDBRANCH  83  84
BRANCH  83  86
ATOM     86  N   UNL     1       8.593   1.856   6.216  1.00  0.00    -0.346 N 
ATOM     87  C   UNL     1       9.770   1.224   6.546  1.00  0.00     0.287 C 
ATOM     88  H   UNL     1       8.450   2.717   6.672  1.00  0.00     0.164 HD
ATOM     89  O   UNL     1      10.365   1.659   7.533  1.00  0.00    -0.266 OA
BRANCH  87  90
ATOM     90  C   UNL     1      10.257   0.121   5.750  1.00  0.00     0.193 A 
ATOM     91  C   UNL     1      10.318  -0.118   4.389  1.00  0.00     0.058 A 
ATOM     92  O   UNL     1      10.857  -0.918   6.411  1.00  0.00    -0.440 OA
ATOM     93  C   UNL     1      10.948  -1.375   4.221  1.00  0.00     0.064 A 
ATOM     94  C   UNL     1      11.257  -1.828   5.483  1.00  0.00     0.194 A 
ATOM     95  Cl  UNL     1      12.042  -3.303   5.882  1.00  0.00    -0.043 Cl
ENDBRANCH  87  90
ENDBRANCH  83  86
ENDBRANCH  77  83
ENDBRANCH  74  77
ENDBRANCH   1  73
TORSDOF 12
