REMARK SMILES CC[C@H](C)[C@@H](NC(=O)c1csc(NC(C)=O)n1)C(=O)NCCCNC(=O)c1ccc(-c2c3nc(c(-c4c(F)c(F)c(F)c(F)c4F)c4ccc([nH]4)c(-c4c(F)c(F)c(F)c(F)c4F)c4nc(c(-c5c(F)c(F)c(F)c(F)c5F)c5ccc2[nH]5)C=C4)C=C3)cc1
REMARK SMILES IDX 21 1 20 2 18 3 19 4 5 6 3 7 4 8 2 9 1 10 6 11 7 12 8 14 9 15
REMARK SMILES IDX 10 16 17 17 11 18 12 19 13 20 14 21 15 23 16 24 22 25 23 26
REMARK SMILES IDX 24 27 25 28 26 30 27 31 28 32 89 33 29 34 88 35 30 36 31 37
REMARK SMILES IDX 32 38 82 39 33 40 87 41 81 42 83 43 34 44 86 45 80 46 79 47
REMARK SMILES IDX 35 49 67 50 47 51 66 52 48 53 51 54 65 55 84 56 49 57 50 58
REMARK SMILES IDX 64 60 85 61 52 62 36 63 37 64 45 65 38 66 39 67 43 68 46 69
REMARK SMILES IDX 40 70 41 71 44 72 42 73 68 74 69 75 77 76 70 77 71 78 75 79
REMARK SMILES IDX 78 80 72 81 73 82 76 83 74 84 53 85 54 86 62 87 55 88 56 89
REMARK SMILES IDX 60 90 63 91 57 92 58 93 61 94 59 95
REMARK H PARENT 20 5 6 13 13 22 24 29 83 48 51 59
REMARK Flexibility Score: inf
ROOT
ATOM      1  C   UNL     1       3.565  -4.058   0.753  1.00  0.00     0.117 C 
ENDROOT
BRANCH   1   2
ATOM      2  N   UNL     1       2.550  -4.538   1.673  1.00  0.00    -0.354 N 
ATOM      3  C   UNL     1       1.191  -4.502   1.569  1.00  0.00     0.242 C 
ATOM      4  O   UNL     1       0.531  -4.889   2.540  1.00  0.00    -0.273 OA
ATOM      5  H   UNL     1       2.896  -4.952   2.496  1.00  0.00     0.163 HD
BRANCH   3   6
ATOM      6  C   UNL     1       0.518  -3.844   0.348  1.00  0.00     0.174 C 
BRANCH   6   7
ATOM      7  C   UNL     1       0.699  -2.281   0.498  1.00  0.00     0.018 C 
ATOM      8  C   UNL     1      -0.018  -1.469  -0.592  1.00  0.00     0.010 C 
BRANCH   7   9
ATOM      9  C   UNL     1       0.289  -1.748   1.897  1.00  0.00     0.002 C 
ATOM     10  C   UNL     1       0.787  -0.333   2.170  1.00  0.00     0.004 C 
ENDBRANCH   7   9
ENDBRANCH   6   7
BRANCH   6  11
ATOM     11  N   UNL     1       1.055  -4.308  -0.958  1.00  0.00    -0.339 N 
ATOM     12  C   UNL     1       1.442  -5.540  -1.443  1.00  0.00     0.271 C 
ATOM     13  H   UNL     1       1.155  -3.583  -1.617  1.00  0.00     0.164 HD
ATOM     14  O   UNL     1       1.672  -5.615  -2.651  1.00  0.00    -0.267 OA
BRANCH  12  15
ATOM     15  C   UNL     1       1.768  -6.645  -0.541  1.00  0.00     0.141 A 
ATOM     16  C   UNL     1       2.932  -7.387  -0.679  1.00  0.00     0.102 A 
ATOM     17  N   UNL     1       0.995  -7.014   0.553  1.00  0.00    -0.215 NA
ATOM     18  S   UNL     1       3.140  -8.415   0.673  1.00  0.00    -0.104 S 
ATOM     19  C   UNL     1       1.663  -7.858   1.308  1.00  0.00     0.190 A 
BRANCH  19  20
ATOM     20  N   UNL     1       1.183  -8.243   2.533  1.00  0.00    -0.302 N 
ATOM     21  C   UNL     1       1.864  -8.933   3.508  1.00  0.00     0.223 C 
ATOM     22  H   UNL     1       0.251  -8.000   2.737  1.00  0.00     0.172 HD
ATOM     23  C   UNL     1       1.004  -9.271   4.701  1.00  0.00     0.114 C 
ATOM     24  O   UNL     1       3.045  -9.267   3.492  1.00  0.00    -0.275 OA
ENDBRANCH  19  20
ENDBRANCH  12  15
ENDBRANCH   6  11
ENDBRANCH   3   6
ENDBRANCH   1   2
BRANCH   1  25
ATOM     25  C   UNL     1       4.559  -3.165   1.464  1.00  0.00     0.042 C 
BRANCH  25  26
ATOM     26  C   UNL     1       5.373  -3.925   2.494  1.00  0.00     0.118 C 
BRANCH  26  27
ATOM     27  N   UNL     1       6.175  -4.987   1.899  1.00  0.00    -0.352 N 
ATOM     28  C   UNL     1       7.510  -5.244   2.068  1.00  0.00     0.251 C 
ATOM     29  H   UNL     1       5.694  -5.600   1.298  1.00  0.00     0.163 HD
ATOM     30  O   UNL     1       8.089  -6.045   1.343  1.00  0.00    -0.269 OA
BRANCH  28  31
ATOM     31  C   UNL     1       8.241  -4.525   3.125  1.00  0.00     0.039 A 
ATOM     32  C   UNL     1       9.507  -4.011   2.847  1.00  0.00     0.014 A 
ATOM     33  C   UNL     1       7.655  -4.339   4.381  1.00  0.00     0.014 A 
ATOM     34  C   UNL     1      10.171  -3.276   3.826  1.00  0.00     0.010 A 
ATOM     35  C   UNL     1       8.264  -3.509   5.307  1.00  0.00     0.010 A 
ATOM     36  C   UNL     1       9.545  -3.003   5.054  1.00  0.00    -0.014 A 
BRANCH  36  37
ATOM     37  C   UNL     1      10.245  -2.251   6.119  1.00  0.00     0.031 A 
ATOM     38  C   UNL     1      10.541  -2.926   7.430  1.00  0.00     0.074 A 
ATOM     39  C   UNL     1      10.572  -0.961   5.923  1.00  0.00     0.049 A 
ATOM     40  N   UNL     1      11.112  -2.441   8.502  1.00  0.00    -0.248 NA
ATOM     41  C   UNL     1      10.099  -4.324   7.570  1.00  0.00     0.031 C 
ATOM     42  C   UNL     1      10.271  -0.184   4.719  1.00  0.00     0.029 A 
ATOM     43  N   UNL     1      11.227  -0.074   6.737  1.00  0.00    -0.354 N 
ATOM     44  C   UNL     1      11.084  -3.466   9.438  1.00  0.00     0.074 A 
ATOM     45  C   UNL     1      10.366  -4.569   8.842  1.00  0.00     0.031 C 
ATOM     46  C   UNL     1      10.771   1.054   4.860  1.00  0.00     0.029 A 
ATOM     47  C   UNL     1      11.398   1.166   6.173  1.00  0.00     0.049 A 
ATOM     48  H   UNL     1      11.546  -0.305   7.640  1.00  0.00     0.167 HD
ATOM     49  C   UNL     1      11.645  -3.502  10.670  1.00  0.00     0.037 A 
ATOM     50  C   UNL     1      12.001   2.264   6.665  1.00  0.00     0.037 A 
ATOM     51  C   UNL     1      12.383  -2.410  11.243  1.00  0.00     0.049 A 
ATOM     52  C   UNL     1      12.642   2.193   8.024  1.00  0.00     0.074 A 
ATOM     53  C   UNL     1      13.030  -2.348  12.463  1.00  0.00     0.029 A 
ATOM     54  N   UNL     1      12.575  -1.182  10.623  1.00  0.00    -0.354 N 
ATOM     55  N   UNL     1      12.671   1.196   8.876  1.00  0.00    -0.248 NA
ATOM     56  C   UNL     1      13.352   3.394   8.482  1.00  0.00     0.031 C 
ATOM     57  C   UNL     1      13.580  -1.069  12.600  1.00  0.00     0.029 A 
ATOM     58  C   UNL     1      13.324  -0.352  11.441  1.00  0.00     0.049 A 
ATOM     59  H   UNL     1      12.230  -0.938   9.734  1.00  0.00     0.167 HD
ATOM     60  C   UNL     1      13.425   1.636   9.955  1.00  0.00     0.074 A 
ATOM     61  C   UNL     1      13.849   2.986   9.641  1.00  0.00     0.031 C 
ATOM     62  C   UNL     1      13.740   0.985  11.102  1.00  0.00     0.037 A 
BRANCH  49  63
ATOM     63  C   UNL     1      11.486  -4.769  11.461  1.00  0.00     0.064 A 
ATOM     64  C   UNL     1      12.103  -5.967  11.065  1.00  0.00     0.173 A 
ATOM     65  C   UNL     1      10.710  -4.790  12.629  1.00  0.00     0.173 A 
ATOM     66  F   UNL     1      12.843  -6.007   9.946  1.00  0.00    -0.203 F 
ATOM     67  C   UNL     1      11.915  -7.144  11.783  1.00  0.00     0.198 A 
ATOM     68  C   UNL     1      10.554  -5.962  13.366  1.00  0.00     0.198 A 
ATOM     69  F   UNL     1      10.099  -3.674  13.057  1.00  0.00    -0.203 F 
ATOM     70  F   UNL     1      12.460  -8.288  11.345  1.00  0.00    -0.200 F 
ATOM     71  C   UNL     1      11.147  -7.139  12.936  1.00  0.00     0.200 A 
ATOM     72  F   UNL     1       9.821  -5.953  14.488  1.00  0.00    -0.200 F 
ATOM     73  F   UNL     1      10.968  -8.273  13.629  1.00  0.00    -0.200 F 
ENDBRANCH  49  63
BRANCH  50  74
ATOM     74  C   UNL     1      12.063   3.501   5.845  1.00  0.00     0.064 A 
ATOM     75  C   UNL     1      13.276   3.947   5.301  1.00  0.00     0.173 A 
ATOM     76  C   UNL     1      10.912   4.257   5.579  1.00  0.00     0.173 A 
ATOM     77  F   UNL     1      14.407   3.267   5.539  1.00  0.00    -0.203 F 
ATOM     78  C   UNL     1      13.340   5.114   4.543  1.00  0.00     0.198 A 
ATOM     79  C   UNL     1      10.972   5.408   4.795  1.00  0.00     0.198 A 
ATOM     80  F   UNL     1       9.725   3.867   6.066  1.00  0.00    -0.203 F 
ATOM     81  F   UNL     1      14.519   5.542   4.072  1.00  0.00    -0.200 F 
ATOM     82  C   UNL     1      12.187   5.840   4.285  1.00  0.00     0.200 A 
ATOM     83  F   UNL     1       9.852   6.096   4.534  1.00  0.00    -0.200 F 
ATOM     84  F   UNL     1      12.247   6.959   3.550  1.00  0.00    -0.200 F 
ENDBRANCH  50  74
BRANCH  62  85
ATOM     85  C   UNL     1      14.620   1.708  12.080  1.00  0.00     0.064 A 
ATOM     86  C   UNL     1      14.157   2.807  12.819  1.00  0.00     0.173 A 
ATOM     87  C   UNL     1      15.935   1.273  12.302  1.00  0.00     0.173 A 
ATOM     88  F   UNL     1      12.911   3.268  12.634  1.00  0.00    -0.203 F 
ATOM     89  C   UNL     1      14.992   3.466  13.717  1.00  0.00     0.198 A 
ATOM     90  C   UNL     1      16.755   1.913  13.226  1.00  0.00     0.198 A 
ATOM     91  F   UNL     1      16.423   0.220  11.628  1.00  0.00    -0.203 F 
ATOM     92  F   UNL     1      14.547   4.549  14.370  1.00  0.00    -0.200 F 
ATOM     93  C   UNL     1      16.287   3.015  13.925  1.00  0.00     0.200 A 
ATOM     94  F   UNL     1      18.001   1.466  13.437  1.00  0.00    -0.200 F 
ATOM     95  F   UNL     1      17.087   3.648  14.793  1.00  0.00    -0.200 F 
ENDBRANCH  62  85
ENDBRANCH  36  37
ENDBRANCH  28  31
ENDBRANCH  26  27
ENDBRANCH  25  26
ENDBRANCH   1  25
TORSDOF 15
