REMARK SMILES O=C(NCCCNC(=O)c1ccccc1-n1ccnn1)c1ccc(-c2c3nc(c(-c4c(F)c(F)c(F)c(F)c4F)c4ccc([nH]4)c(-c4c(F)c(F)c(F)c(F)c4F)c4nc(c(-c5c(F)c(F)c(F)c(F)c5F)c5ccc2[nH]5)C=C4)C=C3)cc1
REMARK SMILES IDX 4 1 3 2 1 3 2 4 21 6 22 7 83 8 23 9 82 10 24 11 25 12 26 13
REMARK SMILES IDX 76 14 27 15 81 16 75 17 77 18 28 19 80 20 74 21 73 22 29 24
REMARK SMILES IDX 61 25 41 26 60 27 42 28 45 29 59 30 78 31 43 32 44 33 58 35
REMARK SMILES IDX 79 36 46 37 30 38 31 39 39 40 32 41 33 42 37 43 40 44 34 45
REMARK SMILES IDX 35 46 38 47 36 48 62 49 63 50 71 51 64 52 65 53 69 54 72 55
REMARK SMILES IDX 66 56 67 57 70 58 68 59 47 60 48 61 56 62 49 63 50 64 54 65
REMARK SMILES IDX 57 66 51 67 52 68 55 69 53 70 5 71 6 72 7 73 8 74 9 76 10 77
REMARK SMILES IDX 11 78 15 79 12 80 14 81 13 82 16 83 17 84 20 85 18 86 19 87
REMARK H PARENT 3 5 77 23 45 34 7 75
REMARK Flexibility Score: inf
ROOT
ATOM      1  C   UNL     1       4.905  -0.604  -0.710  1.00  0.00     0.118 C 
ENDROOT
BRANCH   1   2
ATOM      2  N   UNL     1       3.485  -0.563  -1.004  1.00  0.00    -0.352 N 
ATOM      3  O   UNL     1       1.347  -0.011  -1.010  1.00  0.00    -0.269 OA
ATOM      4  C   UNL     1       2.367  -0.153  -0.329  1.00  0.00     0.251 C 
ATOM      5  H   UNL     1       3.276  -0.913  -1.900  1.00  0.00     0.163 HD
BRANCH   4   6
ATOM      6  C   UNL     1       2.275   0.059   1.141  1.00  0.00     0.039 A 
ATOM      7  C   UNL     1       3.339  -0.022   2.037  1.00  0.00     0.014 A 
ATOM      8  C   UNL     1       0.986   0.298   1.657  1.00  0.00     0.014 A 
ATOM      9  C   UNL     1       3.116   0.023   3.410  1.00  0.00     0.010 A 
ATOM     10  C   UNL     1       0.759   0.377   3.028  1.00  0.00     0.010 A 
ATOM     11  C   UNL     1       1.824   0.200   3.908  1.00  0.00    -0.014 A 
BRANCH  11  12
ATOM     12  C   UNL     1       1.660   0.329   5.355  1.00  0.00     0.031 A 
ATOM     13  C   UNL     1       2.275   1.542   5.969  1.00  0.00     0.074 A 
ATOM     14  C   UNL     1       0.876  -0.480   6.095  1.00  0.00     0.049 A 
ATOM     15  N   UNL     1       3.097   1.617   6.968  1.00  0.00    -0.248 NA
ATOM     16  C   UNL     1       1.961   2.842   5.356  1.00  0.00     0.031 C 
ATOM     17  C   UNL     1      -0.038  -1.516   5.612  1.00  0.00     0.029 A 
ATOM     18  N   UNL     1       0.646  -0.459   7.442  1.00  0.00    -0.354 N 
ATOM     19  C   UNL     1       3.283   2.977   7.214  1.00  0.00     0.074 A 
ATOM     20  C   UNL     1       2.653   3.679   6.127  1.00  0.00     0.031 C 
ATOM     21  C   UNL     1      -0.874  -1.867   6.613  1.00  0.00     0.029 A 
ATOM     22  C   UNL     1      -0.480  -1.171   7.827  1.00  0.00     0.049 A 
ATOM     23  H   UNL     1       1.225   0.018   8.080  1.00  0.00     0.167 HD
ATOM     24  C   UNL     1       3.760   3.431   8.406  1.00  0.00     0.037 A 
ATOM     25  C   UNL     1      -1.096  -1.134   9.034  1.00  0.00     0.037 A 
ATOM     26  C   UNL     1       4.492   2.410   9.108  1.00  0.00     0.049 A 
ATOM     27  C   UNL     1      -0.142  -0.591  10.028  1.00  0.00     0.074 A 
ATOM     28  C   UNL     1       5.609   1.641   8.843  1.00  0.00     0.029 A 
ATOM     29  N   UNL     1       3.919   1.845  10.218  1.00  0.00    -0.354 N 
ATOM     30  N   UNL     1       0.905  -1.224  10.475  1.00  0.00    -0.248 NA
ATOM     31  C   UNL     1      -0.171   0.838  10.304  1.00  0.00     0.031 C 
ATOM     32  C   UNL     1       5.380   0.401   9.509  1.00  0.00     0.029 A 
ATOM     33  C   UNL     1       4.147   0.498  10.153  1.00  0.00     0.049 A 
ATOM     34  H   UNL     1       3.434   2.320  10.931  1.00  0.00     0.167 HD
ATOM     35  C   UNL     1       1.844  -0.232  10.697  1.00  0.00     0.074 A 
ATOM     36  C   UNL     1       1.087   1.012  10.714  1.00  0.00     0.031 C 
ATOM     37  C   UNL     1       3.177  -0.488  10.557  1.00  0.00     0.037 A 
BRANCH  24  38
ATOM     38  C   UNL     1       3.238   4.668   9.113  1.00  0.00     0.064 A 
ATOM     39  C   UNL     1       3.833   5.055  10.334  1.00  0.00     0.173 A 
ATOM     40  C   UNL     1       1.989   5.264   8.837  1.00  0.00     0.173 A 
ATOM     41  F   UNL     1       5.027   4.564  10.700  1.00  0.00    -0.203 F 
ATOM     42  C   UNL     1       3.165   5.859  11.261  1.00  0.00     0.198 A 
ATOM     43  C   UNL     1       1.350   6.112   9.742  1.00  0.00     0.198 A 
ATOM     44  F   UNL     1       1.282   4.973   7.739  1.00  0.00    -0.203 F 
ATOM     45  F   UNL     1       3.702   6.063  12.472  1.00  0.00    -0.200 F 
ATOM     46  C   UNL     1       1.916   6.373  10.972  1.00  0.00     0.200 A 
ATOM     47  F   UNL     1       0.137   6.598   9.444  1.00  0.00    -0.200 F 
ATOM     48  F   UNL     1       1.237   7.073  11.889  1.00  0.00    -0.200 F 
ENDBRANCH  24  38
BRANCH  25  49
ATOM     49  C   UNL     1      -2.534  -1.312   9.342  1.00  0.00     0.064 A 
ATOM     50  C   UNL     1      -2.969  -1.585  10.649  1.00  0.00     0.173 A 
ATOM     51  C   UNL     1      -3.533  -0.964   8.411  1.00  0.00     0.173 A 
ATOM     52  F   UNL     1      -2.080  -1.875  11.611  1.00  0.00    -0.203 F 
ATOM     53  C   UNL     1      -4.318  -1.496  11.007  1.00  0.00     0.198 A 
ATOM     54  C   UNL     1      -4.880  -0.891   8.765  1.00  0.00     0.198 A 
ATOM     55  F   UNL     1      -3.213  -0.593   7.163  1.00  0.00    -0.203 F 
ATOM     56  F   UNL     1      -4.686  -1.700  12.280  1.00  0.00    -0.200 F 
ATOM     57  C   UNL     1      -5.271  -1.143  10.066  1.00  0.00     0.200 A 
ATOM     58  F   UNL     1      -5.787  -0.513   7.853  1.00  0.00    -0.200 F 
ATOM     59  F   UNL     1      -6.556  -1.004  10.421  1.00  0.00    -0.200 F 
ENDBRANCH  25  49
BRANCH  37  60
ATOM     60  C   UNL     1       3.615  -1.921  10.542  1.00  0.00     0.064 A 
ATOM     61  C   UNL     1       3.227  -2.849   9.562  1.00  0.00     0.173 A 
ATOM     62  C   UNL     1       4.558  -2.334  11.492  1.00  0.00     0.173 A 
ATOM     63  F   UNL     1       2.413  -2.495   8.558  1.00  0.00    -0.203 F 
ATOM     64  C   UNL     1       3.720  -4.152   9.573  1.00  0.00     0.198 A 
ATOM     65  C   UNL     1       5.079  -3.624  11.476  1.00  0.00     0.198 A 
ATOM     66  F   UNL     1       5.008  -1.469  12.415  1.00  0.00    -0.203 F 
ATOM     67  F   UNL     1       3.321  -5.029   8.640  1.00  0.00    -0.200 F 
ATOM     68  C   UNL     1       4.650  -4.536  10.526  1.00  0.00     0.200 A 
ATOM     69  F   UNL     1       6.016  -3.975  12.368  1.00  0.00    -0.200 F 
ATOM     70  F   UNL     1       5.153  -5.778  10.513  1.00  0.00    -0.200 F 
ENDBRANCH  37  60
ENDBRANCH  11  12
ENDBRANCH   4   6
ENDBRANCH   1   2
BRANCH   1  71
ATOM     71  C   UNL     1       5.426  -1.871  -0.025  1.00  0.00     0.042 C 
BRANCH  71  72
ATOM     72  C   UNL     1       4.971  -3.194  -0.626  1.00  0.00     0.118 C 
BRANCH  72  73
ATOM     73  N   UNL     1       5.341  -3.370  -2.018  1.00  0.00    -0.352 N 
ATOM     74  C   UNL     1       5.743  -4.498  -2.694  1.00  0.00     0.253 C 
ATOM     75  H   UNL     1       5.298  -2.552  -2.565  1.00  0.00     0.163 HD
ATOM     76  O   UNL     1       5.960  -4.439  -3.895  1.00  0.00    -0.269 OA
BRANCH  74  77
ATOM     77  C   UNL     1       5.965  -5.781  -1.985  1.00  0.00     0.065 A 
ATOM     78  C   UNL     1       7.268  -6.297  -2.097  1.00  0.00     0.016 A 
ATOM     79  C   UNL     1       5.018  -6.462  -1.205  1.00  0.00     0.079 A 
ATOM     80  C   UNL     1       7.642  -7.448  -1.402  1.00  0.00     0.001 A 
ATOM     81  C   UNL     1       5.420  -7.590  -0.465  1.00  0.00     0.029 A 
ATOM     82  C   UNL     1       6.723  -8.084  -0.574  1.00  0.00     0.002 A 
BRANCH  79  83
ATOM     83  N   UNL     1       3.657  -6.079  -1.137  1.00  0.00    -0.220 N 
ATOM     84  C   UNL     1       2.881  -5.407  -2.053  1.00  0.00     0.137 A 
ATOM     85  N   UNL     1       2.910  -6.353  -0.038  1.00  0.00    -0.062 NA
ATOM     86  C   UNL     1       1.692  -5.183  -1.405  1.00  0.00     0.157 A 
ATOM     87  N   UNL     1       1.732  -5.758  -0.172  1.00  0.00    -0.139 NA
ENDBRANCH  79  83
ENDBRANCH  74  77
ENDBRANCH  72  73
ENDBRANCH  71  72
ENDBRANCH   1  71
TORSDOF 11
