REMARK SMILES CCC(CC)(NC(=O)c1ccc(N)c(F)c1)C(=O)NCCCNC(=O)c1ccc(-c2c3nc(c(-c4c(F)c(F)c(F)c(F)c4F)c4ccc([nH]4)c(-c4c(F)c(F)c(F)c(F)c4F)c4nc(c(-c5c(F)c(F)c(F)c(F)c5F)c5ccc2[nH]5)C=C4)C=C3)cc1
REMARK SMILES IDX 20 1 19 2 17 3 18 4 3 6 2 7 1 8 4 9 5 10 6 11 7 12 8 14 9 15
REMARK SMILES IDX 10 16 16 17 11 18 14 19 12 20 15 21 13 22 21 25 22 26 23 27
REMARK SMILES IDX 24 28 25 30 26 31 27 32 88 33 28 34 87 35 29 36 30 37 31 38
REMARK SMILES IDX 81 39 32 40 86 41 80 42 82 43 33 44 85 45 79 46 78 47 34 49
REMARK SMILES IDX 66 50 46 51 65 52 47 53 50 54 64 55 83 56 48 57 49 58 63 60
REMARK SMILES IDX 84 61 51 62 35 63 36 64 44 65 37 66 38 67 42 68 45 69 39 70
REMARK SMILES IDX 40 71 43 72 41 73 67 74 68 75 76 76 69 77 70 78 74 79 77 80
REMARK SMILES IDX 71 81 72 82 75 83 73 84 52 85 53 86 61 87 54 88 55 89 59 90
REMARK SMILES IDX 62 91 56 92 57 93 60 94 58 95
REMARK H PARENT 19 5 6 13 13 23 13 24 23 29 82 48 50 59
REMARK Flexibility Score: inf
ROOT
ATOM      1  C   UNL     1       2.108   4.700   2.535  1.00  0.00     0.117 C 
ENDROOT
BRANCH   1   2
ATOM      2  N   UNL     1       2.624   3.693   1.610  1.00  0.00    -0.354 N 
ATOM      3  C   UNL     1       2.233   2.426   1.234  1.00  0.00     0.245 C 
ATOM      4  O   UNL     1       2.896   1.921   0.323  1.00  0.00    -0.272 OA
ATOM      5  H   UNL     1       3.442   3.988   1.148  1.00  0.00     0.163 HD
BRANCH   3   6
ATOM      6  C   UNL     1       0.995   1.694   1.851  1.00  0.00     0.118 C 
BRANCH   6   7
ATOM      7  C   UNL     1       0.875   0.186   1.467  1.00  0.00     0.035 C 
ATOM      8  C   UNL     1       0.890  -0.194  -0.009  1.00  0.00     0.007 C 
ENDBRANCH   6   7
BRANCH   6   9
ATOM      9  C   UNL     1      -0.186   2.506   1.208  1.00  0.00     0.035 C 
ATOM     10  C   UNL     1      -1.615   2.076   1.486  1.00  0.00     0.007 C 
ENDBRANCH   6   9
BRANCH   6  11
ATOM     11  N   UNL     1       0.954   1.739   3.357  1.00  0.00    -0.338 N 
ATOM     12  C   UNL     1       1.688   1.076   4.345  1.00  0.00     0.252 C 
ATOM     13  H   UNL     1       0.276   2.357   3.716  1.00  0.00     0.164 HD
ATOM     14  O   UNL     1       1.084   0.795   5.383  1.00  0.00    -0.269 OA
BRANCH  12  15
ATOM     15  C   UNL     1       3.163   0.777   4.303  1.00  0.00     0.042 A 
ATOM     16  C   UNL     1       4.018   1.443   3.445  1.00  0.00     0.016 A 
ATOM     17  C   UNL     1       3.786  -0.011   5.278  1.00  0.00     0.055 A 
ATOM     18  C   UNL     1       5.406   1.338   3.458  1.00  0.00     0.029 A 
ATOM     19  C   UNL     1       5.194  -0.094   5.333  1.00  0.00     0.146 A 
ATOM     20  C   UNL     1       6.025   0.560   4.410  1.00  0.00     0.068 A 
ATOM     21  F   UNL     1       5.762  -0.791   6.330  1.00  0.00    -0.205 F 
BRANCH  20  22
ATOM     22  N   UNL     1       7.406   0.627   4.525  1.00  0.00    -0.396 N 
ATOM     23  H   UNL     1       7.934   1.102   3.843  1.00  0.00     0.156 HD
ATOM     24  H   UNL     1       7.858   0.201   5.289  1.00  0.00     0.156 HD
ENDBRANCH  20  22
ENDBRANCH  12  15
ENDBRANCH   6  11
ENDBRANCH   3   6
ENDBRANCH   1   2
BRANCH   1  25
ATOM     25  C   UNL     1       2.517   4.635   4.010  1.00  0.00     0.042 C 
BRANCH  25  26
ATOM     26  C   UNL     1       3.993   4.750   4.379  1.00  0.00     0.118 C 
BRANCH  26  27
ATOM     27  N   UNL     1       4.663   5.918   3.853  1.00  0.00    -0.352 N 
ATOM     28  C   UNL     1       5.478   6.822   4.490  1.00  0.00     0.251 C 
ATOM     29  H   UNL     1       4.512   6.092   2.896  1.00  0.00     0.163 HD
ATOM     30  O   UNL     1       5.935   7.767   3.859  1.00  0.00    -0.269 OA
BRANCH  28  31
ATOM     31  C   UNL     1       5.776   6.700   5.937  1.00  0.00     0.039 A 
ATOM     32  C   UNL     1       5.642   7.847   6.725  1.00  0.00     0.014 A 
ATOM     33  C   UNL     1       6.222   5.508   6.517  1.00  0.00     0.014 A 
ATOM     34  C   UNL     1       5.908   7.792   8.095  1.00  0.00     0.010 A 
ATOM     35  C   UNL     1       6.435   5.440   7.899  1.00  0.00     0.010 A 
ATOM     36  C   UNL     1       6.282   6.582   8.702  1.00  0.00    -0.014 A 
BRANCH  36  37
ATOM     37  C   UNL     1       6.504   6.519  10.174  1.00  0.00     0.031 A 
ATOM     38  C   UNL     1       7.874   6.252  10.735  1.00  0.00     0.074 A 
ATOM     39  C   UNL     1       5.463   6.692  11.012  1.00  0.00     0.049 A 
ATOM     40  N   UNL     1       8.255   6.167  11.986  1.00  0.00    -0.248 NA
ATOM     41  C   UNL     1       8.957   6.039   9.764  1.00  0.00     0.031 C 
ATOM     42  C   UNL     1       4.080   6.928  10.599  1.00  0.00     0.029 A 
ATOM     43  N   UNL     1       5.404   6.695  12.385  1.00  0.00    -0.354 N 
ATOM     44  C   UNL     1       9.616   5.887  11.952  1.00  0.00     0.074 A 
ATOM     45  C   UNL     1       9.983   5.767  10.557  1.00  0.00     0.031 C 
ATOM     46  C   UNL     1       3.313   7.076  11.692  1.00  0.00     0.029 A 
ATOM     47  C   UNL     1       4.141   6.906  12.883  1.00  0.00     0.049 A 
ATOM     48  H   UNL     1       6.193   6.558  12.958  1.00  0.00     0.167 HD
ATOM     49  C   UNL     1      10.482   5.762  12.987  1.00  0.00     0.037 A 
ATOM     50  C   UNL     1       3.695   6.947  14.154  1.00  0.00     0.037 A 
ATOM     51  C   UNL     1      10.117   5.887  14.375  1.00  0.00     0.049 A 
ATOM     52  C   UNL     1       4.673   6.769  15.285  1.00  0.00     0.074 A 
ATOM     53  C   UNL     1      10.933   5.824  15.492  1.00  0.00     0.029 A 
ATOM     54  N   UNL     1       8.825   6.088  14.839  1.00  0.00    -0.354 N 
ATOM     55  N   UNL     1       5.969   6.578  15.238  1.00  0.00    -0.248 NA
ATOM     56  C   UNL     1       4.126   6.820  16.648  1.00  0.00     0.031 C 
ATOM     57  C   UNL     1      10.128   5.925  16.631  1.00  0.00     0.029 A 
ATOM     58  C   UNL     1       8.818   6.120  16.226  1.00  0.00     0.049 A 
ATOM     59  H   UNL     1       8.029   6.193  14.268  1.00  0.00     0.167 HD
ATOM     60  C   UNL     1       6.395   6.517  16.558  1.00  0.00     0.074 A 
ATOM     61  C   UNL     1       5.222   6.710  17.384  1.00  0.00     0.031 C 
ATOM     62  C   UNL     1       7.647   6.320  17.041  1.00  0.00     0.037 A 
BRANCH  49  63
ATOM     63  C   UNL     1      11.920   5.466  12.660  1.00  0.00     0.064 A 
ATOM     64  C   UNL     1      12.745   6.414  12.036  1.00  0.00     0.173 A 
ATOM     65  C   UNL     1      12.493   4.235  13.018  1.00  0.00     0.173 A 
ATOM     66  F   UNL     1      12.248   7.604  11.667  1.00  0.00    -0.203 F 
ATOM     67  C   UNL     1      14.079   6.129  11.753  1.00  0.00     0.198 A 
ATOM     68  C   UNL     1      13.835   3.967  12.764  1.00  0.00     0.198 A 
ATOM     69  F   UNL     1      11.754   3.296  13.627  1.00  0.00    -0.203 F 
ATOM     70  F   UNL     1      14.833   7.031  11.110  1.00  0.00    -0.200 F 
ATOM     71  C   UNL     1      14.625   4.910  12.124  1.00  0.00     0.200 A 
ATOM     72  F   UNL     1      14.366   2.795  13.139  1.00  0.00    -0.200 F 
ATOM     73  F   UNL     1      15.911   4.641  11.859  1.00  0.00    -0.200 F 
ENDBRANCH  49  63
BRANCH  50  74
ATOM     74  C   UNL     1       2.252   7.179  14.429  1.00  0.00     0.064 A 
ATOM     75  C   UNL     1       1.813   8.358  15.049  1.00  0.00     0.173 A 
ATOM     76  C   UNL     1       1.283   6.221  14.095  1.00  0.00     0.173 A 
ATOM     77  F   UNL     1       2.702   9.296  15.409  1.00  0.00    -0.203 F 
ATOM     78  C   UNL     1       0.466   8.559  15.345  1.00  0.00     0.198 A 
ATOM     79  C   UNL     1      -0.067   6.437  14.361  1.00  0.00     0.198 A 
ATOM     80  F   UNL     1       1.648   5.076  13.499  1.00  0.00    -0.203 F 
ATOM     81  F   UNL     1       0.083   9.671  15.986  1.00  0.00    -0.200 F 
ATOM     82  C   UNL     1      -0.473   7.601  14.995  1.00  0.00     0.200 A 
ATOM     83  F   UNL     1      -0.974   5.516  14.007  1.00  0.00    -0.200 F 
ATOM     84  F   UNL     1      -1.769   7.796  15.277  1.00  0.00    -0.200 F 
ENDBRANCH  50  74
BRANCH  62  85
ATOM     85  C   UNL     1       7.825   6.343  18.534  1.00  0.00     0.064 A 
ATOM     86  C   UNL     1       7.327   5.322  19.357  1.00  0.00     0.173 A 
ATOM     87  C   UNL     1       8.537   7.387  19.146  1.00  0.00     0.173 A 
ATOM     88  F   UNL     1       6.627   4.308  18.826  1.00  0.00    -0.203 F 
ATOM     89  C   UNL     1       7.509   5.360  20.737  1.00  0.00     0.198 A 
ATOM     90  C   UNL     1       8.748   7.403  20.522  1.00  0.00     0.198 A 
ATOM     91  F   UNL     1       9.041   8.387  18.407  1.00  0.00    -0.203 F 
ATOM     92  F   UNL     1       6.977   4.401  21.508  1.00  0.00    -0.200 F 
ATOM     93  C   UNL     1       8.226   6.395  21.317  1.00  0.00     0.200 A 
ATOM     94  F   UNL     1       9.456   8.396  21.078  1.00  0.00    -0.200 F 
ATOM     95  F   UNL     1       8.408   6.425  22.645  1.00  0.00    -0.200 F 
ENDBRANCH  62  85
ENDBRANCH  36  37
ENDBRANCH  28  31
ENDBRANCH  26  27
ENDBRANCH  25  26
ENDBRANCH   1  25
TORSDOF 15
