REMARK SMILES CSCCC(=O)N1[C@H](C)CCC[C@@H]1C(=O)NCCCNC(=O)c1ccc(-c2c3nc(c(-c4c(F)c(F)c(F)c(F)c4F)c4ccc([nH]4)c(-c4c(F)c(F)c(F)c(F)c4F)c4nc(c(-c5c(F)c(F)c(F)c(F)c5F)c5ccc2[nH]5)C=C4)C=C3)cc1
REMARK SMILES IDX 17 1 16 2 14 3 15 4 13 6 7 7 8 8 9 9 10 10 12 11 11 12 5 13
REMARK SMILES IDX 6 14 4 15 3 16 2 17 1 18 18 19 19 20 20 21 21 22 22 24 23 25
REMARK SMILES IDX 24 26 85 27 25 28 84 29 26 30 27 31 28 32 78 33 29 34 83 35
REMARK SMILES IDX 77 36 79 37 30 38 82 39 76 40 75 41 31 43 63 44 43 45 62 46
REMARK SMILES IDX 44 47 47 48 61 49 80 50 45 51 46 52 60 54 81 55 48 56 32 57
REMARK SMILES IDX 33 58 41 59 34 60 35 61 39 62 42 63 36 64 37 65 40 66 38 67
REMARK SMILES IDX 64 68 65 69 73 70 66 71 67 72 71 73 74 74 68 75 69 76 72 77
REMARK SMILES IDX 70 78 49 79 50 80 58 81 51 82 52 83 56 84 59 85 53 86 54 87
REMARK SMILES IDX 57 88 55 89
REMARK H PARENT 16 5 20 23 79 42 47 53
REMARK Flexibility Score: inf
ROOT
ATOM      1  C   UNL     1      -1.573   0.187   2.537  1.00  0.00     0.117 C 
ENDROOT
BRANCH   1   2
ATOM      2  N   UNL     1      -1.783   1.613   2.429  1.00  0.00    -0.354 N 
ATOM      3  C   UNL     1      -1.315   2.583   1.599  1.00  0.00     0.242 C 
ATOM      4  O   UNL     1      -2.082   3.549   1.473  1.00  0.00    -0.273 OA
ATOM      5  H   UNL     1      -2.403   1.960   3.110  1.00  0.00     0.163 HD
BRANCH   3   6
ATOM      6  C   UNL     1       0.083   2.614   0.901  1.00  0.00     0.174 C 
ATOM      7  N   UNL     1       0.338   1.862  -0.356  1.00  0.00    -0.328 N 
ATOM      8  C   UNL     1       0.752   0.471  -0.249  1.00  0.00     0.082 C 
ATOM      9  C   UNL     1      -0.363  -0.521  -0.578  1.00  0.00     0.031 C 
ATOM     10  C   UNL     1       1.588   0.180   1.006  1.00  0.00     0.025 C 
ATOM     11  C   UNL     1       1.238   2.500   1.908  1.00  0.00     0.035 C 
ATOM     12  C   UNL     1       2.266   1.439   1.533  1.00  0.00     0.005 C 
BRANCH   7  13
ATOM     13  C   UNL     1       0.608   2.569  -1.538  1.00  0.00     0.224 C 
ATOM     14  O   UNL     1       0.837   3.780  -1.542  1.00  0.00    -0.275 OA
BRANCH  13  15
ATOM     15  C   UNL     1       0.606   1.806  -2.869  1.00  0.00     0.111 C 
BRANCH  15  16
ATOM     16  C   UNL     1       1.962   1.232  -3.304  1.00  0.00     0.079 C 
BRANCH  16  17
ATOM     17  S   UNL     1       1.962  -0.596  -3.577  1.00  0.00    -0.165 SA
ATOM     18  C   UNL     1       3.070  -1.164  -2.247  1.00  0.00     0.085 C 
ENDBRANCH  16  17
ENDBRANCH  15  16
ENDBRANCH  13  15
ENDBRANCH   7  13
ENDBRANCH   3   6
ENDBRANCH   1   2
BRANCH   1  19
ATOM     19  C   UNL     1      -0.862  -0.273   3.798  1.00  0.00     0.042 C 
BRANCH  19  20
ATOM     20  C   UNL     1      -1.343  -1.643   4.264  1.00  0.00     0.118 C 
BRANCH  20  21
ATOM     21  N   UNL     1      -1.328  -2.724   3.285  1.00  0.00    -0.352 N 
ATOM     22  C   UNL     1      -1.317  -4.092   3.511  1.00  0.00     0.251 C 
ATOM     23  H   UNL     1      -1.326  -2.445   2.341  1.00  0.00     0.163 HD
ATOM     24  O   UNL     1      -1.332  -4.867   2.570  1.00  0.00    -0.269 OA
BRANCH  22  25
ATOM     25  C   UNL     1      -1.213  -4.611   4.901  1.00  0.00     0.039 A 
ATOM     26  C   UNL     1      -0.363  -5.690   5.163  1.00  0.00     0.014 A 
ATOM     27  C   UNL     1      -1.889  -3.999   5.953  1.00  0.00     0.014 A 
ATOM     28  C   UNL     1      -0.109  -6.068   6.486  1.00  0.00     0.010 A 
ATOM     29  C   UNL     1      -1.532  -4.279   7.263  1.00  0.00     0.010 A 
ATOM     30  C   UNL     1      -0.645  -5.324   7.549  1.00  0.00    -0.014 A 
BRANCH  30  31
ATOM     31  C   UNL     1      -0.318  -5.619   8.969  1.00  0.00     0.031 A 
ATOM     32  C   UNL     1      -1.425  -5.929   9.943  1.00  0.00     0.074 A 
ATOM     33  C   UNL     1       0.953  -5.505   9.403  1.00  0.00     0.049 A 
ATOM     34  N   UNL     1      -1.367  -6.099  11.239  1.00  0.00    -0.248 NA
ATOM     35  C   UNL     1      -2.789  -6.005   9.393  1.00  0.00     0.031 C 
ATOM     36  C   UNL     1       2.102  -5.121   8.579  1.00  0.00     0.029 A 
ATOM     37  N   UNL     1       1.492  -5.690  10.651  1.00  0.00    -0.354 N 
ATOM     38  C   UNL     1      -2.683  -6.263  11.656  1.00  0.00     0.074 A 
ATOM     39  C   UNL     1      -3.521  -6.097  10.491  1.00  0.00     0.031 C 
ATOM     40  C   UNL     1       3.213  -5.142   9.333  1.00  0.00     0.029 A 
ATOM     41  C   UNL     1       2.853  -5.503  10.699  1.00  0.00     0.049 A 
ATOM     42  H   UNL     1       0.954  -5.934  11.439  1.00  0.00     0.167 HD
ATOM     43  C   UNL     1      -3.150  -6.565  12.890  1.00  0.00     0.037 A 
ATOM     44  C   UNL     1       3.711  -5.620  11.730  1.00  0.00     0.037 A 
ATOM     45  C   UNL     1      -2.305  -6.792  14.032  1.00  0.00     0.049 A 
ATOM     46  C   UNL     1       3.176  -6.024  13.078  1.00  0.00     0.074 A 
ATOM     47  C   UNL     1      -2.664  -7.182  15.309  1.00  0.00     0.029 A 
ATOM     48  N   UNL     1      -0.924  -6.662  14.024  1.00  0.00    -0.354 N 
ATOM     49  N   UNL     1       1.938  -6.252  13.443  1.00  0.00    -0.248 NA
ATOM     50  C   UNL     1       4.161  -6.201  14.153  1.00  0.00     0.031 C 
ATOM     51  C   UNL     1      -1.501  -7.258  16.084  1.00  0.00     0.029 A 
ATOM     52  C   UNL     1      -0.414  -6.958  15.276  1.00  0.00     0.049 A 
ATOM     53  H   UNL     1      -0.386  -6.398  13.243  1.00  0.00     0.167 HD
ATOM     54  C   UNL     1       1.996  -6.626  14.778  1.00  0.00     0.074 A 
ATOM     55  C   UNL     1       3.395  -6.612  15.153  1.00  0.00     0.031 C 
ATOM     56  C   UNL     1       0.984  -6.949  15.621  1.00  0.00     0.037 A 
BRANCH  43  57
ATOM     57  C   UNL     1      -4.637  -6.691  13.057  1.00  0.00     0.064 A 
ATOM     58  C   UNL     1      -5.359  -7.739  12.463  1.00  0.00     0.173 A 
ATOM     59  C   UNL     1      -5.351  -5.761  13.827  1.00  0.00     0.173 A 
ATOM     60  F   UNL     1      -4.728  -8.647  11.704  1.00  0.00    -0.203 F 
ATOM     61  C   UNL     1      -6.741  -7.828  12.601  1.00  0.00     0.198 A 
ATOM     62  C   UNL     1      -6.730  -5.873  13.991  1.00  0.00     0.198 A 
ATOM     63  F   UNL     1      -4.713  -4.741  14.421  1.00  0.00    -0.203 F 
ATOM     64  F   UNL     1      -7.414  -8.801  11.970  1.00  0.00    -0.200 F 
ATOM     65  C   UNL     1      -7.425  -6.899  13.370  1.00  0.00     0.200 A 
ATOM     66  F   UNL     1      -7.389  -4.981  14.744  1.00  0.00    -0.200 F 
ATOM     67  F   UNL     1      -8.756  -6.987  13.503  1.00  0.00    -0.200 F 
ENDBRANCH  43  57
BRANCH  44  68
ATOM     68  C   UNL     1       5.167  -5.413  11.516  1.00  0.00     0.064 A 
ATOM     69  C   UNL     1       6.058  -6.495  11.559  1.00  0.00     0.173 A 
ATOM     70  C   UNL     1       5.699  -4.141  11.264  1.00  0.00     0.173 A 
ATOM     71  F   UNL     1       5.599  -7.729  11.813  1.00  0.00    -0.203 F 
ATOM     72  C   UNL     1       7.428  -6.310  11.382  1.00  0.00     0.198 A 
ATOM     73  C   UNL     1       7.067  -3.960  11.060  1.00  0.00     0.198 A 
ATOM     74  F   UNL     1       4.890  -3.073  11.203  1.00  0.00    -0.203 F 
ATOM     75  F   UNL     1       8.260  -7.356  11.473  1.00  0.00    -0.200 F 
ATOM     76  C   UNL     1       7.930  -5.043  11.127  1.00  0.00     0.200 A 
ATOM     77  F   UNL     1       7.547  -2.737  10.798  1.00  0.00    -0.200 F 
ATOM     78  F   UNL     1       9.247  -4.866  10.953  1.00  0.00    -0.200 F 
ENDBRANCH  44  68
BRANCH  56  79
ATOM     79  C   UNL     1       1.359  -7.351  17.016  1.00  0.00     0.064 A 
ATOM     80  C   UNL     1       1.825  -6.416  17.951  1.00  0.00     0.173 A 
ATOM     81  C   UNL     1       1.220  -8.685  17.429  1.00  0.00     0.173 A 
ATOM     82  F   UNL     1       1.988  -5.132  17.598  1.00  0.00    -0.203 F 
ATOM     83  C   UNL     1       2.168  -6.808  19.242  1.00  0.00     0.198 A 
ATOM     84  C   UNL     1       1.535  -9.067  18.730  1.00  0.00     0.198 A 
ATOM     85  F   UNL     1       0.770  -9.615  16.574  1.00  0.00    -0.203 F 
ATOM     86  F   UNL     1       2.661  -5.907  20.104  1.00  0.00    -0.200 F 
ATOM     87  C   UNL     1       2.017  -8.130  19.632  1.00  0.00     0.200 A 
ATOM     88  F   UNL     1       1.376 -10.342  19.109  1.00  0.00    -0.200 F 
ATOM     89  F   UNL     1       2.345  -8.504  20.876  1.00  0.00    -0.200 F 
ENDBRANCH  56  79
ENDBRANCH  30  31
ENDBRANCH  22  25
ENDBRANCH  20  21
ENDBRANCH  19  20
ENDBRANCH   1  19
TORSDOF 14
