REMARK SMILES C[NH2+][C@@H](C)c1ccc(SCc2ccc(C(=O)NCCCNC(=O)c3ccc(-c4c5nc(c(-c6c(F)c(F)c(F)c(F)c6F)c6ccc([nH]6)c(-c6c(F)c(F)c(F)c(F)c6F)c6nc(c(-c7c(F)c(F)c(F)c(F)c7F)c7ccc4[nH]7)C=C6)C=C5)cc3)cc2)cc1
REMARK SMILES IDX 15 1 16 2 17 3 14 5 11 6 12 7 88 8 13 9 87 10 10 11 9 12
REMARK SMILES IDX 8 13 5 14 6 15 90 16 7 17 89 18 3 19 4 20 2 21 1 22 18 25
REMARK SMILES IDX 19 26 20 27 21 28 22 29 23 31 24 32 25 33 86 34 26 35 85 36
REMARK SMILES IDX 27 37 28 38 29 39 79 40 30 41 84 42 78 43 80 44 31 45 83 46
REMARK SMILES IDX 77 47 76 48 32 50 64 51 44 52 63 53 45 54 48 55 62 56 81 57
REMARK SMILES IDX 46 58 47 59 61 61 82 62 49 63 33 64 34 65 42 66 35 67 36 68
REMARK SMILES IDX 40 69 43 70 37 71 38 72 41 73 39 74 65 75 66 76 74 77 67 78
REMARK SMILES IDX 68 79 72 80 75 81 69 82 70 83 73 84 71 85 50 86 51 87 59 88
REMARK SMILES IDX 52 89 53 90 57 91 60 92 54 93 55 94 58 95 56 96
REMARK H PARENT 17 4 2 23 2 24 21 30 80 49 48 60
REMARK Flexibility Score: inf
ROOT
ATOM      1  C   UNL     1      -6.245  -5.926   3.758  1.00  0.00     0.251 C 
ATOM      2  O   UNL     1      -7.279  -5.357   3.409  1.00  0.00    -0.269 OA
ATOM      3  N   UNL     1      -5.955  -7.128   3.165  1.00  0.00    -0.352 N 
ATOM      4  H   UNL     1      -6.642  -7.434   2.529  1.00  0.00     0.163 HD
ENDROOT
BRANCH   1   5
ATOM      5  C   UNL     1      -5.348  -5.264   4.742  1.00  0.00     0.039 A 
ATOM      6  C   UNL     1      -3.611  -3.824   6.460  1.00  0.00    -0.038 A 
ATOM      7  C   UNL     1      -4.519  -3.153   5.632  1.00  0.00     0.005 A 
ATOM      8  C   UNL     1      -3.662  -5.227   6.485  1.00  0.00     0.005 A 
ATOM      9  C   UNL     1      -5.360  -3.864   4.770  1.00  0.00     0.014 A 
ATOM     10  C   UNL     1      -4.534  -5.937   5.653  1.00  0.00     0.014 A 
BRANCH   6  11
ATOM     11  C   UNL     1      -2.583  -3.142   7.338  1.00  0.00     0.110 C 
BRANCH  11  12
ATOM     12  S   UNL     1      -2.280  -1.361   7.121  1.00  0.00    -0.121 SA
BRANCH  12  13
ATOM     13  C   UNL     1      -1.794  -1.182   5.407  1.00  0.00     0.008 A 
ATOM     14  C   UNL     1      -1.152  -0.688   2.688  1.00  0.00     0.009 A 
ATOM     15  C   UNL     1      -1.548   0.356   3.534  1.00  0.00     0.011 A 
ATOM     16  C   UNL     1      -1.053  -1.977   3.232  1.00  0.00     0.011 A 
ATOM     17  C   UNL     1      -1.869   0.110   4.872  1.00  0.00     0.015 A 
ATOM     18  C   UNL     1      -1.362  -2.218   4.578  1.00  0.00     0.015 A 
BRANCH  14  19
ATOM     19  C   UNL     1      -0.789  -0.387   1.238  1.00  0.00     0.210 C 
ATOM     20  C   UNL     1      -1.469  -1.361   0.266  1.00  0.00     0.081 C 
BRANCH  19  21
ATOM     21  N   UNL     1       0.673  -0.365   1.114  1.00  0.00    -0.343 N 
ATOM     22  C   UNL     1       1.147   0.081  -0.185  1.00  0.00     0.331 C 
ATOM     23  H   UNL     1       1.047   0.264   1.825  1.00  0.00     0.346 HD
ATOM     24  H   UNL     1       0.995  -1.326   1.233  1.00  0.00     0.346 HD
ENDBRANCH  19  21
ENDBRANCH  14  19
ENDBRANCH  12  13
ENDBRANCH  11  12
ENDBRANCH   6  11
ENDBRANCH   1   5
BRANCH   3  25
ATOM     25  C   UNL     1      -4.831  -8.036   3.293  1.00  0.00     0.118 C 
BRANCH  25  26
ATOM     26  C   UNL     1      -5.171  -9.206   4.216  1.00  0.00     0.042 C 
BRANCH  26  27
ATOM     27  C   UNL     1      -6.158 -10.197   3.604  1.00  0.00     0.118 C 
BRANCH  27  28
ATOM     28  N   UNL     1      -5.550 -10.992   2.550  1.00  0.00    -0.352 N 
ATOM     29  C   UNL     1      -5.527 -12.351   2.372  1.00  0.00     0.251 C 
ATOM     30  H   UNL     1      -5.081 -10.473   1.856  1.00  0.00     0.163 HD
ATOM     31  O   UNL     1      -4.786 -12.833   1.520  1.00  0.00    -0.269 OA
BRANCH  29  32
ATOM     32  C   UNL     1      -6.377 -13.247   3.190  1.00  0.00     0.039 A 
ATOM     33  C   UNL     1      -5.857 -14.489   3.572  1.00  0.00     0.014 A 
ATOM     34  C   UNL     1      -7.698 -12.920   3.512  1.00  0.00     0.014 A 
ATOM     35  C   UNL     1      -6.649 -15.391   4.287  1.00  0.00     0.010 A 
ATOM     36  C   UNL     1      -8.468 -13.794   4.279  1.00  0.00     0.010 A 
ATOM     37  C   UNL     1      -7.959 -15.047   4.653  1.00  0.00    -0.014 A 
BRANCH  37  38
ATOM     38  C   UNL     1      -8.828 -16.011   5.374  1.00  0.00     0.031 A 
ATOM     39  C   UNL     1     -10.035 -16.590   4.688  1.00  0.00     0.074 A 
ATOM     40  C   UNL     1      -8.558 -16.334   6.653  1.00  0.00     0.049 A 
ATOM     41  N   UNL     1     -10.952 -17.397   5.161  1.00  0.00    -0.248 NA
ATOM     42  C   UNL     1     -10.255 -16.188   3.290  1.00  0.00     0.031 C 
ATOM     43  C   UNL     1      -7.439 -15.813   7.438  1.00  0.00     0.029 A 
ATOM     44  N   UNL     1      -9.212 -17.174   7.519  1.00  0.00    -0.354 N 
ATOM     45  C   UNL     1     -11.864 -17.578   4.130  1.00  0.00     0.074 A 
ATOM     46  C   UNL     1     -11.416 -16.766   3.020  1.00  0.00     0.031 C 
ATOM     47  C   UNL     1      -7.474 -16.357   8.665  1.00  0.00     0.029 A 
ATOM     48  C   UNL     1      -8.632 -17.242   8.762  1.00  0.00     0.049 A 
ATOM     49  H   UNL     1     -10.020 -17.680   7.273  1.00  0.00     0.167 HD
ATOM     50  C   UNL     1     -12.966 -18.366   4.104  1.00  0.00     0.037 A 
ATOM     51  C   UNL     1      -8.995 -17.941   9.854  1.00  0.00     0.037 A 
ATOM     52  C   UNL     1     -13.390 -19.203   5.195  1.00  0.00     0.049 A 
ATOM     53  C   UNL     1     -10.205 -18.833   9.789  1.00  0.00     0.074 A 
ATOM     54  C   UNL     1     -14.466 -20.072   5.252  1.00  0.00     0.029 A 
ATOM     55  N   UNL     1     -12.749 -19.278   6.423  1.00  0.00    -0.354 N 
ATOM     56  N   UNL     1     -11.032 -19.034   8.792  1.00  0.00    -0.248 NA
ATOM     57  C   UNL     1     -10.523 -19.607  10.997  1.00  0.00     0.031 C 
ATOM     58  C   UNL     1     -14.492 -20.653   6.525  1.00  0.00     0.029 A 
ATOM     59  C   UNL     1     -13.409 -20.177   7.246  1.00  0.00     0.049 A 
ATOM     60  H   UNL     1     -11.944 -18.769   6.672  1.00  0.00     0.167 HD
ATOM     61  C   UNL     1     -11.946 -19.978   9.239  1.00  0.00     0.074 A 
ATOM     62  C   UNL     1     -11.567 -20.317  10.595  1.00  0.00     0.031 C 
ATOM     63  C   UNL     1     -13.004 -20.517   8.585  1.00  0.00     0.037 A 
BRANCH  50  64
ATOM     64  C   UNL     1     -13.790 -18.362   2.849  1.00  0.00     0.064 A 
ATOM     65  C   UNL     1     -13.330 -18.961   1.666  1.00  0.00     0.173 A 
ATOM     66  C   UNL     1     -15.065 -17.778   2.836  1.00  0.00     0.173 A 
ATOM     67  F   UNL     1     -12.112 -19.521   1.623  1.00  0.00    -0.203 F 
ATOM     68  C   UNL     1     -14.104 -18.948   0.509  1.00  0.00     0.198 A 
ATOM     69  C   UNL     1     -15.848 -17.793   1.684  1.00  0.00     0.198 A 
ATOM     70  F   UNL     1     -15.555 -17.198   3.941  1.00  0.00    -0.203 F 
ATOM     71  F   UNL     1     -13.623 -19.483  -0.622  1.00  0.00    -0.200 F 
ATOM     72  C   UNL     1     -15.364 -18.370   0.520  1.00  0.00     0.200 A 
ATOM     73  F   UNL     1     -17.071 -17.244   1.700  1.00  0.00    -0.200 F 
ATOM     74  F   UNL     1     -16.110 -18.363  -0.594  1.00  0.00    -0.200 F 
ENDBRANCH  50  64
BRANCH  51  75
ATOM     75  C   UNL     1      -8.179 -17.855  11.091  1.00  0.00     0.064 A 
ATOM     76  C   UNL     1      -7.388 -18.936  11.505  1.00  0.00     0.173 A 
ATOM     77  C   UNL     1      -8.171 -16.698  11.882  1.00  0.00     0.173 A 
ATOM     78  F   UNL     1      -7.380 -20.070  10.790  1.00  0.00    -0.203 F 
ATOM     79  C   UNL     1      -6.633 -18.869  12.674  1.00  0.00     0.198 A 
ATOM     80  C   UNL     1      -7.396 -16.623  13.038  1.00  0.00     0.198 A 
ATOM     81  F   UNL     1      -8.907 -15.635  11.526  1.00  0.00    -0.203 F 
ATOM     82  F   UNL     1      -5.917 -19.931  13.068  1.00  0.00    -0.200 F 
ATOM     83  C   UNL     1      -6.633 -17.711  13.437  1.00  0.00     0.200 A 
ATOM     84  F   UNL     1      -7.389 -15.498  13.766  1.00  0.00    -0.200 F 
ATOM     85  F   UNL     1      -5.904 -17.645  14.559  1.00  0.00    -0.200 F 
ENDBRANCH  51  75
BRANCH  63  86
ATOM     86  C   UNL     1     -13.796 -21.566   9.306  1.00  0.00     0.064 A 
ATOM     87  C   UNL     1     -14.666 -21.240  10.356  1.00  0.00     0.173 A 
ATOM     88  C   UNL     1     -13.708 -22.911   8.915  1.00  0.00     0.173 A 
ATOM     89  F   UNL     1     -14.773 -19.970  10.775  1.00  0.00    -0.203 F 
ATOM     90  C   UNL     1     -15.403 -22.227  11.005  1.00  0.00     0.198 A 
ATOM     91  C   UNL     1     -14.465 -23.891   9.549  1.00  0.00     0.198 A 
ATOM     92  F   UNL     1     -12.893 -23.271   7.912  1.00  0.00    -0.203 F 
ATOM     93  F   UNL     1     -16.196 -21.901  12.034  1.00  0.00    -0.200 F 
ATOM     94  C   UNL     1     -15.306 -23.550  10.597  1.00  0.00     0.200 A 
ATOM     95  F   UNL     1     -14.378 -25.167   9.148  1.00  0.00    -0.200 F 
ATOM     96  F   UNL     1     -16.020 -24.498  11.221  1.00  0.00    -0.200 F 
ENDBRANCH  63  86
ENDBRANCH  37  38
ENDBRANCH  29  32
ENDBRANCH  27  28
ENDBRANCH  26  27
ENDBRANCH  25  26
ENDBRANCH   3  25
TORSDOF 15
