REMARK SMILES C[C@H](c1ccccc1)[N@@H+](CC(=O)NCCCNC(=O)c1ccc(-c2c3nc(c(-c4c(F)c(F)c(F)c(F)c4F)c4ccc([nH]4)c(-c4c(F)c(F)c(F)c(F)c4F)c4nc(c(-c5c(F)c(F)c(F)c(F)c5F)c5ccc2[nH]5)C=C4)C=C3)cc1)CC(F)(F)F
REMARK SMILES IDX 14 1 13 2 11 3 12 4 10 6 9 7 2 9 1 10 3 11 4 12 8 13 5 14
REMARK SMILES IDX 7 15 6 16 83 17 84 18 85 19 86 20 87 21 15 22 16 23 17 24
REMARK SMILES IDX 18 25 19 27 20 28 21 29 82 30 22 31 81 32 23 33 24 34 25 35
REMARK SMILES IDX 75 36 26 37 80 38 74 39 76 40 27 41 79 42 73 43 72 44 28 46
REMARK SMILES IDX 60 47 40 48 59 49 41 50 44 51 58 52 77 53 42 54 43 55 57 57
REMARK SMILES IDX 78 58 45 59 29 60 30 61 38 62 31 63 32 64 36 65 39 66 33 67
REMARK SMILES IDX 34 68 37 69 35 70 61 71 62 72 70 73 63 74 64 75 68 76 71 77
REMARK SMILES IDX 65 78 66 79 69 80 67 81 46 82 47 83 55 84 48 85 49 86 53 87
REMARK SMILES IDX 56 88 50 89 51 90 54 91 52 92
REMARK H PARENT 13 5 9 8 17 26 76 45 44 56
REMARK Flexibility Score: inf
ROOT
ATOM      1  C   UNL     1       1.697  -3.860  -1.777  1.00  0.00     0.118 C 
ENDROOT
BRANCH   1   2
ATOM      2  N   UNL     1       0.665  -4.324  -0.859  1.00  0.00    -0.351 N 
ATOM      3  C   UNL     1      -0.596  -3.869  -0.586  1.00  0.00     0.275 C 
ATOM      4  O   UNL     1      -1.333  -4.613   0.064  1.00  0.00    -0.269 OA
ATOM      5  H   UNL     1       0.925  -5.115  -0.334  1.00  0.00     0.163 HD
BRANCH   3   6
ATOM      6  C   UNL     1      -1.065  -2.480  -1.027  1.00  0.00     0.364 C 
BRANCH   6   7
ATOM      7  N   UNL     1      -0.956  -1.437   0.016  1.00  0.00    -0.314 N 
ATOM      8  H   UNL     1      -0.987  -0.559  -0.503  1.00  0.00     0.349 HD
BRANCH   7   9
ATOM      9  C   UNL     1       0.367  -1.288   0.613  1.00  0.00     0.212 C 
ATOM     10  C   UNL     1       0.706  -2.130   1.851  1.00  0.00     0.081 C 
BRANCH   9  11
ATOM     11  C   UNL     1       0.842   0.156   0.716  1.00  0.00     0.009 A 
ATOM     12  C   UNL     1       1.469   0.751  -0.396  1.00  0.00     0.010 A 
ATOM     13  C   UNL     1       0.769   0.890   1.907  1.00  0.00     0.010 A 
ATOM     14  C   UNL     1       2.080   2.002  -0.294  1.00  0.00     0.001 A 
ATOM     15  C   UNL     1       1.383   2.141   2.009  1.00  0.00     0.001 A 
ATOM     16  C   UNL     1       2.053   2.688   0.916  1.00  0.00     0.000 A 
ENDBRANCH   9  11
ENDBRANCH   7   9
BRANCH   7  17
ATOM     17  C   UNL     1      -2.162  -1.177   0.824  1.00  0.00     0.380 C 
BRANCH  17  18
ATOM     18  C   UNL     1      -2.492  -1.880   2.158  1.00  0.00     0.438 C 
ATOM     19  F   UNL     1      -1.766  -1.374   3.181  1.00  0.00    -0.165 F 
ATOM     20  F   UNL     1      -3.795  -1.676   2.477  1.00  0.00    -0.165 F 
ATOM     21  F   UNL     1      -2.293  -3.209   2.122  1.00  0.00    -0.165 F 
ENDBRANCH  17  18
ENDBRANCH   7  17
ENDBRANCH   6   7
ENDBRANCH   3   6
ENDBRANCH   1   2
BRANCH   1  22
ATOM     22  C   UNL     1       2.941  -3.220  -1.143  1.00  0.00     0.042 C 
BRANCH  22  23
ATOM     23  C   UNL     1       3.463  -3.849   0.151  1.00  0.00     0.118 C 
BRANCH  23  24
ATOM     24  N   UNL     1       4.512  -4.813  -0.099  1.00  0.00    -0.352 N 
ATOM     25  C   UNL     1       5.800  -4.855   0.378  1.00  0.00     0.251 C 
ATOM     26  H   UNL     1       4.266  -5.551  -0.703  1.00  0.00     0.163 HD
ATOM     27  O   UNL     1       6.596  -5.645  -0.146  1.00  0.00    -0.269 OA
BRANCH  25  28
ATOM     28  C   UNL     1       6.273  -3.996   1.492  1.00  0.00     0.039 A 
ATOM     29  C   UNL     1       7.588  -3.518   1.437  1.00  0.00     0.014 A 
ATOM     30  C   UNL     1       5.513  -3.764   2.644  1.00  0.00     0.014 A 
ATOM     31  C   UNL     1       8.143  -2.829   2.522  1.00  0.00     0.010 A 
ATOM     32  C   UNL     1       6.054  -3.037   3.716  1.00  0.00     0.010 A 
ATOM     33  C   UNL     1       7.385  -2.591   3.679  1.00  0.00    -0.014 A 
BRANCH  33  34
ATOM     34  C   UNL     1       8.024  -1.948   4.863  1.00  0.00     0.031 A 
ATOM     35  C   UNL     1       8.341  -2.759   6.093  1.00  0.00     0.074 A 
ATOM     36  C   UNL     1       8.358  -0.644   4.832  1.00  0.00     0.049 A 
ATOM     37  N   UNL     1       8.967  -2.397   7.188  1.00  0.00    -0.248 NA
ATOM     38  C   UNL     1       7.885  -4.156   6.100  1.00  0.00     0.031 C 
ATOM     39  C   UNL     1       8.086   0.270   3.725  1.00  0.00     0.029 A 
ATOM     40  N   UNL     1       9.008   0.136   5.759  1.00  0.00    -0.354 N 
ATOM     41  C   UNL     1       8.979  -3.518   8.008  1.00  0.00     0.074 A 
ATOM     42  C   UNL     1       8.257  -4.558   7.307  1.00  0.00     0.031 C 
ATOM     43  C   UNL     1       8.580   1.482   4.027  1.00  0.00     0.029 A 
ATOM     44  C   UNL     1       9.196   1.434   5.351  1.00  0.00     0.049 A 
ATOM     45  H   UNL     1       9.310  -0.203   6.632  1.00  0.00     0.167 HD
ATOM     46  C   UNL     1       9.559  -3.679   9.223  1.00  0.00     0.037 A 
ATOM     47  C   UNL     1       9.806   2.466   5.968  1.00  0.00     0.037 A 
ATOM     48  C   UNL     1      10.294  -2.658   9.925  1.00  0.00     0.049 A 
ATOM     49  C   UNL     1      10.458   2.260   7.309  1.00  0.00     0.074 A 
ATOM     50  C   UNL     1      10.943  -2.744  11.145  1.00  0.00     0.029 A 
ATOM     51  N   UNL     1      10.477  -1.363   9.467  1.00  0.00    -0.354 N 
ATOM     52  N   UNL     1      10.520   1.175   8.041  1.00  0.00    -0.248 NA
ATOM     53  C   UNL     1      11.142   3.420   7.899  1.00  0.00     0.031 C 
ATOM     54  C   UNL     1      11.493  -1.492  11.441  1.00  0.00     0.029 A 
ATOM     55  C   UNL     1      11.219  -0.637  10.386  1.00  0.00     0.049 A 
ATOM     56  H   UNL     1      10.131  -1.010   8.616  1.00  0.00     0.167 HD
ATOM     57  C   UNL     1      11.268   1.513   9.161  1.00  0.00     0.074 A 
ATOM     58  C   UNL     1      11.651   2.901   9.008  1.00  0.00     0.031 C 
ATOM     59  C   UNL     1      11.605   0.740  10.222  1.00  0.00     0.037 A 
BRANCH  46  60
ATOM     60  C   UNL     1       9.427  -5.023   9.876  1.00  0.00     0.064 A 
ATOM     61  C   UNL     1      10.141  -6.136   9.407  1.00  0.00     0.173 A 
ATOM     62  C   UNL     1       8.610  -5.194  11.003  1.00  0.00     0.173 A 
ATOM     63  F   UNL     1      10.929  -6.025   8.326  1.00  0.00    -0.203 F 
ATOM     64  C   UNL     1      10.021  -7.377  10.026  1.00  0.00     0.198 A 
ATOM     65  C   UNL     1       8.512  -6.431  11.636  1.00  0.00     0.198 A 
ATOM     66  F   UNL     1       7.914  -4.160  11.497  1.00  0.00    -0.203 F 
ATOM     67  F   UNL     1      10.680  -8.436   9.534  1.00  0.00    -0.200 F 
ATOM     68  C   UNL     1       9.212  -7.522  11.142  1.00  0.00     0.200 A 
ATOM     69  F   UNL     1       7.739  -6.568  12.722  1.00  0.00    -0.200 F 
ATOM     70  F   UNL     1       9.101  -8.717  11.740  1.00  0.00    -0.200 F 
ENDBRANCH  46  60
BRANCH  47  71
ATOM     71  C   UNL     1       9.865   3.790   5.298  1.00  0.00     0.064 A 
ATOM     72  C   UNL     1      11.067   4.276   4.765  1.00  0.00     0.173 A 
ATOM     73  C   UNL     1       8.723   4.595   5.181  1.00  0.00     0.173 A 
ATOM     74  F   UNL     1      12.190   3.551   4.875  1.00  0.00    -0.203 F 
ATOM     75  C   UNL     1      11.128   5.526   4.153  1.00  0.00     0.198 A 
ATOM     76  C   UNL     1       8.781   5.834   4.548  1.00  0.00     0.198 A 
ATOM     77  F   UNL     1       7.551   4.172   5.675  1.00  0.00    -0.203 F 
ATOM     78  F   UNL     1      12.297   5.985   3.686  1.00  0.00    -0.200 F 
ATOM     79  C   UNL     1       9.984   6.301   4.040  1.00  0.00     0.200 A 
ATOM     80  F   UNL     1       7.671   6.577   4.431  1.00  0.00    -0.200 F 
ATOM     81  F   UNL     1      10.042   7.502   3.447  1.00  0.00    -0.200 F 
ENDBRANCH  47  71
BRANCH  59  82
ATOM     82  C   UNL     1      12.457   1.365  11.289  1.00  0.00     0.064 A 
ATOM     83  C   UNL     1      11.935   2.305  12.189  1.00  0.00     0.173 A 
ATOM     84  C   UNL     1      13.803   0.993  11.432  1.00  0.00     0.173 A 
ATOM     85  F   UNL     1      10.659   2.703  12.085  1.00  0.00    -0.203 F 
ATOM     86  C   UNL     1      12.737   2.869  13.179  1.00  0.00     0.198 A 
ATOM     87  C   UNL     1      14.594   1.541  12.437  1.00  0.00     0.198 A 
ATOM     88  F   UNL     1      14.348   0.094  10.599  1.00  0.00    -0.203 F 
ATOM     89  F   UNL     1      12.229   3.797  14.002  1.00  0.00    -0.200 F 
ATOM     90  C   UNL     1      14.063   2.483  13.306  1.00  0.00     0.200 A 
ATOM     91  F   UNL     1      15.873   1.161  12.564  1.00  0.00    -0.200 F 
ATOM     92  F   UNL     1      14.832   3.025  14.260  1.00  0.00    -0.200 F 
ENDBRANCH  59  82
ENDBRANCH  33  34
ENDBRANCH  25  28
ENDBRANCH  23  24
ENDBRANCH  22  23
ENDBRANCH   1  22
TORSDOF 15
