REMARK SMILES O=C(Cc1cncnc1N1CCC2(CC1)OCCC[C@@H]2O)NCCCNC(=O)c1ccc(-c2c3nc(c(-c4c(F)c(F)c(F)c(F)c4F)c4ccc([nH]4)c(-c4c(F)c(F)c(F)c(F)c4F)c4nc(c(-c5c(F)c(F)c(F)c(F)c5F)c5ccc2[nH]5)C=C4)C=C3)cc1
REMARK SMILES IDX 23 1 22 2 1 3 2 4 3 6 4 7 5 8 9 9 6 10 8 11 7 12 10 13 11 14
REMARK SMILES IDX 15 15 12 16 14 17 13 18 16 19 20 20 17 21 19 22 18 23 21 24
REMARK SMILES IDX 24 26 25 27 26 28 27 29 28 31 29 32 30 33 91 34 31 35 90 36
REMARK SMILES IDX 32 37 33 38 34 39 84 40 35 41 89 42 83 43 85 44 36 45 88 46
REMARK SMILES IDX 82 47 81 48 37 50 69 51 49 52 68 53 50 54 53 55 67 56 86 57
REMARK SMILES IDX 51 58 52 59 66 61 87 62 54 63 38 64 39 65 47 66 40 67 41 68
REMARK SMILES IDX 45 69 48 70 42 71 43 72 46 73 44 74 70 75 71 76 79 77 72 78
REMARK SMILES IDX 73 79 77 80 80 81 74 82 75 83 78 84 76 85 55 86 56 87 64 88
REMARK SMILES IDX 57 89 58 90 62 91 65 92 59 93 60 94 63 95 61 96
REMARK H PARENT 22 5 21 25 26 30 85 49 53 60
REMARK Flexibility Score: inf
ROOT
ATOM      1  C   UNL     1       2.307   0.093   2.429  1.00  0.00     0.117 C 
ENDROOT
BRANCH   1   2
ATOM      2  N   UNL     1       3.095  -0.041   1.216  1.00  0.00    -0.356 N 
ATOM      3  O   UNL     1       1.806  -1.688   0.323  1.00  0.00    -0.275 OA
ATOM      4  C   UNL     1       2.629  -0.787   0.160  1.00  0.00     0.224 C 
ATOM      5  H   UNL     1       3.969   0.407   1.149  1.00  0.00     0.163 HD
BRANCH   4   6
ATOM      6  C   UNL     1       3.157  -0.462  -1.226  1.00  0.00     0.141 C 
BRANCH   6   7
ATOM      7  C   UNL     1       3.841   0.865  -1.441  1.00  0.00     0.022 A 
ATOM      8  C   UNL     1       5.206   0.883  -1.677  1.00  0.00     0.121 A 
ATOM      9  C   UNL     1       3.191   2.099  -1.538  1.00  0.00     0.135 A 
ATOM     10  N   UNL     1       5.907   1.989  -1.965  1.00  0.00    -0.244 NA
ATOM     11  N   UNL     1       3.866   3.222  -1.844  1.00  0.00    -0.219 NA
ATOM     12  C   UNL     1       5.188   3.113  -2.041  1.00  0.00     0.224 A 
BRANCH   9  13
ATOM     13  N   UNL     1       1.825   2.200  -1.397  1.00  0.00    -0.356 N 
ATOM     14  C   UNL     1       1.054   2.997  -2.338  1.00  0.00     0.121 C 
ATOM     15  C   UNL     1       1.238   2.227  -0.070  1.00  0.00     0.121 C 
ATOM     16  C   UNL     1      -0.297   2.288  -2.506  1.00  0.00     0.060 C 
ATOM     17  C   UNL     1       0.006   1.336  -0.146  1.00  0.00     0.060 C 
ATOM     18  C   UNL     1      -1.001   1.917  -1.162  1.00  0.00     0.097 C 
ATOM     19  O   UNL     1      -1.548   3.073  -0.488  1.00  0.00    -0.372 OA
ATOM     20  C   UNL     1      -2.133   0.880  -1.423  1.00  0.00     0.146 C 
ATOM     21  C   UNL     1      -2.638   3.718  -1.135  1.00  0.00     0.161 C 
ATOM     22  C   UNL     1      -3.316   1.518  -2.147  1.00  0.00     0.037 C 
ATOM     23  C   UNL     1      -3.790   2.763  -1.406  1.00  0.00     0.031 C 
BRANCH  20  24
ATOM     24  O   UNL     1      -2.623   0.325  -0.196  1.00  0.00    -0.390 OA
ATOM     25  H   UNL     1      -3.011   1.030   0.346  1.00  0.00     0.211 HD
ENDBRANCH  20  24
ENDBRANCH   9  13
ENDBRANCH   6   7
ENDBRANCH   4   6
ENDBRANCH   1   2
BRANCH   1  26
ATOM     26  C   UNL     1       2.634  -0.909   3.511  1.00  0.00     0.042 C 
BRANCH  26  27
ATOM     27  C   UNL     1       4.089  -0.880   3.936  1.00  0.00     0.118 C 
BRANCH  27  28
ATOM     28  N   UNL     1       4.527   0.411   4.452  1.00  0.00    -0.352 N 
ATOM     29  C   UNL     1       5.247   0.707   5.585  1.00  0.00     0.251 C 
ATOM     30  H   UNL     1       4.267   1.189   3.907  1.00  0.00     0.163 HD
ATOM     31  O   UNL     1       5.431   1.871   5.909  1.00  0.00    -0.269 OA
BRANCH  29  32
ATOM     32  C   UNL     1       5.761  -0.391   6.434  1.00  0.00     0.039 A 
ATOM     33  C   UNL     1       5.659  -0.267   7.821  1.00  0.00     0.014 A 
ATOM     34  C   UNL     1       6.308  -1.546   5.872  1.00  0.00     0.014 A 
ATOM     35  C   UNL     1       6.037  -1.334   8.635  1.00  0.00     0.010 A 
ATOM     36  C   UNL     1       6.574  -2.648   6.676  1.00  0.00     0.010 A 
ATOM     37  C   UNL     1       6.453  -2.551   8.067  1.00  0.00    -0.014 A 
BRANCH  37  38
ATOM     38  C   UNL     1       6.756  -3.723   8.925  1.00  0.00     0.031 A 
ATOM     39  C   UNL     1       8.134  -4.324   8.937  1.00  0.00     0.074 A 
ATOM     40  C   UNL     1       5.773  -4.266   9.669  1.00  0.00     0.049 A 
ATOM     41  N   UNL     1       8.593  -5.326   9.646  1.00  0.00    -0.248 NA
ATOM     42  C   UNL     1       9.122  -3.749   8.011  1.00  0.00     0.031 C 
ATOM     43  C   UNL     1       4.377  -3.824   9.679  1.00  0.00     0.029 A 
ATOM     44  N   UNL     1       5.797  -5.304  10.566  1.00  0.00    -0.354 N 
ATOM     45  C   UNL     1       9.912  -5.499   9.247  1.00  0.00     0.074 A 
ATOM     46  C   UNL     1      10.160  -4.551   8.184  1.00  0.00     0.031 C 
ATOM     47  C   UNL     1       3.691  -4.550  10.576  1.00  0.00     0.029 A 
ATOM     48  C   UNL     1       4.588  -5.530  11.178  1.00  0.00     0.049 A 
ATOM     49  H   UNL     1       6.604  -5.835  10.754  1.00  0.00     0.167 HD
ATOM     50  C   UNL     1      10.842  -6.348   9.746  1.00  0.00     0.037 A 
ATOM     51  C   UNL     1       4.246  -6.422  12.126  1.00  0.00     0.037 A 
ATOM     52  C   UNL     1      10.592  -7.279  10.815  1.00  0.00     0.049 A 
ATOM     53  C   UNL     1       5.303  -7.340  12.676  1.00  0.00     0.074 A 
ATOM     54  C   UNL     1      11.477  -8.145  11.432  1.00  0.00     0.029 A 
ATOM     55  N   UNL     1       9.359  -7.468  11.424  1.00  0.00    -0.354 N 
ATOM     56  N   UNL     1       6.571  -7.433  12.355  1.00  0.00    -0.248 NA
ATOM     57  C   UNL     1       4.883  -8.266  13.736  1.00  0.00     0.031 C 
ATOM     58  C   UNL     1      10.769  -8.895  12.377  1.00  0.00     0.029 A 
ATOM     59  C   UNL     1       9.456  -8.452  12.396  1.00  0.00     0.049 A 
ATOM     60  H   UNL     1       8.536  -6.976  11.199  1.00  0.00     0.167 HD
ATOM     61  C   UNL     1       7.106  -8.404  13.191  1.00  0.00     0.074 A 
ATOM     62  C   UNL     1       6.029  -8.849  14.052  1.00  0.00     0.031 C 
ATOM     63  C   UNL     1       8.374  -8.885  13.242  1.00  0.00     0.037 A 
BRANCH  50  64
ATOM     64  C   UNL     1      12.217  -6.303   9.142  1.00  0.00     0.064 A 
ATOM     65  C   UNL     1      13.059  -5.190   9.307  1.00  0.00     0.173 A 
ATOM     66  C   UNL     1      12.714  -7.395   8.415  1.00  0.00     0.173 A 
ATOM     67  F   UNL     1      12.630  -4.112   9.981  1.00  0.00    -0.203 F 
ATOM     68  C   UNL     1      14.331  -5.161   8.741  1.00  0.00     0.198 A 
ATOM     69  C   UNL     1      14.000  -7.376   7.880  1.00  0.00     0.198 A 
ATOM     70  F   UNL     1      11.956  -8.485   8.229  1.00  0.00    -0.203 F 
ATOM     71  F   UNL     1      15.093  -4.066   8.865  1.00  0.00    -0.200 F 
ATOM     72  C   UNL     1      14.804  -6.257   8.036  1.00  0.00     0.200 A 
ATOM     73  F   UNL     1      14.461  -8.442   7.211  1.00  0.00    -0.200 F 
ATOM     74  F   UNL     1      16.032  -6.231   7.499  1.00  0.00    -0.200 F 
ENDBRANCH  50  64
BRANCH  51  75
ATOM     75  C   UNL     1       2.854  -6.458  12.648  1.00  0.00     0.064 A 
ATOM     76  C   UNL     1       2.566  -6.069  13.964  1.00  0.00     0.173 A 
ATOM     77  C   UNL     1       1.786  -6.888  11.848  1.00  0.00     0.173 A 
ATOM     78  F   UNL     1       3.556  -5.666  14.775  1.00  0.00    -0.203 F 
ATOM     79  C   UNL     1       1.269  -6.136  14.469  1.00  0.00     0.198 A 
ATOM     80  C   UNL     1       0.484  -6.923  12.344  1.00  0.00     0.198 A 
ATOM     81  F   UNL     1       2.005  -7.263  10.579  1.00  0.00    -0.203 F 
ATOM     82  F   UNL     1       1.033  -5.810  15.747  1.00  0.00    -0.200 F 
ATOM     83  C   UNL     1       0.228  -6.558  13.656  1.00  0.00     0.200 A 
ATOM     84  F   UNL     1      -0.522  -7.314  11.550  1.00  0.00    -0.200 F 
ATOM     85  F   UNL     1      -1.020  -6.619  14.141  1.00  0.00    -0.200 F 
ENDBRANCH  51  75
BRANCH  63  86
ATOM     86  C   UNL     1       8.666  -9.921  14.292  1.00  0.00     0.064 A 
ATOM     87  C   UNL     1       8.119 -11.212  14.232  1.00  0.00     0.173 A 
ATOM     88  C   UNL     1       9.505  -9.614  15.375  1.00  0.00     0.173 A 
ATOM     89  F   UNL     1       7.302 -11.553  13.224  1.00  0.00    -0.203 F 
ATOM     90  C   UNL     1       8.358 -12.139  15.243  1.00  0.00     0.198 A 
ATOM     91  C   UNL     1       9.773 -10.557  16.363  1.00  0.00     0.198 A 
ATOM     92  F   UNL     1      10.064  -8.399  15.476  1.00  0.00    -0.203 F 
ATOM     93  F   UNL     1       7.763 -13.338  15.204  1.00  0.00    -0.200 F 
ATOM     94  C   UNL     1       9.188 -11.812  16.305  1.00  0.00     0.200 A 
ATOM     95  F   UNL     1      10.590 -10.245  17.379  1.00  0.00    -0.200 F 
ATOM     96  F   UNL     1       9.413 -12.703  17.280  1.00  0.00    -0.200 F 
ENDBRANCH  63  86
ENDBRANCH  37  38
ENDBRANCH  29  32
ENDBRANCH  27  28
ENDBRANCH  26  27
ENDBRANCH   1  26
TORSDOF 13
