REMARK SMILES CC[C@@](C)(NC(=O)c1cccc(Br)c1C)C(=O)NCCCNC(=O)c1ccc(-c2c3nc(c(-c4c(F)c(F)c(F)c(F)c4F)c4ccc([nH]4)c(-c4c(F)c(F)c(F)c(F)c4F)c4nc(c(-c5c(F)c(F)c(F)c(F)c5F)c5ccc2[nH]5)C=C4)C=C3)cc1
REMARK SMILES IDX 20 1 19 2 18 3 16 4 17 5 3 7 4 8 2 9 1 10 5 11 6 12 7 14
REMARK SMILES IDX 8 15 9 16 14 17 10 18 12 19 15 20 11 21 13 22 21 23 22 24
REMARK SMILES IDX 23 25 24 27 25 28 26 29 87 30 27 31 86 32 28 33 29 34 30 35
REMARK SMILES IDX 80 36 31 37 85 38 79 39 81 40 32 41 84 42 78 43 77 44 33 46
REMARK SMILES IDX 65 47 45 48 64 49 46 50 49 51 63 52 82 53 47 54 48 55 62 57
REMARK SMILES IDX 83 58 50 59 34 60 35 61 43 62 36 63 37 64 41 65 44 66 38 67
REMARK SMILES IDX 39 68 42 69 40 70 66 71 67 72 75 73 68 74 69 75 73 76 76 77
REMARK SMILES IDX 70 78 71 79 74 80 72 81 51 82 52 83 60 84 53 85 54 86 58 87
REMARK SMILES IDX 61 88 55 89 56 90 59 91 57 92
REMARK H PARENT 18 6 5 13 22 26 81 45 49 56
REMARK Flexibility Score: inf
ROOT
ATOM      1  C   UNL     1       2.773   1.212  -6.187  1.00  0.00     0.042 C 
ENDROOT
BRANCH   1   2
ATOM      2  C   UNL     1       2.453   0.302  -4.951  1.00  0.00     0.117 C 
BRANCH   2   3
ATOM      3  N   UNL     1       2.989   0.633  -3.624  1.00  0.00    -0.354 N 
ATOM      4  C   UNL     1       2.519   0.759  -2.339  1.00  0.00     0.245 C 
ATOM      5  O   UNL     1       3.412   0.618  -1.487  1.00  0.00    -0.272 OA
ATOM      6  H   UNL     1       3.955   0.814  -3.667  1.00  0.00     0.163 HD
BRANCH   4   7
ATOM      7  C   UNL     1       1.046   1.116  -1.847  1.00  0.00     0.116 C 
ATOM      8  C   UNL     1       0.024   0.158  -2.486  1.00  0.00     0.045 C 
BRANCH   7   9
ATOM      9  C   UNL     1       0.950   0.956  -0.280  1.00  0.00     0.035 C 
ATOM     10  C   UNL     1       1.066  -0.448   0.308  1.00  0.00     0.007 C 
ENDBRANCH   7   9
BRANCH   7  11
ATOM     11  N   UNL     1       0.546   2.517  -2.114  1.00  0.00    -0.338 N 
ATOM     12  C   UNL     1       0.983   3.727  -1.593  1.00  0.00     0.252 C 
ATOM     13  H   UNL     1      -0.200   2.581  -2.752  1.00  0.00     0.164 HD
ATOM     14  O   UNL     1       0.151   4.542  -1.202  1.00  0.00    -0.269 OA
BRANCH  12  15
ATOM     15  C   UNL     1       2.421   4.094  -1.588  1.00  0.00     0.043 A 
ATOM     16  C   UNL     1       2.929   4.984  -0.635  1.00  0.00     0.014 A 
ATOM     17  C   UNL     1       3.238   3.750  -2.664  1.00  0.00    -0.024 A 
ATOM     18  C   UNL     1       4.276   5.358  -0.665  1.00  0.00     0.002 A 
ATOM     19  C   UNL     1       4.624   3.861  -2.500  1.00  0.00     0.021 A 
ATOM     20  C   UNL     1       2.568   3.697  -4.010  1.00  0.00     0.046 C 
ATOM     21  C   UNL     1       5.140   4.721  -1.542  1.00  0.00     0.016 A 
ATOM     22  Br  UNL     1       5.889   2.699  -3.296  1.00  0.00    -0.051 Br
ENDBRANCH  12  15
ENDBRANCH   7  11
ENDBRANCH   4   7
ENDBRANCH   2   3
ENDBRANCH   1   2
BRANCH   1  23
ATOM     23  C   UNL     1       4.098   1.984  -6.324  1.00  0.00     0.118 C 
BRANCH  23  24
ATOM     24  N   UNL     1       5.098   1.434  -7.215  1.00  0.00    -0.352 N 
ATOM     25  C   UNL     1       5.923   2.085  -8.113  1.00  0.00     0.251 C 
ATOM     26  H   UNL     1       5.205   0.456  -7.175  1.00  0.00     0.163 HD
ATOM     27  O   UNL     1       6.670   1.421  -8.829  1.00  0.00    -0.269 OA
BRANCH  25  28
ATOM     28  C   UNL     1       5.943   3.568  -8.266  1.00  0.00     0.039 A 
ATOM     29  C   UNL     1       5.787   4.108  -9.550  1.00  0.00     0.014 A 
ATOM     30  C   UNL     1       6.284   4.423  -7.213  1.00  0.00     0.014 A 
ATOM     31  C   UNL     1       5.947   5.487  -9.778  1.00  0.00     0.010 A 
ATOM     32  C   UNL     1       6.428   5.807  -7.439  1.00  0.00     0.010 A 
ATOM     33  C   UNL     1       6.273   6.357  -8.726  1.00  0.00    -0.014 A 
BRANCH  33  34
ATOM     34  C   UNL     1       6.507   7.816  -8.977  1.00  0.00     0.031 A 
ATOM     35  C   UNL     1       7.894   8.401  -8.867  1.00  0.00     0.074 A 
ATOM     36  C   UNL     1       5.482   8.635  -9.289  1.00  0.00     0.049 A 
ATOM     37  N   UNL     1       8.290   9.646  -8.988  1.00  0.00    -0.248 NA
ATOM     38  C   UNL     1       8.980   7.458  -8.565  1.00  0.00     0.031 C 
ATOM     39  C   UNL     1       4.086   8.224  -9.422  1.00  0.00     0.029 A 
ATOM     40  N   UNL     1       5.453   9.989  -9.540  1.00  0.00    -0.354 N 
ATOM     41  C   UNL     1       9.660   9.639  -8.753  1.00  0.00     0.074 A 
ATOM     42  C   UNL     1      10.022   8.270  -8.451  1.00  0.00     0.031 C 
ATOM     43  C   UNL     1       3.338   9.297  -9.734  1.00  0.00     0.029 A 
ATOM     44  C   UNL     1       4.195  10.480  -9.798  1.00  0.00     0.049 A 
ATOM     45  H   UNL     1       6.260  10.554  -9.535  1.00  0.00     0.167 HD
ATOM     46  C   UNL     1      10.542  10.670  -8.798  1.00  0.00     0.037 A 
ATOM     47  C   UNL     1       3.774  11.736 -10.051  1.00  0.00     0.037 A 
ATOM     48  C   UNL     1      10.199  12.030  -9.133  1.00  0.00     0.049 A 
ATOM     49  C   UNL     1       4.771  12.866 -10.101  1.00  0.00     0.074 A 
ATOM     50  C   UNL     1      11.034  13.129  -9.250  1.00  0.00     0.029 A 
ATOM     51  N   UNL     1       8.916  12.476  -9.410  1.00  0.00    -0.354 N 
ATOM     52  N   UNL     1       6.068  12.833  -9.918  1.00  0.00    -0.248 NA
ATOM     53  C   UNL     1       4.245  14.207 -10.402  1.00  0.00     0.031 C 
ATOM     54  C   UNL     1      10.252  14.246  -9.564  1.00  0.00     0.029 A 
ATOM     55  C   UNL     1       8.936  13.834  -9.686  1.00  0.00     0.049 A 
ATOM     56  H   UNL     1       8.110  11.911  -9.411  1.00  0.00     0.167 HD
ATOM     57  C   UNL     1       6.515  14.134 -10.111  1.00  0.00     0.074 A 
ATOM     58  C   UNL     1       5.354  14.933 -10.436  1.00  0.00     0.031 C 
ATOM     59  C   UNL     1       7.778  14.620 -10.027  1.00  0.00     0.037 A 
BRANCH  46  60
ATOM     60  C   UNL     1      11.979  10.371  -8.471  1.00  0.00     0.064 A 
ATOM     61  C   UNL     1      12.793   9.632  -9.342  1.00  0.00     0.173 A 
ATOM     62  C   UNL     1      12.559  10.860  -7.290  1.00  0.00     0.173 A 
ATOM     63  F   UNL     1      12.288   9.139 -10.483  1.00  0.00    -0.203 F 
ATOM     64  C   UNL     1      14.123   9.361  -9.025  1.00  0.00     0.198 A 
ATOM     65  C   UNL     1      13.896  10.613  -6.990  1.00  0.00     0.198 A 
ATOM     66  F   UNL     1      11.830  11.586  -6.428  1.00  0.00    -0.203 F 
ATOM     67  F   UNL     1      14.866   8.609  -9.849  1.00  0.00    -0.200 F 
ATOM     68  C   UNL     1      14.674   9.855  -7.853  1.00  0.00     0.200 A 
ATOM     69  F   UNL     1      14.433  11.105  -5.865  1.00  0.00    -0.200 F 
ATOM     70  F   UNL     1      15.954   9.596  -7.551  1.00  0.00    -0.200 F 
ENDBRANCH  46  60
BRANCH  47  71
ATOM     71  C   UNL     1       2.331  12.001 -10.301  1.00  0.00     0.064 A 
ATOM     72  C   UNL     1       1.874  12.354 -11.578  1.00  0.00     0.173 A 
ATOM     73  C   UNL     1       1.384  11.920  -9.270  1.00  0.00     0.173 A 
ATOM     74  F   UNL     1       2.745  12.473 -12.591  1.00  0.00    -0.203 F 
ATOM     75  C   UNL     1       0.528  12.631 -11.812  1.00  0.00     0.198 A 
ATOM     76  C   UNL     1       0.034  12.171  -9.510  1.00  0.00     0.198 A 
ATOM     77  F   UNL     1       1.769  11.589  -8.028  1.00  0.00    -0.203 F 
ATOM     78  F   UNL     1       0.126  13.009 -13.033  1.00  0.00    -0.200 F 
ATOM     79  C   UNL     1      -0.392  12.533 -10.779  1.00  0.00     0.200 A 
ATOM     80  F   UNL     1      -0.854  12.065  -8.512  1.00  0.00    -0.200 F 
ATOM     81  F   UNL     1      -1.687  12.794 -11.005  1.00  0.00    -0.200 F 
ENDBRANCH  47  71
BRANCH  59  82
ATOM     82  C   UNL     1       7.985  16.075 -10.334  1.00  0.00     0.064 A 
ATOM     83  C   UNL     1       7.588  17.081  -9.440  1.00  0.00     0.173 A 
ATOM     84  C   UNL     1       8.634  16.465 -11.515  1.00  0.00     0.173 A 
ATOM     85  F   UNL     1       6.950  16.760  -8.304  1.00  0.00    -0.203 F 
ATOM     86  C   UNL     1       7.816  18.424  -9.727  1.00  0.00     0.198 A 
ATOM     87  C   UNL     1       8.884  17.808 -11.787  1.00  0.00     0.198 A 
ATOM     88  F   UNL     1       9.039  15.542 -12.400  1.00  0.00    -0.203 F 
ATOM     89  F   UNL     1       7.394  19.370  -8.877  1.00  0.00    -0.200 F 
ATOM     90  C   UNL     1       8.470  18.786 -10.896  1.00  0.00     0.200 A 
ATOM     91  F   UNL     1       9.526  18.155 -12.911  1.00  0.00    -0.200 F 
ATOM     92  F   UNL     1       8.697  20.079 -11.165  1.00  0.00    -0.200 F 
ENDBRANCH  59  82
ENDBRANCH  33  34
ENDBRANCH  25  28
ENDBRANCH  23  24
ENDBRANCH   1  23
TORSDOF 13
