REMARK SMILES C[NH2+][C@@]1(C(=O)NCCCNC(=O)c2ccc(-c3c4nc(c(-c5c(F)c(F)c(F)c(F)c5F)c5ccc([nH]5)c(-c5c(F)c(F)c(F)c(F)c5F)c5nc(c(-c6c(F)c(F)c(F)c(F)c6F)c6ccc3[nH]6)C=C5)C=C4)cc2)CCC[C@@H]([N@@H+](C)C2CC[NH+](C)CC2)C1
REMARK SMILES IDX 8 1 7 2 6 3 4 4 5 5 3 7 76 8 89 9 77 10 79 11 78 12 2 13
REMARK SMILES IDX 1 14 80 17 81 18 82 20 83 21 88 22 84 23 87 24 85 25 86 26
REMARK SMILES IDX 9 28 10 29 11 30 12 32 13 33 14 34 75 35 15 36 74 37 16 38
REMARK SMILES IDX 17 39 18 40 68 41 19 42 73 43 67 44 69 45 20 46 72 47 66 48
REMARK SMILES IDX 65 49 21 51 53 52 33 53 52 54 34 55 37 56 51 57 70 58 35 59
REMARK SMILES IDX 36 60 50 62 71 63 38 64 22 65 23 66 31 67 24 68 25 69 29 70
REMARK SMILES IDX 32 71 26 72 27 73 30 74 28 75 54 76 55 77 63 78 56 79 57 80
REMARK SMILES IDX 61 81 64 82 58 83 59 84 62 85 60 86 39 87 40 88 48 89 41 90
REMARK SMILES IDX 42 91 46 92 49 93 43 94 44 95 47 96 45 97
REMARK H PARENT 6 6 2 15 2 16 80 19 85 27 10 31 69 50 37 61
REMARK Flexibility Score: inf
ROOT
ATOM      1  C   UNL     1      -4.818  -0.086  -0.973  1.00  0.00     0.042 C 
ENDROOT
BRANCH   1   2
ATOM      2  C   UNL     1      -3.967  -1.322  -1.133  1.00  0.00     0.118 C 
BRANCH   2   3
ATOM      3  N   UNL     1      -2.688  -1.057  -1.717  1.00  0.00    -0.351 N 
ATOM      4  C   UNL     1      -1.458  -1.174  -1.160  1.00  0.00     0.281 C 
ATOM      5  O   UNL     1      -0.555  -1.394  -1.980  1.00  0.00    -0.268 OA
ATOM      6  H   UNL     1      -2.704  -0.747  -2.651  1.00  0.00     0.163 HD
BRANCH   4   7
ATOM      7  C   UNL     1      -1.159  -1.089   0.404  1.00  0.00     0.181 C 
ATOM      8  C   UNL     1      -1.515  -2.415   1.111  1.00  0.00     0.079 C 
ATOM      9  C   UNL     1      -1.713   0.161   1.123  1.00  0.00     0.144 C 
ATOM     10  C   UNL     1      -2.860  -2.572   1.812  1.00  0.00     0.013 C 
ATOM     11  C   UNL     1      -3.005   0.052   1.963  1.00  0.00     0.190 C 
ATOM     12  C   UNL     1      -3.610  -1.323   2.256  1.00  0.00     0.065 C 
BRANCH   7  13
ATOM     13  N   UNL     1       0.360  -1.064   0.504  1.00  0.00    -0.336 N 
ATOM     14  C   UNL     1       1.026   0.135  -0.006  1.00  0.00     0.331 C 
ATOM     15  H   UNL     1       0.607  -1.161   1.489  1.00  0.00     0.346 HD
ATOM     16  H   UNL     1       0.684  -1.828  -0.089  1.00  0.00     0.346 HD
ENDBRANCH   7  13
BRANCH  11  17
ATOM     17  N   UNL     1      -3.137   1.057   3.051  1.00  0.00    -0.332 N 
ATOM     18  C   UNL     1      -4.535   1.482   3.228  1.00  0.00     0.333 C 
ATOM     19  H   UNL     1      -2.534   1.770   2.640  1.00  0.00     0.348 HD
BRANCH  17  20
ATOM     20  C   UNL     1      -2.445   0.934   4.365  1.00  0.00     0.195 C 
ATOM     21  C   UNL     1      -0.913   0.962   4.345  1.00  0.00     0.126 C 
ATOM     22  C   UNL     1      -2.908  -0.122   5.391  1.00  0.00     0.126 C 
ATOM     23  C   UNL     1      -0.285  -0.416   4.197  1.00  0.00     0.268 C 
ATOM     24  C   UNL     1      -2.160  -1.458   5.350  1.00  0.00     0.268 C 
ATOM     25  N   UNL     1      -0.701  -1.348   5.250  1.00  0.00    -0.337 N 
ATOM     26  C   UNL     1      -0.134  -2.675   4.964  1.00  0.00     0.332 C 
ATOM     27  H   UNL     1      -0.358  -0.988   6.140  1.00  0.00     0.347 HD
ENDBRANCH  17  20
ENDBRANCH  11  17
ENDBRANCH   4   7
ENDBRANCH   2   3
ENDBRANCH   1   2
BRANCH   1  28
ATOM     28  C   UNL     1      -5.847   0.018  -2.070  1.00  0.00     0.118 C 
BRANCH  28  29
ATOM     29  N   UNL     1      -6.851  -1.040  -1.969  1.00  0.00    -0.352 N 
ATOM     30  C   UNL     1      -8.202  -0.973  -1.722  1.00  0.00     0.251 C 
ATOM     31  H   UNL     1      -6.502  -1.952  -2.099  1.00  0.00     0.163 HD
ATOM     32  O   UNL     1      -8.825  -1.991  -1.458  1.00  0.00    -0.269 OA
BRANCH  30  33
ATOM     33  C   UNL     1      -8.885   0.337  -1.751  1.00  0.00     0.039 A 
ATOM     34  C   UNL     1      -9.947   0.581  -0.879  1.00  0.00     0.014 A 
ATOM     35  C   UNL     1      -8.457   1.333  -2.624  1.00  0.00     0.014 A 
ATOM     36  C   UNL     1     -10.523   1.851  -0.844  1.00  0.00     0.010 A 
ATOM     37  C   UNL     1      -8.896   2.631  -2.454  1.00  0.00     0.010 A 
ATOM     38  C   UNL     1      -9.970   2.898  -1.599  1.00  0.00    -0.014 A 
BRANCH  38  39
ATOM     39  C   UNL     1     -10.530   4.270  -1.581  1.00  0.00     0.031 A 
ATOM     40  C   UNL     1     -10.977   4.900  -2.876  1.00  0.00     0.074 A 
ATOM     41  C   UNL     1     -10.560   4.967  -0.430  1.00  0.00     0.049 A 
ATOM     42  N   UNL     1     -11.390   6.120  -3.105  1.00  0.00    -0.248 NA
ATOM     43  C   UNL     1     -10.900   4.064  -4.088  1.00  0.00     0.031 C 
ATOM     44  C   UNL     1     -10.088   4.484   0.869  1.00  0.00     0.029 A 
ATOM     45  N   UNL     1     -11.003   6.238  -0.169  1.00  0.00    -0.354 N 
ATOM     46  C   UNL     1     -11.586   6.197  -4.479  1.00  0.00     0.074 A 
ATOM     47  C   UNL     1     -11.164   4.938  -5.044  1.00  0.00     0.031 C 
ATOM     48  C   UNL     1     -10.308   5.428   1.797  1.00  0.00     0.029 A 
ATOM     49  C   UNL     1     -10.889   6.600   1.151  1.00  0.00     0.049 A 
ATOM     50  H   UNL     1     -11.368   6.834  -0.862  1.00  0.00     0.167 HD
ATOM     51  C   UNL     1     -12.113   7.212  -5.201  1.00  0.00     0.037 A 
ATOM     52  C   UNL     1     -11.217   7.753   1.764  1.00  0.00     0.037 A 
ATOM     53  C   UNL     1     -12.581   8.439  -4.619  1.00  0.00     0.049 A 
ATOM     54  C   UNL     1     -11.817   8.861   0.941  1.00  0.00     0.074 A 
ATOM     55  C   UNL     1     -13.201   9.507  -5.239  1.00  0.00     0.029 A 
ATOM     56  N   UNL     1     -12.483   8.756  -3.271  1.00  0.00    -0.354 N 
ATOM     57  N   UNL     1     -12.071   8.895  -0.345  1.00  0.00    -0.248 NA
ATOM     58  C   UNL     1     -12.185  10.089   1.657  1.00  0.00     0.031 C 
ATOM     59  C   UNL     1     -13.429  10.494  -4.276  1.00  0.00     0.029 A 
ATOM     60  C   UNL     1     -13.011  10.014  -3.045  1.00  0.00     0.049 A 
ATOM     61  H   UNL     1     -12.095   8.172  -2.580  1.00  0.00     0.167 HD
ATOM     62  C   UNL     1     -12.657  10.130  -0.587  1.00  0.00     0.074 A 
ATOM     63  C   UNL     1     -12.736  10.809   0.690  1.00  0.00     0.031 C 
ATOM     64  C   UNL     1     -13.090  10.659  -1.758  1.00  0.00     0.037 A 
BRANCH  51  65
ATOM     65  C   UNL     1     -12.227   7.027  -6.688  1.00  0.00     0.064 A 
ATOM     66  C   UNL     1     -13.100   6.083  -7.252  1.00  0.00     0.173 A 
ATOM     67  C   UNL     1     -11.472   7.823  -7.562  1.00  0.00     0.173 A 
ATOM     68  F   UNL     1     -13.834   5.284  -6.463  1.00  0.00    -0.203 F 
ATOM     69  C   UNL     1     -13.186   5.919  -8.632  1.00  0.00     0.198 A 
ATOM     70  C   UNL     1     -11.589   7.682  -8.943  1.00  0.00     0.198 A 
ATOM     71  F   UNL     1     -10.622   8.741  -7.079  1.00  0.00    -0.203 F 
ATOM     72  F   UNL     1     -13.981   4.968  -9.143  1.00  0.00    -0.200 F 
ATOM     73  C   UNL     1     -12.438   6.725  -9.476  1.00  0.00     0.200 A 
ATOM     74  F   UNL     1     -10.875   8.471  -9.758  1.00  0.00    -0.200 F 
ATOM     75  F   UNL     1     -12.530   6.573 -10.805  1.00  0.00    -0.200 F 
ENDBRANCH  51  65
BRANCH  52  76
ATOM     76  C   UNL     1     -11.017   7.903   3.229  1.00  0.00     0.064 A 
ATOM     77  C   UNL     1     -12.112   8.009   4.099  1.00  0.00     0.173 A 
ATOM     78  C   UNL     1      -9.733   7.951   3.793  1.00  0.00     0.173 A 
ATOM     79  F   UNL     1     -13.360   7.982   3.608  1.00  0.00    -0.203 F 
ATOM     80  C   UNL     1     -11.931   8.187   5.469  1.00  0.00     0.198 A 
ATOM     81  C   UNL     1      -9.554   8.096   5.167  1.00  0.00     0.198 A 
ATOM     82  F   UNL     1      -8.650   7.843   3.009  1.00  0.00    -0.203 F 
ATOM     83  F   UNL     1     -12.996   8.339   6.268  1.00  0.00    -0.200 F 
ATOM     84  C   UNL     1     -10.652   8.225   6.003  1.00  0.00     0.200 A 
ATOM     85  F   UNL     1      -8.316   8.112   5.681  1.00  0.00    -0.200 F 
ATOM     86  F   UNL     1     -10.479   8.394   7.321  1.00  0.00    -0.200 F 
ENDBRANCH  52  76
BRANCH  64  87
ATOM     87  C   UNL     1     -13.732  12.014  -1.706  1.00  0.00     0.064 A 
ATOM     88  C   UNL     1     -12.987  13.174  -1.451  1.00  0.00     0.173 A 
ATOM     89  C   UNL     1     -15.104  12.155  -1.965  1.00  0.00     0.173 A 
ATOM     90  F   UNL     1     -11.675  13.090  -1.186  1.00  0.00    -0.203 F 
ATOM     91  C   UNL     1     -13.599  14.424  -1.429  1.00  0.00     0.198 A 
ATOM     92  C   UNL     1     -15.704  13.410  -1.978  1.00  0.00     0.198 A 
ATOM     93  F   UNL     1     -15.858  11.077  -2.225  1.00  0.00    -0.203 F 
ATOM     94  F   UNL     1     -12.879  15.514  -1.131  1.00  0.00    -0.200 F 
ATOM     95  C   UNL     1     -14.954  14.542  -1.701  1.00  0.00     0.200 A 
ATOM     96  F   UNL     1     -17.009  13.523  -2.261  1.00  0.00    -0.200 F 
ATOM     97  F   UNL     1     -15.538  15.748  -1.691  1.00  0.00    -0.200 F 
ENDBRANCH  64  87
ENDBRANCH  38  39
ENDBRANCH  30  33
ENDBRANCH  28  29
ENDBRANCH   1  28
TORSDOF 13
