REMARK SMILES CC[C@@H](NC(=O)N[C@@](C)(CC)C(=O)NCCCNC(=O)c1ccc(-c2c3nc(c(-c4c(F)c(F)c(F)c(F)c4F)c4ccc([nH]4)c(-c4c(F)c(F)c(F)c(F)c4F)c4nc(c(-c5c(F)c(F)c(F)c(F)c5F)c5ccc2[nH]5)C=C4)C=C3)cc1)c1cccs1
REMARK SMILES IDX 15 1 14 2 12 3 13 4 8 6 9 7 7 8 4 9 5 10 6 12 3 14 2 15 1 16
REMARK SMILES IDX 84 17 85 18 88 19 86 20 87 21 10 22 11 23 16 24 17 25 18 26
REMARK SMILES IDX 19 27 20 29 21 30 22 31 83 32 23 33 82 34 24 35 25 36 26 37
REMARK SMILES IDX 76 38 27 39 81 40 75 41 77 42 28 43 80 44 74 45 73 46 29 48
REMARK SMILES IDX 61 49 41 50 60 51 42 52 45 53 59 54 78 55 43 56 44 57 58 59
REMARK SMILES IDX 79 60 46 61 30 62 31 63 39 64 32 65 33 66 37 67 40 68 34 69
REMARK SMILES IDX 35 70 38 71 36 72 62 73 63 74 71 75 64 76 65 77 69 78 72 79
REMARK SMILES IDX 66 80 67 81 70 82 68 83 47 84 48 85 56 86 49 87 50 88 54 89
REMARK SMILES IDX 57 90 51 91 52 92 55 93 53 94
REMARK H PARENT 14 5 4 11 7 13 18 28 77 47 45 58
REMARK Flexibility Score: inf
ROOT
ATOM      1  C   UNL     1       0.020   3.514   3.590  1.00  0.00     0.117 C 
ENDROOT
BRANCH   1   2
ATOM      2  N   UNL     1      -1.178   3.358   2.769  1.00  0.00    -0.354 N 
ATOM      3  C   UNL     1      -1.126   3.139   1.416  1.00  0.00     0.245 C 
ATOM      4  O   UNL     1      -1.157   1.944   1.086  1.00  0.00    -0.272 OA
ATOM      5  H   UNL     1      -2.059   3.413   3.205  1.00  0.00     0.163 HD
BRANCH   3   6
ATOM      6  C   UNL     1      -1.473   4.274   0.393  1.00  0.00     0.117 C 
ATOM      7  C   UNL     1      -0.876   5.688   0.388  1.00  0.00     0.045 C 
BRANCH   6   8
ATOM      8  N   UNL     1      -1.198   3.692  -0.933  1.00  0.00    -0.324 N 
ATOM      9  N   UNL     1       1.170   3.558  -1.371  1.00  0.00    -0.331 N 
ATOM     10  C   UNL     1      -0.120   3.493  -1.687  1.00  0.00     0.316 C 
ATOM     11  H   UNL     1       1.654   3.894  -2.161  1.00  0.00     0.166 HD
ATOM     12  O   UNL     1      -0.350   3.257  -2.882  1.00  0.00    -0.249 OA
ATOM     13  H   UNL     1      -2.018   3.370  -1.371  1.00  0.00     0.166 HD
BRANCH   9  14
ATOM     14  C   UNL     1       2.166   3.325  -0.303  1.00  0.00     0.124 C 
BRANCH  14  15
ATOM     15  C   UNL     1       2.018   2.038   0.519  1.00  0.00     0.027 C 
ATOM     16  C   UNL     1       2.034   0.775  -0.334  1.00  0.00     0.006 C 
ENDBRANCH  14  15
BRANCH  14  17
ATOM     17  C   UNL     1       2.537   4.551   0.509  1.00  0.00     0.027 A 
ATOM     18  C   UNL     1       1.857   5.177   1.526  1.00  0.00     0.017 A 
ATOM     19  S   UNL     1       4.059   5.335   0.300  1.00  0.00    -0.147 S 
ATOM     20  C   UNL     1       2.483   6.323   2.068  1.00  0.00     0.012 A 
ATOM     21  C   UNL     1       3.716   6.513   1.499  1.00  0.00     0.065 A 
ENDBRANCH  14  17
ENDBRANCH   9  14
ENDBRANCH   6   8
BRANCH   6  22
ATOM     22  C   UNL     1      -3.000   4.578   0.616  1.00  0.00     0.035 C 
ATOM     23  C   UNL     1      -3.957   3.410   0.788  1.00  0.00     0.007 C 
ENDBRANCH   6  22
ENDBRANCH   3   6
ENDBRANCH   1   2
BRANCH   1  24
ATOM     24  C   UNL     1      -0.157   2.997   5.008  1.00  0.00     0.042 C 
BRANCH  24  25
ATOM     25  C   UNL     1       0.891   1.964   5.394  1.00  0.00     0.118 C 
BRANCH  25  26
ATOM     26  N   UNL     1       2.210   2.511   5.701  1.00  0.00    -0.352 N 
ATOM     27  C   UNL     1       2.983   2.295   6.826  1.00  0.00     0.251 C 
ATOM     28  H   UNL     1       2.598   3.108   5.020  1.00  0.00     0.163 HD
ATOM     29  O   UNL     1       4.054   2.874   6.982  1.00  0.00    -0.269 OA
BRANCH  27  30
ATOM     30  C   UNL     1       2.470   1.387   7.874  1.00  0.00     0.039 A 
ATOM     31  C   UNL     1       2.390   1.832   9.195  1.00  0.00     0.014 A 
ATOM     32  C   UNL     1       1.946   0.146   7.514  1.00  0.00     0.014 A 
ATOM     33  C   UNL     1       1.689   1.070  10.134  1.00  0.00     0.010 A 
ATOM     34  C   UNL     1       1.133  -0.534   8.409  1.00  0.00     0.010 A 
ATOM     35  C   UNL     1       1.009  -0.093   9.737  1.00  0.00    -0.014 A 
BRANCH  35  36
ATOM     36  C   UNL     1       0.214  -0.909  10.692  1.00  0.00     0.031 A 
ATOM     37  C   UNL     1       0.574  -2.359  10.893  1.00  0.00     0.074 A 
ATOM     38  C   UNL     1      -0.864  -0.388  11.311  1.00  0.00     0.049 A 
ATOM     39  N   UNL     1      -0.047  -3.285  11.580  1.00  0.00    -0.248 NA
ATOM     40  C   UNL     1       1.763  -2.849  10.175  1.00  0.00     0.031 C 
ATOM     41  C   UNL     1      -1.367   0.977  11.146  1.00  0.00     0.029 A 
ATOM     42  N   UNL     1      -1.738  -0.953  12.208  1.00  0.00    -0.354 N 
ATOM     43  C   UNL     1       0.652  -4.461  11.338  1.00  0.00     0.074 A 
ATOM     44  C   UNL     1       1.684  -4.154  10.375  1.00  0.00     0.031 C 
ATOM     45  C   UNL     1      -2.431   1.157  11.948  1.00  0.00     0.029 A 
ATOM     46  C   UNL     1      -2.704  -0.087  12.661  1.00  0.00     0.049 A 
ATOM     47  H   UNL     1      -1.678  -1.892  12.498  1.00  0.00     0.167 HD
ATOM     48  C   UNL     1       0.487  -5.680  11.903  1.00  0.00     0.037 A 
ATOM     49  C   UNL     1      -3.687  -0.278  13.563  1.00  0.00     0.037 A 
ATOM     50  C   UNL     1      -0.492  -5.963  12.916  1.00  0.00     0.049 A 
ATOM     51  C   UNL     1      -3.809  -1.623  14.232  1.00  0.00     0.074 A 
ATOM     52  C   UNL     1      -0.715  -7.143  13.601  1.00  0.00     0.029 A 
ATOM     53  N   UNL     1      -1.401  -5.036  13.404  1.00  0.00    -0.354 N 
ATOM     54  N   UNL     1      -3.104  -2.712  14.040  1.00  0.00    -0.248 NA
ATOM     55  C   UNL     1      -4.853  -1.758  15.258  1.00  0.00     0.031 C 
ATOM     56  C   UNL     1      -1.773  -6.935  14.492  1.00  0.00     0.029 A 
ATOM     57  C   UNL     1      -2.181  -5.614  14.390  1.00  0.00     0.049 A 
ATOM     58  H   UNL     1      -1.480  -4.104  13.096  1.00  0.00     0.167 HD
ATOM     59  C   UNL     1      -3.588  -3.645  14.947  1.00  0.00     0.074 A 
ATOM     60  C   UNL     1      -4.640  -2.990  15.696  1.00  0.00     0.031 C 
ATOM     61  C   UNL     1      -3.199  -4.929  15.143  1.00  0.00     0.037 A 
BRANCH  48  62
ATOM     62  C   UNL     1       1.410  -6.777  11.457  1.00  0.00     0.064 A 
ATOM     63  C   UNL     1       2.784  -6.745  11.748  1.00  0.00     0.173 A 
ATOM     64  C   UNL     1       0.924  -7.868  10.721  1.00  0.00     0.173 A 
ATOM     65  F   UNL     1       3.305  -5.715  12.433  1.00  0.00    -0.203 F 
ATOM     66  C   UNL     1       3.641  -7.737  11.282  1.00  0.00     0.198 A 
ATOM     67  C   UNL     1       1.779  -8.878  10.288  1.00  0.00     0.198 A 
ATOM     68  F   UNL     1      -0.380  -7.952  10.417  1.00  0.00    -0.203 F 
ATOM     69  F   UNL     1       4.958  -7.644  11.511  1.00  0.00    -0.200 F 
ATOM     70  C   UNL     1       3.138  -8.806  10.557  1.00  0.00     0.200 A 
ATOM     71  F   UNL     1       1.290  -9.918   9.597  1.00  0.00    -0.200 F 
ATOM     72  F   UNL     1       3.964  -9.761  10.107  1.00  0.00    -0.200 F 
ENDBRANCH  48  62
BRANCH  49  73
ATOM     73  C   UNL     1      -4.586   0.844  13.946  1.00  0.00     0.064 A 
ATOM     74  C   UNL     1      -4.498   1.428  15.219  1.00  0.00     0.173 A 
ATOM     75  C   UNL     1      -5.558   1.343  13.068  1.00  0.00     0.173 A 
ATOM     76  F   UNL     1      -3.597   0.974  16.102  1.00  0.00    -0.203 F 
ATOM     77  C   UNL     1      -5.366   2.446  15.608  1.00  0.00     0.198 A 
ATOM     78  C   UNL     1      -6.407   2.381  13.449  1.00  0.00     0.198 A 
ATOM     79  F   UNL     1      -5.679   0.827  11.836  1.00  0.00    -0.203 F 
ATOM     80  F   UNL     1      -5.293   2.948  16.849  1.00  0.00    -0.200 F 
ATOM     81  C   UNL     1      -6.318   2.925  14.722  1.00  0.00     0.200 A 
ATOM     82  F   UNL     1      -7.318   2.851  12.585  1.00  0.00    -0.200 F 
ATOM     83  F   UNL     1      -7.154   3.903  15.097  1.00  0.00    -0.200 F 
ENDBRANCH  49  73
BRANCH  61  84
ATOM     84  C   UNL     1      -3.865  -5.685  16.254  1.00  0.00     0.064 A 
ATOM     85  C   UNL     1      -5.194  -6.120  16.160  1.00  0.00     0.173 A 
ATOM     86  C   UNL     1      -3.146  -6.006  17.416  1.00  0.00     0.173 A 
ATOM     87  F   UNL     1      -5.925  -5.826  15.074  1.00  0.00    -0.203 F 
ATOM     88  C   UNL     1      -5.791  -6.821  17.204  1.00  0.00     0.198 A 
ATOM     89  C   UNL     1      -3.737  -6.734  18.444  1.00  0.00     0.198 A 
ATOM     90  F   UNL     1      -1.868  -5.621  17.549  1.00  0.00    -0.203 F 
ATOM     91  F   UNL     1      -7.079  -7.181  17.116  1.00  0.00    -0.200 F 
ATOM     92  C   UNL     1      -5.061  -7.132  18.341  1.00  0.00     0.200 A 
ATOM     93  F   UNL     1      -3.026  -7.046  19.536  1.00  0.00    -0.200 F 
ATOM     94  F   UNL     1      -5.637  -7.810  19.343  1.00  0.00    -0.200 F 
ENDBRANCH  61  84
ENDBRANCH  35  36
ENDBRANCH  27  30
ENDBRANCH  25  26
ENDBRANCH  24  25
ENDBRANCH   1  24
TORSDOF 15
