REMARK SMILES CC1(C)C[C@@H]([C@H](CCNC(=O)c2ccccc2C(=O)NCCCNC(=O)c2ccc(-c3c4nc(c(-c5c(F)c(F)c(F)c(F)c5F)c5ccc([nH]5)c(-c5c(F)c(F)c(F)c(F)c5F)c5nc(c(-c6c(F)c(F)c(F)c(F)c6F)c6ccc3[nH]6)C=C5)C=C4)cc2)c2ccccc2)CCO1
REMARK SMILES IDX 18 1 19 2 20 3 17 5 12 6 13 7 14 8 16 9 15 10 10 11 9 12
REMARK SMILES IDX 11 14 8 15 7 16 6 17 5 18 1 19 2 20 3 21 4 22 98 23 97 24
REMARK SMILES IDX 96 25 90 26 91 27 95 28 92 29 94 30 93 31 21 32 22 33 23 34
REMARK SMILES IDX 24 35 25 36 26 38 27 39 28 40 89 41 29 42 88 43 30 44 31 45
REMARK SMILES IDX 32 46 82 47 33 48 87 49 81 50 83 51 34 52 86 53 80 54 79 55
REMARK SMILES IDX 35 57 67 58 47 59 66 60 48 61 51 62 65 63 84 64 49 65 50 66
REMARK SMILES IDX 64 68 85 69 52 70 36 71 37 72 45 73 38 74 39 75 43 76 46 77
REMARK SMILES IDX 40 78 41 79 44 80 42 81 68 82 69 83 77 84 70 85 71 86 75 87
REMARK SMILES IDX 78 88 72 89 73 90 76 91 74 92 53 93 54 94 62 95 55 96 56 97
REMARK SMILES IDX 60 98 63 99 57 100 58 101 61 102 59 103
REMARK H PARENT 20 4 9 13 24 37 83 56 51 67
REMARK Flexibility Score: inf
ROOT
ATOM      1  C   UNL     1      -0.045   6.812  -0.462  1.00  0.00     0.252 C 
ATOM      2  O   UNL     1       0.966   7.249   0.087  1.00  0.00    -0.269 OA
ATOM      3  N   UNL     1       0.012   6.543  -1.804  1.00  0.00    -0.352 N 
ATOM      4  H   UNL     1       0.872   6.752  -2.235  1.00  0.00     0.163 HD
ENDROOT
BRANCH   1   5
ATOM      5  C   UNL     1      -1.277   6.649   0.344  1.00  0.00     0.052 A 
ATOM      6  C   UNL     1      -2.124   5.535   0.350  1.00  0.00     0.052 A 
ATOM      7  C   UNL     1      -3.313   5.571   1.104  1.00  0.00     0.014 A 
ATOM      8  C   UNL     1      -3.610   6.661   1.920  1.00  0.00     0.001 A 
ATOM      9  C   UNL     1      -1.568   7.724   1.206  1.00  0.00     0.014 A 
ATOM     10  C   UNL     1      -2.721   7.726   1.994  1.00  0.00     0.001 A 
BRANCH   6  11
ATOM     11  C   UNL     1      -1.904   4.269  -0.374  1.00  0.00     0.252 C 
ATOM     12  N   UNL     1      -0.766   3.526  -0.200  1.00  0.00    -0.352 N 
ATOM     13  H   UNL     1      -0.765   2.647  -0.644  1.00  0.00     0.163 HD
ATOM     14  O   UNL     1      -2.794   3.849  -1.111  1.00  0.00    -0.269 OA
BRANCH  12  15
ATOM     15  C   UNL     1       0.436   3.849   0.544  1.00  0.00     0.117 C 
BRANCH  15  16
ATOM     16  C   UNL     1       1.284   2.641   0.918  1.00  0.00     0.030 C 
BRANCH  16  17
ATOM     17  C   UNL     1       2.072   1.864  -0.185  1.00  0.00     0.024 C 
BRANCH  17  18
ATOM     18  C   UNL     1       1.971   2.369  -1.670  1.00  0.00     0.002 C 
ATOM     19  C   UNL     1       4.201  -0.231  -2.573  1.00  0.00     0.042 C 
ATOM     20  C   UNL     1       3.605   1.025  -3.224  1.00  0.00     0.063 C 
ATOM     21  C   UNL     1       3.643   0.779  -4.744  1.00  0.00     0.042 C 
ATOM     22  C   UNL     1       2.168   1.250  -2.719  1.00  0.00     0.039 C 
ATOM     23  O   UNL     1       4.453   2.140  -2.920  1.00  0.00    -0.376 OA
ATOM     24  C   UNL     1       3.830   3.409  -3.091  1.00  0.00     0.161 C 
ATOM     25  C   UNL     1       2.734   3.643  -2.053  1.00  0.00     0.033 C 
ENDBRANCH  17  18
BRANCH  17  26
ATOM     26  C   UNL     1       3.439   1.474   0.387  1.00  0.00    -0.045 A 
ATOM     27  C   UNL     1       4.639   2.141   0.108  1.00  0.00     0.004 A 
ATOM     28  C   UNL     1       3.505   0.383   1.274  1.00  0.00     0.004 A 
ATOM     29  C   UNL     1       5.864   1.680   0.597  1.00  0.00     0.000 A 
ATOM     30  C   UNL     1       4.726  -0.065   1.788  1.00  0.00     0.000 A 
ATOM     31  C   UNL     1       5.910   0.571   1.430  1.00  0.00     0.000 A 
ENDBRANCH  17  26
ENDBRANCH  16  17
ENDBRANCH  15  16
ENDBRANCH  12  15
ENDBRANCH   6  11
ENDBRANCH   1   5
BRANCH   3  32
ATOM     32  C   UNL     1      -0.999   5.997  -2.686  1.00  0.00     0.118 C 
BRANCH  32  33
ATOM     33  C   UNL     1      -0.822   6.393  -4.140  1.00  0.00     0.042 C 
BRANCH  33  34
ATOM     34  C   UNL     1       0.451   5.878  -4.801  1.00  0.00     0.118 C 
BRANCH  34  35
ATOM     35  N   UNL     1       0.585   4.426  -4.816  1.00  0.00    -0.352 N 
ATOM     36  C   UNL     1       0.916   3.550  -5.822  1.00  0.00     0.251 C 
ATOM     37  H   UNL     1       0.407   3.995  -3.949  1.00  0.00     0.163 HD
ATOM     38  O   UNL     1       0.883   2.342  -5.604  1.00  0.00    -0.269 OA
BRANCH  36  39
ATOM     39  C   UNL     1       1.201   4.012  -7.192  1.00  0.00     0.039 A 
ATOM     40  C   UNL     1       0.749   3.204  -8.242  1.00  0.00     0.014 A 
ATOM     41  C   UNL     1       1.781   5.248  -7.461  1.00  0.00     0.014 A 
ATOM     42  C   UNL     1       0.697   3.718  -9.530  1.00  0.00     0.010 A 
ATOM     43  C   UNL     1       1.605   5.812  -8.714  1.00  0.00     0.010 A 
ATOM     44  C   UNL     1       1.021   5.063  -9.745  1.00  0.00    -0.014 A 
BRANCH  44  45
ATOM     45  C   UNL     1       0.687   5.717 -11.026  1.00  0.00     0.031 A 
ATOM     46  C   UNL     1       1.777   6.293 -11.871  1.00  0.00     0.074 A 
ATOM     47  C   UNL     1      -0.611   5.848 -11.365  1.00  0.00     0.049 A 
ATOM     48  N   UNL     1       1.688   6.966 -12.987  1.00  0.00    -0.248 NA
ATOM     49  C   UNL     1       3.152   6.128 -11.373  1.00  0.00     0.031 C 
ATOM     50  C   UNL     1      -1.748   5.384 -10.562  1.00  0.00     0.029 A 
ATOM     51  N   UNL     1      -1.198   6.402 -12.471  1.00  0.00    -0.354 N 
ATOM     52  C   UNL     1       2.988   7.327 -13.307  1.00  0.00     0.074 A 
ATOM     53  C   UNL     1       3.840   6.855 -12.238  1.00  0.00     0.031 C 
ATOM     54  C   UNL     1      -2.888   5.620 -11.229  1.00  0.00     0.029 A 
ATOM     55  C   UNL     1      -2.567   6.288 -12.483  1.00  0.00     0.049 A 
ATOM     56  H   UNL     1      -0.687   6.841 -13.190  1.00  0.00     0.167 HD
ATOM     57  C   UNL     1       3.430   7.971 -14.412  1.00  0.00     0.037 A 
ATOM     58  C   UNL     1      -3.457   6.673 -13.416  1.00  0.00     0.037 A 
ATOM     59  C   UNL     1       2.564   8.398 -15.477  1.00  0.00     0.049 A 
ATOM     60  C   UNL     1      -2.936   7.335 -14.660  1.00  0.00     0.074 A 
ATOM     61  C   UNL     1       2.892   9.026 -16.663  1.00  0.00     0.029 A 
ATOM     62  N   UNL     1       1.185   8.224 -15.480  1.00  0.00    -0.354 N 
ATOM     63  N   UNL     1      -1.699   7.631 -14.980  1.00  0.00    -0.248 NA
ATOM     64  C   UNL     1      -3.928   7.711 -15.674  1.00  0.00     0.031 C 
ATOM     65  C   UNL     1       1.707   9.252 -17.375  1.00  0.00     0.029 A 
ATOM     66  C   UNL     1       0.646   8.733 -16.648  1.00  0.00     0.049 A 
ATOM     67  H   UNL     1       0.668   7.801 -14.757  1.00  0.00     0.167 HD
ATOM     68  C   UNL     1      -1.757   8.207 -16.239  1.00  0.00     0.074 A 
ATOM     69  C   UNL     1      -3.154   8.204 -16.631  1.00  0.00     0.031 C 
ATOM     70  C   UNL     1      -0.751   8.699 -17.004  1.00  0.00     0.037 A 
BRANCH  57  71
ATOM     71  C   UNL     1       4.904   8.236 -14.500  1.00  0.00     0.064 A 
ATOM     72  C   UNL     1       5.830   7.192 -14.656  1.00  0.00     0.173 A 
ATOM     73  C   UNL     1       5.403   9.541 -14.381  1.00  0.00     0.173 A 
ATOM     74  F   UNL     1       5.406   5.922 -14.751  1.00  0.00    -0.203 F 
ATOM     75  C   UNL     1       7.200   7.439 -14.640  1.00  0.00     0.198 A 
ATOM     76  C   UNL     1       6.774   9.788 -14.398  1.00  0.00     0.198 A 
ATOM     77  F   UNL     1       4.563  10.576 -14.228  1.00  0.00    -0.203 F 
ATOM     78  F   UNL     1       8.064   6.417 -14.712  1.00  0.00    -0.200 F 
ATOM     79  C   UNL     1       7.671   8.737 -14.513  1.00  0.00     0.200 A 
ATOM     80  F   UNL     1       7.228  11.044 -14.281  1.00  0.00    -0.200 F 
ATOM     81  F   UNL     1       8.990   8.973 -14.484  1.00  0.00    -0.200 F 
ENDBRANCH  57  71
BRANCH  58  82
ATOM     82  C   UNL     1      -4.902   6.381 -13.233  1.00  0.00     0.064 A 
ATOM     83  C   UNL     1      -5.537   5.400 -14.009  1.00  0.00     0.173 A 
ATOM     84  C   UNL     1      -5.672   7.045 -12.267  1.00  0.00     0.173 A 
ATOM     85  F   UNL     1      -4.847   4.746 -14.955  1.00  0.00    -0.203 F 
ATOM     86  C   UNL     1      -6.888   5.105 -13.836  1.00  0.00     0.198 A 
ATOM     87  C   UNL     1      -7.018   6.733 -12.079  1.00  0.00     0.198 A 
ATOM     88  F   UNL     1      -5.112   7.983 -11.491  1.00  0.00    -0.203 F 
ATOM     89  F   UNL     1      -7.476   4.186 -14.615  1.00  0.00    -0.200 F 
ATOM     90  C   UNL     1      -7.626   5.767 -12.867  1.00  0.00     0.200 A 
ATOM     91  F   UNL     1      -7.725   7.364 -11.131  1.00  0.00    -0.200 F 
ATOM     92  F   UNL     1      -8.924   5.478 -12.696  1.00  0.00    -0.200 F 
ENDBRANCH  58  82
BRANCH  70  93
ATOM     93  C   UNL     1      -1.129   9.242 -18.347  1.00  0.00     0.064 A 
ATOM     94  C   UNL     1      -1.771  10.480 -18.480  1.00  0.00     0.173 A 
ATOM     95  C   UNL     1      -0.805   8.532 -19.512  1.00  0.00     0.173 A 
ATOM     96  F   UNL     1      -2.115  11.184 -17.391  1.00  0.00    -0.203 F 
ATOM     97  C   UNL     1      -2.094  10.982 -19.737  1.00  0.00     0.198 A 
ATOM     98  C   UNL     1      -1.106   9.049 -20.767  1.00  0.00     0.198 A 
ATOM     99  F   UNL     1      -0.187   7.345 -19.431  1.00  0.00    -0.203 F 
ATOM    100  F   UNL     1      -2.744  12.149 -19.843  1.00  0.00    -0.200 F 
ATOM    101  C   UNL     1      -1.755  10.270 -20.879  1.00  0.00     0.200 A 
ATOM    102  F   UNL     1      -0.770   8.366 -21.870  1.00  0.00    -0.200 F 
ATOM    103  F   UNL     1      -2.060  10.759 -22.088  1.00  0.00    -0.200 F 
ENDBRANCH  70  93
ENDBRANCH  44  45
ENDBRANCH  36  39
ENDBRANCH  34  35
ENDBRANCH  33  34
ENDBRANCH  32  33
ENDBRANCH   3  32
TORSDOF 16
