REMARK SMILES CO[C@@H]1C[C@@H](C(=O)NCCCNC(=O)c2ccc(-c3c4nc(c(-c5c(F)c(F)c(F)c(F)c5F)c5ccc([nH]5)c(-c5c(F)c(F)c(F)c(F)c5F)c5nc(c(-c6c(F)c(F)c(F)c(F)c6F)c6ccc3[nH]6)C=C5)C=C4)cc2)N(C(=O)c2nc(C(C)C)n[nH]2)C1
REMARK SMILES IDX 9 1 8 2 6 3 7 4 5 6 3 7 4 8 89 9 78 10 2 11 1 12 79 13 80 14
REMARK SMILES IDX 81 15 82 16 88 17 83 18 87 19 84 21 85 22 86 23 10 24 11 25
REMARK SMILES IDX 12 26 13 27 14 29 15 30 16 31 77 32 17 33 76 34 18 35 19 36
REMARK SMILES IDX 20 37 70 38 21 39 75 40 69 41 71 42 22 43 74 44 68 45 67 46
REMARK SMILES IDX 23 48 55 49 35 50 54 51 36 52 39 53 53 54 72 55 37 56 38 57
REMARK SMILES IDX 52 59 73 60 40 61 24 62 25 63 33 64 26 65 27 66 31 67 34 68
REMARK SMILES IDX 28 69 29 70 32 71 30 72 56 73 57 74 65 75 58 76 59 77 63 78
REMARK SMILES IDX 66 79 60 80 61 81 64 82 62 83 41 84 42 85 50 86 43 87 44 88
REMARK SMILES IDX 48 89 51 90 45 91 46 92 49 93 47 94
REMARK H PARENT 8 5 88 20 12 28 71 47 39 58
REMARK Flexibility Score: inf
ROOT
ATOM      1  C   UNL     1       4.301   0.854  -0.076  1.00  0.00     0.117 C 
ENDROOT
BRANCH   1   2
ATOM      2  N   UNL     1       4.194  -0.107  -1.151  1.00  0.00    -0.354 N 
ATOM      3  C   UNL     1       3.361  -1.126  -1.454  1.00  0.00     0.242 C 
ATOM      4  O   UNL     1       3.590  -1.598  -2.570  1.00  0.00    -0.273 OA
ATOM      5  H   UNL     1       4.900   0.009  -1.827  1.00  0.00     0.163 HD
BRANCH   3   6
ATOM      6  C   UNL     1       2.128  -1.591  -0.640  1.00  0.00     0.177 C 
ATOM      7  C   UNL     1       0.942  -1.913   1.461  1.00  0.00     0.139 C 
ATOM      8  C   UNL     1       2.130  -1.186   0.842  1.00  0.00     0.069 C 
ATOM      9  C   UNL     1       0.796  -3.166   0.607  1.00  0.00     0.153 C 
ATOM     10  N   UNL     1       1.738  -3.026  -0.509  1.00  0.00    -0.321 N 
BRANCH   7  11
ATOM     11  O   UNL     1      -0.239  -1.120   1.593  1.00  0.00    -0.380 OA
ATOM     12  C   UNL     1      -0.655  -0.332   0.489  1.00  0.00     0.195 C 
ENDBRANCH   7  11
BRANCH  10  13
ATOM     13  C   UNL     1       1.748  -4.104  -1.405  1.00  0.00     0.291 C 
ATOM     14  O   UNL     1       1.039  -5.085  -1.161  1.00  0.00    -0.265 OA
BRANCH  13  15
ATOM     15  C   UNL     1       2.658  -4.136  -2.517  1.00  0.00     0.214 A 
ATOM     16  N   UNL     1       2.306  -4.245  -3.784  1.00  0.00    -0.207 NA
ATOM     17  N   UNL     1       4.014  -4.274  -2.432  1.00  0.00    -0.255 N 
ATOM     18  C   UNL     1       3.506  -4.362  -4.440  1.00  0.00     0.153 A 
ATOM     19  N   UNL     1       4.581  -4.426  -3.642  1.00  0.00    -0.158 NA
ATOM     20  H   UNL     1       4.516  -4.263  -1.585  1.00  0.00     0.192 HD
BRANCH  18  21
ATOM     21  C   UNL     1       3.600  -4.458  -5.927  1.00  0.00     0.053 C 
ATOM     22  C   UNL     1       3.553  -5.916  -6.381  1.00  0.00     0.016 C 
ATOM     23  C   UNL     1       2.499  -3.648  -6.616  1.00  0.00     0.016 C 
ENDBRANCH  18  21
ENDBRANCH  13  15
ENDBRANCH  10  13
ENDBRANCH   3   6
ENDBRANCH   1   2
BRANCH   1  24
ATOM     24  C   UNL     1       5.259   0.385   1.013  1.00  0.00     0.042 C 
BRANCH  24  25
ATOM     25  C   UNL     1       6.710   0.288   0.543  1.00  0.00     0.118 C 
BRANCH  25  26
ATOM     26  N   UNL     1       7.241   1.580   0.142  1.00  0.00    -0.352 N 
ATOM     27  C   UNL     1       8.315   2.284   0.617  1.00  0.00     0.251 C 
ATOM     28  H   UNL     1       6.749   2.020  -0.589  1.00  0.00     0.163 HD
ATOM     29  O   UNL     1       8.443   3.464   0.305  1.00  0.00    -0.269 OA
BRANCH  27  30
ATOM     30  C   UNL     1       9.319   1.644   1.493  1.00  0.00     0.039 A 
ATOM     31  C   UNL     1       9.882   2.406   2.522  1.00  0.00     0.014 A 
ATOM     32  C   UNL     1       9.771   0.341   1.261  1.00  0.00     0.014 A 
ATOM     33  C   UNL     1      10.876   1.855   3.330  1.00  0.00     0.010 A 
ATOM     34  C   UNL     1      10.716  -0.232   2.109  1.00  0.00     0.010 A 
ATOM     35  C   UNL     1      11.291   0.527   3.138  1.00  0.00    -0.014 A 
BRANCH  35  36
ATOM     36  C   UNL     1      12.350  -0.058   3.995  1.00  0.00     0.031 A 
ATOM     37  C   UNL     1      13.697  -0.389   3.415  1.00  0.00     0.074 A 
ATOM     38  C   UNL     1      12.088  -0.301   5.293  1.00  0.00     0.049 A 
ATOM     39  N   UNL     1      14.751  -0.893   4.007  1.00  0.00    -0.248 NA
ATOM     40  C   UNL     1      13.878  -0.143   1.976  1.00  0.00     0.031 C 
ATOM     41  C   UNL     1      10.803  -0.069   5.953  1.00  0.00     0.029 A 
ATOM     42  N   UNL     1      12.891  -0.793   6.289  1.00  0.00    -0.354 N 
ATOM     43  C   UNL     1      15.712  -1.031   3.014  1.00  0.00     0.074 A 
ATOM     44  C   UNL     1      15.104  -0.605   1.773  1.00  0.00     0.031 C 
ATOM     45  C   UNL     1      10.913  -0.388   7.253  1.00  0.00     0.029 A 
ATOM     46  C   UNL     1      12.269  -0.862   7.511  1.00  0.00     0.049 A 
ATOM     47  H   UNL     1      13.824  -1.070   6.143  1.00  0.00     0.167 HD
ATOM     48  C   UNL     1      16.994  -1.451   3.133  1.00  0.00     0.037 A 
ATOM     49  C   UNL     1      12.747  -1.251   8.707  1.00  0.00     0.037 A 
ATOM     50  C   UNL     1      17.605  -1.848   4.374  1.00  0.00     0.049 A 
ATOM     51  C   UNL     1      14.188  -1.668   8.818  1.00  0.00     0.074 A 
ATOM     52  C   UNL     1      18.903  -2.265   4.607  1.00  0.00     0.029 A 
ATOM     53  N   UNL     1      16.953  -1.865   5.599  1.00  0.00    -0.354 N 
ATOM     54  N   UNL     1      15.101  -1.746   7.881  1.00  0.00    -0.248 NA
ATOM     55  C   UNL     1      14.667  -2.035  10.157  1.00  0.00     0.031 C 
ATOM     56  C   UNL     1      19.033  -2.553   5.971  1.00  0.00     0.029 A 
ATOM     57  C   UNL     1      17.824  -2.284   6.591  1.00  0.00     0.049 A 
ATOM     58  H   UNL     1      16.012  -1.616   5.742  1.00  0.00     0.167 HD
ATOM     59  C   UNL     1      16.266  -2.147   8.518  1.00  0.00     0.074 A 
ATOM     60  C   UNL     1      15.950  -2.275   9.925  1.00  0.00     0.031 C 
ATOM     61  C   UNL     1      17.488  -2.394   7.986  1.00  0.00     0.037 A 
BRANCH  48  62
ATOM     62  C   UNL     1      17.829  -1.486   1.887  1.00  0.00     0.064 A 
ATOM     63  C   UNL     1      18.288  -0.305   1.284  1.00  0.00     0.173 A 
ATOM     64  C   UNL     1      18.207  -2.708   1.312  1.00  0.00     0.173 A 
ATOM     65  F   UNL     1      17.941   0.889   1.788  1.00  0.00    -0.203 F 
ATOM     66  C   UNL     1      19.077  -0.346   0.138  1.00  0.00     0.198 A 
ATOM     67  C   UNL     1      19.017  -2.745   0.179  1.00  0.00     0.198 A 
ATOM     68  F   UNL     1      17.797  -3.865   1.851  1.00  0.00    -0.203 F 
ATOM     69  F   UNL     1      19.471   0.796  -0.444  1.00  0.00    -0.200 F 
ATOM     70  C   UNL     1      19.447  -1.565  -0.409  1.00  0.00     0.200 A 
ATOM     71  F   UNL     1      19.381  -3.924  -0.344  1.00  0.00    -0.200 F 
ATOM     72  F   UNL     1      20.212  -1.603  -1.509  1.00  0.00    -0.200 F 
ENDBRANCH  48  62
BRANCH  49  73
ATOM     73  C   UNL     1      11.873  -1.212   9.906  1.00  0.00     0.064 A 
ATOM     74  C   UNL     1      12.073  -0.252  10.908  1.00  0.00     0.173 A 
ATOM     75  C   UNL     1      10.831  -2.132  10.080  1.00  0.00     0.173 A 
ATOM     76  F   UNL     1      13.069   0.638  10.792  1.00  0.00    -0.203 F 
ATOM     77  C   UNL     1      11.278  -0.230  12.051  1.00  0.00     0.198 A 
ATOM     78  C   UNL     1      10.021  -2.094  11.213  1.00  0.00     0.198 A 
ATOM     79  F   UNL     1      10.594  -3.064   9.145  1.00  0.00    -0.203 F 
ATOM     80  F   UNL     1      11.520   0.670  13.014  1.00  0.00    -0.200 F 
ATOM     81  C   UNL     1      10.251  -1.148  12.201  1.00  0.00     0.200 A 
ATOM     82  F   UNL     1       9.020  -2.975  11.349  1.00  0.00    -0.200 F 
ATOM     83  F   UNL     1       9.486  -1.127  13.302  1.00  0.00    -0.200 F 
ENDBRANCH  49  73
BRANCH  61  84
ATOM     84  C   UNL     1      18.571  -2.798   8.940  1.00  0.00     0.064 A 
ATOM     85  C   UNL     1      18.596  -4.074   9.521  1.00  0.00     0.173 A 
ATOM     86  C   UNL     1      19.598  -1.901   9.269  1.00  0.00     0.173 A 
ATOM     87  F   UNL     1      17.625  -4.959   9.248  1.00  0.00    -0.203 F 
ATOM     88  C   UNL     1      19.595  -4.427  10.424  1.00  0.00     0.198 A 
ATOM     89  C   UNL     1      20.608  -2.267  10.153  1.00  0.00     0.198 A 
ATOM     90  F   UNL     1      19.619  -0.671   8.736  1.00  0.00    -0.203 F 
ATOM     91  F   UNL     1      19.571  -5.633  11.008  1.00  0.00    -0.200 F 
ATOM     92  C   UNL     1      20.601  -3.526  10.736  1.00  0.00     0.200 A 
ATOM     93  F   UNL     1      21.584  -1.397  10.450  1.00  0.00    -0.200 F 
ATOM     94  F   UNL     1      21.559  -3.866  11.610  1.00  0.00    -0.200 F 
ENDBRANCH  61  84
ENDBRANCH  35  36
ENDBRANCH  27  30
ENDBRANCH  25  26
ENDBRANCH  24  25
ENDBRANCH   1  24
TORSDOF 14
