REMARK SMILES N#CCC[NH+]1CCN(c2cc(C(=O)NCCCNC(=O)c3ccc(-c4c5nc(c(-c6c(F)c(F)c(F)c(F)c6F)c6ccc([nH]6)c(-c6c(F)c(F)c(F)c(F)c6F)c6nc(c(-c7c(F)c(F)c(F)c(F)c7F)c7ccc4[nH]7)C=C6)C=C5)cc3)c3cc(NS(=O)(=O)c4ccccc4Cl)ccc3n2)CC1
REMARK SMILES IDX 15 1 14 2 12 3 13 4 11 6 9 7 10 8 101 9 100 10 84 11 99 12
REMARK SMILES IDX 85 13 98 14 86 15 8 16 5 17 6 18 103 19 7 21 102 22 4 23
REMARK SMILES IDX 3 24 2 25 1 26 87 27 88 29 89 30 90 31 91 32 92 33 96 34
REMARK SMILES IDX 93 35 95 36 97 37 94 38 16 39 17 40 18 41 19 42 20 44 21 45
REMARK SMILES IDX 22 46 83 47 23 48 82 49 24 50 25 51 26 52 76 53 27 54 81 55
REMARK SMILES IDX 75 56 77 57 28 58 80 59 74 60 73 61 29 63 61 64 41 65 60 66
REMARK SMILES IDX 42 67 45 68 59 69 78 70 43 71 44 72 58 74 79 75 46 76 30 77
REMARK SMILES IDX 31 78 39 79 32 80 33 81 37 82 40 83 34 84 35 85 38 86 36 87
REMARK SMILES IDX 62 88 63 89 71 90 64 91 65 92 69 93 72 94 66 95 67 96 70 97
REMARK SMILES IDX 68 98 47 99 48 100 56 101 49 102 50 103 54 104 57 105 51 106
REMARK SMILES IDX 52 107 55 108 53 109
REMARK H PARENT 14 5 5 20 87 28 18 43 77 62 45 73
REMARK Flexibility Score: inf
ROOT
ATOM      1  C   UNL     1       2.907  -9.467  -0.330  1.00  0.00     0.118 C 
ENDROOT
BRANCH   1   2
ATOM      2  N   UNL     1       3.842  -8.496  -0.908  1.00  0.00    -0.352 N 
ATOM      3  C   UNL     1       4.333  -7.238  -0.571  1.00  0.00     0.252 C 
ATOM      4  O   UNL     1       4.849  -6.613  -1.508  1.00  0.00    -0.269 OA
ATOM      5  H   UNL     1       4.222  -8.819  -1.756  1.00  0.00     0.163 HD
BRANCH   3   6
ATOM      6  C   UNL     1       4.384  -6.559   0.774  1.00  0.00     0.052 A 
ATOM      7  C   UNL     1       4.892  -4.555   2.001  1.00  0.00     0.130 A 
ATOM      8  C   UNL     1       4.547  -5.185   0.803  1.00  0.00     0.061 A 
ATOM      9  N   UNL     1       5.399  -5.248   3.050  1.00  0.00    -0.231 NA
ATOM     10  C   UNL     1       5.374  -6.597   2.979  1.00  0.00     0.074 A 
ATOM     11  C   UNL     1       4.637  -7.200   1.978  1.00  0.00     0.015 A 
ATOM     12  C   UNL     1       6.109  -7.514   3.760  1.00  0.00     0.031 A 
ATOM     13  C   UNL     1       4.370  -8.506   2.166  1.00  0.00     0.038 A 
ATOM     14  C   UNL     1       6.278  -8.850   3.275  1.00  0.00     0.029 A 
ATOM     15  C   UNL     1       5.474  -9.257   2.228  1.00  0.00     0.050 A 
BRANCH   7  16
ATOM     16  N   UNL     1       4.593  -3.221   2.164  1.00  0.00    -0.345 N 
ATOM     17  N   UNL     1       3.826  -0.458   2.587  1.00  0.00    -0.331 N 
ATOM     18  C   UNL     1       2.818  -1.527   2.470  1.00  0.00     0.284 C 
ATOM     19  C   UNL     1       4.999  -1.043   3.280  1.00  0.00     0.284 C 
ATOM     20  H   UNL     1       3.379   0.287   3.120  1.00  0.00     0.348 HD
ATOM     21  C   UNL     1       3.287  -2.764   1.691  1.00  0.00     0.179 C 
ATOM     22  C   UNL     1       5.619  -2.263   2.559  1.00  0.00     0.179 C 
BRANCH  17  23
ATOM     23  C   UNL     1       4.195   0.320   1.383  1.00  0.00     0.277 C 
BRANCH  23  24
ATOM     24  C   UNL     1       3.693  -0.001  -0.048  1.00  0.00     0.181 C 
BRANCH  24  25
ATOM     25  C   UNL     1       2.173  -0.001  -0.048  1.00  0.00     0.068 C 
ATOM     26  N   UNL     1       0.912  -0.001  -0.048  1.00  0.00    -0.198 NA
ENDBRANCH  24  25
ENDBRANCH  23  24
ENDBRANCH  17  23
ENDBRANCH   7  16
BRANCH  15  27
ATOM     27  N   UNL     1       5.561 -10.325   1.258  1.00  0.00    -0.280 N 
ATOM     28  H   UNL     1       4.897 -11.052   1.276  1.00  0.00     0.180 HD
BRANCH  27  29
ATOM     29  S   UNL     1       6.806 -10.344   0.073  1.00  0.00     0.263 S 
ATOM     30  O   UNL     1       7.819  -9.436   0.576  1.00  0.00    -0.201 OA
ATOM     31  O   UNL     1       7.077 -11.771   0.055  1.00  0.00    -0.201 OA
BRANCH  29  32
ATOM     32  C   UNL     1       6.690  -9.967  -1.744  1.00  0.00     0.106 A 
ATOM     33  C   UNL     1       8.021  -9.890  -2.232  1.00  0.00     0.024 A 
ATOM     34  C   UNL     1       5.736  -9.812  -2.773  1.00  0.00     0.061 A 
ATOM     35  C   UNL     1       8.373  -9.518  -3.541  1.00  0.00     0.002 A 
ATOM     36  C   UNL     1       6.094  -9.310  -4.060  1.00  0.00     0.022 A 
ATOM     37  Cl  UNL     1       4.102 -10.302  -2.973  1.00  0.00    -0.083 Cl
ATOM     38  C   UNL     1       7.404  -9.153  -4.444  1.00  0.00     0.002 A 
ENDBRANCH  29  32
ENDBRANCH  27  29
ENDBRANCH  15  27
ENDBRANCH   3   6
ENDBRANCH   1   2
BRANCH   1  39
ATOM     39  C   UNL     1       2.958 -11.042  -0.144  1.00  0.00     0.042 C 
BRANCH  39  40
ATOM     40  C   UNL     1       3.274 -12.261  -1.034  1.00  0.00     0.118 C 
BRANCH  40  41
ATOM     41  N   UNL     1       4.660 -12.709  -1.232  1.00  0.00    -0.352 N 
ATOM     42  C   UNL     1       5.096 -13.870  -1.864  1.00  0.00     0.251 C 
ATOM     43  H   UNL     1       5.362 -12.119  -0.875  1.00  0.00     0.163 HD
ATOM     44  O   UNL     1       6.255 -14.166  -2.008  1.00  0.00    -0.269 OA
BRANCH  42  45
ATOM     45  C   UNL     1       4.038 -14.811  -2.256  1.00  0.00     0.039 A 
ATOM     46  C   UNL     1       3.862 -15.948  -1.463  1.00  0.00     0.014 A 
ATOM     47  C   UNL     1       3.095 -14.398  -3.190  1.00  0.00     0.014 A 
ATOM     48  C   UNL     1       2.657 -16.632  -1.540  1.00  0.00     0.010 A 
ATOM     49  C   UNL     1       1.861 -15.016  -3.185  1.00  0.00     0.010 A 
ATOM     50  C   UNL     1       1.637 -16.133  -2.361  1.00  0.00    -0.014 A 
BRANCH  50  51
ATOM     51  C   UNL     1       0.323 -16.797  -2.430  1.00  0.00     0.031 A 
ATOM     52  C   UNL     1      -0.078 -17.418  -3.733  1.00  0.00     0.074 A 
ATOM     53  C   UNL     1      -0.502 -16.757  -1.368  1.00  0.00     0.049 A 
ATOM     54  N   UNL     1      -1.219 -17.944  -4.083  1.00  0.00    -0.248 NA
ATOM     55  C   UNL     1       0.930 -17.394  -4.810  1.00  0.00     0.031 C 
ATOM     56  C   UNL     1      -0.202 -16.120  -0.082  1.00  0.00     0.029 A 
ATOM     57  N   UNL     1      -1.766 -17.255  -1.202  1.00  0.00    -0.354 N 
ATOM     58  C   UNL     1      -1.070 -18.289  -5.419  1.00  0.00     0.074 A 
ATOM     59  C   UNL     1       0.235 -17.842  -5.842  1.00  0.00     0.031 C 
ATOM     60  C   UNL     1      -1.245 -16.289   0.748  1.00  0.00     0.029 A 
ATOM     61  C   UNL     1      -2.295 -17.015   0.043  1.00  0.00     0.049 A 
ATOM     62  H   UNL     1      -2.252 -17.738  -1.909  1.00  0.00     0.167 HD
ATOM     63  C   UNL     1      -1.940 -18.958  -6.207  1.00  0.00     0.037 A 
ATOM     64  C   UNL     1      -3.498 -17.353   0.543  1.00  0.00     0.037 A 
ATOM     65  C   UNL     1      -3.214 -19.427  -5.740  1.00  0.00     0.049 A 
ATOM     66  C   UNL     1      -4.436 -18.125  -0.349  1.00  0.00     0.074 A 
ATOM     67  C   UNL     1      -4.170 -20.157  -6.418  1.00  0.00     0.029 A 
ATOM     68  N   UNL     1      -3.699 -19.214  -4.456  1.00  0.00    -0.354 N 
ATOM     69  N   UNL     1      -4.269 -18.502  -1.596  1.00  0.00    -0.248 NA
ATOM     70  C   UNL     1      -5.722 -18.529   0.232  1.00  0.00     0.031 C 
ATOM     71  C   UNL     1      -5.250 -20.357  -5.553  1.00  0.00     0.029 A 
ATOM     72  C   UNL     1      -4.947 -19.793  -4.322  1.00  0.00     0.049 A 
ATOM     73  H   UNL     1      -3.225 -18.723  -3.746  1.00  0.00     0.167 HD
ATOM     74  C   UNL     1      -5.409 -19.211  -1.939  1.00  0.00     0.074 A 
ATOM     75  C   UNL     1      -6.254 -19.228  -0.760  1.00  0.00     0.031 C 
ATOM     76  C   UNL     1      -5.740 -19.794  -3.119  1.00  0.00     0.037 A 
BRANCH  63  77
ATOM     77  C   UNL     1      -1.527 -19.226  -7.625  1.00  0.00     0.064 A 
ATOM     78  C   UNL     1      -0.473 -20.102  -7.931  1.00  0.00     0.173 A 
ATOM     79  C   UNL     1      -2.189 -18.602  -8.691  1.00  0.00     0.173 A 
ATOM     80  F   UNL     1       0.211 -20.706  -6.947  1.00  0.00    -0.203 F 
ATOM     81  C   UNL     1      -0.080 -20.320  -9.249  1.00  0.00     0.198 A 
ATOM     82  C   UNL     1      -1.816 -18.849 -10.010  1.00  0.00     0.198 A 
ATOM     83  F   UNL     1      -3.198 -17.750  -8.456  1.00  0.00    -0.203 F 
ATOM     84  F   UNL     1       0.967 -21.115  -9.511  1.00  0.00    -0.200 F 
ATOM     85  C   UNL     1      -0.757 -19.701 -10.287  1.00  0.00     0.200 A 
ATOM     86  F   UNL     1      -2.476 -18.255 -11.014  1.00  0.00    -0.200 F 
ATOM     87  F   UNL     1      -0.383 -19.916 -11.556  1.00  0.00    -0.200 F 
ENDBRANCH  63  77
BRANCH  64  88
ATOM     88  C   UNL     1      -3.862 -17.009   1.944  1.00  0.00     0.064 A 
ATOM     89  C   UNL     1      -4.023 -18.010   2.914  1.00  0.00     0.173 A 
ATOM     90  C   UNL     1      -4.060 -15.681   2.347  1.00  0.00     0.173 A 
ATOM     91  F   UNL     1      -3.855 -19.298   2.581  1.00  0.00    -0.203 F 
ATOM     92  C   UNL     1      -4.395 -17.698   4.221  1.00  0.00     0.198 A 
ATOM     93  C   UNL     1      -4.404 -15.367   3.662  1.00  0.00     0.198 A 
ATOM     94  F   UNL     1      -3.908 -14.681   1.466  1.00  0.00    -0.203 F 
ATOM     95  F   UNL     1      -4.589 -18.680   5.113  1.00  0.00    -0.200 F 
ATOM     96  C   UNL     1      -4.582 -16.377   4.596  1.00  0.00     0.200 A 
ATOM     97  F   UNL     1      -4.563 -14.087   4.024  1.00  0.00    -0.200 F 
ATOM     98  F   UNL     1      -4.937 -16.077   5.852  1.00  0.00    -0.200 F 
ENDBRANCH  64  88
BRANCH  76  99
ATOM     99  C   UNL     1      -7.047 -20.524  -3.169  1.00  0.00     0.064 A 
ATOM    100  C   UNL     1      -8.269 -19.838  -3.180  1.00  0.00     0.173 A 
ATOM    101  C   UNL     1      -7.070 -21.924  -3.261  1.00  0.00     0.173 A 
ATOM    102  F   UNL     1      -8.294 -18.501  -3.081  1.00  0.00    -0.203 F 
ATOM    103  C   UNL     1      -9.473 -20.532  -3.255  1.00  0.00     0.198 A 
ATOM    104  C   UNL     1      -8.274 -22.611  -3.370  1.00  0.00     0.198 A 
ATOM    105  F   UNL     1      -5.924 -22.621  -3.265  1.00  0.00    -0.203 F 
ATOM    106  F   UNL     1     -10.632 -19.861  -3.214  1.00  0.00    -0.200 F 
ATOM    107  C   UNL     1      -9.474 -21.915  -3.358  1.00  0.00     0.200 A 
ATOM    108  F   UNL     1      -8.273 -23.945  -3.487  1.00  0.00    -0.200 F 
ATOM    109  F   UNL     1     -10.634 -22.580  -3.441  1.00  0.00    -0.200 F 
ENDBRANCH  76  99
ENDBRANCH  50  51
ENDBRANCH  42  45
ENDBRANCH  40  41
ENDBRANCH  39  40
ENDBRANCH   1  39
TORSDOF 17
