REMARK SMILES O=C(NCCCNC(=O)[C@@H]1CC2(CC[NH2+]CC2)C[N@H+]1Cc1cccc2nonc12)c1ccc(-c2c3nc(c(-c4c(F)c(F)c(F)c(F)c4F)c4ccc([nH]4)c(-c4c(F)c(F)c(F)c(F)c4F)c4nc(c(-c5c(F)c(F)c(F)c(F)c5F)c5ccc2[nH]5)C=C4)C=C3)cc1
REMARK SMILES IDX 5 1 4 2 3 3 1 4 2 5 30 7 31 8 92 9 32 10 91 11 33 12 34 13
REMARK SMILES IDX 35 14 85 15 36 16 90 17 84 18 86 19 37 20 89 21 83 22 82 23
REMARK SMILES IDX 38 25 70 26 50 27 69 28 51 29 54 30 68 31 87 32 52 33 53 34
REMARK SMILES IDX 67 36 88 37 55 38 39 39 40 40 48 41 41 42 42 43 46 44 49 45
REMARK SMILES IDX 43 46 44 47 47 48 45 49 71 50 72 51 80 52 73 53 74 54 78 55
REMARK SMILES IDX 81 56 75 57 76 58 79 59 77 60 56 61 57 62 65 63 58 64 59 65
REMARK SMILES IDX 63 66 66 67 60 68 61 69 64 70 62 71 6 72 7 73 8 74 9 76
REMARK SMILES IDX 10 77 11 78 19 79 12 80 18 81 13 83 17 84 14 85 16 86 15 87
REMARK SMILES IDX 20 90 21 91 22 92 29 93 23 94 25 95 28 96 24 97 26 98 27 99
REMARK H PARENT 3 6 86 24 54 35 7 75 19 82 15 88 15 89
REMARK Flexibility Score: inf
ROOT
ATOM      1  C   UNL     1       4.494   1.274  -1.646  1.00  0.00     0.042 C 
ENDROOT
BRANCH   1   2
ATOM      2  C   UNL     1       3.889   1.596  -0.287  1.00  0.00     0.118 C 
BRANCH   2   3
ATOM      3  N   UNL     1       2.501   1.153  -0.246  1.00  0.00    -0.352 N 
ATOM      4  O   UNL     1       0.796  -0.205   0.231  1.00  0.00    -0.269 OA
ATOM      5  C   UNL     1       1.860   0.301   0.607  1.00  0.00     0.251 C 
ATOM      6  H   UNL     1       1.929   1.531  -0.952  1.00  0.00     0.163 HD
BRANCH   5   7
ATOM      7  C   UNL     1       2.371  -0.008   1.960  1.00  0.00     0.039 A 
ATOM      8  C   UNL     1       1.943  -1.200   2.560  1.00  0.00     0.014 A 
ATOM      9  C   UNL     1       3.137   0.901   2.698  1.00  0.00     0.014 A 
ATOM     10  C   UNL     1       2.280  -1.481   3.881  1.00  0.00     0.010 A 
ATOM     11  C   UNL     1       3.510   0.604   4.006  1.00  0.00     0.010 A 
ATOM     12  C   UNL     1       3.067  -0.579   4.606  1.00  0.00    -0.014 A 
BRANCH  12  13
ATOM     13  C   UNL     1       3.353  -0.884   6.016  1.00  0.00     0.031 A 
ATOM     14  C   UNL     1       4.795  -0.902   6.401  1.00  0.00     0.074 A 
ATOM     15  C   UNL     1       2.470  -0.520   6.969  1.00  0.00     0.049 A 
ATOM     16  N   UNL     1       5.475   0.180   6.653  1.00  0.00    -0.248 NA
ATOM     17  C   UNL     1       5.616  -2.108   6.303  1.00  0.00     0.031 C 
ATOM     18  C   UNL     1       1.564   0.631   6.847  1.00  0.00     0.029 A 
ATOM     19  N   UNL     1       2.360  -0.906   8.283  1.00  0.00    -0.354 N 
ATOM     20  C   UNL     1       6.809  -0.174   6.672  1.00  0.00     0.074 A 
ATOM     21  C   UNL     1       6.849  -1.607   6.479  1.00  0.00     0.031 C 
ATOM     22  C   UNL     1       1.130   0.968   8.076  1.00  0.00     0.029 A 
ATOM     23  C   UNL     1       1.583  -0.032   9.034  1.00  0.00     0.049 A 
ATOM     24  H   UNL     1       2.785  -1.714   8.652  1.00  0.00     0.167 HD
ATOM     25  C   UNL     1       7.811   0.732   6.814  1.00  0.00     0.037 A 
ATOM     26  C   UNL     1       1.705   0.178  10.370  1.00  0.00     0.037 A 
ATOM     27  C   UNL     1       7.408   2.095   6.977  1.00  0.00     0.049 A 
ATOM     28  C   UNL     1       3.005   0.936  10.425  1.00  0.00     0.074 A 
ATOM     29  C   UNL     1       7.199   3.183   6.159  1.00  0.00     0.029 A 
ATOM     30  N   UNL     1       7.044   2.518   8.233  1.00  0.00    -0.354 N 
ATOM     31  N   UNL     1       3.147   2.213  10.179  1.00  0.00    -0.248 NA
ATOM     32  C   UNL     1       4.255   0.173  10.407  1.00  0.00     0.031 C 
ATOM     33  C   UNL     1       6.312   4.041   6.880  1.00  0.00     0.029 A 
ATOM     34  C   UNL     1       5.996   3.389   8.071  1.00  0.00     0.049 A 
ATOM     35  H   UNL     1       7.456   2.248   9.086  1.00  0.00     0.167 HD
ATOM     36  C   UNL     1       4.450   2.351   9.697  1.00  0.00     0.074 A 
ATOM     37  C   UNL     1       5.094   1.074   9.914  1.00  0.00     0.031 C 
ATOM     38  C   UNL     1       4.861   3.423   8.961  1.00  0.00     0.037 A 
BRANCH  25  39
ATOM     39  C   UNL     1       9.241   0.392   6.899  1.00  0.00     0.064 A 
ATOM     40  C   UNL     1       9.864   0.419   8.155  1.00  0.00     0.173 A 
ATOM     41  C   UNL     1      10.040   0.247   5.762  1.00  0.00     0.173 A 
ATOM     42  F   UNL     1       9.123   0.574   9.265  1.00  0.00    -0.203 F 
ATOM     43  C   UNL     1      11.246   0.338   8.269  1.00  0.00     0.198 A 
ATOM     44  C   UNL     1      11.426   0.162   5.880  1.00  0.00     0.198 A 
ATOM     45  F   UNL     1       9.484   0.236   4.541  1.00  0.00    -0.203 F 
ATOM     46  F   UNL     1      11.819   0.407   9.478  1.00  0.00    -0.200 F 
ATOM     47  C   UNL     1      12.028   0.220   7.130  1.00  0.00     0.200 A 
ATOM     48  F   UNL     1      12.185   0.054   4.780  1.00  0.00    -0.200 F 
ATOM     49  F   UNL     1      13.363   0.175   7.238  1.00  0.00    -0.200 F 
ENDBRANCH  25  39
BRANCH  26  50
ATOM     50  C   UNL     1       1.360  -1.017  11.200  1.00  0.00     0.064 A 
ATOM     51  C   UNL     1       0.100  -1.623  10.984  1.00  0.00     0.173 A 
ATOM     52  C   UNL     1       2.170  -1.616  12.171  1.00  0.00     0.173 A 
ATOM     53  F   UNL     1      -0.789  -1.054  10.153  1.00  0.00    -0.203 F 
ATOM     54  C   UNL     1      -0.265  -2.819  11.601  1.00  0.00     0.198 A 
ATOM     55  C   UNL     1       1.815  -2.827  12.773  1.00  0.00     0.198 A 
ATOM     56  F   UNL     1       3.326  -1.058  12.551  1.00  0.00    -0.203 F 
ATOM     57  F   UNL     1      -1.452  -3.378  11.330  1.00  0.00    -0.200 F 
ATOM     58  C   UNL     1       0.609  -3.438  12.474  1.00  0.00     0.200 A 
ATOM     59  F   UNL     1       2.663  -3.414  13.630  1.00  0.00    -0.200 F 
ATOM     60  F   UNL     1       0.290  -4.614  13.030  1.00  0.00    -0.200 F 
ENDBRANCH  26  50
BRANCH  38  61
ATOM     61  C   UNL     1       3.890   4.548   8.883  1.00  0.00     0.064 A 
ATOM     62  C   UNL     1       3.714   5.401   9.979  1.00  0.00     0.173 A 
ATOM     63  C   UNL     1       3.148   4.799   7.719  1.00  0.00     0.173 A 
ATOM     64  F   UNL     1       4.409   5.203  11.110  1.00  0.00    -0.203 F 
ATOM     65  C   UNL     1       2.840   6.482   9.905  1.00  0.00     0.198 A 
ATOM     66  C   UNL     1       2.293   5.893   7.642  1.00  0.00     0.198 A 
ATOM     67  F   UNL     1       3.267   4.003   6.644  1.00  0.00    -0.203 F 
ATOM     68  F   UNL     1       2.690   7.294  10.961  1.00  0.00    -0.200 F 
ATOM     69  C   UNL     1       2.140   6.733   8.734  1.00  0.00     0.200 A 
ATOM     70  F   UNL     1       1.631   6.145   6.504  1.00  0.00    -0.200 F 
ATOM     71  F   UNL     1       1.325   7.795   8.654  1.00  0.00    -0.200 F 
ENDBRANCH  38  61
ENDBRANCH  12  13
ENDBRANCH   5   7
ENDBRANCH   2   3
ENDBRANCH   1   2
BRANCH   1  72
ATOM     72  C   UNL     1       3.915   2.086  -2.802  1.00  0.00     0.118 C 
BRANCH  72  73
ATOM     73  N   UNL     1       4.775   3.135  -3.304  1.00  0.00    -0.351 N 
ATOM     74  C   UNL     1       5.468   3.246  -4.470  1.00  0.00     0.278 C 
ATOM     75  H   UNL     1       4.877   3.902  -2.696  1.00  0.00     0.163 HD
ATOM     76  O   UNL     1       5.697   4.405  -4.842  1.00  0.00    -0.268 OA
BRANCH  74  77
ATOM     77  C   UNL     1       6.022   2.073  -5.304  1.00  0.00     0.275 C 
ATOM     78  C   UNL     1       5.055   1.037  -5.889  1.00  0.00     0.089 C 
ATOM     79  N   UNL     1       7.040   1.261  -4.585  1.00  0.00    -0.320 N 
ATOM     80  C   UNL     1       5.689  -0.345  -5.575  1.00  0.00     0.036 C 
ATOM     81  C   UNL     1       7.166   0.041  -5.394  1.00  0.00     0.270 C 
ATOM     82  H   UNL     1       6.751   1.053  -3.629  1.00  0.00     0.349 HD
ATOM     83  C   UNL     1       5.454  -1.382  -6.683  1.00  0.00     0.074 C 
ATOM     84  C   UNL     1       5.157  -0.976  -4.270  1.00  0.00     0.074 C 
ATOM     85  C   UNL     1       3.987  -1.833  -6.733  1.00  0.00     0.261 C 
ATOM     86  C   UNL     1       3.693  -1.392  -4.373  1.00  0.00     0.261 C 
ATOM     87  N   UNL     1       3.506  -2.358  -5.452  1.00  0.00    -0.346 N 
ATOM     88  H   UNL     1       4.023  -3.209  -5.228  1.00  0.00     0.346 HD
ATOM     89  H   UNL     1       2.509  -2.551  -5.540  1.00  0.00     0.346 HD
BRANCH  79  90
ATOM     90  C   UNL     1       8.314   1.962  -4.372  1.00  0.00     0.302 C 
BRANCH  90  91
ATOM     91  C   UNL     1       8.325   2.590  -3.004  1.00  0.00     0.038 A 
ATOM     92  C   UNL     1       8.220   1.789  -1.835  1.00  0.00     0.012 A 
ATOM     93  C   UNL     1       8.339   3.976  -2.731  1.00  0.00     0.144 A 
ATOM     94  C   UNL     1       8.062   2.309  -0.524  1.00  0.00     0.003 A 
ATOM     95  C   UNL     1       8.162   4.509  -1.383  1.00  0.00     0.135 A 
ATOM     96  N   UNL     1       8.490   5.012  -3.565  1.00  0.00    -0.049 NA
ATOM     97  C   UNL     1       8.002   3.685  -0.254  1.00  0.00     0.034 A 
ATOM     98  N   UNL     1       8.167   5.845  -1.452  1.00  0.00    -0.050 NA
ATOM     99  O   UNL     1       8.358   6.150  -2.790  1.00  0.00    -0.243 OA
ENDBRANCH  90  91
ENDBRANCH  79  90
ENDBRANCH  74  77
ENDBRANCH  72  73
ENDBRANCH   1  72
TORSDOF 12
