REMARK SMILES C[NH2+][C@]1(C(=O)NCCCNC(=O)c2ccc(-c3c4nc(c(-c5c(F)c(F)c(F)c(F)c5F)c5ccc([nH]5)c(-c5c(F)c(F)c(F)c(F)c5F)c5nc(c(-c6c(F)c(F)c(F)c(F)c6F)c6ccc3[nH]6)C=C5)C=C4)cc2)CCC[C@@H]([N@H+]2CC[C@@H](C)C2)C1
REMARK SMILES IDX 8 1 7 2 6 3 4 4 5 5 3 7 76 8 86 9 77 10 79 11 78 12 2 13
REMARK SMILES IDX 1 14 80 17 81 18 85 19 82 21 83 22 84 23 9 24 10 25 11 26
REMARK SMILES IDX 12 28 13 29 14 30 75 31 15 32 74 33 16 34 17 35 18 36 68 37
REMARK SMILES IDX 19 38 73 39 67 40 69 41 20 42 72 43 66 44 65 45 21 47 53 48
REMARK SMILES IDX 33 49 52 50 34 51 37 52 51 53 70 54 35 55 36 56 50 58 71 59
REMARK SMILES IDX 38 60 22 61 23 62 31 63 24 64 25 65 29 66 32 67 26 68 27 69
REMARK SMILES IDX 30 70 28 71 54 72 55 73 63 74 56 75 57 76 61 77 64 78 58 79
REMARK SMILES IDX 59 80 62 81 60 82 39 83 40 84 48 85 41 86 42 87 46 88 49 89
REMARK SMILES IDX 43 90 44 91 47 92 45 93
REMARK H PARENT 6 6 2 15 2 16 80 20 10 27 69 46 37 57
REMARK Flexibility Score: inf
ROOT
ATOM      1  C   UNL     1       0.996  -1.416   2.433  1.00  0.00     0.042 C 
ENDROOT
BRANCH   1   2
ATOM      2  C   UNL     1       0.466  -0.517   1.334  1.00  0.00     0.118 C 
BRANCH   2   3
ATOM      3  N   UNL     1       0.982  -0.874   0.022  1.00  0.00    -0.351 N 
ATOM      4  C   UNL     1       0.353  -1.172  -1.152  1.00  0.00     0.281 C 
ATOM      5  O   UNL     1       1.092  -1.506  -2.089  1.00  0.00    -0.268 OA
ATOM      6  H   UNL     1       1.964  -0.906  -0.029  1.00  0.00     0.163 HD
BRANCH   4   7
ATOM      7  C   UNL     1      -1.220  -1.138  -1.324  1.00  0.00     0.181 C 
ATOM      8  C   UNL     1      -1.804  -2.301  -0.496  1.00  0.00     0.079 C 
ATOM      9  C   UNL     1      -1.710   0.262  -0.906  1.00  0.00     0.144 C 
ATOM     10  C   UNL     1      -3.272  -2.148  -0.115  1.00  0.00     0.013 C 
ATOM     11  C   UNL     1      -3.132   0.402  -0.345  1.00  0.00     0.190 C 
ATOM     12  C   UNL     1      -3.562  -0.797   0.527  1.00  0.00     0.065 C 
BRANCH   7  13
ATOM     13  N   UNL     1      -1.453  -1.246  -2.793  1.00  0.00    -0.336 N 
ATOM     14  C   UNL     1      -2.710  -1.780  -3.265  1.00  0.00     0.331 C 
ATOM     15  H   UNL     1      -1.363  -0.307  -3.181  1.00  0.00     0.346 HD
ATOM     16  H   UNL     1      -0.765  -1.933  -3.100  1.00  0.00     0.346 HD
ENDBRANCH   7  13
BRANCH  11  17
ATOM     17  N   UNL     1      -3.337   1.687   0.370  1.00  0.00    -0.332 N 
ATOM     18  C   UNL     1      -2.759   1.798   1.713  1.00  0.00     0.262 C 
ATOM     19  C   UNL     1      -2.986   2.901  -0.379  1.00  0.00     0.265 C 
ATOM     20  H   UNL     1      -4.351   1.640   0.470  1.00  0.00     0.348 HD
ATOM     21  C   UNL     1      -2.179   3.200   1.843  1.00  0.00     0.070 C 
ATOM     22  C   UNL     1      -1.903   3.640   0.413  1.00  0.00     0.047 C 
ATOM     23  C   UNL     1      -0.469   3.328  -0.015  1.00  0.00     0.014 C 
ENDBRANCH  11  17
ENDBRANCH   4   7
ENDBRANCH   2   3
ENDBRANCH   1   2
BRANCH   1  24
ATOM     24  C   UNL     1       2.497  -1.306   2.636  1.00  0.00     0.118 C 
BRANCH  24  25
ATOM     25  N   UNL     1       2.910  -0.017   3.177  1.00  0.00    -0.352 N 
ATOM     26  C   UNL     1       3.475   0.299   4.392  1.00  0.00     0.251 C 
ATOM     27  H   UNL     1       2.762   0.750   2.578  1.00  0.00     0.163 HD
ATOM     28  O   UNL     1       3.607   1.471   4.718  1.00  0.00    -0.269 OA
BRANCH  26  29
ATOM     29  C   UNL     1       3.888  -0.777   5.321  1.00  0.00     0.039 A 
ATOM     30  C   UNL     1       3.615  -0.637   6.684  1.00  0.00     0.014 A 
ATOM     31  C   UNL     1       4.524  -1.927   4.855  1.00  0.00     0.014 A 
ATOM     32  C   UNL     1       3.894  -1.690   7.558  1.00  0.00     0.010 A 
ATOM     33  C   UNL     1       4.691  -3.017   5.701  1.00  0.00     0.010 A 
ATOM     34  C   UNL     1       4.384  -2.910   7.064  1.00  0.00    -0.014 A 
BRANCH  34  35
ATOM     35  C   UNL     1       4.589  -4.085   7.951  1.00  0.00     0.031 A 
ATOM     36  C   UNL     1       5.958  -4.695   8.088  1.00  0.00     0.074 A 
ATOM     37  C   UNL     1       3.534  -4.651   8.570  1.00  0.00     0.049 A 
ATOM     38  N   UNL     1       6.325  -5.773   8.735  1.00  0.00    -0.248 NA
ATOM     39  C   UNL     1       7.058  -4.025   7.375  1.00  0.00     0.031 C 
ATOM     40  C   UNL     1       2.147  -4.189   8.474  1.00  0.00     0.029 A 
ATOM     41  N   UNL     1       3.459  -5.747   9.394  1.00  0.00    -0.354 N 
ATOM     42  C   UNL     1       7.685  -5.916   8.490  1.00  0.00     0.074 A 
ATOM     43  C   UNL     1       8.067  -4.855   7.585  1.00  0.00     0.031 C 
ATOM     44  C   UNL     1       1.367  -4.975   9.231  1.00  0.00     0.029 A 
ATOM     45  C   UNL     1       2.185  -6.025   9.829  1.00  0.00     0.049 A 
ATOM     46  H   UNL     1       4.244  -6.283   9.649  1.00  0.00     0.167 HD
ATOM     47  C   UNL     1       8.544  -6.832   8.997  1.00  0.00     0.037 A 
ATOM     48  C   UNL     1       1.728  -7.020  10.612  1.00  0.00     0.037 A 
ATOM     49  C   UNL     1       8.165  -7.868   9.921  1.00  0.00     0.049 A 
ATOM     50  C   UNL     1       2.704  -8.030  11.156  1.00  0.00     0.074 A 
ATOM     51  C   UNL     1       8.971  -8.806  10.541  1.00  0.00     0.029 A 
ATOM     52  N   UNL     1       6.869  -8.104  10.355  1.00  0.00    -0.354 N 
ATOM     53  N   UNL     1       4.000  -8.111  10.976  1.00  0.00    -0.248 NA
ATOM     54  C   UNL     1       2.153  -9.085  12.018  1.00  0.00     0.031 C 
ATOM     55  C   UNL     1       8.155  -9.644  11.308  1.00  0.00     0.029 A 
ATOM     56  C   UNL     1       6.850  -9.189  11.217  1.00  0.00     0.049 A 
ATOM     57  H   UNL     1       6.080  -7.578  10.091  1.00  0.00     0.167 HD
ATOM     58  C   UNL     1       4.423  -9.199  11.727  1.00  0.00     0.074 A 
ATOM     59  C   UNL     1       3.248  -9.739  12.377  1.00  0.00     0.031 C 
ATOM     60  C   UNL     1       5.673  -9.705  11.867  1.00  0.00     0.037 A 
BRANCH  47  61
ATOM     61  C   UNL     1       9.982  -6.752   8.569  1.00  0.00     0.064 A 
ATOM     62  C   UNL     1      10.811  -5.691   8.965  1.00  0.00     0.173 A 
ATOM     63  C   UNL     1      10.550  -7.769   7.788  1.00  0.00     0.173 A 
ATOM     64  F   UNL     1      10.316  -4.685   9.702  1.00  0.00    -0.203 F 
ATOM     65  C   UNL     1      12.145  -5.637   8.570  1.00  0.00     0.198 A 
ATOM     66  C   UNL     1      11.894  -7.730   7.424  1.00  0.00     0.198 A 
ATOM     67  F   UNL     1       9.805  -8.810   7.385  1.00  0.00    -0.203 F 
ATOM     68  F   UNL     1      12.902  -4.587   8.917  1.00  0.00    -0.200 F 
ATOM     69  C   UNL     1      12.688  -6.660   7.808  1.00  0.00     0.200 A 
ATOM     70  F   UNL     1      12.420  -8.728   6.701  1.00  0.00    -0.200 F 
ATOM     71  F   UNL     1      13.975  -6.613   7.439  1.00  0.00    -0.200 F 
ENDBRANCH  47  61
BRANCH  48  72
ATOM     72  C   UNL     1       0.282  -7.103  10.949  1.00  0.00     0.064 A 
ATOM     73  C   UNL     1      -0.167  -6.888  12.260  1.00  0.00     0.173 A 
ATOM     74  C   UNL     1      -0.680  -7.414   9.976  1.00  0.00     0.173 A 
ATOM     75  F   UNL     1       0.715  -6.607  13.231  1.00  0.00    -0.203 F 
ATOM     76  C   UNL     1      -1.515  -7.009  12.591  1.00  0.00     0.198 A 
ATOM     77  C   UNL     1      -2.032  -7.502  10.301  1.00  0.00     0.198 A 
ATOM     78  F   UNL     1      -0.307  -7.622   8.704  1.00  0.00    -0.203 F 
ATOM     79  F   UNL     1      -1.907  -6.854  13.862  1.00  0.00    -0.200 F 
ATOM     80  C   UNL     1      -2.447  -7.311  11.610  1.00  0.00     0.200 A 
ATOM     81  F   UNL     1      -2.931  -7.777   9.346  1.00  0.00    -0.200 F 
ATOM     82  F   UNL     1      -3.744  -7.426  11.927  1.00  0.00    -0.200 F 
ENDBRANCH  48  72
BRANCH  60  83
ATOM     83  C   UNL     1       5.846 -10.874  12.794  1.00  0.00     0.064 A 
ATOM     84  C   UNL     1       5.359 -12.150  12.476  1.00  0.00     0.173 A 
ATOM     85  C   UNL     1       6.548 -10.721  14.000  1.00  0.00     0.173 A 
ATOM     86  F   UNL     1       4.669 -12.347  11.343  1.00  0.00    -0.203 F 
ATOM     87  C   UNL     1       5.545 -13.223  13.344  1.00  0.00     0.198 A 
ATOM     88  C   UNL     1       6.762 -11.804  14.848  1.00  0.00     0.198 A 
ATOM     89  F   UNL     1       7.042  -9.523  14.349  1.00  0.00    -0.203 F 
ATOM     90  F   UNL     1       5.026 -14.422  13.043  1.00  0.00    -0.200 F 
ATOM     91  C   UNL     1       6.253 -13.052  14.524  1.00  0.00     0.200 A 
ATOM     92  F   UNL     1       7.462 -11.639  15.979  1.00  0.00    -0.200 F 
ATOM     93  F   UNL     1       6.440 -14.088  15.352  1.00  0.00    -0.200 F 
ENDBRANCH  60  83
ENDBRANCH  34  35
ENDBRANCH  26  29
ENDBRANCH  24  25
ENDBRANCH   1  24
TORSDOF 12
