REMARK SMILES O=C(NCCCNC(=O)c1ccc2nc(-c3cc(F)cc(Br)c3)[nH]c2c1)c1ccc(-c2c3nc(c(-c4c(F)c(F)c(F)c(F)c4F)c4ccc([nH]4)c(-c4c(F)c(F)c(F)c(F)c4F)c4nc(c(-c5c(F)c(F)c(F)c(F)c5F)c5ccc2[nH]5)C=C4)C=C3)cc1
REMARK SMILES IDX 4 1 3 2 1 3 2 4 27 6 28 7 89 8 29 9 88 10 30 11 31 12 32 13
REMARK SMILES IDX 82 14 33 15 87 16 81 17 83 18 34 19 86 20 80 21 79 22 35 24
REMARK SMILES IDX 67 25 47 26 66 27 48 28 51 29 65 30 84 31 49 32 50 33 64 35
REMARK SMILES IDX 85 36 52 37 36 38 37 39 45 40 38 41 39 42 43 43 46 44 40 45
REMARK SMILES IDX 41 46 44 47 42 48 68 49 69 50 77 51 70 52 71 53 75 54 78 55
REMARK SMILES IDX 72 56 73 57 76 58 74 59 53 60 54 61 62 62 55 63 56 64 60 65
REMARK SMILES IDX 63 66 57 67 58 68 61 69 59 70 5 71 6 72 7 73 8 74 9 76 10 77
REMARK SMILES IDX 11 78 26 79 12 80 25 81 13 82 24 83 14 84 15 85 16 87 17 88
REMARK SMILES IDX 23 89 18 90 21 91 19 92 20 93 22 94
REMARK H PARENT 3 5 83 23 51 34 7 75 24 86
REMARK Flexibility Score: inf
ROOT
ATOM      1  C   UNL     1       4.477  -1.284   0.229  1.00  0.00     0.118 C 
ENDROOT
BRANCH   1   2
ATOM      2  N   UNL     1       3.045  -1.073   0.052  1.00  0.00    -0.352 N 
ATOM      3  O   UNL     1       1.099   0.053  -0.043  1.00  0.00    -0.269 OA
ATOM      4  C   UNL     1       2.326   0.086  -0.099  1.00  0.00     0.251 C 
ATOM      5  H   UNL     1       2.506  -1.897   0.040  1.00  0.00     0.163 HD
BRANCH   4   6
ATOM      6  C   UNL     1       3.015   1.377  -0.308  1.00  0.00     0.039 A 
ATOM      7  C   UNL     1       4.126   1.468  -1.147  1.00  0.00     0.014 A 
ATOM      8  C   UNL     1       2.523   2.524   0.322  1.00  0.00     0.014 A 
ATOM      9  C   UNL     1       4.843   2.655  -1.222  1.00  0.00     0.010 A 
ATOM     10  C   UNL     1       3.182   3.746   0.159  1.00  0.00     0.010 A 
ATOM     11  C   UNL     1       4.368   3.814  -0.588  1.00  0.00    -0.014 A 
BRANCH  11  12
ATOM     12  C   UNL     1       5.096   5.093  -0.779  1.00  0.00     0.031 A 
ATOM     13  C   UNL     1       5.733   5.807   0.379  1.00  0.00     0.074 A 
ATOM     14  C   UNL     1       5.199   5.596  -2.025  1.00  0.00     0.049 A 
ATOM     15  N   UNL     1       6.409   6.929   0.386  1.00  0.00    -0.248 NA
ATOM     16  C   UNL     1       5.589   5.188   1.705  1.00  0.00     0.031 C 
ATOM     17  C   UNL     1       4.613   4.995  -3.225  1.00  0.00     0.029 A 
ATOM     18  N   UNL     1       5.842   6.712  -2.494  1.00  0.00    -0.354 N 
ATOM     19  C   UNL     1       6.753   7.160   1.711  1.00  0.00     0.074 A 
ATOM     20  C   UNL     1       6.189   6.076   2.487  1.00  0.00     0.031 C 
ATOM     21  C   UNL     1       4.960   5.721  -4.296  1.00  0.00     0.029 A 
ATOM     22  C   UNL     1       5.731   6.876  -3.853  1.00  0.00     0.049 A 
ATOM     23  H   UNL     1       6.335   7.336  -1.913  1.00  0.00     0.167 HD
ATOM     24  C   UNL     1       7.481   8.180   2.227  1.00  0.00     0.037 A 
ATOM     25  C   UNL     1       6.181   7.858  -4.654  1.00  0.00     0.037 A 
ATOM     26  C   UNL     1       8.049   9.248   1.444  1.00  0.00     0.049 A 
ATOM     27  C   UNL     1       6.956   8.992  -4.048  1.00  0.00     0.074 A 
ATOM     28  C   UNL     1       8.832  10.308   1.870  1.00  0.00     0.029 A 
ATOM     29  N   UNL     1       7.890   9.397   0.074  1.00  0.00    -0.354 N 
ATOM     30  N   UNL     1       7.305   9.181  -2.799  1.00  0.00    -0.248 NA
ATOM     31  C   UNL     1       7.397  10.053  -4.963  1.00  0.00     0.031 C 
ATOM     32  C   UNL     1       9.102  11.125   0.766  1.00  0.00     0.029 A 
ATOM     33  C   UNL     1       8.537  10.545  -0.358  1.00  0.00     0.049 A 
ATOM     34  H   UNL     1       7.390   8.778  -0.507  1.00  0.00     0.167 HD
ATOM     35  C   UNL     1       8.021  10.368  -2.779  1.00  0.00     0.074 A 
ATOM     36  C   UNL     1       8.075  10.845  -4.146  1.00  0.00     0.031 C 
ATOM     37  C   UNL     1       8.582  11.006  -1.723  1.00  0.00     0.037 A 
BRANCH  24  38
ATOM     38  C   UNL     1       7.690   8.206   3.715  1.00  0.00     0.064 A 
ATOM     39  C   UNL     1       8.526   7.282   4.361  1.00  0.00     0.173 A 
ATOM     40  C   UNL     1       7.083   9.199   4.500  1.00  0.00     0.173 A 
ATOM     41  F   UNL     1       9.123   6.306   3.660  1.00  0.00    -0.203 F 
ATOM     42  C   UNL     1       8.726   7.337   5.739  1.00  0.00     0.198 A 
ATOM     43  C   UNL     1       7.309   9.268   5.872  1.00  0.00     0.198 A 
ATOM     44  F   UNL     1       6.281  10.112   3.933  1.00  0.00    -0.203 F 
ATOM     45  F   UNL     1       9.493   6.417   6.340  1.00  0.00    -0.200 F 
ATOM     46  C   UNL     1       8.123   8.333   6.492  1.00  0.00     0.200 A 
ATOM     47  F   UNL     1       6.737  10.241   6.596  1.00  0.00    -0.200 F 
ATOM     48  F   UNL     1       8.324   8.389   7.816  1.00  0.00    -0.200 F 
ENDBRANCH  24  38
BRANCH  25  49
ATOM     49  C   UNL     1       5.897   7.808  -6.111  1.00  0.00     0.064 A 
ATOM     50  C   UNL     1       6.925   7.603  -7.041  1.00  0.00     0.173 A 
ATOM     51  C   UNL     1       4.590   7.948  -6.602  1.00  0.00     0.173 A 
ATOM     52  F   UNL     1       8.193   7.480  -6.621  1.00  0.00    -0.203 F 
ATOM     53  C   UNL     1       6.658   7.554  -8.407  1.00  0.00     0.198 A 
ATOM     54  C   UNL     1       4.321   7.868  -7.965  1.00  0.00     0.198 A 
ATOM     55  F   UNL     1       3.570   8.140  -5.752  1.00  0.00    -0.203 F 
ATOM     56  F   UNL     1       7.664   7.398  -9.278  1.00  0.00    -0.200 F 
ATOM     57  C   UNL     1       5.356   7.679  -8.868  1.00  0.00     0.200 A 
ATOM     58  F   UNL     1       3.058   7.969  -8.404  1.00  0.00    -0.200 F 
ATOM     59  F   UNL     1       5.099   7.622 -10.182  1.00  0.00    -0.200 F 
ENDBRANCH  25  49
BRANCH  37  60
ATOM     60  C   UNL     1       9.331  12.274  -2.011  1.00  0.00     0.064 A 
ATOM     61  C   UNL     1       8.666  13.456  -2.373  1.00  0.00     0.173 A 
ATOM     62  C   UNL     1      10.729  12.314  -1.899  1.00  0.00     0.173 A 
ATOM     63  F   UNL     1       7.332  13.465  -2.511  1.00  0.00    -0.203 F 
ATOM     64  C   UNL     1       9.377  14.623  -2.639  1.00  0.00     0.198 A 
ATOM     65  C   UNL     1      11.433  13.490  -2.135  1.00  0.00     0.198 A 
ATOM     66  F   UNL     1      11.411  11.212  -1.552  1.00  0.00    -0.203 F 
ATOM     67  F   UNL     1       8.727  15.726  -3.034  1.00  0.00    -0.200 F 
ATOM     68  C   UNL     1      10.759  14.641  -2.512  1.00  0.00     0.200 A 
ATOM     69  F   UNL     1      12.767  13.509  -1.999  1.00  0.00    -0.200 F 
ATOM     70  F   UNL     1      11.441  15.767  -2.763  1.00  0.00    -0.200 F 
ENDBRANCH  37  60
ENDBRANCH  11  12
ENDBRANCH   4   6
ENDBRANCH   1   2
BRANCH   1  71
ATOM     71  C   UNL     1       4.830  -1.790   1.619  1.00  0.00     0.042 C 
BRANCH  71  72
ATOM     72  C   UNL     1       4.258  -3.164   1.933  1.00  0.00     0.118 C 
BRANCH  72  73
ATOM     73  N   UNL     1       4.784  -4.192   1.046  1.00  0.00    -0.352 N 
ATOM     74  C   UNL     1       5.683  -5.193   1.309  1.00  0.00     0.251 C 
ATOM     75  H   UNL     1       4.444  -4.164   0.123  1.00  0.00     0.163 HD
ATOM     76  O   UNL     1       6.190  -5.825   0.388  1.00  0.00    -0.269 OA
BRANCH  74  77
ATOM     77  C   UNL     1       6.057  -5.497   2.706  1.00  0.00     0.042 A 
ATOM     78  C   UNL     1       5.063  -5.700   3.673  1.00  0.00     0.016 A 
ATOM     79  C   UNL     1       7.422  -5.602   3.017  1.00  0.00     0.042 A 
ATOM     80  C   UNL     1       5.405  -5.931   5.008  1.00  0.00     0.031 A 
ATOM     81  C   UNL     1       7.728  -5.843   4.357  1.00  0.00     0.067 A 
ATOM     82  C   UNL     1       6.763  -6.002   5.345  1.00  0.00     0.089 A 
ATOM     83  N   UNL     1       8.917  -5.987   5.026  1.00  0.00    -0.338 N 
ATOM     84  N   UNL     1       7.342  -6.231   6.562  1.00  0.00    -0.229 NA
ATOM     85  C   UNL     1       8.643  -6.211   6.356  1.00  0.00     0.138 A 
ATOM     86  H   UNL     1       9.814  -5.938   4.623  1.00  0.00     0.168 HD
BRANCH  85  87
ATOM     87  C   UNL     1       9.662  -6.453   7.367  1.00  0.00     0.021 A 
ATOM     88  C   UNL     1      10.791  -5.637   7.481  1.00  0.00     0.051 A 
ATOM     89  C   UNL     1       9.489  -7.514   8.267  1.00  0.00     0.027 A 
ATOM     90  C   UNL     1      11.726  -5.894   8.480  1.00  0.00     0.125 A 
ATOM     91  C   UNL     1      10.444  -7.764   9.252  1.00  0.00     0.021 A 
ATOM     92  F   UNL     1      12.798  -5.099   8.591  1.00  0.00    -0.207 F 
ATOM     93  C   UNL     1      11.568  -6.954   9.365  1.00  0.00     0.055 A 
ATOM     94  Br  UNL     1      10.206  -9.216  10.438  1.00  0.00    -0.051 Br
ENDBRANCH  85  87
ENDBRANCH  74  77
ENDBRANCH  72  73
ENDBRANCH  71  72
ENDBRANCH   1  71
TORSDOF 11
