REMARK SMILES O=C(NCCCNC(=O)c1cccnc1SCC(=O)c1ccccc1Cl)c1ccc(-c2c3nc(c(-c4c(F)c(F)c(F)c(F)c4F)c4ccc([nH]4)c(-c4c(F)c(F)c(F)c(F)c4F)c4nc(c(-c5c(F)c(F)c(F)c(F)c5F)c5ccc2[nH]5)C=C4)C=C3)cc1
REMARK SMILES IDX 6 1 5 2 4 3 3 4 1 5 2 6 27 8 28 9 89 10 29 11 88 12 30 13
REMARK SMILES IDX 31 14 32 15 82 16 33 17 87 18 81 19 83 20 34 21 86 22 80 23
REMARK SMILES IDX 79 24 35 26 67 27 47 28 66 29 48 30 51 31 65 32 84 33 49 34
REMARK SMILES IDX 50 35 64 37 85 38 52 39 36 40 37 41 45 42 38 43 39 44 43 45
REMARK SMILES IDX 46 46 40 47 41 48 44 49 42 50 68 51 69 52 77 53 70 54 71 55
REMARK SMILES IDX 75 56 78 57 72 58 73 59 76 60 74 61 53 62 54 63 62 64 55 65
REMARK SMILES IDX 56 66 60 67 63 68 57 69 58 70 61 71 59 72 7 73 8 74 9 76
REMARK SMILES IDX 10 77 11 78 15 79 12 80 14 81 13 82 16 83 17 84 18 85 19 86
REMARK SMILES IDX 20 87 21 88 25 89 22 90 24 91 26 92 23 93
REMARK H PARENT 3 7 83 25 51 36 7 75
REMARK Flexibility Score: inf
ROOT
ATOM      1  C   UNL     1       4.195  -3.730   1.177  1.00  0.00     0.118 C 
ENDROOT
BRANCH   1   2
ATOM      2  C   UNL     1       5.023  -2.485   0.875  1.00  0.00     0.042 C 
BRANCH   2   3
ATOM      3  C   UNL     1       4.675  -1.779  -0.434  1.00  0.00     0.118 C 
BRANCH   3   4
ATOM      4  N   UNL     1       3.284  -1.355  -0.504  1.00  0.00    -0.352 N 
ATOM      5  O   UNL     1       1.421  -0.157  -0.241  1.00  0.00    -0.269 OA
ATOM      6  C   UNL     1       2.651  -0.158  -0.295  1.00  0.00     0.251 C 
ATOM      7  H   UNL     1       2.668  -2.082  -0.754  1.00  0.00     0.163 HD
BRANCH   6   8
ATOM      8  C   UNL     1       3.369   1.131  -0.125  1.00  0.00     0.039 A 
ATOM      9  C   UNL     1       4.520   1.461  -0.841  1.00  0.00     0.014 A 
ATOM     10  C   UNL     1       2.779   2.105   0.697  1.00  0.00     0.014 A 
ATOM     11  C   UNL     1       5.131   2.706  -0.658  1.00  0.00     0.010 A 
ATOM     12  C   UNL     1       3.355   3.374   0.832  1.00  0.00     0.010 A 
ATOM     13  C   UNL     1       4.553   3.678   0.175  1.00  0.00    -0.014 A 
BRANCH  13  14
ATOM     14  C   UNL     1       5.193   5.014   0.309  1.00  0.00     0.031 A 
ATOM     15  C   UNL     1       5.846   5.434   1.596  1.00  0.00     0.074 A 
ATOM     16  C   UNL     1       5.210   5.850  -0.747  1.00  0.00     0.049 A 
ATOM     17  N   UNL     1       6.523   6.525   1.859  1.00  0.00    -0.248 NA
ATOM     18  C   UNL     1       5.715   4.520   2.739  1.00  0.00     0.031 C 
ATOM     19  C   UNL     1       4.577   5.590  -2.040  1.00  0.00     0.029 A 
ATOM     20  N   UNL     1       5.803   7.078  -0.906  1.00  0.00    -0.354 N 
ATOM     21  C   UNL     1       6.881   6.437   3.196  1.00  0.00     0.074 A 
ATOM     22  C   UNL     1       6.335   5.193   3.698  1.00  0.00     0.031 C 
ATOM     23  C   UNL     1       4.863   6.600  -2.878  1.00  0.00     0.029 A 
ATOM     24  C   UNL     1       5.681   7.584  -2.176  1.00  0.00     0.049 A 
ATOM     25  H   UNL     1       6.270   7.550  -0.179  1.00  0.00     0.167 HD
ATOM     26  C   UNL     1       7.608   7.306   3.938  1.00  0.00     0.037 A 
ATOM     27  C   UNL     1       6.189   8.704  -2.722  1.00  0.00     0.037 A 
ATOM     28  C   UNL     1       8.191   8.525   3.446  1.00  0.00     0.049 A 
ATOM     29  C   UNL     1       7.032   9.628  -1.893  1.00  0.00     0.074 A 
ATOM     30  C   UNL     1       8.993   9.433   4.116  1.00  0.00     0.029 A 
ATOM     31  N   UNL     1       8.035   9.006   2.156  1.00  0.00    -0.354 N 
ATOM     32  N   UNL     1       7.400   9.507  -0.642  1.00  0.00    -0.248 NA
ATOM     33  C   UNL     1       7.526  10.845  -2.553  1.00  0.00     0.031 C 
ATOM     34  C   UNL     1       9.313  10.472   3.234  1.00  0.00     0.029 A 
ATOM     35  C   UNL     1       8.719  10.203   2.013  1.00  0.00     0.049 A 
ATOM     36  H   UNL     1       7.516   8.563   1.446  1.00  0.00     0.167 HD
ATOM     37  C   UNL     1       8.167  10.628  -0.363  1.00  0.00     0.074 A 
ATOM     38  C   UNL     1       8.226  11.413  -1.579  1.00  0.00     0.031 C 
ATOM     39  C   UNL     1       8.764  10.976   0.801  1.00  0.00     0.037 A 
BRANCH  26  40
ATOM     40  C   UNL     1       7.821   6.965   5.379  1.00  0.00     0.064 A 
ATOM     41  C   UNL     1       8.818   6.062   5.771  1.00  0.00     0.173 A 
ATOM     42  C   UNL     1       7.048   7.575   6.376  1.00  0.00     0.173 A 
ATOM     43  F   UNL     1       9.572   5.447   4.848  1.00  0.00    -0.203 F 
ATOM     44  C   UNL     1       9.029   5.774   7.117  1.00  0.00     0.198 A 
ATOM     45  C   UNL     1       7.268   7.293   7.721  1.00  0.00     0.198 A 
ATOM     46  F   UNL     1       6.082   8.445   6.045  1.00  0.00    -0.203 F 
ATOM     47  F   UNL     1       9.973   4.892   7.472  1.00  0.00    -0.200 F 
ATOM     48  C   UNL     1       8.257   6.392   8.090  1.00  0.00     0.200 A 
ATOM     49  F   UNL     1       6.523   7.890   8.662  1.00  0.00    -0.200 F 
ATOM     50  F   UNL     1       8.461   6.113   9.385  1.00  0.00    -0.200 F 
ENDBRANCH  26  40
BRANCH  27  51
ATOM     51  C   UNL     1       5.949   8.988  -4.155  1.00  0.00     0.064 A 
ATOM     52  C   UNL     1       6.931   8.698  -5.111  1.00  0.00     0.173 A 
ATOM     53  C   UNL     1       4.734   9.527  -4.596  1.00  0.00     0.173 A 
ATOM     54  F   UNL     1       8.114   8.197  -4.725  1.00  0.00    -0.203 F 
ATOM     55  C   UNL     1       6.705   8.938  -6.463  1.00  0.00     0.198 A 
ATOM     56  C   UNL     1       4.506   9.758  -5.951  1.00  0.00     0.198 A 
ATOM     57  F   UNL     1       3.770   9.821  -3.712  1.00  0.00    -0.203 F 
ATOM     58  F   UNL     1       7.664   8.667  -7.359  1.00  0.00    -0.200 F 
ATOM     59  C   UNL     1       5.492   9.464  -6.883  1.00  0.00     0.200 A 
ATOM     60  F   UNL     1       3.333  10.264  -6.354  1.00  0.00    -0.200 F 
ATOM     61  F   UNL     1       5.273   9.692  -8.185  1.00  0.00    -0.200 F 
ENDBRANCH  27  51
BRANCH  39  62
ATOM     62  C   UNL     1       9.524  12.263   0.818  1.00  0.00     0.064 A 
ATOM     63  C   UNL     1       8.865  13.487   0.999  1.00  0.00     0.173 A 
ATOM     64  C   UNL     1      10.919  12.273   0.686  1.00  0.00     0.173 A 
ATOM     65  F   UNL     1       7.529  13.522   1.115  1.00  0.00    -0.203 F 
ATOM     66  C   UNL     1       9.579  14.681   1.038  1.00  0.00     0.198 A 
ATOM     67  C   UNL     1      11.630  13.469   0.735  1.00  0.00     0.198 A 
ATOM     68  F   UNL     1      11.589  11.125   0.508  1.00  0.00    -0.203 F 
ATOM     69  F   UNL     1       8.929  15.843   1.190  1.00  0.00    -0.200 F 
ATOM     70  C   UNL     1      10.960  14.671   0.910  1.00  0.00     0.200 A 
ATOM     71  F   UNL     1      12.965  13.459   0.609  1.00  0.00    -0.200 F 
ATOM     72  F   UNL     1      11.645  15.822   0.946  1.00  0.00    -0.200 F 
ENDBRANCH  39  62
ENDBRANCH  13  14
ENDBRANCH   6   8
ENDBRANCH   3   4
ENDBRANCH   2   3
ENDBRANCH   1   2
BRANCH   1  73
ATOM     73  N   UNL     1       4.336  -4.796   0.198  1.00  0.00    -0.352 N 
ATOM     74  C   UNL     1       4.902  -6.035   0.364  1.00  0.00     0.254 C 
ATOM     75  H   UNL     1       3.979  -4.605  -0.700  1.00  0.00     0.163 HD
ATOM     76  O   UNL     1       4.646  -6.973  -0.381  1.00  0.00    -0.269 OA
BRANCH  74  77
ATOM     77  C   UNL     1       5.766  -6.284   1.506  1.00  0.00     0.072 A 
ATOM     78  C   UNL     1       5.101  -6.819   2.625  1.00  0.00     0.018 A 
ATOM     79  C   UNL     1       7.151  -6.147   1.515  1.00  0.00     0.109 A 
ATOM     80  C   UNL     1       5.819  -7.158   3.759  1.00  0.00     0.021 A 
ATOM     81  N   UNL     1       7.836  -6.440   2.660  1.00  0.00    -0.249 NA
ATOM     82  C   UNL     1       7.178  -6.937   3.733  1.00  0.00     0.112 A 
BRANCH  79  83
ATOM     83  S   UNL     1       8.330  -5.754   0.234  1.00  0.00    -0.097 SA
BRANCH  83  84
ATOM     84  C   UNL     1       7.508  -5.143  -1.232  1.00  0.00     0.157 C 
BRANCH  84  85
ATOM     85  C   UNL     1       6.644  -6.018  -2.112  1.00  0.00     0.174 C 
ATOM     86  O   UNL     1       5.595  -5.519  -2.554  1.00  0.00    -0.293 OA
BRANCH  85  87
ATOM     87  C   UNL     1       7.118  -7.262  -2.796  1.00  0.00     0.037 A 
ATOM     88  C   UNL     1       6.965  -7.231  -4.200  1.00  0.00     0.013 A 
ATOM     89  C   UNL     1       7.561  -8.457  -2.216  1.00  0.00     0.051 A 
ATOM     90  C   UNL     1       7.279  -8.331  -5.001  1.00  0.00     0.001 A 
ATOM     91  C   UNL     1       7.924  -9.544  -3.033  1.00  0.00     0.021 A 
ATOM     92  Cl  UNL     1       7.566  -8.809  -0.533  1.00  0.00    -0.084 Cl
ATOM     93  C   UNL     1       7.780  -9.485  -4.417  1.00  0.00     0.002 A 
ENDBRANCH  85  87
ENDBRANCH  84  85
ENDBRANCH  83  84
ENDBRANCH  79  83
ENDBRANCH  74  77
ENDBRANCH   1  73
TORSDOF 14
