REMARK SMILES COc1cc([C@@H]2CC(=O)Nc3c(C(=O)NCCCNC(=O)c4ccc(-c5c6nc(c(-c7c(F)c(F)c(F)c(F)c7F)c7ccc([nH]7)c(-c7c(F)c(F)c(F)c(F)c7F)c7nc(c(-c8c(F)c(F)c(F)c(F)c8F)c8ccc5[nH]8)C=C7)C=C6)cc4)cn(-c4ccccc4)c32)ccc1O
REMARK SMILES IDX 17 1 16 2 15 3 13 4 14 5 12 7 6 8 7 9 93 10 8 11 11 12 86 13
REMARK SMILES IDX 9 14 10 15 85 16 5 18 3 19 4 20 96 21 95 22 94 23 2 24 1 25
REMARK SMILES IDX 97 26 87 28 88 29 92 30 89 31 91 32 90 33 18 34 19 35 20 36
REMARK SMILES IDX 21 38 22 39 23 40 84 41 24 42 83 43 25 44 26 45 27 46 77 47
REMARK SMILES IDX 28 48 82 49 76 50 78 51 29 52 81 53 75 54 74 55 30 57 62 58
REMARK SMILES IDX 42 59 61 60 43 61 46 62 60 63 79 64 44 65 45 66 59 68 80 69
REMARK SMILES IDX 47 70 31 71 32 72 40 73 33 74 34 75 38 76 41 77 35 78 36 79
REMARK SMILES IDX 39 80 37 81 63 82 64 83 72 84 65 85 66 86 70 87 73 88 67 89
REMARK SMILES IDX 68 90 71 91 69 92 48 93 49 94 57 95 50 96 51 97 55 98 58 99
REMARK SMILES IDX 52 100 53 101 56 102 54 103
REMARK H PARENT 15 6 10 17 97 27 19 37 78 56 46 67
REMARK Flexibility Score: inf
ROOT
ATOM      1  C   UNL     1      -3.015  -0.638   9.978  1.00  0.00     0.042 C 
ENDROOT
BRANCH   1   2
ATOM      2  C   UNL     1      -4.088  -1.202   9.026  1.00  0.00     0.118 C 
BRANCH   2   3
ATOM      3  N   UNL     1      -5.147  -0.252   8.773  1.00  0.00    -0.352 N 
ATOM      4  C   UNL     1      -5.286   0.780   7.882  1.00  0.00     0.254 C 
ATOM      5  O   UNL     1      -6.396   1.323   7.891  1.00  0.00    -0.269 OA
ATOM      6  H   UNL     1      -5.928  -0.369   9.361  1.00  0.00     0.163 HD
BRANCH   4   7
ATOM      7  C   UNL     1      -4.242   1.238   6.954  1.00  0.00     0.081 A 
ATOM      8  C   UNL     1      -1.007   1.794   5.182  1.00  0.00     0.078 C 
ATOM      9  C   UNL     1      -0.070   1.623   6.386  1.00  0.00     0.115 C 
ATOM     10  C   UNL     1      -2.427   1.762   5.668  1.00  0.00     0.055 A 
ATOM     11  C   UNL     1      -0.524   0.480   7.258  1.00  0.00     0.225 C 
ATOM     12  C   UNL     1      -2.840   1.049   6.769  1.00  0.00     0.076 A 
ATOM     13  N   UNL     1      -3.502   2.441   5.157  1.00  0.00    -0.317 N 
ATOM     14  O   UNL     1       0.255  -0.234   7.887  1.00  0.00    -0.275 OA
ATOM     15  N   UNL     1      -1.875   0.317   7.412  1.00  0.00    -0.324 N 
ATOM     16  C   UNL     1      -4.575   2.182   5.976  1.00  0.00     0.107 A 
ATOM     17  H   UNL     1      -2.178  -0.383   8.035  1.00  0.00     0.170 HD
BRANCH   8  18
ATOM     18  C   UNL     1      -0.720   0.733   4.126  1.00  0.00    -0.034 A 
ATOM     19  C   UNL     1       0.237   0.218   1.929  1.00  0.00     0.160 A 
ATOM     20  C   UNL     1      -0.024   1.116   2.971  1.00  0.00     0.054 A 
ATOM     21  C   UNL     1      -0.170  -1.108   2.078  1.00  0.00     0.157 A 
ATOM     22  C   UNL     1      -0.861  -1.514   3.218  1.00  0.00     0.050 A 
ATOM     23  C   UNL     1      -1.133  -0.602   4.235  1.00  0.00     0.008 A 
BRANCH  19  24
ATOM     24  O   UNL     1       0.852   0.834   0.880  1.00  0.00    -0.493 OA
ATOM     25  C   UNL     1       1.139   0.114  -0.302  1.00  0.00     0.278 C 
ENDBRANCH  19  24
BRANCH  21  26
ATOM     26  O   UNL     1       0.076  -2.099   1.174  1.00  0.00    -0.504 OA
ATOM     27  H   UNL     1       0.536  -1.906   0.381  1.00  0.00     0.293 HD
ENDBRANCH  21  26
ENDBRANCH   8  18
BRANCH  13  28
ATOM     28  C   UNL     1      -3.511   3.292   4.034  1.00  0.00     0.045 A 
ATOM     29  C   UNL     1      -2.996   2.836   2.818  1.00  0.00     0.026 A 
ATOM     30  C   UNL     1      -3.986   4.599   4.160  1.00  0.00     0.026 A 
ATOM     31  C   UNL     1      -2.884   3.709   1.741  1.00  0.00     0.002 A 
ATOM     32  C   UNL     1      -3.861   5.472   3.079  1.00  0.00     0.002 A 
ATOM     33  C   UNL     1      -3.300   5.032   1.877  1.00  0.00     0.000 A 
ENDBRANCH  13  28
ENDBRANCH   4   7
ENDBRANCH   2   3
ENDBRANCH   1   2
BRANCH   1  34
ATOM     34  C   UNL     1      -3.205  -1.054  11.412  1.00  0.00     0.118 C 
BRANCH  34  35
ATOM     35  N   UNL     1      -2.893  -2.487  11.588  1.00  0.00    -0.352 N 
ATOM     36  C   UNL     1      -3.138  -3.324  12.659  1.00  0.00     0.251 C 
ATOM     37  H   UNL     1      -2.441  -2.912  10.823  1.00  0.00     0.163 HD
ATOM     38  O   UNL     1      -2.515  -4.379  12.797  1.00  0.00    -0.269 OA
BRANCH  36  39
ATOM     39  C   UNL     1      -4.161  -2.934  13.632  1.00  0.00     0.039 A 
ATOM     40  C   UNL     1      -4.073  -3.155  15.009  1.00  0.00     0.014 A 
ATOM     41  C   UNL     1      -5.196  -2.188  13.115  1.00  0.00     0.014 A 
ATOM     42  C   UNL     1      -5.054  -2.585  15.818  1.00  0.00     0.010 A 
ATOM     43  C   UNL     1      -5.705  -1.246  13.935  1.00  0.00     0.010 A 
ATOM     44  C   UNL     1      -5.897  -1.636  15.237  1.00  0.00    -0.014 A 
BRANCH  44  45
ATOM     45  C   UNL     1      -6.981  -0.943  15.898  1.00  0.00     0.031 A 
ATOM     46  C   UNL     1      -6.537   0.002  16.936  1.00  0.00     0.074 A 
ATOM     47  C   UNL     1      -8.224  -0.899  15.365  1.00  0.00     0.049 A 
ATOM     48  N   UNL     1      -6.606  -0.158  18.212  1.00  0.00    -0.248 NA
ATOM     49  C   UNL     1      -5.746   1.169  16.517  1.00  0.00     0.031 C 
ATOM     50  C   UNL     1      -8.715  -1.445  14.090  1.00  0.00     0.029 A 
ATOM     51  N   UNL     1      -9.309  -0.226  15.829  1.00  0.00    -0.354 N 
ATOM     52  C   UNL     1      -6.075   1.003  18.758  1.00  0.00     0.074 A 
ATOM     53  C   UNL     1      -5.333   1.630  17.699  1.00  0.00     0.031 C 
ATOM     54  C   UNL     1      -9.914  -0.894  13.790  1.00  0.00     0.029 A 
ATOM     55  C   UNL     1     -10.344  -0.083  14.911  1.00  0.00     0.049 A 
ATOM     56  H   UNL     1      -9.358   0.133  16.744  1.00  0.00     0.167 HD
ATOM     57  C   UNL     1      -6.547   1.490  19.941  1.00  0.00     0.037 A 
ATOM     58  C   UNL     1     -11.427   0.718  15.076  1.00  0.00     0.037 A 
ATOM     59  C   UNL     1      -7.382   0.504  20.596  1.00  0.00     0.049 A 
ATOM     60  C   UNL     1     -11.526   1.011  16.538  1.00  0.00     0.074 A 
ATOM     61  C   UNL     1      -7.194  -0.809  20.991  1.00  0.00     0.029 A 
ATOM     62  N   UNL     1      -8.747   0.675  20.536  1.00  0.00    -0.354 N 
ATOM     63  N   UNL     1     -11.796   0.101  17.439  1.00  0.00    -0.248 NA
ATOM     64  C   UNL     1     -10.809   2.179  17.035  1.00  0.00     0.031 C 
ATOM     65  C   UNL     1      -8.404  -1.476  20.627  1.00  0.00     0.029 A 
ATOM     66  C   UNL     1      -9.289  -0.519  20.130  1.00  0.00     0.049 A 
ATOM     67  H   UNL     1      -9.242   1.499  20.745  1.00  0.00     0.167 HD
ATOM     68  C   UNL     1     -10.934   0.373  18.495  1.00  0.00     0.074 A 
ATOM     69  C   UNL     1     -10.395   1.702  18.213  1.00  0.00     0.031 C 
ATOM     70  C   UNL     1     -10.488  -0.617  19.327  1.00  0.00     0.037 A 
BRANCH  57  71
ATOM     71  C   UNL     1      -6.607   2.954  20.317  1.00  0.00     0.064 A 
ATOM     72  C   UNL     1      -7.069   3.288  21.607  1.00  0.00     0.173 A 
ATOM     73  C   UNL     1      -6.525   4.033  19.410  1.00  0.00     0.173 A 
ATOM     74  F   UNL     1      -7.172   2.351  22.561  1.00  0.00    -0.203 F 
ATOM     75  C   UNL     1      -7.532   4.568  21.920  1.00  0.00     0.198 A 
ATOM     76  C   UNL     1      -6.937   5.322  19.744  1.00  0.00     0.198 A 
ATOM     77  F   UNL     1      -6.151   3.886  18.137  1.00  0.00    -0.203 F 
ATOM     78  F   UNL     1      -8.099   4.794  23.112  1.00  0.00    -0.200 F 
ATOM     79  C   UNL     1      -7.479   5.581  20.983  1.00  0.00     0.200 A 
ATOM     80  F   UNL     1      -6.880   6.289  18.817  1.00  0.00    -0.200 F 
ATOM     81  F   UNL     1      -7.990   6.788  21.253  1.00  0.00    -0.200 F 
ENDBRANCH  57  71
BRANCH  58  82
ATOM     82  C   UNL     1     -12.143   1.498  14.035  1.00  0.00     0.064 A 
ATOM     83  C   UNL     1     -13.405   2.063  14.281  1.00  0.00     0.173 A 
ATOM     84  C   UNL     1     -11.495   1.920  12.854  1.00  0.00     0.173 A 
ATOM     85  F   UNL     1     -14.071   1.758  15.404  1.00  0.00    -0.203 F 
ATOM     86  C   UNL     1     -13.975   3.000  13.409  1.00  0.00     0.198 A 
ATOM     87  C   UNL     1     -12.068   2.847  11.982  1.00  0.00     0.198 A 
ATOM     88  F   UNL     1     -10.251   1.512  12.568  1.00  0.00    -0.203 F 
ATOM     89  F   UNL     1     -15.157   3.558  13.707  1.00  0.00    -0.200 F 
ATOM     90  C   UNL     1     -13.303   3.396  12.264  1.00  0.00     0.200 A 
ATOM     91  F   UNL     1     -11.388   3.247  10.898  1.00  0.00    -0.200 F 
ATOM     92  F   UNL     1     -13.824   4.332  11.458  1.00  0.00    -0.200 F 
ENDBRANCH  58  82
BRANCH  70  93
ATOM     93  C   UNL     1     -11.121  -1.980  19.238  1.00  0.00     0.064 A 
ATOM     94  C   UNL     1     -11.093  -2.790  18.090  1.00  0.00     0.173 A 
ATOM     95  C   UNL     1     -11.607  -2.561  20.418  1.00  0.00     0.173 A 
ATOM     96  F   UNL     1     -10.548  -2.353  16.950  1.00  0.00    -0.203 F 
ATOM     97  C   UNL     1     -11.564  -4.103  18.113  1.00  0.00     0.198 A 
ATOM     98  C   UNL     1     -12.042  -3.884  20.449  1.00  0.00     0.198 A 
ATOM     99  F   UNL     1     -11.606  -1.860  21.562  1.00  0.00    -0.203 F 
ATOM    100  F   UNL     1     -11.527  -4.850  17.000  1.00  0.00    -0.200 F 
ATOM    101  C   UNL     1     -12.029  -4.651  19.296  1.00  0.00     0.200 A 
ATOM    102  F   UNL     1     -12.441  -4.425  21.608  1.00  0.00    -0.200 F 
ATOM    103  F   UNL     1     -12.437  -5.928  19.332  1.00  0.00    -0.200 F 
ENDBRANCH  70  93
ENDBRANCH  44  45
ENDBRANCH  36  39
ENDBRANCH  34  35
ENDBRANCH   1  34
TORSDOF 14
