REMARK SMILES O=C(NCCCNC(=O)c1ccc(-c2c3nc(c(-c4c(F)c(F)c(F)c(F)c4F)c4ccc([nH]4)c(-c4c(F)c(F)c(F)c(F)c4F)c4nc(c(-c5c(F)c(F)c(F)c(F)c5F)c5ccc2[nH]5)C=C4)C=C3)cc1)C1=Cc2cc(Cl)cc(C#Cc3ccccc3)c2O[C@@H]1C(F)(F)F
REMARK SMILES IDX 5 1 4 2 3 3 1 4 2 5 73 7 74 8 91 9 75 10 90 11 76 12 89 13
REMARK SMILES IDX 77 14 80 15 78 16 79 17 92 18 93 19 94 20 95 21 81 22 82 23
REMARK SMILES IDX 83 24 84 25 88 26 85 27 87 28 86 29 6 30 7 31 8 32 9 34
REMARK SMILES IDX 10 35 11 36 72 37 12 38 71 39 13 40 14 41 15 42 65 43 16 44
REMARK SMILES IDX 70 45 64 46 66 47 17 48 69 49 63 50 62 51 18 53 50 54 30 55
REMARK SMILES IDX 49 56 31 57 34 58 48 59 67 60 32 61 33 62 47 64 68 65 35 66
REMARK SMILES IDX 19 67 20 68 28 69 21 70 22 71 26 72 29 73 23 74 24 75 27 76
REMARK SMILES IDX 25 77 51 78 52 79 60 80 53 81 54 82 58 83 61 84 55 85 56 86
REMARK SMILES IDX 59 87 57 88 36 89 37 90 45 91 38 92 39 93 43 94 46 95 40 96
REMARK SMILES IDX 41 97 44 98 42 99
REMARK H PARENT 3 6 7 33 66 52 34 63
REMARK Flexibility Score: inf
ROOT
ATOM      1  C   UNL     1       4.290   0.037   2.945  1.00  0.00     0.042 C 
ENDROOT
BRANCH   1   2
ATOM      2  C   UNL     1       3.654  -0.381   1.643  1.00  0.00     0.118 C 
BRANCH   2   3
ATOM      3  N   UNL     1       2.530   0.417   1.210  1.00  0.00    -0.352 N 
ATOM      4  O   UNL     1       1.126   1.315  -0.295  1.00  0.00    -0.270 OA
ATOM      5  C   UNL     1       2.251   0.891  -0.046  1.00  0.00     0.251 C 
ATOM      6  H   UNL     1       1.878   0.651   1.909  1.00  0.00     0.163 HD
BRANCH   5   7
ATOM      7  C   UNL     1       3.249   0.770  -1.153  1.00  0.00     0.067 C 
ATOM      8  C   UNL     1       4.512   1.207  -1.016  1.00  0.00     0.025 C 
ATOM      9  C   UNL     1       3.005  -0.430  -2.024  1.00  0.00     0.314 C 
ATOM     10  C   UNL     1       5.543   0.146  -1.029  1.00  0.00     0.020 A 
ATOM     11  O   UNL     1       3.895  -1.529  -1.692  1.00  0.00    -0.474 OA
ATOM     12  C   UNL     1       6.765   0.458  -0.413  1.00  0.00     0.032 A 
ATOM     13  C   UNL     1       5.119  -1.200  -1.149  1.00  0.00     0.143 A 
ATOM     14  C   UNL     1       7.505  -0.559   0.185  1.00  0.00     0.043 A 
ATOM     15  C   UNL     1       5.841  -2.201  -0.474  1.00  0.00     0.069 A 
ATOM     16  Cl  UNL     1       8.900  -0.161   1.113  1.00  0.00    -0.084 Cl
ATOM     17  C   UNL     1       7.038  -1.872   0.180  1.00  0.00     0.041 A 
BRANCH   9  18
ATOM     18  C   UNL     1       3.079   0.007  -3.501  1.00  0.00     0.429 C 
ATOM     19  F   UNL     1       2.712  -0.987  -4.339  1.00  0.00    -0.167 F 
ATOM     20  F   UNL     1       2.249   1.054  -3.745  1.00  0.00    -0.167 F 
ATOM     21  F   UNL     1       4.323   0.405  -3.865  1.00  0.00    -0.167 F 
ENDBRANCH   9  18
BRANCH  15  22
ATOM     22  C   UNL     1       5.286  -3.495  -0.162  1.00  0.00    -0.058 C 
ATOM     23  C   UNL     1       4.938  -4.557   0.280  1.00  0.00    -0.062 C 
BRANCH  23  24
ATOM     24  C   UNL     1       4.673  -5.846   0.860  1.00  0.00     0.025 A 
ATOM     25  C   UNL     1       3.929  -5.987   2.036  1.00  0.00     0.017 A 
ATOM     26  C   UNL     1       5.224  -6.981   0.258  1.00  0.00     0.017 A 
ATOM     27  C   UNL     1       3.728  -7.257   2.594  1.00  0.00     0.001 A 
ATOM     28  C   UNL     1       5.024  -8.246   0.815  1.00  0.00     0.001 A 
ATOM     29  C   UNL     1       4.273  -8.385   1.980  1.00  0.00     0.000 A 
ENDBRANCH  23  24
ENDBRANCH  15  22
ENDBRANCH   5   7
ENDBRANCH   2   3
ENDBRANCH   1   2
BRANCH   1  30
ATOM     30  C   UNL     1       4.135  -1.030   4.002  1.00  0.00     0.118 C 
BRANCH  30  31
ATOM     31  N   UNL     1       4.788  -2.298   3.668  1.00  0.00    -0.352 N 
ATOM     32  C   UNL     1       5.668  -3.064   4.397  1.00  0.00     0.251 C 
ATOM     33  H   UNL     1       4.560  -2.660   2.781  1.00  0.00     0.163 HD
ATOM     34  O   UNL     1       6.189  -4.053   3.892  1.00  0.00    -0.269 OA
BRANCH  32  35
ATOM     35  C   UNL     1       6.024  -2.663   5.773  1.00  0.00     0.039 A 
ATOM     36  C   UNL     1       7.332  -2.839   6.226  1.00  0.00     0.014 A 
ATOM     37  C   UNL     1       5.081  -2.049   6.592  1.00  0.00     0.014 A 
ATOM     38  C   UNL     1       7.701  -2.321   7.467  1.00  0.00     0.010 A 
ATOM     39  C   UNL     1       5.496  -1.361   7.715  1.00  0.00     0.010 A 
ATOM     40  C   UNL     1       6.796  -1.534   8.198  1.00  0.00    -0.014 A 
BRANCH  40  41
ATOM     41  C   UNL     1       7.152  -0.937   9.506  1.00  0.00     0.031 A 
ATOM     42  C   UNL     1       6.319  -1.260  10.720  1.00  0.00     0.074 A 
ATOM     43  C   UNL     1       8.175  -0.065   9.586  1.00  0.00     0.049 A 
ATOM     44  N   UNL     1       6.429  -0.812  11.944  1.00  0.00    -0.248 NA
ATOM     45  C   UNL     1       5.174  -2.169  10.526  1.00  0.00     0.031 C 
ATOM     46  C   UNL     1       8.995   0.388   8.460  1.00  0.00     0.029 A 
ATOM     47  N   UNL     1       8.702   0.594  10.665  1.00  0.00    -0.354 N 
ATOM     48  C   UNL     1       5.361  -1.362  12.642  1.00  0.00     0.074 A 
ATOM     49  C   UNL     1       4.558  -2.092  11.692  1.00  0.00     0.031 C 
ATOM     50  C   UNL     1       9.955   1.208   8.916  1.00  0.00     0.029 A 
ATOM     51  C   UNL     1       9.790   1.373  10.356  1.00  0.00     0.049 A 
ATOM     52  H   UNL     1       8.335   0.517  11.576  1.00  0.00     0.167 HD
ATOM     53  C   UNL     1       5.097  -1.304  13.968  1.00  0.00     0.037 A 
ATOM     54  C   UNL     1      10.567   2.129  11.153  1.00  0.00     0.037 A 
ATOM     55  C   UNL     1       5.929  -0.608  14.909  1.00  0.00     0.049 A 
ATOM     56  C   UNL     1      10.272   2.157  12.628  1.00  0.00     0.074 A 
ATOM     57  C   UNL     1       5.806  -0.538  16.284  1.00  0.00     0.029 A 
ATOM     58  N   UNL     1       7.044   0.144  14.564  1.00  0.00    -0.354 N 
ATOM     59  N   UNL     1       9.312   1.560  13.294  1.00  0.00    -0.248 NA
ATOM     60  C   UNL     1      11.178   2.952  13.465  1.00  0.00     0.031 C 
ATOM     61  C   UNL     1       6.808   0.311  16.765  1.00  0.00     0.029 A 
ATOM     62  C   UNL     1       7.603   0.706  15.699  1.00  0.00     0.049 A 
ATOM     63  H   UNL     1       7.387   0.260  13.649  1.00  0.00     0.167 HD
ATOM     64  C   UNL     1       9.516   1.880  14.630  1.00  0.00     0.074 A 
ATOM     65  C   UNL     1      10.706   2.706  14.678  1.00  0.00     0.031 C 
ATOM     66  C   UNL     1       8.789   1.526  15.719  1.00  0.00     0.037 A 
BRANCH  53  67
ATOM     67  C   UNL     1       3.868  -2.014  14.465  1.00  0.00     0.064 A 
ATOM     68  C   UNL     1       3.741  -3.412  14.409  1.00  0.00     0.173 A 
ATOM     69  C   UNL     1       2.801  -1.286  15.012  1.00  0.00     0.173 A 
ATOM     70  F   UNL     1       4.722  -4.160  13.879  1.00  0.00    -0.203 F 
ATOM     71  C   UNL     1       2.579  -4.048  14.840  1.00  0.00     0.198 A 
ATOM     72  C   UNL     1       1.658  -1.928  15.481  1.00  0.00     0.198 A 
ATOM     73  F   UNL     1       2.865   0.052  15.091  1.00  0.00    -0.203 F 
ATOM     74  F   UNL     1       2.455  -5.375  14.707  1.00  0.00    -0.200 F 
ATOM     75  C   UNL     1       1.543  -3.306  15.384  1.00  0.00     0.200 A 
ATOM     76  F   UNL     1       0.662  -1.210  16.019  1.00  0.00    -0.200 F 
ATOM     77  F   UNL     1       0.427  -3.918  15.805  1.00  0.00    -0.200 F 
ENDBRANCH  53  67
BRANCH  54  78
ATOM     78  C   UNL     1      11.715   2.879  10.578  1.00  0.00     0.064 A 
ATOM     79  C   UNL     1      13.038   2.527  10.884  1.00  0.00     0.173 A 
ATOM     80  C   UNL     1      11.516   3.960   9.706  1.00  0.00     0.173 A 
ATOM     81  F   UNL     1      13.282   1.510  11.723  1.00  0.00    -0.203 F 
ATOM     82  C   UNL     1      14.114   3.244  10.364  1.00  0.00     0.198 A 
ATOM     83  C   UNL     1      12.594   4.654   9.159  1.00  0.00     0.198 A 
ATOM     84  F   UNL     1      10.272   4.332   9.370  1.00  0.00    -0.203 F 
ATOM     85  F   UNL     1      15.365   2.917  10.716  1.00  0.00    -0.200 F 
ATOM     86  C   UNL     1      13.892   4.302   9.497  1.00  0.00     0.200 A 
ATOM     87  F   UNL     1      12.374   5.663   8.306  1.00  0.00    -0.200 F 
ATOM     88  F   UNL     1      14.927   4.987   8.993  1.00  0.00    -0.200 F 
ENDBRANCH  54  78
BRANCH  66  89
ATOM     89  C   UNL     1       9.288   1.994  17.056  1.00  0.00     0.064 A 
ATOM     90  C   UNL     1       9.272   3.349  17.421  1.00  0.00     0.173 A 
ATOM     91  C   UNL     1       9.773   1.068  17.992  1.00  0.00     0.173 A 
ATOM     92  F   UNL     1       8.826   4.276  16.559  1.00  0.00    -0.203 F 
ATOM     93  C   UNL     1       9.768   3.763  18.654  1.00  0.00     0.198 A 
ATOM     94  C   UNL     1      10.228   1.481  19.240  1.00  0.00     0.198 A 
ATOM     95  F   UNL     1       9.797  -0.241  17.700  1.00  0.00    -0.203 F 
ATOM     96  F   UNL     1       9.812   5.069  18.951  1.00  0.00    -0.200 F 
ATOM     97  C   UNL     1      10.239   2.828  19.564  1.00  0.00     0.200 A 
ATOM     98  F   UNL     1      10.661   0.574  20.127  1.00  0.00    -0.200 F 
ATOM     99  F   UNL     1      10.714   3.229  20.751  1.00  0.00    -0.200 F 
ENDBRANCH  66  89
ENDBRANCH  40  41
ENDBRANCH  32  35
ENDBRANCH  30  31
ENDBRANCH   1  30
TORSDOF 13
