REMARK SMILES CCc1ccnc(C(=O)c2[nH]c3ccc(OC(F)(F)F)cc3c2CC(=O)NCCCNC(=O)c2ccc(-c3c4nc(c(-c5c(F)c(F)c(F)c(F)c5F)c5ccc([nH]5)c(-c5c(F)c(F)c(F)c(F)c5F)c5nc(c(-c6c(F)c(F)c(F)c(F)c6F)c6ccc3[nH]6)C=C5)C=C4)cc2)c1
REMARK SMILES IDX 28 1 27 2 25 3 26 4 24 6 23 7 10 8 11 9 12 10 22 12 13 13
REMARK SMILES IDX 21 14 14 15 15 16 8 17 9 18 7 19 3 20 4 21 97 22 5 23 6 24
REMARK SMILES IDX 2 25 1 26 16 27 17 28 18 29 19 30 20 31 29 32 30 33 31 34
REMARK SMILES IDX 32 35 33 37 34 38 35 39 96 40 36 41 95 42 37 43 38 44 39 45
REMARK SMILES IDX 89 46 40 47 94 48 88 49 90 50 41 51 93 52 87 53 86 54 42 56
REMARK SMILES IDX 74 57 54 58 73 59 55 60 58 61 72 62 91 63 56 64 57 65 71 67
REMARK SMILES IDX 92 68 59 69 43 70 44 71 52 72 45 73 46 74 50 75 53 76 47 77
REMARK SMILES IDX 48 78 51 79 49 80 75 81 76 82 84 83 77 84 78 85 82 86 85 87
REMARK SMILES IDX 79 88 80 89 83 90 81 91 60 92 61 93 69 94 62 95 63 96 67 97
REMARK SMILES IDX 70 98 64 99 65 100 68 101 66 102
REMARK H PARENT 27 5 11 11 31 36 90 55 58 66
REMARK Flexibility Score: inf
ROOT
ATOM      1  C   UNL     1       0.726   8.463   2.394  1.00  0.00     0.117 C 
ENDROOT
BRANCH   1   2
ATOM      2  N   UNL     1       1.512   7.732   3.368  1.00  0.00    -0.356 N 
ATOM      3  C   UNL     1       2.146   6.528   3.252  1.00  0.00     0.224 C 
ATOM      4  O   UNL     1       2.869   6.165   4.182  1.00  0.00    -0.275 OA
ATOM      5  H   UNL     1       1.603   8.169   4.245  1.00  0.00     0.163 HD
BRANCH   3   6
ATOM      6  C   UNL     1       2.045   5.708   1.976  1.00  0.00     0.138 C 
BRANCH   6   7
ATOM      7  C   UNL     1       0.677   5.155   1.699  1.00  0.00    -0.002 A 
ATOM      8  C   UNL     1      -0.052   4.267   2.483  1.00  0.00     0.093 A 
ATOM      9  N   UNL     1      -1.292   4.126   1.905  1.00  0.00    -0.352 N 
ATOM     10  C   UNL     1      -1.329   4.753   0.686  1.00  0.00     0.046 A 
ATOM     11  H   UNL     1      -2.047   3.642   2.310  1.00  0.00     0.167 HD
ATOM     12  C   UNL     1      -0.110   5.405   0.523  1.00  0.00     0.008 A 
ATOM     13  C   UNL     1      -2.347   4.801  -0.270  1.00  0.00     0.030 A 
ATOM     14  C   UNL     1       0.096   6.141  -0.662  1.00  0.00     0.057 A 
ATOM     15  C   UNL     1      -2.113   5.537  -1.438  1.00  0.00     0.049 A 
ATOM     16  C   UNL     1      -0.907   6.205  -1.641  1.00  0.00     0.130 A 
BRANCH   8  17
ATOM     17  C   UNL     1       0.307   3.613   3.731  1.00  0.00     0.227 C 
ATOM     18  O   UNL     1       0.209   4.197   4.795  1.00  0.00    -0.285 OA
BRANCH  17  19
ATOM     19  C   UNL     1       0.726   2.157   3.663  1.00  0.00     0.113 A 
ATOM     20  C   UNL     1       0.918   0.039   2.512  1.00  0.00    -0.044 A 
ATOM     21  C   UNL     1       1.408  -0.502   3.702  1.00  0.00     0.024 A 
ATOM     22  C   UNL     1       0.578   1.398   2.499  1.00  0.00     0.036 A 
ATOM     23  C   UNL     1       1.538   0.322   4.809  1.00  0.00     0.112 A 
ATOM     24  N   UNL     1       1.199   1.627   4.819  1.00  0.00    -0.253 NA
BRANCH  20  25
ATOM     25  C   UNL     1       0.687  -0.847   1.312  1.00  0.00     0.032 C 
ATOM     26  C   UNL     1       1.229  -0.290   0.002  1.00  0.00     0.009 C 
ENDBRANCH  20  25
ENDBRANCH  17  19
ENDBRANCH   8  17
BRANCH  16  27
ATOM     27  O   UNL     1      -0.567   6.953  -2.733  1.00  0.00    -0.406 OA
BRANCH  27  28
ATOM     28  C   UNL     1      -1.517   7.068  -3.779  1.00  0.00     0.573 C 
ATOM     29  F   UNL     1      -1.808   5.860  -4.307  1.00  0.00    -0.132 F 
ATOM     30  F   UNL     1      -2.652   7.655  -3.342  1.00  0.00    -0.132 F 
ATOM     31  F   UNL     1      -0.994   7.840  -4.756  1.00  0.00    -0.132 F 
ENDBRANCH  27  28
ENDBRANCH  16  27
ENDBRANCH   6   7
ENDBRANCH   3   6
ENDBRANCH   1   2
BRANCH   1  32
ATOM     32  C   UNL     1      -0.780   8.304   2.590  1.00  0.00     0.042 C 
BRANCH  32  33
ATOM     33  C   UNL     1      -1.327   8.893   3.887  1.00  0.00     0.118 C 
BRANCH  33  34
ATOM     34  N   UNL     1      -1.257  10.345   3.922  1.00  0.00    -0.352 N 
ATOM     35  C   UNL     1      -2.234  11.286   4.131  1.00  0.00     0.251 C 
ATOM     36  H   UNL     1      -0.358  10.716   3.770  1.00  0.00     0.163 HD
ATOM     37  O   UNL     1      -1.966  12.471   3.961  1.00  0.00    -0.269 OA
BRANCH  35  38
ATOM     38  C   UNL     1      -3.609  10.909   4.541  1.00  0.00     0.039 A 
ATOM     39  C   UNL     1      -4.681  11.629   3.997  1.00  0.00     0.014 A 
ATOM     40  C   UNL     1      -3.857   9.927   5.503  1.00  0.00     0.014 A 
ATOM     41  C   UNL     1      -5.994  11.335   4.377  1.00  0.00     0.010 A 
ATOM     42  C   UNL     1      -5.171   9.602   5.850  1.00  0.00     0.010 A 
ATOM     43  C   UNL     1      -6.250  10.305   5.293  1.00  0.00    -0.014 A 
BRANCH  43  44
ATOM     44  C   UNL     1      -7.640   9.960   5.685  1.00  0.00     0.031 A 
ATOM     45  C   UNL     1      -8.138  10.268   7.068  1.00  0.00     0.074 A 
ATOM     46  C   UNL     1      -8.441   9.321   4.813  1.00  0.00     0.049 A 
ATOM     47  N   UNL     1      -9.285   9.963   7.621  1.00  0.00    -0.248 NA
ATOM     48  C   UNL     1      -7.218  10.998   7.952  1.00  0.00     0.031 C 
ATOM     49  C   UNL     1      -8.072   8.938   3.450  1.00  0.00     0.029 A 
ATOM     50  N   UNL     1      -9.729   8.868   4.951  1.00  0.00    -0.354 N 
ATOM     51  C   UNL     1      -9.214  10.434   8.924  1.00  0.00     0.074 A 
ATOM     52  C   UNL     1      -7.907  11.039   9.084  1.00  0.00     0.031 C 
ATOM     53  C   UNL     1      -9.112   8.312   2.875  1.00  0.00     0.029 A 
ATOM     54  C   UNL     1     -10.209   8.230   3.835  1.00  0.00     0.049 A 
ATOM     55  H   UNL     1     -10.258   8.990   5.772  1.00  0.00     0.167 HD
ATOM     56  C   UNL     1     -10.152  10.372   9.898  1.00  0.00     0.037 A 
ATOM     57  C   UNL     1     -11.397   7.637   3.613  1.00  0.00     0.037 A 
ATOM     58  C   UNL     1     -11.468   9.813   9.736  1.00  0.00     0.049 A 
ATOM     59  C   UNL     1     -12.439   7.623   4.694  1.00  0.00     0.074 A 
ATOM     60  C   UNL     1     -12.505   9.763  10.652  1.00  0.00     0.029 A 
ATOM     61  N   UNL     1     -11.930   9.212   8.577  1.00  0.00    -0.354 N 
ATOM     62  N   UNL     1     -12.369   8.098   5.912  1.00  0.00    -0.248 NA
ATOM     63  C   UNL     1     -13.726   6.992   4.367  1.00  0.00     0.031 C 
ATOM     64  C   UNL     1     -13.591   9.117  10.051  1.00  0.00     0.029 A 
ATOM     65  C   UNL     1     -13.235   8.781   8.755  1.00  0.00     0.049 A 
ATOM     66  H   UNL     1     -11.408   9.107   7.748  1.00  0.00     0.167 HD
ATOM     67  C   UNL     1     -13.599   7.832   6.495  1.00  0.00     0.074 A 
ATOM     68  C   UNL     1     -14.403   7.162   5.494  1.00  0.00     0.031 C 
ATOM     69  C   UNL     1     -14.021   8.117   7.750  1.00  0.00     0.037 A 
BRANCH  56  70
ATOM     70  C   UNL     1      -9.782  10.923  11.240  1.00  0.00     0.064 A 
ATOM     71  C   UNL     1      -9.785  12.300  11.491  1.00  0.00     0.173 A 
ATOM     72  C   UNL     1      -9.447  10.059  12.291  1.00  0.00     0.173 A 
ATOM     73  F   UNL     1     -10.087  13.160  10.511  1.00  0.00    -0.203 F 
ATOM     74  C   UNL     1      -9.448  12.796  12.747  1.00  0.00     0.198 A 
ATOM     75  C   UNL     1      -9.125  10.559  13.550  1.00  0.00     0.198 A 
ATOM     76  F   UNL     1      -9.433   8.736  12.097  1.00  0.00    -0.203 F 
ATOM     77  F   UNL     1      -9.427  14.115  12.959  1.00  0.00    -0.200 F 
ATOM     78  C   UNL     1      -9.122  11.925  13.775  1.00  0.00     0.200 A 
ATOM     79  F   UNL     1      -8.815   9.719  14.543  1.00  0.00    -0.200 F 
ATOM     80  F   UNL     1      -8.797  12.405  14.983  1.00  0.00    -0.200 F 
ENDBRANCH  56  70
BRANCH  57  81
ATOM     81  C   UNL     1     -11.664   7.015   2.295  1.00  0.00     0.064 A 
ATOM     82  C   UNL     1     -12.448   7.673   1.340  1.00  0.00     0.173 A 
ATOM     83  C   UNL     1     -11.122   5.768   1.960  1.00  0.00     0.173 A 
ATOM     84  F   UNL     1     -12.999   8.857   1.630  1.00  0.00    -0.203 F 
ATOM     85  C   UNL     1     -12.683   7.102   0.092  1.00  0.00     0.198 A 
ATOM     86  C   UNL     1     -11.347   5.205   0.706  1.00  0.00     0.198 A 
ATOM     87  F   UNL     1     -10.366   5.107   2.844  1.00  0.00    -0.203 F 
ATOM     88  F   UNL     1     -13.450   7.739  -0.799  1.00  0.00    -0.200 F 
ATOM     89  C   UNL     1     -12.129   5.872  -0.225  1.00  0.00     0.200 A 
ATOM     90  F   UNL     1     -10.806   4.021   0.400  1.00  0.00    -0.200 F 
ATOM     91  F   UNL     1     -12.350   5.326  -1.429  1.00  0.00    -0.200 F 
ENDBRANCH  57  81
BRANCH  69  92
ATOM     92  C   UNL     1     -15.418   7.715   8.108  1.00  0.00     0.064 A 
ATOM     93  C   UNL     1     -15.721   6.396   8.471  1.00  0.00     0.173 A 
ATOM     94  C   UNL     1     -16.450   8.661   8.121  1.00  0.00     0.173 A 
ATOM     95  F   UNL     1     -14.767   5.457   8.456  1.00  0.00    -0.203 F 
ATOM     96  C   UNL     1     -17.018   6.037   8.827  1.00  0.00     0.198 A 
ATOM     97  C   UNL     1     -17.743   8.300   8.490  1.00  0.00     0.198 A 
ATOM     98  F   UNL     1     -16.204   9.932   7.779  1.00  0.00    -0.203 F 
ATOM     99  F   UNL     1     -17.294   4.768   9.147  1.00  0.00    -0.200 F 
ATOM    100  C   UNL     1     -18.025   6.989   8.840  1.00  0.00     0.200 A 
ATOM    101  F   UNL     1     -18.715   9.219   8.502  1.00  0.00    -0.200 F 
ATOM    102  F   UNL     1     -19.273   6.640   9.183  1.00  0.00    -0.200 F 
ENDBRANCH  69  92
ENDBRANCH  43  44
ENDBRANCH  35  38
ENDBRANCH  33  34
ENDBRANCH  32  33
ENDBRANCH   1  32
TORSDOF 16
