REMARK SMILES C[C@H](c1ccncc1)N1C[C@H](C(=O)NCCCNC(=O)c2ccc(-c3c4nc(c(-c5c(F)c(F)c(F)c(F)c5F)c5ccc([nH]5)c(-c5c(F)c(F)c(F)c(F)c5F)c5nc(c(-c6c(F)c(F)c(F)c(F)c6F)c6ccc3[nH]6)C=C5)C=C4)cc2)CC1=O
REMARK SMILES IDX 16 1 15 2 14 3 12 4 13 5 11 7 9 8 10 9 85 10 84 11 86 12
REMARK SMILES IDX 2 13 1 14 3 15 4 16 8 17 5 18 7 19 6 20 17 21 18 22 19 23
REMARK SMILES IDX 20 25 21 26 22 27 83 28 23 29 82 30 24 31 25 32 26 33 76 34
REMARK SMILES IDX 27 35 81 36 75 37 77 38 28 39 80 40 74 41 73 42 29 44 61 45
REMARK SMILES IDX 41 46 60 47 42 48 45 49 59 50 78 51 43 52 44 53 58 55 79 56
REMARK SMILES IDX 46 57 30 58 31 59 39 60 32 61 33 62 37 63 40 64 34 65 35 66
REMARK SMILES IDX 38 67 36 68 62 69 63 70 71 71 64 72 65 73 69 74 72 75 66 76
REMARK SMILES IDX 67 77 70 78 68 79 47 80 48 81 56 82 49 83 50 84 54 85 57 86
REMARK SMILES IDX 51 87 52 88 55 89 53 90
REMARK H PARENT 14 6 18 24 77 43 45 54
REMARK Flexibility Score: inf
ROOT
ATOM      1  C   UNL     1      -6.685   1.410  -2.705  1.00  0.00     0.042 C 
ENDROOT
BRANCH   1   2
ATOM      2  C   UNL     1      -5.854   0.171  -2.402  1.00  0.00     0.117 C 
BRANCH   2   3
ATOM      3  N   UNL     1      -4.619   0.145  -3.162  1.00  0.00    -0.356 N 
ATOM      4  C   UNL     1      -3.328   0.207  -2.736  1.00  0.00     0.225 C 
ATOM      5  O   UNL     1      -2.439   0.159  -3.585  1.00  0.00    -0.275 OA
ATOM      6  H   UNL     1      -4.732   0.071  -4.138  1.00  0.00     0.163 HD
BRANCH   4   7
ATOM      7  C   UNL     1      -3.040   0.351  -1.253  1.00  0.00     0.107 C 
ATOM      8  N   UNL     1      -0.807   0.973  -0.867  1.00  0.00    -0.335 N 
ATOM      9  C   UNL     1      -1.665  -0.184  -0.909  1.00  0.00     0.134 C 
ATOM     10  C   UNL     1      -1.527   2.155  -0.873  1.00  0.00     0.223 C 
ATOM     11  C   UNL     1      -2.999   1.821  -0.851  1.00  0.00     0.115 C 
ATOM     12  O   UNL     1      -1.071   3.289  -0.856  1.00  0.00    -0.275 OA
BRANCH   8  13
ATOM     13  C   UNL     1       0.653   0.910  -0.969  1.00  0.00     0.112 C 
ATOM     14  C   UNL     1       1.090   0.774  -2.430  1.00  0.00     0.036 C 
BRANCH  13  15
ATOM     15  C   UNL     1       1.267  -0.152  -0.070  1.00  0.00    -0.023 A 
ATOM     16  C   UNL     1       1.150  -1.524  -0.330  1.00  0.00     0.026 A 
ATOM     17  C   UNL     1       1.974   0.230   1.076  1.00  0.00     0.026 A 
ATOM     18  C   UNL     1       1.692  -2.432   0.567  1.00  0.00     0.111 A 
ATOM     19  C   UNL     1       2.505  -0.752   1.899  1.00  0.00     0.111 A 
ATOM     20  N   UNL     1       2.368  -2.076   1.677  1.00  0.00    -0.265 NA
ENDBRANCH  13  15
ENDBRANCH   8  13
ENDBRANCH   4   7
ENDBRANCH   2   3
ENDBRANCH   1   2
BRANCH   1  21
ATOM     21  C   UNL     1      -7.120   1.534  -4.162  1.00  0.00     0.118 C 
BRANCH  21  22
ATOM     22  N   UNL     1      -7.933   0.412  -4.608  1.00  0.00    -0.352 N 
ATOM     23  C   UNL     1      -9.209   0.372  -5.109  1.00  0.00     0.251 C 
ATOM     24  H   UNL     1      -7.493  -0.466  -4.539  1.00  0.00     0.163 HD
ATOM     25  O   UNL     1      -9.763  -0.715  -5.252  1.00  0.00    -0.269 OA
BRANCH  23  26
ATOM     26  C   UNL     1      -9.936   1.614  -5.454  1.00  0.00     0.039 A 
ATOM     27  C   UNL     1     -11.304   1.679  -5.178  1.00  0.00     0.014 A 
ATOM     28  C   UNL     1      -9.302   2.695  -6.072  1.00  0.00     0.014 A 
ATOM     29  C   UNL     1     -12.015   2.847  -5.458  1.00  0.00     0.010 A 
ATOM     30  C   UNL     1      -9.991   3.892  -6.267  1.00  0.00     0.010 A 
ATOM     31  C   UNL     1     -11.356   3.981  -5.963  1.00  0.00    -0.014 A 
BRANCH  31  32
ATOM     32  C   UNL     1     -12.090   5.262  -6.137  1.00  0.00     0.031 A 
ATOM     33  C   UNL     1     -12.264   5.879  -7.497  1.00  0.00     0.074 A 
ATOM     34  C   UNL     1     -12.581   5.886  -5.049  1.00  0.00     0.049 A 
ATOM     35  N   UNL     1     -12.905   6.972  -7.833  1.00  0.00    -0.248 NA
ATOM     36  C   UNL     1     -11.617   5.195  -8.627  1.00  0.00     0.031 C 
ATOM     37  C   UNL     1     -12.421   5.424  -3.668  1.00  0.00     0.029 A 
ATOM     38  N   UNL     1     -13.319   7.037  -4.929  1.00  0.00    -0.354 N 
ATOM     39  C   UNL     1     -12.737   7.105  -9.205  1.00  0.00     0.074 A 
ATOM     40  C   UNL     1     -11.883   6.018  -9.631  1.00  0.00     0.031 C 
ATOM     41  C   UNL     1     -13.078   6.256  -2.846  1.00  0.00     0.029 A 
ATOM     42  C   UNL     1     -13.671   7.332  -3.634  1.00  0.00     0.049 A 
ATOM     43  H   UNL     1     -13.571   7.598  -5.697  1.00  0.00     0.167 HD
ATOM     44  C   UNL     1     -13.268   8.035 -10.037  1.00  0.00     0.037 A 
ATOM     45  C   UNL     1     -14.393   8.353  -3.136  1.00  0.00     0.037 A 
ATOM     46  C   UNL     1     -14.122   9.114  -9.608  1.00  0.00     0.049 A 
ATOM     47  C   UNL     1     -14.967   9.371  -4.082  1.00  0.00     0.074 A 
ATOM     48  C   UNL     1     -14.754  10.074 -10.380  1.00  0.00     0.029 A 
ATOM     49  N   UNL     1     -14.456   9.383  -8.288  1.00  0.00    -0.354 N 
ATOM     50  N   UNL     1     -14.874   9.437  -5.388  1.00  0.00    -0.248 NA
ATOM     51  C   UNL     1     -15.761  10.451  -3.482  1.00  0.00     0.031 C 
ATOM     52  C   UNL     1     -15.420  10.958  -9.524  1.00  0.00     0.029 A 
ATOM     53  C   UNL     1     -15.261  10.511  -8.222  1.00  0.00     0.049 A 
ATOM     54  H   UNL     1     -14.165   8.851  -7.513  1.00  0.00     0.167 HD
ATOM     55  C   UNL     1     -15.613  10.549  -5.768  1.00  0.00     0.074 A 
ATOM     56  C   UNL     1     -16.176  11.107  -4.556  1.00  0.00     0.031 C 
ATOM     57  C   UNL     1     -15.805  11.066  -7.008  1.00  0.00     0.037 A 
BRANCH  44  58
ATOM     58  C   UNL     1     -12.940   7.927 -11.500  1.00  0.00     0.064 A 
ATOM     59  C   UNL     1     -13.425   6.872 -12.290  1.00  0.00     0.173 A 
ATOM     60  C   UNL     1     -12.166   8.913 -12.133  1.00  0.00     0.173 A 
ATOM     61  F   UNL     1     -14.161   5.897 -11.736  1.00  0.00    -0.203 F 
ATOM     62  C   UNL     1     -13.122   6.793 -13.647  1.00  0.00     0.198 A 
ATOM     63  C   UNL     1     -11.895   8.848 -13.497  1.00  0.00     0.198 A 
ATOM     64  F   UNL     1     -11.682   9.947 -11.429  1.00  0.00    -0.203 F 
ATOM     65  F   UNL     1     -13.554   5.748 -14.368  1.00  0.00    -0.200 F 
ATOM     66  C   UNL     1     -12.365   7.784 -14.251  1.00  0.00     0.200 A 
ATOM     67  F   UNL     1     -11.176   9.816 -14.083  1.00  0.00    -0.200 F 
ATOM     68  F   UNL     1     -12.084   7.712 -15.560  1.00  0.00    -0.200 F 
ENDBRANCH  44  58
BRANCH  45  69
ATOM     69  C   UNL     1     -14.639   8.447  -1.673  1.00  0.00     0.064 A 
ATOM     70  C   UNL     1     -15.926   8.278  -1.143  1.00  0.00     0.173 A 
ATOM     71  C   UNL     1     -13.596   8.718  -0.775  1.00  0.00     0.173 A 
ATOM     72  F   UNL     1     -16.961   8.035  -1.962  1.00  0.00    -0.203 F 
ATOM     73  C   UNL     1     -16.166   8.404   0.224  1.00  0.00     0.198 A 
ATOM     74  C   UNL     1     -13.831   8.809   0.596  1.00  0.00     0.198 A 
ATOM     75  F   UNL     1     -12.344   8.880  -1.228  1.00  0.00    -0.203 F 
ATOM     76  F   UNL     1     -17.415   8.293   0.695  1.00  0.00    -0.200 F 
ATOM     77  C   UNL     1     -15.117   8.664   1.092  1.00  0.00     0.200 A 
ATOM     78  F   UNL     1     -12.811   9.041   1.433  1.00  0.00    -0.200 F 
ATOM     79  F   UNL     1     -15.347   8.781   2.407  1.00  0.00    -0.200 F 
ENDBRANCH  45  69
BRANCH  57  80
ATOM     80  C   UNL     1     -16.682  12.283  -7.108  1.00  0.00     0.064 A 
ATOM     81  C   UNL     1     -16.291  13.523  -6.577  1.00  0.00     0.173 A 
ATOM     82  C   UNL     1     -17.937  12.208  -7.734  1.00  0.00     0.173 A 
ATOM     83  F   UNL     1     -15.108  13.648  -5.957  1.00  0.00    -0.203 F 
ATOM     84  C   UNL     1     -17.143  14.623  -6.621  1.00  0.00     0.198 A 
ATOM     85  C   UNL     1     -18.769  13.321  -7.811  1.00  0.00     0.198 A 
ATOM     86  F   UNL     1     -18.358  11.052  -8.268  1.00  0.00    -0.203 F 
ATOM     87  F   UNL     1     -16.779  15.773  -6.035  1.00  0.00    -0.200 F 
ATOM     88  C   UNL     1     -18.379  14.523  -7.241  1.00  0.00     0.200 A 
ATOM     89  F   UNL     1     -19.956  13.227  -8.426  1.00  0.00    -0.200 F 
ATOM     90  F   UNL     1     -19.200  15.581  -7.276  1.00  0.00    -0.200 F 
ENDBRANCH  57  80
ENDBRANCH  31  32
ENDBRANCH  23  26
ENDBRANCH  21  22
ENDBRANCH   1  21
TORSDOF 12
