REMARK SMILES C[C@H]1CCCC/C1=C\C(=O)NCCCNC(=O)c1ccc(-c2c3nc(c(-c4c(F)c(F)c(F)c(F)c4F)c4ccc([nH]4)c(-c4c(F)c(F)c(F)c(F)c4F)c4nc(c(-c5c(F)c(F)c(F)c(F)c5F)c5ccc2[nH]5)C=C4)C=C3)cc1
REMARK SMILES IDX 14 1 13 2 12 3 11 4 9 5 10 6 8 8 1 9 2 10 3 11 7 12 4 13
REMARK SMILES IDX 6 14 5 15 15 16 16 17 17 19 18 20 19 21 80 22 20 23 79 24
REMARK SMILES IDX 21 25 22 26 23 27 73 28 24 29 78 30 72 31 74 32 25 33 77 34
REMARK SMILES IDX 71 35 70 36 26 38 58 39 38 40 57 41 39 42 42 43 56 44 75 45
REMARK SMILES IDX 40 46 41 47 55 49 76 50 43 51 27 52 28 53 36 54 29 55 30 56
REMARK SMILES IDX 34 57 37 58 31 59 32 60 35 61 33 62 59 63 60 64 68 65 61 66
REMARK SMILES IDX 62 67 66 68 69 69 63 70 64 71 67 72 65 73 44 74 45 75 53 76
REMARK SMILES IDX 46 77 47 78 51 79 54 80 48 81 49 82 52 83 50 84
REMARK H PARENT 11 7 15 18 74 37 42 48
REMARK Flexibility Score: inf
ROOT
ATOM      1  C   UNL     1      -5.765   2.280   1.712  1.00  0.00     0.118 C 
ENDROOT
BRANCH   1   2
ATOM      2  C   UNL     1      -4.666   1.260   1.899  1.00  0.00     0.042 C 
BRANCH   2   3
ATOM      3  C   UNL     1      -3.299   1.752   1.497  1.00  0.00     0.118 C 
BRANCH   3   4
ATOM      4  N   UNL     1      -2.626   2.651   2.384  1.00  0.00    -0.352 N 
ATOM      5  C   UNL     1      -1.315   2.638   2.750  1.00  0.00     0.243 C 
ATOM      6  O   UNL     1      -0.913   3.549   3.477  1.00  0.00    -0.270 OA
ATOM      7  H   UNL     1      -3.177   3.365   2.777  1.00  0.00     0.163 HD
BRANCH   5   8
ATOM      8  C   UNL     1      -0.370   1.509   2.448  1.00  0.00     0.070 C 
ATOM      9  C   UNL     1       1.957  -0.345   2.736  1.00  0.00     0.012 C 
ATOM     10  C   UNL     1       0.963  -0.472   1.580  1.00  0.00     0.012 C 
ATOM     11  C   UNL     1       0.271  -1.850   1.619  1.00  0.00     0.008 C 
ATOM     12  C   UNL     1      -0.124   0.609   1.466  1.00  0.00    -0.062 C 
ATOM     13  C   UNL     1      -0.645  -2.089   0.412  1.00  0.00     0.001 C 
ATOM     14  C   UNL     1      -0.830   0.426   0.138  1.00  0.00     0.031 C 
ATOM     15  C   UNL     1      -1.585  -0.915   0.149  1.00  0.00     0.004 C 
ENDBRANCH   5   8
ENDBRANCH   3   4
ENDBRANCH   2   3
ENDBRANCH   1   2
BRANCH   1  16
ATOM     16  N   UNL     1      -5.973   2.662   0.316  1.00  0.00    -0.352 N 
ATOM     17  C   UNL     1      -6.915   2.292  -0.615  1.00  0.00     0.251 C 
ATOM     18  H   UNL     1      -5.312   3.308  -0.022  1.00  0.00     0.163 HD
ATOM     19  O   UNL     1      -6.773   2.642  -1.787  1.00  0.00    -0.269 OA
BRANCH  17  20
ATOM     20  C   UNL     1      -8.076   1.454  -0.244  1.00  0.00     0.039 A 
ATOM     21  C   UNL     1      -8.594   0.536  -1.165  1.00  0.00     0.014 A 
ATOM     22  C   UNL     1      -8.674   1.572   1.006  1.00  0.00     0.014 A 
ATOM     23  C   UNL     1      -9.643  -0.311  -0.791  1.00  0.00     0.010 A 
ATOM     24  C   UNL     1      -9.588   0.623   1.433  1.00  0.00     0.010 A 
ATOM     25  C   UNL     1     -10.115  -0.309   0.531  1.00  0.00    -0.014 A 
BRANCH  25  26
ATOM     26  C   UNL     1     -11.199  -1.212   0.996  1.00  0.00     0.031 A 
ATOM     27  C   UNL     1     -12.445  -0.623   1.610  1.00  0.00     0.074 A 
ATOM     28  C   UNL     1     -11.033  -2.548   0.953  1.00  0.00     0.049 A 
ATOM     29  N   UNL     1     -13.448  -1.224   2.199  1.00  0.00    -0.248 NA
ATOM     30  C   UNL     1     -12.553   0.847   1.609  1.00  0.00     0.031 C 
ATOM     31  C   UNL     1      -9.852  -3.242   0.436  1.00  0.00     0.029 A 
ATOM     32  N   UNL     1     -11.861  -3.564   1.359  1.00  0.00    -0.354 N 
ATOM     33  C   UNL     1     -14.277  -0.209   2.659  1.00  0.00     0.074 A 
ATOM     34  C   UNL     1     -13.621   1.044   2.365  1.00  0.00     0.031 C 
ATOM     35  C   UNL     1     -10.049  -4.567   0.517  1.00  0.00     0.029 A 
ATOM     36  C   UNL     1     -11.347  -4.818   1.136  1.00  0.00     0.049 A 
ATOM     37  H   UNL     1     -12.741  -3.409   1.773  1.00  0.00     0.167 HD
ATOM     38  C   UNL     1     -15.497  -0.306   3.238  1.00  0.00     0.037 A 
ATOM     39  C   UNL     1     -11.866  -6.031   1.403  1.00  0.00     0.037 A 
ATOM     40  C   UNL     1     -16.166  -1.554   3.487  1.00  0.00     0.049 A 
ATOM     41  C   UNL     1     -13.224  -6.115   2.048  1.00  0.00     0.074 A 
ATOM     42  C   UNL     1     -17.426  -1.769   4.013  1.00  0.00     0.029 A 
ATOM     43  N   UNL     1     -15.623  -2.803   3.219  1.00  0.00    -0.354 N 
ATOM     44  N   UNL     1     -14.028  -5.149   2.420  1.00  0.00    -0.248 NA
ATOM     45  C   UNL     1     -13.750  -7.463   2.303  1.00  0.00     0.031 C 
ATOM     46  C   UNL     1     -17.627  -3.150   4.109  1.00  0.00     0.029 A 
ATOM     47  C   UNL     1     -16.517  -3.794   3.585  1.00  0.00     0.049 A 
ATOM     48  H   UNL     1     -14.734  -2.960   2.826  1.00  0.00     0.167 HD
ATOM     49  C   UNL     1     -15.169  -5.768   2.914  1.00  0.00     0.074 A 
ATOM     50  C   UNL     1     -14.955  -7.195   2.784  1.00  0.00     0.031 C 
ATOM     51  C   UNL     1     -16.292  -5.209   3.428  1.00  0.00     0.037 A 
BRANCH  38  52
ATOM     52  C   UNL     1     -16.186   0.974   3.624  1.00  0.00     0.064 A 
ATOM     53  C   UNL     1     -16.625   1.897   2.660  1.00  0.00     0.173 A 
ATOM     54  C   UNL     1     -16.418   1.281   4.973  1.00  0.00     0.173 A 
ATOM     55  F   UNL     1     -16.416   1.661   1.355  1.00  0.00    -0.203 F 
ATOM     56  C   UNL     1     -17.226   3.096   3.033  1.00  0.00     0.198 A 
ATOM     57  C   UNL     1     -17.057   2.464   5.340  1.00  0.00     0.198 A 
ATOM     58  F   UNL     1     -16.026   0.436   5.938  1.00  0.00    -0.203 F 
ATOM     59  F   UNL     1     -17.570   3.990   2.095  1.00  0.00    -0.200 F 
ATOM     60  C   UNL     1     -17.448   3.375   4.372  1.00  0.00     0.200 A 
ATOM     61  F   UNL     1     -17.284   2.726   6.635  1.00  0.00    -0.200 F 
ATOM     62  F   UNL     1     -18.031   4.528   4.729  1.00  0.00    -0.200 F 
ENDBRANCH  38  52
BRANCH  39  63
ATOM     63  C   UNL     1     -11.124  -7.262   1.022  1.00  0.00     0.064 A 
ATOM     64  C   UNL     1     -11.603  -8.099   0.003  1.00  0.00     0.173 A 
ATOM     65  C   UNL     1      -9.935  -7.634   1.664  1.00  0.00     0.173 A 
ATOM     66  F   UNL     1     -12.746  -7.795  -0.630  1.00  0.00    -0.203 F 
ATOM     67  C   UNL     1     -10.936  -9.273  -0.341  1.00  0.00     0.198 A 
ATOM     68  C   UNL     1      -9.251  -8.793   1.298  1.00  0.00     0.198 A 
ATOM     69  F   UNL     1      -9.428  -6.866   2.639  1.00  0.00    -0.203 F 
ATOM     70  F   UNL     1     -11.444 -10.079  -1.282  1.00  0.00    -0.200 F 
ATOM     71  C   UNL     1      -9.757  -9.616   0.304  1.00  0.00     0.200 A 
ATOM     72  F   UNL     1      -8.103  -9.113   1.911  1.00  0.00    -0.200 F 
ATOM     73  F   UNL     1      -9.114 -10.744  -0.028  1.00  0.00    -0.200 F 
ENDBRANCH  39  63
BRANCH  51  74
ATOM     74  C   UNL     1     -17.400  -6.136   3.834  1.00  0.00     0.064 A 
ATOM     75  C   UNL     1     -17.295  -6.970   4.957  1.00  0.00     0.173 A 
ATOM     76  C   UNL     1     -18.603  -6.155   3.111  1.00  0.00     0.173 A 
ATOM     77  F   UNL     1     -16.162  -6.999   5.674  1.00  0.00    -0.203 F 
ATOM     78  C   UNL     1     -18.343  -7.812   5.322  1.00  0.00     0.198 A 
ATOM     79  C   UNL     1     -19.661  -6.972   3.500  1.00  0.00     0.198 A 
ATOM     80  F   UNL     1     -18.759  -5.370   2.035  1.00  0.00    -0.203 F 
ATOM     81  F   UNL     1     -18.200  -8.641   6.365  1.00  0.00    -0.200 F 
ATOM     82  C   UNL     1     -19.526  -7.806   4.599  1.00  0.00     0.200 A 
ATOM     83  F   UNL     1     -20.810  -6.950   2.811  1.00  0.00    -0.200 F 
ATOM     84  F   UNL     1     -20.536  -8.610   4.958  1.00  0.00    -0.200 F 
ENDBRANCH  51  74
ENDBRANCH  25  26
ENDBRANCH  17  20
ENDBRANCH   1  16
TORSDOF 10
