REMARK SMILES O=C(CCc1cncc([C@@H]2CN(c3ccccc3)CCO2)n1)NCCCNC(=O)c1ccc(-c2c3nc(c(-c4c(F)c(F)c(F)c(F)c4F)c4ccc([nH]4)c(-c4c(F)c(F)c(F)c(F)c4F)c4nc(c(-c5c(F)c(F)c(F)c(F)c5F)c5ccc2[nH]5)C=C4)C=C3)cc1
REMARK SMILES IDX 24 1 23 2 1 3 2 4 3 6 4 7 5 8 6 9 22 10 7 11 9 12 8 13 10 14
REMARK SMILES IDX 11 15 21 16 12 17 20 18 19 19 13 20 14 21 18 22 15 23 17 24
REMARK SMILES IDX 16 25 25 26 26 27 27 28 28 29 29 31 30 32 31 33 92 34 32 35
REMARK SMILES IDX 91 36 33 37 34 38 35 39 85 40 36 41 90 42 84 43 86 44 37 45
REMARK SMILES IDX 89 46 83 47 82 48 38 50 70 51 50 52 69 53 51 54 54 55 68 56
REMARK SMILES IDX 87 57 52 58 53 59 67 61 88 62 55 63 39 64 40 65 48 66 41 67
REMARK SMILES IDX 42 68 46 69 49 70 43 71 44 72 47 73 45 74 71 75 72 76 80 77
REMARK SMILES IDX 73 78 74 79 78 80 81 81 75 82 76 83 79 84 77 85 56 86 57 87
REMARK SMILES IDX 65 88 58 89 59 90 63 91 66 92 60 93 61 94 64 95 62 96
REMARK H PARENT 23 5 27 30 86 49 54 60
REMARK Flexibility Score: inf
ROOT
ATOM      1  C   UNL     1       1.802   1.761   1.701  1.00  0.00     0.117 C 
ENDROOT
BRANCH   1   2
ATOM      2  N   UNL     1       2.538   0.760   0.961  1.00  0.00    -0.356 N 
ATOM      3  O   UNL     1       0.782   0.051  -0.342  1.00  0.00    -0.275 OA
ATOM      4  C   UNL     1       1.975   0.029  -0.060  1.00  0.00     0.220 C 
ATOM      5  H   UNL     1       3.480   0.595   1.197  1.00  0.00     0.163 HD
BRANCH   4   6
ATOM      6  C   UNL     1       2.963  -0.834  -0.818  1.00  0.00     0.106 C 
BRANCH   6   7
ATOM      7  C   UNL     1       3.781  -0.024  -1.825  1.00  0.00     0.068 C 
BRANCH   7   8
ATOM      8  C   UNL     1       4.819   0.858  -1.179  1.00  0.00     0.060 A 
ATOM      9  C   UNL     1       5.966   0.319  -0.610  1.00  0.00     0.134 A 
ATOM     10  N   UNL     1       4.563   2.189  -1.108  1.00  0.00    -0.252 NA
ATOM     11  N   UNL     1       6.880   1.071   0.041  1.00  0.00    -0.261 NA
ATOM     12  C   UNL     1       5.505   2.975  -0.514  1.00  0.00     0.090 A 
ATOM     13  C   UNL     1       6.639   2.405   0.053  1.00  0.00     0.137 A 
BRANCH  12  14
ATOM     14  C   UNL     1       5.326   4.482  -0.499  1.00  0.00     0.188 C 
ATOM     15  C   UNL     1       3.872   4.883  -0.157  1.00  0.00     0.155 C 
ATOM     16  O   UNL     1       5.720   5.016  -1.786  1.00  0.00    -0.368 OA
ATOM     17  N   UNL     1       3.673   6.339  -0.267  1.00  0.00    -0.366 N 
ATOM     18  C   UNL     1       5.596   6.452  -1.798  1.00  0.00     0.182 C 
ATOM     19  C   UNL     1       4.150   6.911  -1.534  1.00  0.00     0.145 C 
BRANCH  17  20
ATOM     20  C   UNL     1       3.655   7.150   0.853  1.00  0.00     0.037 A 
ATOM     21  C   UNL     1       2.672   8.142   0.971  1.00  0.00     0.026 A 
ATOM     22  C   UNL     1       4.580   7.032   1.894  1.00  0.00     0.026 A 
ATOM     23  C   UNL     1       2.601   8.966   2.099  1.00  0.00     0.002 A 
ATOM     24  C   UNL     1       4.525   7.860   3.020  1.00  0.00     0.002 A 
ATOM     25  C   UNL     1       3.529   8.824   3.126  1.00  0.00     0.000 A 
ENDBRANCH  17  20
ENDBRANCH  12  14
ENDBRANCH   7   8
ENDBRANCH   6   7
ENDBRANCH   4   6
ENDBRANCH   1   2
BRANCH   1  26
ATOM     26  C   UNL     1       2.058   1.706   3.204  1.00  0.00     0.042 C 
BRANCH  26  27
ATOM     27  C   UNL     1       3.522   1.632   3.633  1.00  0.00     0.118 C 
BRANCH  27  28
ATOM     28  N   UNL     1       4.360   2.666   3.050  1.00  0.00    -0.352 N 
ATOM     29  C   UNL     1       5.345   3.421   3.629  1.00  0.00     0.251 C 
ATOM     30  H   UNL     1       4.195   2.851   2.097  1.00  0.00     0.163 HD
ATOM     31  O   UNL     1       5.982   4.228   2.954  1.00  0.00    -0.269 OA
BRANCH  29  32
ATOM     32  C   UNL     1       5.649   3.269   5.064  1.00  0.00     0.039 A 
ATOM     33  C   UNL     1       5.627   4.395   5.893  1.00  0.00     0.014 A 
ATOM     34  C   UNL     1       5.996   2.018   5.579  1.00  0.00     0.014 A 
ATOM     35  C   UNL     1       5.920   4.261   7.253  1.00  0.00     0.010 A 
ATOM     36  C   UNL     1       6.247   1.878   6.942  1.00  0.00     0.010 A 
ATOM     37  C   UNL     1       6.222   2.999   7.789  1.00  0.00    -0.014 A 
BRANCH  37  38
ATOM     38  C   UNL     1       6.555   2.824   9.225  1.00  0.00     0.031 A 
ATOM     39  C   UNL     1       7.956   2.453   9.623  1.00  0.00     0.074 A 
ATOM     40  C   UNL     1       5.590   2.919  10.158  1.00  0.00     0.049 A 
ATOM     41  N   UNL     1       8.427   2.124  10.800  1.00  0.00    -0.248 NA
ATOM     42  C   UNL     1       8.957   2.426   8.546  1.00  0.00     0.031 C 
ATOM     43  C   UNL     1       4.189   3.247   9.895  1.00  0.00     0.029 A 
ATOM     44  N   UNL     1       5.640   2.727  11.517  1.00  0.00    -0.354 N 
ATOM     45  C   UNL     1       9.767   1.824  10.599  1.00  0.00     0.074 A 
ATOM     46  C   UNL     1      10.030   1.983   9.185  1.00  0.00     0.031 C 
ATOM     47  C   UNL     1       3.512   3.235  11.055  1.00  0.00     0.029 A 
ATOM     48  C   UNL     1       4.423   2.869  12.136  1.00  0.00     0.049 A 
ATOM     49  H   UNL     1       6.469   2.509  12.000  1.00  0.00     0.167 HD
ATOM     50  C   UNL     1      10.697   1.459  11.514  1.00  0.00     0.037 A 
ATOM     51  C   UNL     1       4.081   2.709  13.429  1.00  0.00     0.037 A 
ATOM     52  C   UNL     1      10.441   1.332  12.925  1.00  0.00     0.049 A 
ATOM     53  C   UNL     1       5.137   2.325  14.429  1.00  0.00     0.074 A 
ATOM     54  C   UNL     1      11.327   1.011  13.940  1.00  0.00     0.029 A 
ATOM     55  N   UNL     1       9.204   1.527  13.521  1.00  0.00    -0.354 N 
ATOM     56  N   UNL     1       6.409   2.076  14.235  1.00  0.00    -0.248 NA
ATOM     57  C   UNL     1       4.710   2.208  15.831  1.00  0.00     0.031 C 
ATOM     58  C   UNL     1      10.619   0.986  15.147  1.00  0.00     0.029 A 
ATOM     59  C   UNL     1       9.301   1.327  14.889  1.00  0.00     0.049 A 
ATOM     60  H   UNL     1       8.379   1.772  13.043  1.00  0.00     0.167 HD
ATOM     61  C   UNL     1       6.939   1.794  15.486  1.00  0.00     0.074 A 
ATOM     62  C   UNL     1       5.853   1.916  16.437  1.00  0.00     0.031 C 
ATOM     63  C   UNL     1       8.210   1.462  15.818  1.00  0.00     0.037 A 
BRANCH  50  64
ATOM     64  C   UNL     1      12.080   1.166  11.014  1.00  0.00     0.064 A 
ATOM     65  C   UNL     1      12.935   2.188  10.575  1.00  0.00     0.173 A 
ATOM     66  C   UNL     1      12.567  -0.150  10.997  1.00  0.00     0.173 A 
ATOM     67  F   UNL     1      12.511   3.461  10.557  1.00  0.00    -0.203 F 
ATOM     68  C   UNL     1      14.216   1.900  10.112  1.00  0.00     0.198 A 
ATOM     69  C   UNL     1      13.858  -0.431  10.559  1.00  0.00     0.198 A 
ATOM     70  F   UNL     1      11.791  -1.163  11.410  1.00  0.00    -0.203 F 
ATOM     71  F   UNL     1      14.999   2.888   9.654  1.00  0.00    -0.200 F 
ATOM     72  C   UNL     1      14.679   0.593  10.110  1.00  0.00     0.200 A 
ATOM     73  F   UNL     1      14.308  -1.694  10.566  1.00  0.00    -0.200 F 
ATOM     74  F   UNL     1      15.914   0.319   9.667  1.00  0.00    -0.200 F 
ENDBRANCH  50  64
BRANCH  51  75
ATOM     75  C   UNL     1       2.677   2.936  13.855  1.00  0.00     0.064 A 
ATOM     76  C   UNL     1       2.330   4.070  14.601  1.00  0.00     0.173 A 
ATOM     77  C   UNL     1       1.657   2.033  13.522  1.00  0.00     0.173 A 
ATOM     78  F   UNL     1       3.276   4.949  14.961  1.00  0.00    -0.203 F 
ATOM     79  C   UNL     1       1.016   4.287  15.010  1.00  0.00     0.198 A 
ATOM     80  C   UNL     1       0.340   2.263  13.912  1.00  0.00     0.198 A 
ATOM     81  F   UNL     1       1.940   0.934  12.808  1.00  0.00    -0.203 F 
ATOM     82  F   UNL     1       0.717   5.361  15.753  1.00  0.00    -0.200 F 
ATOM     83  C   UNL     1       0.021   3.387  14.660  1.00  0.00     0.200 A 
ATOM     84  F   UNL     1      -0.621   1.396  13.564  1.00  0.00    -0.200 F 
ATOM     85  F   UNL     1      -1.244   3.599  15.049  1.00  0.00    -0.200 F 
ENDBRANCH  51  75
BRANCH  63  86
ATOM     86  C   UNL     1       8.501   1.240  17.272  1.00  0.00     0.064 A 
ATOM     87  C   UNL     1       8.083   0.077  17.934  1.00  0.00     0.173 A 
ATOM     88  C   UNL     1       9.231   2.189  18.003  1.00  0.00     0.173 A 
ATOM     89  F   UNL     1       7.368  -0.851  17.280  1.00  0.00    -0.203 F 
ATOM     90  C   UNL     1       8.367  -0.118  19.283  1.00  0.00     0.198 A 
ATOM     91  C   UNL     1       9.534   1.980  19.345  1.00  0.00     0.198 A 
ATOM     92  F   UNL     1       9.656   3.316  17.412  1.00  0.00    -0.203 F 
ATOM     93  F   UNL     1       7.923  -1.218  19.907  1.00  0.00    -0.200 F 
ATOM     94  C   UNL     1       9.097   0.830  19.985  1.00  0.00     0.200 A 
ATOM     95  F   UNL     1      10.245   2.893  20.020  1.00  0.00    -0.200 F 
ATOM     96  F   UNL     1       9.371   0.639  21.283  1.00  0.00    -0.200 F 
ENDBRANCH  63  86
ENDBRANCH  37  38
ENDBRANCH  29  32
ENDBRANCH  27  28
ENDBRANCH  26  27
ENDBRANCH   1  26
TORSDOF 14
