REMARK SMILES O=C(NCCCNC(=O)c1cccc(Br)c1O[C@@H]1CCOC2(CCC2)C1)c1ccc(-c2c3nc(c(-c4c(F)c(F)c(F)c(F)c4F)c4ccc([nH]4)c(-c4c(F)c(F)c(F)c(F)c4F)c4nc(c(-c5c(F)c(F)c(F)c(F)c5F)c5ccc2[nH]5)C=C4)C=C3)cc1
REMARK SMILES IDX 5 1 4 2 3 3 1 4 2 5 27 7 28 8 89 9 29 10 88 11 30 12 31 13
REMARK SMILES IDX 32 14 82 15 33 16 87 17 81 18 83 19 34 20 86 21 80 22 79 23
REMARK SMILES IDX 35 25 67 26 47 27 66 28 48 29 51 30 65 31 84 32 49 33 50 34
REMARK SMILES IDX 64 36 85 37 52 38 36 39 37 40 45 41 38 42 39 43 43 44 46 45
REMARK SMILES IDX 40 46 41 47 44 48 42 49 68 50 69 51 77 52 70 53 71 54 75 55
REMARK SMILES IDX 78 56 72 57 73 58 76 59 74 60 53 61 54 62 62 63 55 64 56 65
REMARK SMILES IDX 60 66 63 67 57 68 58 69 61 70 59 71 6 72 7 73 8 74 9 76
REMARK SMILES IDX 10 77 11 78 16 79 12 80 14 81 13 82 15 83 17 84 18 85 19 86
REMARK SMILES IDX 26 87 20 88 22 89 21 90 23 91 25 92 24 93
REMARK H PARENT 3 6 83 24 51 35 7 75
REMARK Flexibility Score: inf
ROOT
ATOM      1  C   UNL     1       5.002   0.132  -2.515  1.00  0.00     0.042 C 
ENDROOT
BRANCH   1   2
ATOM      2  C   UNL     1       4.586   0.720  -1.180  1.00  0.00     0.118 C 
BRANCH   2   3
ATOM      3  N   UNL     1       3.148   0.668  -0.940  1.00  0.00    -0.352 N 
ATOM      4  O   UNL     1       1.214   0.026   0.032  1.00  0.00    -0.269 OA
ATOM      5  C   UNL     1       2.440   0.056   0.070  1.00  0.00     0.251 C 
ATOM      6  H   UNL     1       2.598   1.144  -1.604  1.00  0.00     0.163 HD
BRANCH   5   7
ATOM      7  C   UNL     1       3.160  -0.598   1.184  1.00  0.00     0.039 A 
ATOM      8  C   UNL     1       4.293  -0.002   1.733  1.00  0.00     0.014 A 
ATOM      9  C   UNL     1       2.717  -1.831   1.671  1.00  0.00     0.014 A 
ATOM     10  C   UNL     1       5.102  -0.729   2.590  1.00  0.00     0.010 A 
ATOM     11  C   UNL     1       3.459  -2.500   2.651  1.00  0.00     0.010 A 
ATOM     12  C   UNL     1       4.683  -1.973   3.089  1.00  0.00    -0.014 A 
BRANCH  12  13
ATOM     13  C   UNL     1       5.523  -2.631   4.124  1.00  0.00     0.031 A 
ATOM     14  C   UNL     1       6.149  -3.979   3.900  1.00  0.00     0.074 A 
ATOM     15  C   UNL     1       5.778  -1.946   5.257  1.00  0.00     0.049 A 
ATOM     16  N   UNL     1       6.968  -4.644   4.678  1.00  0.00    -0.248 NA
ATOM     17  C   UNL     1       5.812  -4.680   2.652  1.00  0.00     0.031 C 
ATOM     18  C   UNL     1       5.206  -0.639   5.594  1.00  0.00     0.029 A 
ATOM     19  N   UNL     1       6.604  -2.225   6.314  1.00  0.00    -0.354 N 
ATOM     20  C   UNL     1       7.241  -5.836   4.020  1.00  0.00     0.074 A 
ATOM     21  C   UNL     1       6.467  -5.825   2.797  1.00  0.00     0.031 C 
ATOM     22  C   UNL     1       5.750  -0.199   6.735  1.00  0.00     0.029 A 
ATOM     23  C   UNL     1       6.639  -1.227   7.257  1.00  0.00     0.049 A 
ATOM     24  H   UNL     1       7.122  -3.059   6.391  1.00  0.00     0.167 HD
ATOM     25  C   UNL     1       8.072  -6.838   4.398  1.00  0.00     0.037 A 
ATOM     26  C   UNL     1       7.295  -1.152   8.429  1.00  0.00     0.037 A 
ATOM     27  C   UNL     1       8.837  -6.841   5.621  1.00  0.00     0.049 A 
ATOM     28  C   UNL     1       8.182  -2.293   8.832  1.00  0.00     0.074 A 
ATOM     29  C   UNL     1       9.710  -7.808   6.093  1.00  0.00     0.029 A 
ATOM     30  N   UNL     1       8.818  -5.829   6.571  1.00  0.00    -0.354 N 
ATOM     31  N   UNL     1       8.451  -3.400   8.185  1.00  0.00    -0.248 NA
ATOM     32  C   UNL     1       8.858  -2.172  10.129  1.00  0.00     0.031 C 
ATOM     33  C   UNL     1      10.178  -7.405   7.348  1.00  0.00     0.029 A 
ATOM     34  C   UNL     1       9.648  -6.157   7.633  1.00  0.00     0.049 A 
ATOM     35  H   UNL     1       8.292  -5.000   6.502  1.00  0.00     0.167 HD
ATOM     36  C   UNL     1       9.337  -4.103   8.988  1.00  0.00     0.074 A 
ATOM     37  C   UNL     1       9.589  -3.277  10.151  1.00  0.00     0.031 C 
ATOM     38  C   UNL     1       9.886  -5.326   8.786  1.00  0.00     0.037 A 
BRANCH  25  39
ATOM     39  C   UNL     1       8.201  -8.025   3.484  1.00  0.00     0.064 A 
ATOM     40  C   UNL     1       8.855  -7.932   2.245  1.00  0.00     0.173 A 
ATOM     41  C   UNL     1       7.724  -9.286   3.877  1.00  0.00     0.173 A 
ATOM     42  F   UNL     1       9.322  -6.750   1.815  1.00  0.00    -0.203 F 
ATOM     43  C   UNL     1       9.008  -9.050   1.428  1.00  0.00     0.198 A 
ATOM     44  C   UNL     1       7.906 -10.407   3.071  1.00  0.00     0.198 A 
ATOM     45  F   UNL     1       7.098  -9.436   5.054  1.00  0.00    -0.203 F 
ATOM     46  F   UNL     1       9.600  -8.927   0.232  1.00  0.00    -0.200 F 
ATOM     47  C   UNL     1       8.542 -10.288   1.845  1.00  0.00     0.200 A 
ATOM     48  F   UNL     1       7.470 -11.606   3.483  1.00  0.00    -0.200 F 
ATOM     49  F   UNL     1       8.703 -11.365   1.063  1.00  0.00    -0.200 F 
ENDBRANCH  25  39
BRANCH  26  50
ATOM     50  C   UNL     1       7.106   0.031   9.310  1.00  0.00     0.064 A 
ATOM     51  C   UNL     1       8.163   0.904   9.597  1.00  0.00     0.173 A 
ATOM     52  C   UNL     1       5.859   0.304   9.893  1.00  0.00     0.173 A 
ATOM     53  F   UNL     1       9.379   0.680   9.076  1.00  0.00    -0.203 F 
ATOM     54  C   UNL     1       7.988   1.986  10.458  1.00  0.00     0.198 A 
ATOM     55  C   UNL     1       5.674   1.409  10.719  1.00  0.00     0.198 A 
ATOM     56  F   UNL     1       4.810  -0.494   9.643  1.00  0.00    -0.203 F 
ATOM     57  F   UNL     1       9.031   2.770  10.764  1.00  0.00    -0.200 F 
ATOM     58  C   UNL     1       6.743   2.241  11.013  1.00  0.00     0.200 A 
ATOM     59  F   UNL     1       4.463   1.663  11.233  1.00  0.00    -0.200 F 
ATOM     60  F   UNL     1       6.574   3.283  11.838  1.00  0.00    -0.200 F 
ENDBRANCH  26  50
BRANCH  38  61
ATOM     61  C   UNL     1      10.835  -5.824   9.839  1.00  0.00     0.064 A 
ATOM     62  C   UNL     1      10.393  -6.176  11.124  1.00  0.00     0.173 A 
ATOM     63  C   UNL     1      12.205  -5.945   9.560  1.00  0.00     0.173 A 
ATOM     64  F   UNL     1       9.096  -6.061  11.448  1.00  0.00    -0.203 F 
ATOM     65  C   UNL     1      11.294  -6.587  12.103  1.00  0.00     0.198 A 
ATOM     66  C   UNL     1      13.097  -6.393  10.530  1.00  0.00     0.198 A 
ATOM     67  F   UNL     1      12.679  -5.629   8.346  1.00  0.00    -0.203 F 
ATOM     68  F   UNL     1      10.859  -6.847  13.344  1.00  0.00    -0.200 F 
ATOM     69  C   UNL     1      12.643  -6.700  11.804  1.00  0.00     0.200 A 
ATOM     70  F   UNL     1      14.398  -6.517  10.235  1.00  0.00    -0.200 F 
ATOM     71  F   UNL     1      13.509  -7.094  12.748  1.00  0.00    -0.200 F 
ENDBRANCH  38  61
ENDBRANCH  12  13
ENDBRANCH   5   7
ENDBRANCH   2   3
ENDBRANCH   1   2
BRANCH   1  72
ATOM     72  C   UNL     1       4.487   0.907  -3.713  1.00  0.00     0.118 C 
BRANCH  72  73
ATOM     73  N   UNL     1       4.938   2.296  -3.734  1.00  0.00    -0.352 N 
ATOM     74  C   UNL     1       5.798   2.948  -4.594  1.00  0.00     0.255 C 
ATOM     75  H   UNL     1       4.567   2.860  -3.017  1.00  0.00     0.163 HD
ATOM     76  O   UNL     1       6.078   4.124  -4.402  1.00  0.00    -0.269 OA
BRANCH  74  77
ATOM     77  C   UNL     1       6.334   2.203  -5.753  1.00  0.00     0.083 A 
ATOM     78  C   UNL     1       5.408   1.592  -6.593  1.00  0.00     0.018 A 
ATOM     79  C   UNL     1       7.724   2.048  -5.956  1.00  0.00     0.146 A 
ATOM     80  C   UNL     1       5.845   0.687  -7.529  1.00  0.00     0.002 A 
ATOM     81  C   UNL     1       8.312   1.056  -6.862  1.00  0.00     0.060 A 
ATOM     82  C   UNL     1       7.215   0.396  -7.634  1.00  0.00     0.019 A 
ATOM     83  Br  UNL     1      10.871   0.714  -7.061  1.00  0.00    -0.047 Br
BRANCH  79  84
ATOM     84  O   UNL     1       8.539   2.917  -5.300  1.00  0.00    -0.488 OA
BRANCH  84  85
ATOM     85  C   UNL     1       9.709   2.372  -5.817  1.00  0.00     0.178 C 
ATOM     86  C   UNL     1       9.577   2.619  -7.742  1.00  0.00     0.074 C 
ATOM     87  C   UNL     1       9.623   0.611  -5.028  1.00  0.00     0.080 C 
ATOM     88  C   UNL     1       9.340   1.048  -8.833  1.00  0.00     0.165 C 
ATOM     89  C   UNL     1       9.224  -0.838  -6.191  1.00  0.00     0.072 C 
ATOM     90  O   UNL     1       9.250  -0.590  -7.990  1.00  0.00    -0.375 OA
ATOM     91  C   UNL     1      10.014  -2.162  -5.831  1.00  0.00     0.036 C 
ATOM     92  C   UNL     1       7.988  -1.595  -5.557  1.00  0.00     0.036 C 
ATOM     93  C   UNL     1       8.670  -2.909  -5.920  1.00  0.00     0.006 C 
ENDBRANCH  84  85
ENDBRANCH  79  84
ENDBRANCH  74  77
ENDBRANCH  72  73
ENDBRANCH   1  72
TORSDOF 12
