REMARK SMILES N#CCNC(=O)Cn1ccc(C(=O)NCCCNC(=O)c2ccc(-c3c4nc(c(-c5c(F)c(F)c(F)c(F)c5F)c5ccc([nH]5)c(-c5c(F)c(F)c(F)c(F)c5F)c5nc(c(-c6c(F)c(F)c(F)c(F)c6F)c6ccc3[nH]6)C=C5)C=C4)cc2)c1
REMARK SMILES IDX 15 1 14 2 12 3 13 4 11 6 8 7 9 8 84 9 10 10 7 11 5 12 4 13
REMARK SMILES IDX 6 15 3 16 2 17 1 18 16 19 17 20 18 21 19 22 20 24 21 25
REMARK SMILES IDX 22 26 83 27 23 28 82 29 24 30 25 31 26 32 76 33 27 34 81 35
REMARK SMILES IDX 75 36 77 37 28 38 80 39 74 40 73 41 29 43 61 44 41 45 60 46
REMARK SMILES IDX 42 47 45 48 59 49 78 50 43 51 44 52 58 54 79 55 46 56 30 57
REMARK SMILES IDX 31 58 39 59 32 60 33 61 37 62 40 63 34 64 35 65 38 66 36 67
REMARK SMILES IDX 62 68 63 69 71 70 64 71 65 72 69 73 72 74 66 75 67 76 70 77
REMARK SMILES IDX 68 78 47 79 48 80 56 81 49 82 50 83 54 84 57 85 51 86 52 87
REMARK SMILES IDX 55 88 53 89
REMARK H PARENT 14 5 4 14 18 23 77 42 45 53
REMARK Flexibility Score: inf
ROOT
ATOM      1  C   UNL     1       2.560   5.577   3.700  1.00  0.00     0.118 C 
ENDROOT
BRANCH   1   2
ATOM      2  N   UNL     1       1.518   4.668   4.133  1.00  0.00    -0.352 N 
ATOM      3  C   UNL     1       1.436   3.296   4.125  1.00  0.00     0.252 C 
ATOM      4  O   UNL     1       0.444   2.791   4.631  1.00  0.00    -0.269 OA
ATOM      5  H   UNL     1       0.722   5.116   4.500  1.00  0.00     0.163 HD
BRANCH   3   6
ATOM      6  C   UNL     1       2.524   2.477   3.593  1.00  0.00     0.057 A 
ATOM      7  N   UNL     1       4.350   1.718   2.537  1.00  0.00    -0.344 N 
ATOM      8  C   UNL     1       3.906   0.687   3.317  1.00  0.00     0.087 A 
ATOM      9  C   UNL     1       3.496   2.784   2.659  1.00  0.00     0.100 A 
ATOM     10  C   UNL     1       2.751   1.107   3.937  1.00  0.00     0.033 A 
BRANCH   7  11
ATOM     11  C   UNL     1       5.506   1.683   1.654  1.00  0.00     0.221 C 
BRANCH  11  12
ATOM     12  C   UNL     1       5.132   2.036   0.228  1.00  0.00     0.240 C 
ATOM     13  N   UNL     1       4.271   1.235  -0.463  1.00  0.00    -0.341 N 
ATOM     14  H   UNL     1       4.013   1.547  -1.360  1.00  0.00     0.164 HD
ATOM     15  O   UNL     1       5.598   3.026  -0.335  1.00  0.00    -0.273 OA
BRANCH  13  16
ATOM     16  C   UNL     1       3.689  -0.021  -0.034  1.00  0.00     0.236 C 
BRANCH  16  17
ATOM     17  C   UNL     1       2.169  -0.021  -0.034  1.00  0.00     0.084 C 
ATOM     18  N   UNL     1       0.908  -0.021  -0.034  1.00  0.00    -0.196 NA
ENDBRANCH  16  17
ENDBRANCH  13  16
ENDBRANCH  11  12
ENDBRANCH   7  11
ENDBRANCH   3   6
ENDBRANCH   1   2
BRANCH   1  19
ATOM     19  C   UNL     1       2.212   6.211   2.350  1.00  0.00     0.042 C 
BRANCH  19  20
ATOM     20  C   UNL     1       1.247   7.388   2.514  1.00  0.00     0.118 C 
BRANCH  20  21
ATOM     21  N   UNL     1       1.929   8.515   3.134  1.00  0.00    -0.352 N 
ATOM     22  C   UNL     1       1.513   9.780   3.440  1.00  0.00     0.251 C 
ATOM     23  H   UNL     1       2.865   8.332   3.379  1.00  0.00     0.163 HD
ATOM     24  O   UNL     1       2.372  10.628   3.679  1.00  0.00    -0.269 OA
BRANCH  22  25
ATOM     25  C   UNL     1       0.089  10.176   3.479  1.00  0.00     0.039 A 
ATOM     26  C   UNL     1      -0.211  11.492   3.095  1.00  0.00     0.014 A 
ATOM     27  C   UNL     1      -0.925   9.348   3.971  1.00  0.00     0.014 A 
ATOM     28  C   UNL     1      -1.520  11.956   3.148  1.00  0.00     0.010 A 
ATOM     29  C   UNL     1      -2.244   9.803   4.013  1.00  0.00     0.010 A 
ATOM     30  C   UNL     1      -2.542  11.099   3.573  1.00  0.00    -0.014 A 
BRANCH  30  31
ATOM     31  C   UNL     1      -3.940  11.502   3.281  1.00  0.00     0.031 A 
ATOM     32  C   UNL     1      -4.243  11.310   1.760  1.00  0.00     0.074 A 
ATOM     33  C   UNL     1      -4.675  11.998   4.325  1.00  0.00     0.049 A 
ATOM     34  N   UNL     1      -5.029  11.956   0.946  1.00  0.00    -0.248 NA
ATOM     35  C   UNL     1      -3.466  10.268   1.020  1.00  0.00     0.031 C 
ATOM     36  C   UNL     1      -4.237  12.050   5.740  1.00  0.00     0.029 A 
ATOM     37  N   UNL     1      -5.926  12.569   4.424  1.00  0.00    -0.354 N 
ATOM     38  C   UNL     1      -4.971  11.304  -0.315  1.00  0.00     0.074 A 
ATOM     39  C   UNL     1      -3.906  10.354  -0.235  1.00  0.00     0.031 C 
ATOM     40  C   UNL     1      -5.146  12.688   6.515  1.00  0.00     0.029 A 
ATOM     41  C   UNL     1      -6.258  13.125   5.697  1.00  0.00     0.049 A 
ATOM     42  H   UNL     1      -6.551  12.593   3.664  1.00  0.00     0.167 HD
ATOM     43  C   UNL     1      -5.908  11.465  -1.297  1.00  0.00     0.037 A 
ATOM     44  C   UNL     1      -7.306  13.952   6.028  1.00  0.00     0.037 A 
ATOM     45  C   UNL     1      -6.893  12.404  -0.891  1.00  0.00     0.049 A 
ATOM     46  C   UNL     1      -8.033  14.102   4.764  1.00  0.00     0.074 A 
ATOM     47  C   UNL     1      -7.114  13.749  -1.022  1.00  0.00     0.029 A 
ATOM     48  N   UNL     1      -7.885  11.877  -0.112  1.00  0.00    -0.354 N 
ATOM     49  N   UNL     1      -8.785  13.197   4.224  1.00  0.00    -0.248 NA
ATOM     50  C   UNL     1      -7.658  15.242   3.936  1.00  0.00     0.031 C 
ATOM     51  C   UNL     1      -8.196  14.038  -0.152  1.00  0.00     0.029 A 
ATOM     52  C   UNL     1      -8.424  12.898   0.614  1.00  0.00     0.049 A 
ATOM     53  H   UNL     1      -8.160  10.932  -0.081  1.00  0.00     0.167 HD
ATOM     54  C   UNL     1      -8.759  13.520   2.887  1.00  0.00     0.074 A 
ATOM     55  C   UNL     1      -8.153  14.837   2.775  1.00  0.00     0.031 C 
ATOM     56  C   UNL     1      -8.896  12.574   1.927  1.00  0.00     0.037 A 
BRANCH  43  57
ATOM     57  C   UNL     1      -6.294  10.618  -2.504  1.00  0.00     0.064 A 
ATOM     58  C   UNL     1      -7.216  11.176  -3.433  1.00  0.00     0.173 A 
ATOM     59  C   UNL     1      -6.171   9.222  -2.547  1.00  0.00     0.173 A 
ATOM     60  F   UNL     1      -7.358  12.507  -3.547  1.00  0.00    -0.203 F 
ATOM     61  C   UNL     1      -8.085  10.391  -4.191  1.00  0.00     0.198 A 
ATOM     62  C   UNL     1      -7.000   8.438  -3.364  1.00  0.00     0.198 A 
ATOM     63  F   UNL     1      -5.328   8.572  -1.736  1.00  0.00    -0.203 F 
ATOM     64  F   UNL     1      -9.058  10.971  -4.909  1.00  0.00    -0.200 F 
ATOM     65  C   UNL     1      -7.991   9.018  -4.138  1.00  0.00     0.200 A 
ATOM     66  F   UNL     1      -6.889   7.102  -3.331  1.00  0.00    -0.200 F 
ATOM     67  F   UNL     1      -8.868   8.254  -4.806  1.00  0.00    -0.200 F 
ENDBRANCH  43  57
BRANCH  44  68
ATOM     68  C   UNL     1      -7.758  14.837   7.173  1.00  0.00     0.064 A 
ATOM     69  C   UNL     1      -7.357  14.722   8.509  1.00  0.00     0.173 A 
ATOM     70  C   UNL     1      -8.645  15.930   6.927  1.00  0.00     0.173 A 
ATOM     71  F   UNL     1      -6.635  13.671   8.916  1.00  0.00    -0.203 F 
ATOM     72  C   UNL     1      -7.713  15.682   9.481  1.00  0.00     0.198 A 
ATOM     73  C   UNL     1      -8.961  16.905   7.876  1.00  0.00     0.198 A 
ATOM     74  F   UNL     1      -9.243  16.099   5.740  1.00  0.00    -0.203 F 
ATOM     75  F   UNL     1      -7.298  15.534  10.747  1.00  0.00    -0.200 F 
ATOM     76  C   UNL     1      -8.478  16.791   9.155  1.00  0.00     0.200 A 
ATOM     77  F   UNL     1      -9.720  17.954   7.526  1.00  0.00    -0.200 F 
ATOM     78  F   UNL     1      -8.758  17.733  10.066  1.00  0.00    -0.200 F 
ENDBRANCH  44  68
BRANCH  56  79
ATOM     79  C   UNL     1      -9.099  11.170   2.469  1.00  0.00     0.064 A 
ATOM     80  C   UNL     1     -10.346  10.751   2.936  1.00  0.00     0.173 A 
ATOM     81  C   UNL     1      -8.034  10.261   2.644  1.00  0.00     0.173 A 
ATOM     82  F   UNL     1     -11.409  11.557   2.812  1.00  0.00    -0.203 F 
ATOM     83  C   UNL     1     -10.515   9.495   3.532  1.00  0.00     0.198 A 
ATOM     84  C   UNL     1      -8.198   9.007   3.231  1.00  0.00     0.198 A 
ATOM     85  F   UNL     1      -6.808  10.568   2.219  1.00  0.00    -0.203 F 
ATOM     86  F   UNL     1     -11.728   9.121   3.961  1.00  0.00    -0.200 F 
ATOM     87  C   UNL     1      -9.444   8.624   3.678  1.00  0.00     0.200 A 
ATOM     88  F   UNL     1      -7.151   8.174   3.344  1.00  0.00    -0.200 F 
ATOM     89  F   UNL     1      -9.616   7.417   4.235  1.00  0.00    -0.200 F 
ENDBRANCH  56  79
ENDBRANCH  30  31
ENDBRANCH  22  25
ENDBRANCH  20  21
ENDBRANCH  19  20
ENDBRANCH   1  19
TORSDOF 14
