REMARK SMILES Cc1ccc(S(=O)(=O)N(c2ccccc2)[C@H](C)C(=O)NCCCNC(=O)c2ccc(-c3c4nc(c(-c5c(F)c(F)c(F)c(F)c5F)c5ccc([nH]5)c(-c5c(F)c(F)c(F)c(F)c5F)c5nc(c(-c6c(F)c(F)c(F)c(F)c6F)c6ccc3[nH]6)C=C5)C=C4)cc2)cc1
REMARK SMILES IDX 21 1 20 2 18 3 19 4 16 6 17 7 9 8 6 9 7 10 8 11 5 12 1 13
REMARK SMILES IDX 2 14 3 15 91 16 4 17 90 18 10 19 11 20 15 21 12 22 14 23
REMARK SMILES IDX 13 24 22 25 23 26 24 27 25 28 26 30 27 31 28 32 89 33 29 34
REMARK SMILES IDX 88 35 30 36 31 37 32 38 82 39 33 40 87 41 81 42 83 43 34 44
REMARK SMILES IDX 86 45 80 46 79 47 35 49 67 50 47 51 66 52 48 53 51 54 65 55
REMARK SMILES IDX 84 56 49 57 50 58 64 60 85 61 52 62 36 63 37 64 45 65 38 66
REMARK SMILES IDX 39 67 43 68 46 69 40 70 41 71 44 72 42 73 68 74 69 75 77 76
REMARK SMILES IDX 70 77 71 78 75 79 78 80 72 81 73 82 76 83 74 84 53 85 54 86
REMARK SMILES IDX 62 87 55 88 56 89 60 90 63 91 57 92 58 93 61 94 59 95
REMARK H PARENT 20 5 24 29 83 48 51 59
REMARK Flexibility Score: inf
ROOT
ATOM      1  C   UNL     1      -4.954  -0.774   0.784  1.00  0.00     0.117 C 
ENDROOT
BRANCH   1   2
ATOM      2  N   UNL     1      -5.546   0.345   1.478  1.00  0.00    -0.354 N 
ATOM      3  C   UNL     1      -6.177   1.437   0.942  1.00  0.00     0.243 C 
ATOM      4  O   UNL     1      -6.916   2.065   1.709  1.00  0.00    -0.273 OA
ATOM      5  H   UNL     1      -5.490   0.321   2.460  1.00  0.00     0.163 HD
BRANCH   3   6
ATOM      6  C   UNL     1      -5.938   1.926  -0.494  1.00  0.00     0.185 C 
ATOM      7  C   UNL     1      -4.445   2.140  -0.769  1.00  0.00     0.043 C 
BRANCH   6   8
ATOM      8  N   UNL     1      -6.706   1.227  -1.602  1.00  0.00    -0.254 N 
BRANCH   8   9
ATOM      9  S   UNL     1      -7.274   2.315  -2.805  1.00  0.00     0.265 S 
ATOM     10  O   UNL     1      -6.108   3.042  -3.275  1.00  0.00    -0.201 OA
ATOM     11  O   UNL     1      -8.399   3.033  -2.244  1.00  0.00    -0.201 OA
BRANCH   9  12
ATOM     12  C   UNL     1      -7.885   1.420  -4.221  1.00  0.00     0.088 A 
ATOM     13  C   UNL     1      -8.600  -0.871  -7.789  1.00  0.00     0.044 C 
ATOM     14  C   UNL     1      -8.394  -0.052  -6.550  1.00  0.00    -0.051 A 
ATOM     15  C   UNL     1      -7.922   1.260  -6.638  1.00  0.00     0.005 A 
ATOM     16  C   UNL     1      -8.705  -0.581  -5.290  1.00  0.00     0.005 A 
ATOM     17  C   UNL     1      -7.647   1.986  -5.480  1.00  0.00     0.022 A 
ATOM     18  C   UNL     1      -8.490   0.169  -4.130  1.00  0.00     0.022 A 
ENDBRANCH   9  12
ENDBRANCH   8   9
BRANCH   8  19
ATOM     19  C   UNL     1      -6.331  -0.093  -2.001  1.00  0.00     0.053 A 
ATOM     20  C   UNL     1      -7.067  -1.155  -1.449  1.00  0.00     0.027 A 
ATOM     21  C   UNL     1      -5.243  -0.363  -2.832  1.00  0.00     0.027 A 
ATOM     22  C   UNL     1      -6.716  -2.477  -1.719  1.00  0.00     0.002 A 
ATOM     23  C   UNL     1      -4.886  -1.692  -3.090  1.00  0.00     0.002 A 
ATOM     24  C   UNL     1      -5.618  -2.744  -2.532  1.00  0.00     0.000 A 
ENDBRANCH   8  19
ENDBRANCH   6   8
ENDBRANCH   3   6
ENDBRANCH   1   2
BRANCH   1  25
ATOM     25  C   UNL     1      -3.596  -1.217   1.279  1.00  0.00     0.042 C 
BRANCH  25  26
ATOM     26  C   UNL     1      -3.679  -2.554   1.988  1.00  0.00     0.118 C 
BRANCH  26  27
ATOM     27  N   UNL     1      -3.905  -3.718   1.128  1.00  0.00    -0.352 N 
ATOM     28  C   UNL     1      -4.191  -5.037   1.484  1.00  0.00     0.251 C 
ATOM     29  H   UNL     1      -3.848  -3.545   0.160  1.00  0.00     0.163 HD
ATOM     30  O   UNL     1      -4.353  -5.883   0.634  1.00  0.00    -0.269 OA
BRANCH  28  31
ATOM     31  C   UNL     1      -4.443  -5.351   2.919  1.00  0.00     0.039 A 
ATOM     32  C   UNL     1      -5.580  -6.099   3.244  1.00  0.00     0.014 A 
ATOM     33  C   UNL     1      -3.761  -4.660   3.909  1.00  0.00     0.014 A 
ATOM     34  C   UNL     1      -6.197  -5.887   4.475  1.00  0.00     0.010 A 
ATOM     35  C   UNL     1      -4.460  -4.306   5.039  1.00  0.00     0.010 A 
ATOM     36  C   UNL     1      -5.714  -4.872   5.294  1.00  0.00    -0.014 A 
BRANCH  36  37
ATOM     37  C   UNL     1      -6.471  -4.250   6.373  1.00  0.00     0.031 A 
ATOM     38  C   UNL     1      -5.949  -4.311   7.758  1.00  0.00     0.074 A 
ATOM     39  C   UNL     1      -7.534  -3.463   6.076  1.00  0.00     0.049 A 
ATOM     40  N   UNL     1      -6.615  -3.930   8.793  1.00  0.00    -0.248 NA
ATOM     41  C   UNL     1      -4.642  -4.870   8.106  1.00  0.00     0.031 C 
ATOM     42  C   UNL     1      -8.159  -2.453   6.932  1.00  0.00     0.029 A 
ATOM     43  N   UNL     1      -8.409  -3.564   4.976  1.00  0.00    -0.354 N 
ATOM     44  C   UNL     1      -5.747  -3.887   9.855  1.00  0.00     0.074 A 
ATOM     45  C   UNL     1      -4.578  -4.598   9.413  1.00  0.00     0.031 C 
ATOM     46  C   UNL     1      -9.422  -2.255   6.523  1.00  0.00     0.029 A 
ATOM     47  C   UNL     1      -9.690  -3.242   5.495  1.00  0.00     0.049 A 
ATOM     48  H   UNL     1      -8.181  -3.806   4.050  1.00  0.00     0.167 HD
ATOM     49  C   UNL     1      -6.088  -3.128  10.931  1.00  0.00     0.037 A 
ATOM     50  C   UNL     1     -10.692  -4.166   5.554  1.00  0.00     0.037 A 
ATOM     51  C   UNL     1      -7.517  -2.816  10.903  1.00  0.00     0.049 A 
ATOM     52  C   UNL     1     -11.210  -4.430   6.951  1.00  0.00     0.074 A 
ATOM     53  C   UNL     1      -8.252  -1.666  10.678  1.00  0.00     0.029 A 
ATOM     54  N   UNL     1      -8.424  -3.874  10.872  1.00  0.00    -0.354 N 
ATOM     55  N   UNL     1     -10.567  -4.108   8.040  1.00  0.00    -0.248 NA
ATOM     56  C   UNL     1     -12.475  -5.102   7.230  1.00  0.00     0.031 C 
ATOM     57  C   UNL     1      -9.596  -2.056  10.414  1.00  0.00     0.029 A 
ATOM     58  C   UNL     1      -9.684  -3.434  10.528  1.00  0.00     0.049 A 
ATOM     59  H   UNL     1      -8.195  -4.811  11.070  1.00  0.00     0.167 HD
ATOM     60  C   UNL     1     -11.273  -4.534   9.136  1.00  0.00     0.074 A 
ATOM     61  C   UNL     1     -12.473  -5.126   8.575  1.00  0.00     0.031 C 
ATOM     62  C   UNL     1     -10.790  -4.378  10.406  1.00  0.00     0.037 A 
BRANCH  49  63
ATOM     63  C   UNL     1      -5.114  -2.520  11.921  1.00  0.00     0.064 A 
ATOM     64  C   UNL     1      -5.594  -1.757  13.008  1.00  0.00     0.173 A 
ATOM     65  C   UNL     1      -3.707  -2.525  11.790  1.00  0.00     0.173 A 
ATOM     66  F   UNL     1      -6.908  -1.644  13.249  1.00  0.00    -0.203 F 
ATOM     67  C   UNL     1      -4.744  -1.058  13.874  1.00  0.00     0.198 A 
ATOM     68  C   UNL     1      -2.857  -1.871  12.687  1.00  0.00     0.198 A 
ATOM     69  F   UNL     1      -3.084  -3.102  10.757  1.00  0.00    -0.203 F 
ATOM     70  F   UNL     1      -5.263  -0.300  14.851  1.00  0.00    -0.200 F 
ATOM     71  C   UNL     1      -3.374  -1.125  13.721  1.00  0.00     0.200 A 
ATOM     72  F   UNL     1      -1.529  -1.946  12.513  1.00  0.00    -0.200 F 
ATOM     73  F   UNL     1      -2.558  -0.459  14.549  1.00  0.00    -0.200 F 
ENDBRANCH  49  63
BRANCH  50  74
ATOM     74  C   UNL     1     -10.623  -5.160   4.451  1.00  0.00     0.064 A 
ATOM     75  C   UNL     1     -10.781  -4.690   3.131  1.00  0.00     0.173 A 
ATOM     76  C   UNL     1     -10.011  -6.405   4.626  1.00  0.00     0.173 A 
ATOM     77  F   UNL     1     -11.366  -3.502   2.910  1.00  0.00    -0.203 F 
ATOM     78  C   UNL     1     -10.225  -5.369   2.050  1.00  0.00     0.198 A 
ATOM     79  C   UNL     1      -9.473  -7.093   3.534  1.00  0.00     0.198 A 
ATOM     80  F   UNL     1      -9.809  -6.895   5.857  1.00  0.00    -0.203 F 
ATOM     81  F   UNL     1     -10.275  -4.828   0.823  1.00  0.00    -0.200 F 
ATOM     82  C   UNL     1      -9.543  -6.554   2.257  1.00  0.00     0.200 A 
ATOM     83  F   UNL     1      -8.780  -8.223   3.736  1.00  0.00    -0.200 F 
ATOM     84  F   UNL     1      -8.908  -7.151   1.238  1.00  0.00    -0.200 F 
ENDBRANCH  50  74
BRANCH  62  85
ATOM     85  C   UNL     1     -11.328  -5.034  11.664  1.00  0.00     0.064 A 
ATOM     86  C   UNL     1     -12.078  -6.222  11.684  1.00  0.00     0.173 A 
ATOM     87  C   UNL     1     -10.959  -4.538  12.941  1.00  0.00     0.173 A 
ATOM     88  F   UNL     1     -12.385  -6.877  10.558  1.00  0.00    -0.203 F 
ATOM     89  C   UNL     1     -12.487  -6.825  12.880  1.00  0.00     0.198 A 
ATOM     90  C   UNL     1     -11.313  -5.177  14.129  1.00  0.00     0.198 A 
ATOM     91  F   UNL     1     -10.213  -3.432  13.077  1.00  0.00    -0.203 F 
ATOM     92  F   UNL     1     -13.241  -7.933  12.838  1.00  0.00    -0.200 F 
ATOM     93  C   UNL     1     -12.094  -6.311  14.100  1.00  0.00     0.200 A 
ATOM     94  F   UNL     1     -10.870  -4.697  15.301  1.00  0.00    -0.200 F 
ATOM     95  F   UNL     1     -12.445  -6.920  15.240  1.00  0.00    -0.200 F 
ENDBRANCH  62  85
ENDBRANCH  36  37
ENDBRANCH  28  31
ENDBRANCH  26  27
ENDBRANCH  25  26
ENDBRANCH   1  25
TORSDOF 14
