REMARK SMILES C[C@H]1CC[C@@H]([C@@H](Cc2ccccc2)C(=O)NCCCNC(=O)c2ccc(-c3c4nc(c(-c5c(F)c(F)c(F)c(F)c5F)c5ccc([nH]5)c(-c5c(F)c(F)c(F)c(F)c5F)c5nc(c(-c6c(F)c(F)c(F)c(F)c6F)c6ccc3[nH]6)C=C5)C=C4)cc2)C[C@@H]1C
REMARK SMILES IDX 18 1 17 2 16 3 14 4 15 5 6 7 5 8 1 9 2 10 3 11 87 12 4 13
REMARK SMILES IDX 86 14 88 15 7 16 8 17 9 18 13 19 10 20 12 21 11 22 19 23
REMARK SMILES IDX 20 24 21 25 22 27 23 28 24 29 85 30 25 31 84 32 26 33 27 34
REMARK SMILES IDX 28 35 78 36 29 37 83 38 77 39 79 40 30 41 82 42 76 43 75 44
REMARK SMILES IDX 31 46 63 47 43 48 62 49 44 50 47 51 61 52 80 53 45 54 46 55
REMARK SMILES IDX 60 57 81 58 48 59 32 60 33 61 41 62 34 63 35 64 39 65 42 66
REMARK SMILES IDX 36 67 37 68 40 69 38 70 64 71 65 72 73 73 66 74 67 75 71 76
REMARK SMILES IDX 74 77 68 78 69 79 72 80 70 81 49 82 50 83 58 84 51 85 52 86
REMARK SMILES IDX 56 87 59 88 53 89 54 90 57 91 55 92
REMARK H PARENT 16 6 20 26 79 45 47 56
REMARK Flexibility Score: inf
ROOT
ATOM      1  C   UNL     1      -0.301   1.675   5.049  1.00  0.00     0.042 C 
ENDROOT
BRANCH   1   2
ATOM      2  C   UNL     1      -1.461   1.894   4.106  1.00  0.00     0.117 C 
BRANCH   2   3
ATOM      3  N   UNL     1      -1.853   3.259   3.955  1.00  0.00    -0.356 N 
ATOM      4  C   UNL     1      -2.040   3.928   2.791  1.00  0.00     0.223 C 
ATOM      5  O   UNL     1      -2.573   5.040   2.874  1.00  0.00    -0.275 OA
ATOM      6  H   UNL     1      -2.004   3.768   4.784  1.00  0.00     0.163 HD
BRANCH   4   7
ATOM      7  C   UNL     1      -1.562   3.386   1.421  1.00  0.00     0.086 C 
BRANCH   7   8
ATOM      8  C   UNL     1      -0.077   3.787   1.117  1.00  0.00     0.002 C 
ATOM      9  C   UNL     1       1.544   0.607  -1.415  1.00  0.00     0.008 C 
ATOM     10  C   UNL     1       1.554   1.919  -0.618  1.00  0.00    -0.011 C 
ATOM     11  C   UNL     1       0.472   2.844  -1.205  1.00  0.00     0.004 C 
ATOM     12  C   UNL     1       1.308   1.656   0.879  1.00  0.00    -0.011 C 
ATOM     13  C   UNL     1       0.210   4.086  -0.365  1.00  0.00     0.005 C 
ATOM     14  C   UNL     1       1.058   2.933   1.675  1.00  0.00     0.008 C 
ATOM     15  C   UNL     1       2.386   0.815   1.561  1.00  0.00     0.008 C 
ENDBRANCH   7   8
BRANCH   7  16
ATOM     16  C   UNL     1      -2.359   2.180   0.813  1.00  0.00     0.049 C 
BRANCH  16  17
ATOM     17  C   UNL     1      -2.287   0.650   0.814  1.00  0.00    -0.047 A 
ATOM     18  C   UNL     1      -3.221   0.019  -0.043  1.00  0.00     0.004 A 
ATOM     19  C   UNL     1      -1.469  -0.221   1.543  1.00  0.00     0.004 A 
ATOM     20  C   UNL     1      -3.313  -1.373  -0.171  1.00  0.00     0.000 A 
ATOM     21  C   UNL     1      -1.555  -1.617   1.424  1.00  0.00     0.000 A 
ATOM     22  C   UNL     1      -2.475  -2.194   0.566  1.00  0.00     0.000 A 
ENDBRANCH  16  17
ENDBRANCH   7  16
ENDBRANCH   4   7
ENDBRANCH   2   3
ENDBRANCH   1   2
BRANCH   1  23
ATOM     23  C   UNL     1      -0.446   0.435   5.914  1.00  0.00     0.118 C 
BRANCH  23  24
ATOM     24  N   UNL     1      -0.791  -0.798   5.213  1.00  0.00    -0.352 N 
ATOM     25  C   UNL     1      -0.290  -2.078   5.305  1.00  0.00     0.251 C 
ATOM     26  H   UNL     1      -1.516  -0.697   4.555  1.00  0.00     0.163 HD
ATOM     27  O   UNL     1      -0.807  -2.967   4.629  1.00  0.00    -0.269 OA
BRANCH  25  28
ATOM     28  C   UNL     1       0.897  -2.401   6.133  1.00  0.00     0.039 A 
ATOM     29  C   UNL     1       1.769  -3.405   5.696  1.00  0.00     0.014 A 
ATOM     30  C   UNL     1       1.190  -1.721   7.310  1.00  0.00     0.014 A 
ATOM     31  C   UNL     1       2.972  -3.636   6.371  1.00  0.00     0.010 A 
ATOM     32  C   UNL     1       2.450  -1.833   7.881  1.00  0.00     0.010 A 
ATOM     33  C   UNL     1       3.357  -2.801   7.430  1.00  0.00    -0.014 A 
BRANCH  33  34
ATOM     34  C   UNL     1       4.676  -2.919   8.108  1.00  0.00     0.031 A 
ATOM     35  C   UNL     1       4.734  -3.084   9.605  1.00  0.00     0.074 A 
ATOM     36  C   UNL     1       5.815  -2.760   7.405  1.00  0.00     0.049 A 
ATOM     37  N   UNL     1       5.762  -3.010  10.412  1.00  0.00    -0.248 NA
ATOM     38  C   UNL     1       3.452  -3.305  10.296  1.00  0.00     0.031 C 
ATOM     39  C   UNL     1       5.902  -2.528   5.962  1.00  0.00     0.029 A 
ATOM     40  N   UNL     1       7.126  -2.753   7.817  1.00  0.00    -0.354 N 
ATOM     41  C   UNL     1       5.243  -3.123  11.696  1.00  0.00     0.074 A 
ATOM     42  C   UNL     1       3.805  -3.202  11.567  1.00  0.00     0.031 C 
ATOM     43  C   UNL     1       7.192  -2.436   5.605  1.00  0.00     0.029 A 
ATOM     44  C   UNL     1       8.024  -2.548   6.798  1.00  0.00     0.049 A 
ATOM     45  H   UNL     1       7.396  -2.882   8.755  1.00  0.00     0.167 HD
ATOM     46  C   UNL     1       5.904  -3.188  12.876  1.00  0.00     0.037 A 
ATOM     47  C   UNL     1       9.367  -2.451   6.824  1.00  0.00     0.037 A 
ATOM     48  C   UNL     1       7.337  -3.184  12.993  1.00  0.00     0.049 A 
ATOM     49  C   UNL     1      10.083  -2.572   8.142  1.00  0.00     0.074 A 
ATOM     50  C   UNL     1       8.111  -3.337  14.130  1.00  0.00     0.029 A 
ATOM     51  N   UNL     1       8.213  -3.034  11.928  1.00  0.00    -0.354 N 
ATOM     52  N   UNL     1       9.584  -2.737   9.343  1.00  0.00    -0.248 NA
ATOM     53  C   UNL     1      11.550  -2.497   8.107  1.00  0.00     0.031 C 
ATOM     54  C   UNL     1       9.455  -3.241  13.758  1.00  0.00     0.029 A 
ATOM     55  C   UNL     1       9.521  -3.077  12.384  1.00  0.00     0.049 A 
ATOM     56  H   UNL     1       7.946  -2.914  10.989  1.00  0.00     0.167 HD
ATOM     57  C   UNL     1      10.672  -2.813  10.201  1.00  0.00     0.074 A 
ATOM     58  C   UNL     1      11.860  -2.692   9.381  1.00  0.00     0.031 C 
ATOM     59  C   UNL     1      10.688  -2.968  11.548  1.00  0.00     0.037 A 
BRANCH  46  60
ATOM     60  C   UNL     1       5.082  -3.290  14.130  1.00  0.00     0.064 A 
ATOM     61  C   UNL     1       4.325  -4.434  14.427  1.00  0.00     0.173 A 
ATOM     62  C   UNL     1       5.066  -2.237  15.058  1.00  0.00     0.173 A 
ATOM     63  F   UNL     1       4.294  -5.465  13.568  1.00  0.00    -0.203 F 
ATOM     64  C   UNL     1       3.553  -4.505  15.583  1.00  0.00     0.198 A 
ATOM     65  C   UNL     1       4.321  -2.326  16.231  1.00  0.00     0.198 A 
ATOM     66  F   UNL     1       5.776  -1.122  14.829  1.00  0.00    -0.203 F 
ATOM     67  F   UNL     1       2.788  -5.582  15.811  1.00  0.00    -0.200 F 
ATOM     68  C   UNL     1       3.557  -3.454  16.487  1.00  0.00     0.200 A 
ATOM     69  F   UNL     1       4.336  -1.315  17.111  1.00  0.00    -0.200 F 
ATOM     70  F   UNL     1       2.816  -3.525  17.602  1.00  0.00    -0.200 F 
ENDBRANCH  46  60
BRANCH  47  71
ATOM     71  C   UNL     1      10.124  -2.262   5.559  1.00  0.00     0.064 A 
ATOM     72  C   UNL     1      10.917  -3.296   5.040  1.00  0.00     0.173 A 
ATOM     73  C   UNL     1      10.074  -1.057   4.844  1.00  0.00     0.173 A 
ATOM     74  F   UNL     1      11.013  -4.460   5.699  1.00  0.00    -0.203 F 
ATOM     75  C   UNL     1      11.647  -3.124   3.866  1.00  0.00     0.198 A 
ATOM     76  C   UNL     1      10.782  -0.897   3.654  1.00  0.00     0.198 A 
ATOM     77  F   UNL     1       9.325  -0.040   5.293  1.00  0.00    -0.203 F 
ATOM     78  F   UNL     1      12.432  -4.114   3.417  1.00  0.00    -0.200 F 
ATOM     79  C   UNL     1      11.574  -1.927   3.170  1.00  0.00     0.200 A 
ATOM     80  F   UNL     1      10.697   0.256   2.977  1.00  0.00    -0.200 F 
ATOM     81  F   UNL     1      12.272  -1.764   2.038  1.00  0.00    -0.200 F 
ENDBRANCH  47  71
BRANCH  59  82
ATOM     82  C   UNL     1      12.030  -3.054  12.214  1.00  0.00     0.064 A 
ATOM     83  C   UNL     1      12.856  -1.930  12.354  1.00  0.00     0.173 A 
ATOM     84  C   UNL     1      12.471  -4.269  12.760  1.00  0.00     0.173 A 
ATOM     85  F   UNL     1      12.484  -0.750  11.835  1.00  0.00    -0.203 F 
ATOM     86  C   UNL     1      14.088  -2.025  12.995  1.00  0.00     0.198 A 
ATOM     87  C   UNL     1      13.689  -4.353  13.428  1.00  0.00     0.198 A 
ATOM     88  F   UNL     1      11.713  -5.372  12.660  1.00  0.00    -0.203 F 
ATOM     89  F   UNL     1      14.882  -0.949  13.077  1.00  0.00    -0.200 F 
ATOM     90  C   UNL     1      14.499  -3.233  13.539  1.00  0.00     0.200 A 
ATOM     91  F   UNL     1      14.079  -5.518  13.965  1.00  0.00    -0.200 F 
ATOM     92  F   UNL     1      15.681  -3.320  14.164  1.00  0.00    -0.200 F 
ENDBRANCH  59  82
ENDBRANCH  33  34
ENDBRANCH  25  28
ENDBRANCH  23  24
ENDBRANCH   1  23
TORSDOF 13
