REMARK SMILES CCC(CC)NC(=O)NC[C@H]1CC[C@H](C(=O)NCCCNC(=O)c2ccc(-c3c4nc(c(-c5c(F)c(F)c(F)c(F)c5F)c5ccc([nH]5)c(-c5c(F)c(F)c(F)c(F)c5F)c5nc(c(-c6c(F)c(F)c(F)c(F)c6F)c6ccc3[nH]6)C=C5)C=C4)cc2)O1
REMARK SMILES IDX 18 1 17 2 15 3 16 4 14 6 11 7 12 8 87 9 13 10 10 11 9 12
REMARK SMILES IDX 6 13 7 14 8 16 3 18 2 19 1 20 4 21 5 22 19 23 20 24 21 25
REMARK SMILES IDX 22 26 23 28 24 29 25 30 86 31 26 32 85 33 27 34 28 35 29 36
REMARK SMILES IDX 79 37 30 38 84 39 78 40 80 41 31 42 83 43 77 44 76 45 32 47
REMARK SMILES IDX 64 48 44 49 63 50 45 51 48 52 62 53 81 54 46 55 47 56 61 58
REMARK SMILES IDX 82 59 49 60 33 61 34 62 42 63 35 64 36 65 40 66 43 67 37 68
REMARK SMILES IDX 38 69 41 70 39 71 65 72 66 73 74 74 67 75 68 76 72 77 75 78
REMARK SMILES IDX 69 79 70 80 73 81 71 82 50 83 51 84 59 85 52 86 53 87 57 88
REMARK SMILES IDX 60 89 54 90 55 91 58 92 56 93
REMARK H PARENT 17 5 6 15 9 17 21 27 80 46 48 57
REMARK Flexibility Score: inf
ROOT
ATOM      1  C   UNL     1       6.013  -2.934  -0.529  1.00  0.00     0.117 C 
ENDROOT
BRANCH   1   2
ATOM      2  N   UNL     1       7.182  -3.467   0.137  1.00  0.00    -0.354 N 
ATOM      3  C   UNL     1       7.355  -3.815   1.444  1.00  0.00     0.249 C 
ATOM      4  O   UNL     1       8.464  -4.245   1.773  1.00  0.00    -0.272 OA
ATOM      5  H   UNL     1       7.969  -3.599  -0.440  1.00  0.00     0.163 HD
BRANCH   3   6
ATOM      6  C   UNL     1       6.246  -3.591   2.495  1.00  0.00     0.207 C 
ATOM      7  C   UNL     1       3.995  -2.935   2.435  1.00  0.00     0.138 C 
ATOM      8  C   UNL     1       4.815  -1.667   2.572  1.00  0.00     0.037 C 
ATOM      9  O   UNL     1       4.923  -3.990   2.120  1.00  0.00    -0.363 OA
ATOM     10  C   UNL     1       6.195  -2.139   2.945  1.00  0.00     0.045 C 
BRANCH   7  11
ATOM     11  C   UNL     1       3.099  -3.323   3.627  1.00  0.00     0.149 C 
BRANCH  11  12
ATOM     12  N   UNL     1       3.749  -4.171   4.616  1.00  0.00    -0.336 N 
ATOM     13  N   UNL     1       4.033  -2.920   6.597  1.00  0.00    -0.335 N 
ATOM     14  C   UNL     1       3.997  -4.080   5.927  1.00  0.00     0.315 C 
ATOM     15  H   UNL     1       4.010  -3.023   7.576  1.00  0.00     0.165 HD
ATOM     16  O   UNL     1       4.219  -5.118   6.550  1.00  0.00    -0.249 OA
ATOM     17  H   UNL     1       4.086  -5.010   4.228  1.00  0.00     0.165 HD
BRANCH  13  18
ATOM     18  C   UNL     1       4.101  -1.541   6.150  1.00  0.00     0.083 C 
BRANCH  18  19
ATOM     19  C   UNL     1       2.891  -0.752   6.659  1.00  0.00     0.021 C 
ATOM     20  C   UNL     1       2.704   0.565   5.920  1.00  0.00     0.006 C 
ENDBRANCH  18  19
BRANCH  18  21
ATOM     21  C   UNL     1       5.481  -0.926   6.444  1.00  0.00     0.021 C 
ATOM     22  C   UNL     1       5.744  -0.551   7.891  1.00  0.00     0.006 C 
ENDBRANCH  18  21
ENDBRANCH  13  18
ENDBRANCH  11  12
ENDBRANCH   7  11
ENDBRANCH   3   6
ENDBRANCH   1   2
BRANCH   1  23
ATOM     23  C   UNL     1       6.108  -1.426  -0.721  1.00  0.00     0.042 C 
BRANCH  23  24
ATOM     24  C   UNL     1       6.912  -1.033  -1.948  1.00  0.00     0.118 C 
BRANCH  24  25
ATOM     25  N   UNL     1       6.241  -1.435  -3.176  1.00  0.00    -0.352 N 
ATOM     26  C   UNL     1       5.755  -0.678  -4.210  1.00  0.00     0.251 C 
ATOM     27  H   UNL     1       6.117  -2.406  -3.281  1.00  0.00     0.163 HD
ATOM     28  O   UNL     1       4.991  -1.185  -5.024  1.00  0.00    -0.269 OA
BRANCH  26  29
ATOM     29  C   UNL     1       6.144   0.741  -4.351  1.00  0.00     0.039 A 
ATOM     30  C   UNL     1       5.204   1.651  -4.840  1.00  0.00     0.014 A 
ATOM     31  C   UNL     1       7.443   1.166  -4.060  1.00  0.00     0.014 A 
ATOM     32  C   UNL     1       5.554   2.992  -4.999  1.00  0.00     0.010 A 
ATOM     33  C   UNL     1       7.765   2.515  -4.132  1.00  0.00     0.010 A 
ATOM     34  C   UNL     1       6.831   3.438  -4.623  1.00  0.00    -0.014 A 
BRANCH  34  35
ATOM     35  C   UNL     1       7.229   4.858  -4.773  1.00  0.00     0.031 A 
ATOM     36  C   UNL     1       8.345   5.224  -5.712  1.00  0.00     0.074 A 
ATOM     37  C   UNL     1       6.633   5.800  -4.018  1.00  0.00     0.049 A 
ATOM     38  N   UNL     1       8.908   6.388  -5.916  1.00  0.00    -0.248 NA
ATOM     39  C   UNL     1       8.927   4.130  -6.507  1.00  0.00     0.031 C 
ATOM     40  C   UNL     1       5.569   5.555  -3.043  1.00  0.00     0.029 A 
ATOM     41  N   UNL     1       6.846   7.153  -3.944  1.00  0.00    -0.354 N 
ATOM     42  C   UNL     1       9.918   6.160  -6.842  1.00  0.00     0.074 A 
ATOM     43  C   UNL     1       9.929   4.741  -7.119  1.00  0.00     0.031 C 
ATOM     44  C   UNL     1       5.208   6.721  -2.485  1.00  0.00     0.029 A 
ATOM     45  C   UNL     1       6.041   7.787  -3.031  1.00  0.00     0.049 A 
ATOM     46  H   UNL     1       7.514   7.624  -4.494  1.00  0.00     0.167 HD
ATOM     47  C   UNL     1      10.743   7.059  -7.428  1.00  0.00     0.037 A 
ATOM     48  C   UNL     1       5.990   9.083  -2.671  1.00  0.00     0.037 A 
ATOM     49  C   UNL     1      10.703   8.474  -7.171  1.00  0.00     0.049 A 
ATOM     50  C   UNL     1       6.920  10.061  -3.337  1.00  0.00     0.074 A 
ATOM     51  C   UNL     1      11.457   9.479  -7.750  1.00  0.00     0.029 A 
ATOM     52  N   UNL     1       9.854   9.084  -6.258  1.00  0.00    -0.354 N 
ATOM     53  N   UNL     1       7.831   9.844  -4.255  1.00  0.00    -0.248 NA
ATOM     54  C   UNL     1       6.809  11.466  -2.923  1.00  0.00     0.031 C 
ATOM     55  C   UNL     1      11.094  10.693  -7.157  1.00  0.00     0.029 A 
ATOM     56  C   UNL     1      10.078  10.451  -6.246  1.00  0.00     0.049 A 
ATOM     57  H   UNL     1       9.191   8.615  -5.702  1.00  0.00     0.167 HD
ATOM     58  C   UNL     1       8.379  11.085  -4.550  1.00  0.00     0.074 A 
ATOM     59  C   UNL     1       7.688  12.052  -3.724  1.00  0.00     0.031 C 
ATOM     60  C   UNL     1       9.366  11.396  -5.425  1.00  0.00     0.037 A 
BRANCH  47  61
ATOM     61  C   UNL     1      11.753   6.541  -8.411  1.00  0.00     0.064 A 
ATOM     62  C   UNL     1      11.369   6.037  -9.663  1.00  0.00     0.173 A 
ATOM     63  C   UNL     1      13.124   6.582  -8.114  1.00  0.00     0.173 A 
ATOM     64  F   UNL     1      10.070   5.963  -9.992  1.00  0.00    -0.203 F 
ATOM     65  C   UNL     1      12.317   5.568 -10.569  1.00  0.00     0.198 A 
ATOM     66  C   UNL     1      14.071   6.142  -9.035  1.00  0.00     0.198 A 
ATOM     67  F   UNL     1      13.546   7.058  -6.933  1.00  0.00    -0.203 F 
ATOM     68  F   UNL     1      11.922   5.046 -11.739  1.00  0.00    -0.200 F 
ATOM     69  C   UNL     1      13.666   5.628 -10.258  1.00  0.00     0.200 A 
ATOM     70  F   UNL     1      15.376   6.212  -8.739  1.00  0.00    -0.200 F 
ATOM     71  F   UNL     1      14.578   5.185 -11.135  1.00  0.00    -0.200 F 
ENDBRANCH  47  61
BRANCH  48  72
ATOM     72  C   UNL     1       5.011   9.536  -1.649  1.00  0.00     0.064 A 
ATOM     73  C   UNL     1       3.929  10.354  -2.003  1.00  0.00     0.173 A 
ATOM     74  C   UNL     1       5.137   9.170  -0.301  1.00  0.00     0.173 A 
ATOM     75  F   UNL     1       3.776  10.745  -3.277  1.00  0.00    -0.203 F 
ATOM     76  C   UNL     1       3.027  10.811  -1.045  1.00  0.00     0.198 A 
ATOM     77  C   UNL     1       4.217   9.602   0.651  1.00  0.00     0.198 A 
ATOM     78  F   UNL     1       6.149   8.380   0.089  1.00  0.00    -0.203 F 
ATOM     79  F   UNL     1       2.031  11.633  -1.404  1.00  0.00    -0.200 F 
ATOM     80  C   UNL     1       3.169  10.431   0.281  1.00  0.00     0.200 A 
ATOM     81  F   UNL     1       4.348   9.219   1.929  1.00  0.00    -0.200 F 
ATOM     82  F   UNL     1       2.299  10.868   1.202  1.00  0.00    -0.200 F 
ENDBRANCH  48  72
BRANCH  60  83
ATOM     83  C   UNL     1       9.727  12.846  -5.564  1.00  0.00     0.064 A 
ATOM     84  C   UNL     1      10.421  13.533  -4.558  1.00  0.00     0.173 A 
ATOM     85  C   UNL     1       9.408  13.544  -6.739  1.00  0.00     0.173 A 
ATOM     86  F   UNL     1      10.734  12.913  -3.410  1.00  0.00    -0.203 F 
ATOM     87  C   UNL     1      10.761  14.874  -4.713  1.00  0.00     0.198 A 
ATOM     88  C   UNL     1       9.777  14.876  -6.903  1.00  0.00     0.198 A 
ATOM     89  F   UNL     1       8.751  12.930  -7.734  1.00  0.00    -0.203 F 
ATOM     90  F   UNL     1      11.382  15.524  -3.719  1.00  0.00    -0.200 F 
ATOM     91  C   UNL     1      10.446  15.541  -5.887  1.00  0.00     0.200 A 
ATOM     92  F   UNL     1       9.485  15.515  -8.044  1.00  0.00    -0.200 F 
ATOM     93  F   UNL     1      10.782  16.830  -6.037  1.00  0.00    -0.200 F 
ENDBRANCH  60  83
ENDBRANCH  34  35
ENDBRANCH  26  29
ENDBRANCH  24  25
ENDBRANCH  23  24
ENDBRANCH   1  23
TORSDOF 15
