REMARK SMILES C[C@@H]1C[C@H](C)C[C@H]([N@@H+]2[C@@H](C(=O)NCCCNC(=O)c3ccc(-c4c5nc(c(-c6c(F)c(F)c(F)c(F)c6F)c6ccc([nH]6)c(-c6c(F)c(F)c(F)c(F)c6F)c6nc(c(-c7c(F)c(F)c(F)c(F)c7F)c7ccc4[nH]7)C=C6)C=C5)cc3)CC[C@@H]3CCCC[C@@H]32)C1
REMARK SMILES IDX 14 1 13 2 12 3 10 4 11 5 9 7 8 8 89 9 82 11 84 12 88 13
REMARK SMILES IDX 83 14 85 15 87 16 86 17 7 18 5 19 4 20 6 21 3 22 2 23 90 24
REMARK SMILES IDX 1 25 15 26 16 27 17 28 18 30 19 31 20 32 81 33 21 34 80 35
REMARK SMILES IDX 22 36 23 37 24 38 74 39 25 40 79 41 73 42 75 43 26 44 78 45
REMARK SMILES IDX 72 46 71 47 27 49 59 50 39 51 58 52 40 53 43 54 57 55 76 56
REMARK SMILES IDX 41 57 42 58 56 60 77 61 44 62 28 63 29 64 37 65 30 66 31 67
REMARK SMILES IDX 35 68 38 69 32 70 33 71 36 72 34 73 60 74 61 75 69 76 62 77
REMARK SMILES IDX 63 78 67 79 70 80 64 81 65 82 68 83 66 84 45 85 46 86 54 87
REMARK SMILES IDX 47 88 48 89 52 90 55 91 49 92 50 93 53 94 51 95
REMARK H PARENT 12 6 8 10 16 29 75 48 43 59
REMARK Flexibility Score: inf
ROOT
ATOM      1  C   UNL     1       1.672   3.185   2.834  1.00  0.00     0.042 C 
ENDROOT
BRANCH   1   2
ATOM      2  C   UNL     1       1.873   2.027   3.804  1.00  0.00     0.118 C 
BRANCH   2   3
ATOM      3  N   UNL     1       0.671   1.210   3.951  1.00  0.00    -0.351 N 
ATOM      4  C   UNL     1       0.725  -0.153   3.758  1.00  0.00     0.278 C 
ATOM      5  O   UNL     1       1.276  -0.857   4.605  1.00  0.00    -0.268 OA
ATOM      6  H   UNL     1      -0.184   1.636   4.190  1.00  0.00     0.163 HD
BRANCH   4   7
ATOM      7  C   UNL     1       0.025  -0.747   2.497  1.00  0.00     0.274 C 
ATOM      8  N   UNL     1       1.008  -1.255   1.512  1.00  0.00    -0.320 N 
ATOM      9  C   UNL     1       1.716  -0.173   0.833  1.00  0.00     0.188 C 
ATOM     10  H   UNL     1       1.893  -1.649   1.192  1.00  0.00     0.349 HD
ATOM     11  C   UNL     1      -1.034   0.111   1.809  1.00  0.00     0.076 C 
ATOM     12  C   UNL     1       0.823   0.825   0.070  1.00  0.00     0.048 C 
ATOM     13  C   UNL     1       3.095  -0.354   0.198  1.00  0.00     0.065 C 
ATOM     14  C   UNL     1      -0.566   1.061   0.701  1.00  0.00     0.016 C 
ATOM     15  C   UNL     1       0.769   0.652  -1.446  1.00  0.00     0.010 C 
ATOM     16  C   UNL     1       3.321   0.242  -1.189  1.00  0.00     0.006 C 
ATOM     17  C   UNL     1       2.120   0.401  -2.111  1.00  0.00     0.001 C 
BRANCH   8  18
ATOM     18  C   UNL     1       0.966  -2.716   1.327  1.00  0.00     0.185 C 
ATOM     19  C   UNL     1      -1.397  -2.336  -1.470  1.00  0.00     0.008 C 
ATOM     20  C   UNL     1      -0.313  -3.246  -0.890  1.00  0.00    -0.008 C 
ATOM     21  C   UNL     1      -0.333  -3.229   0.646  1.00  0.00     0.068 C 
ATOM     22  C   UNL     1       1.079  -2.950  -1.456  1.00  0.00     0.007 C 
ATOM     23  C   UNL     1       2.154  -3.775  -0.750  1.00  0.00    -0.008 C 
ATOM     24  C   UNL     1       2.162  -3.523   0.770  1.00  0.00     0.068 C 
ATOM     25  C   UNL     1       3.543  -3.609  -1.374  1.00  0.00     0.008 C 
ENDBRANCH   8  18
ENDBRANCH   4   7
ENDBRANCH   2   3
ENDBRANCH   1   2
BRANCH   1  26
ATOM     26  C   UNL     1       0.495   4.090   3.177  1.00  0.00     0.118 C 
BRANCH  26  27
ATOM     27  N   UNL     1       0.908   5.165   4.057  1.00  0.00    -0.352 N 
ATOM     28  C   UNL     1       1.109   6.490   3.765  1.00  0.00     0.251 C 
ATOM     29  H   UNL     1       1.065   4.909   4.994  1.00  0.00     0.163 HD
ATOM     30  O   UNL     1       1.770   7.182   4.534  1.00  0.00    -0.269 OA
BRANCH  28  31
ATOM     31  C   UNL     1       0.535   7.105   2.543  1.00  0.00     0.039 A 
ATOM     32  C   UNL     1       1.282   8.082   1.875  1.00  0.00     0.014 A 
ATOM     33  C   UNL     1      -0.766   6.820   2.115  1.00  0.00     0.014 A 
ATOM     34  C   UNL     1       0.729   8.769   0.790  1.00  0.00     0.010 A 
ATOM     35  C   UNL     1      -1.294   7.460   0.992  1.00  0.00     0.010 A 
ATOM     36  C   UNL     1      -0.566   8.467   0.340  1.00  0.00    -0.014 A 
BRANCH  36  37
ATOM     37  C   UNL     1      -1.185   9.247  -0.765  1.00  0.00     0.031 A 
ATOM     38  C   UNL     1      -2.364  10.145  -0.490  1.00  0.00     0.074 A 
ATOM     39  C   UNL     1      -0.703   9.144  -2.018  1.00  0.00     0.049 A 
ATOM     40  N   UNL     1      -3.042  10.901  -1.318  1.00  0.00    -0.248 NA
ATOM     41  C   UNL     1      -2.861  10.181   0.894  1.00  0.00     0.031 C 
ATOM     42  C   UNL     1       0.405   8.282  -2.427  1.00  0.00     0.029 A 
ATOM     43  N   UNL     1      -1.087   9.770  -3.179  1.00  0.00    -0.354 N 
ATOM     44  C   UNL     1      -4.051  11.484  -0.561  1.00  0.00     0.074 A 
ATOM     45  C   UNL     1      -3.926  10.961   0.781  1.00  0.00     0.031 C 
ATOM     46  C   UNL     1       0.626   8.448  -3.741  1.00  0.00     0.029 A 
ATOM     47  C   UNL     1      -0.338   9.409  -4.271  1.00  0.00     0.049 A 
ATOM     48  H   UNL     1      -1.829  10.415  -3.223  1.00  0.00     0.167 HD
ATOM     49  C   UNL     1      -4.981  12.392  -0.943  1.00  0.00     0.037 A 
ATOM     50  C   UNL     1      -0.416   9.811  -5.554  1.00  0.00     0.037 A 
ATOM     51  C   UNL     1      -5.083  12.946  -2.268  1.00  0.00     0.049 A 
ATOM     52  C   UNL     1      -1.441  10.840  -5.948  1.00  0.00     0.074 A 
ATOM     53  C   UNL     1      -5.949  13.921  -2.732  1.00  0.00     0.029 A 
ATOM     54  N   UNL     1      -4.287  12.574  -3.341  1.00  0.00    -0.354 N 
ATOM     55  N   UNL     1      -2.343  11.435  -5.207  1.00  0.00    -0.248 NA
ATOM     56  C   UNL     1      -1.450  11.261  -7.356  1.00  0.00     0.031 C 
ATOM     57  C   UNL     1      -5.703  14.112  -4.096  1.00  0.00     0.029 A 
ATOM     58  C   UNL     1      -4.654  13.288  -4.471  1.00  0.00     0.049 A 
ATOM     59  H   UNL     1      -3.568  11.902  -3.305  1.00  0.00     0.167 HD
ATOM     60  C   UNL     1      -3.007  12.318  -6.048  1.00  0.00     0.074 A 
ATOM     61  C   UNL     1      -2.396  12.191  -7.354  1.00  0.00     0.031 C 
ATOM     62  C   UNL     1      -4.031  13.159  -5.762  1.00  0.00     0.037 A 
BRANCH  49  63
ATOM     63  C   UNL     1      -5.968  12.852   0.091  1.00  0.00     0.064 A 
ATOM     64  C   UNL     1      -5.587  13.690   1.150  1.00  0.00     0.173 A 
ATOM     65  C   UNL     1      -7.319  12.483  -0.001  1.00  0.00     0.173 A 
ATOM     66  F   UNL     1      -4.306  14.062   1.288  1.00  0.00    -0.203 F 
ATOM     67  C   UNL     1      -6.516  14.118   2.095  1.00  0.00     0.198 A 
ATOM     68  C   UNL     1      -8.251  12.937   0.929  1.00  0.00     0.198 A 
ATOM     69  F   UNL     1      -7.738  11.690  -0.998  1.00  0.00    -0.203 F 
ATOM     70  F   UNL     1      -6.120  14.880   3.124  1.00  0.00    -0.200 F 
ATOM     71  C   UNL     1      -7.847  13.747   1.980  1.00  0.00     0.200 A 
ATOM     72  F   UNL     1      -9.539  12.588   0.810  1.00  0.00    -0.200 F 
ATOM     73  F   UNL     1      -8.741  14.165   2.887  1.00  0.00    -0.200 F 
ENDBRANCH  49  63
BRANCH  50  74
ATOM     74  C   UNL     1       0.533   9.264  -6.557  1.00  0.00     0.064 A 
ATOM     75  C   UNL     1       1.555  10.062  -7.091  1.00  0.00     0.173 A 
ATOM     76  C   UNL     1       0.442   7.936  -6.998  1.00  0.00     0.173 A 
ATOM     77  F   UNL     1       1.668  11.344  -6.715  1.00  0.00    -0.203 F 
ATOM     78  C   UNL     1       2.439   9.556  -8.041  1.00  0.00     0.198 A 
ATOM     79  C   UNL     1       1.342   7.425  -7.930  1.00  0.00     0.198 A 
ATOM     80  F   UNL     1      -0.516   7.133  -6.514  1.00  0.00    -0.203 F 
ATOM     81  F   UNL     1       3.382  10.351  -8.566  1.00  0.00    -0.200 F 
ATOM     82  C   UNL     1       2.336   8.237  -8.456  1.00  0.00     0.200 A 
ATOM     83  F   UNL     1       1.247   6.146  -8.318  1.00  0.00    -0.200 F 
ATOM     84  F   UNL     1       3.190   7.750  -9.366  1.00  0.00    -0.200 F 
ENDBRANCH  50  74
BRANCH  62  85
ATOM     85  C   UNL     1      -4.536  14.032  -6.872  1.00  0.00     0.064 A 
ATOM     86  C   UNL     1      -5.302  13.512  -7.926  1.00  0.00     0.173 A 
ATOM     87  C   UNL     1      -4.283  15.412  -6.860  1.00  0.00     0.173 A 
ATOM     88  F   UNL     1      -5.558  12.197  -7.989  1.00  0.00    -0.203 F 
ATOM     89  C   UNL     1      -5.778  14.340  -8.939  1.00  0.00     0.198 A 
ATOM     90  C   UNL     1      -4.783  16.241  -7.861  1.00  0.00     0.198 A 
ATOM     91  F   UNL     1      -3.561  15.959  -5.871  1.00  0.00    -0.203 F 
ATOM     92  F   UNL     1      -6.472  13.816  -9.959  1.00  0.00    -0.200 F 
ATOM     93  C   UNL     1      -5.524  15.703  -8.903  1.00  0.00     0.200 A 
ATOM     94  F   UNL     1      -4.546  17.559  -7.819  1.00  0.00    -0.200 F 
ATOM     95  F   UNL     1      -5.988  16.499  -9.876  1.00  0.00    -0.200 F 
ENDBRANCH  62  85
ENDBRANCH  36  37
ENDBRANCH  28  31
ENDBRANCH  26  27
ENDBRANCH   1  26
TORSDOF 11
