REMARK SMILES CC1=C(C#N)c2nc(N)c(C#N)c(C)c2/C1=C\c1ccc(OCC(=O)NCCCNC(=O)c2ccc(-c3c4nc(c(-c5c(F)c(F)c(F)c(F)c5F)c5ccc([nH]5)c(-c5c(F)c(F)c(F)c(F)c5F)c5nc(c(-c6c(F)c(F)c(F)c(F)c6F)c6ccc3[nH]6)C=C5)C=C4)cc2)c(Cl)c1
REMARK SMILES IDX 27 1 26 2 24 3 25 4 23 6 22 7 21 8 18 9 19 10 98 11 20 12
REMARK SMILES IDX 96 13 97 14 17 15 1 16 2 17 3 18 16 19 6 20 15 21 7 22 13 23
REMARK SMILES IDX 8 24 10 25 14 26 4 27 5 28 9 29 11 32 12 33 28 34 29 35
REMARK SMILES IDX 30 36 31 37 32 39 33 40 34 41 95 42 35 43 94 44 36 45 37 46
REMARK SMILES IDX 38 47 88 48 39 49 93 50 87 51 89 52 40 53 92 54 86 55 85 56
REMARK SMILES IDX 41 58 73 59 53 60 72 61 54 62 57 63 71 64 90 65 55 66 56 67
REMARK SMILES IDX 70 69 91 70 58 71 42 72 43 73 51 74 44 75 45 76 49 77 52 78
REMARK SMILES IDX 46 79 47 80 50 81 48 82 74 83 75 84 83 85 76 86 77 87 81 88
REMARK SMILES IDX 84 89 78 90 79 91 82 92 80 93 59 94 60 95 68 96 61 97 62 98
REMARK SMILES IDX 66 99 69 100 63 101 64 102 67 103 65 104
REMARK H PARENT 26 5 9 30 9 31 30 38 89 57 57 68
REMARK Flexibility Score: inf
ROOT
ATOM      1  C   UNL     1       1.500   8.149  -6.384  1.00  0.00     0.117 C 
ENDROOT
BRANCH   1   2
ATOM      2  N   UNL     1       0.163   7.650  -6.131  1.00  0.00    -0.353 N 
ATOM      3  C   UNL     1      -0.625   7.802  -5.026  1.00  0.00     0.257 C 
ATOM      4  O   UNL     1      -1.748   7.296  -5.053  1.00  0.00    -0.271 OA
ATOM      5  H   UNL     1      -0.236   7.125  -6.862  1.00  0.00     0.163 HD
BRANCH   3   6
ATOM      6  C   UNL     1      -0.126   8.625  -3.825  1.00  0.00     0.329 C 
BRANCH   6   7
ATOM      7  O   UNL     1       0.914   8.125  -3.000  1.00  0.00    -0.482 OA
BRANCH   7   8
ATOM      8  C   UNL     1       0.783   6.927  -2.354  1.00  0.00     0.138 A 
ATOM      9  C   UNL     1       0.940   4.282  -1.366  1.00  0.00    -0.023 A 
ATOM     10  C   UNL     1       2.108   4.994  -1.640  1.00  0.00     0.012 A 
ATOM     11  C   UNL     1      -0.284   4.956  -1.408  1.00  0.00     0.032 A 
ATOM     12  C   UNL     1       2.024   6.298  -2.144  1.00  0.00     0.048 A 
ATOM     13  C   UNL     1      -0.367   6.279  -1.885  1.00  0.00     0.083 A 
ATOM     14  Cl  UNL     1      -1.938   6.988  -1.824  1.00  0.00    -0.080 Cl
BRANCH   9  15
ATOM     15  C   UNL     1       0.986   2.842  -1.086  1.00  0.00     0.017 C 
ATOM     16  C   UNL     1       1.042  -0.004  -0.019  1.00  0.00     0.046 C 
ATOM     17  C   UNL     1       0.605   0.409  -1.387  1.00  0.00    -0.023 C 
ATOM     18  C   UNL     1       0.097  -0.398  -2.341  1.00  0.00     0.082 C 
ATOM     19  C   UNL     1       0.648   1.811  -1.894  1.00  0.00    -0.011 C 
ATOM     20  C   UNL     1      -0.178   0.420  -3.526  1.00  0.00     0.092 A 
ATOM     21  C   UNL     1       0.188   1.761  -3.317  1.00  0.00     0.014 A 
ATOM     22  N   UNL     1      -0.664  -0.106  -4.668  1.00  0.00    -0.228 NA
ATOM     23  C   UNL     1       0.094   2.615  -4.421  1.00  0.00    -0.019 A 
ATOM     24  C   UNL     1      -0.842   0.750  -5.693  1.00  0.00     0.142 A 
ATOM     25  C   UNL     1      -0.489   2.103  -5.610  1.00  0.00     0.098 A 
ATOM     26  C   UNL     1       0.586   4.027  -4.439  1.00  0.00     0.046 C 
BRANCH  18  27
ATOM     27  C   UNL     1      -0.116  -1.901  -2.257  1.00  0.00     0.102 C 
ATOM     28  N   UNL     1      -0.292  -3.148  -2.188  1.00  0.00    -0.192 NA
ENDBRANCH  18  27
BRANCH  24  29
ATOM     29  N   UNL     1      -1.284   0.177  -6.870  1.00  0.00    -0.383 N 
ATOM     30  H   UNL     1      -1.524  -0.777  -6.894  1.00  0.00     0.158 HD
ATOM     31  H   UNL     1      -1.360   0.724  -7.686  1.00  0.00     0.158 HD
ENDBRANCH  24  29
BRANCH  25  32
ATOM     32  C   UNL     1      -0.708   2.956  -6.747  1.00  0.00     0.103 C 
ATOM     33  N   UNL     1      -0.863   3.671  -7.647  1.00  0.00    -0.192 NA
ENDBRANCH  25  32
ENDBRANCH   9  15
ENDBRANCH   7   8
ENDBRANCH   6   7
ENDBRANCH   3   6
ENDBRANCH   1   2
BRANCH   1  34
ATOM     34  C   UNL     1       2.511   7.018  -6.527  1.00  0.00     0.042 C 
BRANCH  34  35
ATOM     35  C   UNL     1       2.229   6.067  -7.687  1.00  0.00     0.118 C 
BRANCH  35  36
ATOM     36  N   UNL     1       2.325   6.703  -8.994  1.00  0.00    -0.352 N 
ATOM     37  C   UNL     1       3.146   6.421 -10.058  1.00  0.00     0.251 C 
ATOM     38  H   UNL     1       1.703   7.452  -9.137  1.00  0.00     0.163 HD
ATOM     39  O   UNL     1       3.162   7.162 -11.036  1.00  0.00    -0.269 OA
BRANCH  37  40
ATOM     40  C   UNL     1       4.044   5.248 -10.015  1.00  0.00     0.039 A 
ATOM     41  C   UNL     1       5.370   5.402 -10.428  1.00  0.00     0.014 A 
ATOM     42  C   UNL     1       3.588   4.004  -9.570  1.00  0.00     0.014 A 
ATOM     43  C   UNL     1       6.256   4.330 -10.322  1.00  0.00     0.010 A 
ATOM     44  C   UNL     1       4.493   2.964  -9.379  1.00  0.00     0.010 A 
ATOM     45  C   UNL     1       5.835   3.115  -9.757  1.00  0.00    -0.014 A 
BRANCH  45  46
ATOM     46  C   UNL     1       6.786   1.990  -9.569  1.00  0.00     0.031 A 
ATOM     47  C   UNL     1       6.588   0.702 -10.314  1.00  0.00     0.074 A 
ATOM     48  C   UNL     1       7.812   2.120  -8.707  1.00  0.00     0.049 A 
ATOM     49  N   UNL     1       7.302  -0.396 -10.273  1.00  0.00    -0.248 NA
ATOM     50  C   UNL     1       5.424   0.628 -11.210  1.00  0.00     0.031 C 
ATOM     51  C   UNL     1       8.097   3.314  -7.911  1.00  0.00     0.029 A 
ATOM     52  N   UNL     1       8.811   1.244  -8.362  1.00  0.00    -0.354 N 
ATOM     53  C   UNL     1       6.679  -1.280 -11.143  1.00  0.00     0.074 A 
ATOM     54  C   UNL     1       5.485  -0.626 -11.630  1.00  0.00     0.031 C 
ATOM     55  C   UNL     1       9.223   3.114  -7.209  1.00  0.00     0.029 A 
ATOM     56  C   UNL     1       9.714   1.763  -7.468  1.00  0.00     0.049 A 
ATOM     57  H   UNL     1       8.874   0.330  -8.723  1.00  0.00     0.167 HD
ATOM     58  C   UNL     1       7.087  -2.512 -11.533  1.00  0.00     0.037 A 
ATOM     59  C   UNL     1      10.817   1.214  -6.921  1.00  0.00     0.037 A 
ATOM     60  C   UNL     1       8.272  -3.162 -11.038  1.00  0.00     0.049 A 
ATOM     61  C   UNL     1      11.206  -0.188  -7.304  1.00  0.00     0.074 A 
ATOM     62  C   UNL     1       8.777  -4.405 -11.375  1.00  0.00     0.029 A 
ATOM     63  N   UNL     1       9.135  -2.623 -10.093  1.00  0.00    -0.354 N 
ATOM     64  N   UNL     1      10.639  -0.998  -8.164  1.00  0.00    -0.248 NA
ATOM     65  C   UNL     1      12.390  -0.750  -6.641  1.00  0.00     0.031 C 
ATOM     66  C   UNL     1       9.908  -4.644 -10.589  1.00  0.00     0.029 A 
ATOM     67  C   UNL     1      10.151  -3.522  -9.812  1.00  0.00     0.049 A 
ATOM     68  H   UNL     1       9.039  -1.733  -9.683  1.00  0.00     0.167 HD
ATOM     69  C   UNL     1      11.409  -2.153  -8.168  1.00  0.00     0.074 A 
ATOM     70  C   UNL     1      12.494  -1.932  -7.234  1.00  0.00     0.031 C 
ATOM     71  C   UNL     1      11.229  -3.293  -8.881  1.00  0.00     0.037 A 
BRANCH  58  72
ATOM     72  C   UNL     1       6.244  -3.228 -12.550  1.00  0.00     0.064 A 
ATOM     73  C   UNL     1       6.126  -2.755 -13.868  1.00  0.00     0.173 A 
ATOM     74  C   UNL     1       5.565  -4.410 -12.219  1.00  0.00     0.173 A 
ATOM     75  F   UNL     1       6.746  -1.623 -14.237  1.00  0.00    -0.203 F 
ATOM     76  C   UNL     1       5.330  -3.414 -14.800  1.00  0.00     0.198 A 
ATOM     77  C   UNL     1       4.803  -5.090 -13.167  1.00  0.00     0.198 A 
ATOM     78  F   UNL     1       5.648  -4.914 -10.979  1.00  0.00    -0.203 F 
ATOM     79  F   UNL     1       5.183  -2.905 -16.032  1.00  0.00    -0.200 F 
ATOM     80  C   UNL     1       4.676  -4.585 -14.452  1.00  0.00     0.200 A 
ATOM     81  F   UNL     1       4.187  -6.232 -12.834  1.00  0.00    -0.200 F 
ATOM     82  F   UNL     1       3.917  -5.224 -15.353  1.00  0.00    -0.200 F 
ENDBRANCH  58  72
BRANCH  59  83
ATOM     83  C   UNL     1      11.657   2.026  -6.002  1.00  0.00     0.064 A 
ATOM     84  C   UNL     1      12.928   2.465  -6.400  1.00  0.00     0.173 A 
ATOM     85  C   UNL     1      11.195   2.425  -4.739  1.00  0.00     0.173 A 
ATOM     86  F   UNL     1      13.422   2.094  -7.590  1.00  0.00    -0.203 F 
ATOM     87  C   UNL     1      13.702   3.275  -5.572  1.00  0.00     0.198 A 
ATOM     88  C   UNL     1      11.958   3.259  -3.924  1.00  0.00     0.198 A 
ATOM     89  F   UNL     1       9.985   2.036  -4.312  1.00  0.00    -0.203 F 
ATOM     90  F   UNL     1      14.922   3.663  -5.968  1.00  0.00    -0.200 F 
ATOM     91  C   UNL     1      13.212   3.681  -4.340  1.00  0.00     0.200 A 
ATOM     92  F   UNL     1      11.472   3.665  -2.743  1.00  0.00    -0.200 F 
ATOM     93  F   UNL     1      13.946   4.481  -3.554  1.00  0.00    -0.200 F 
ENDBRANCH  59  83
BRANCH  71  94
ATOM     94  C   UNL     1      12.233  -4.398  -8.701  1.00  0.00     0.064 A 
ATOM     95  C   UNL     1      12.304  -5.140  -7.513  1.00  0.00     0.173 A 
ATOM     96  C   UNL     1      13.074  -4.775  -9.760  1.00  0.00     0.173 A 
ATOM     97  F   UNL     1      11.531  -4.815  -6.465  1.00  0.00    -0.203 F 
ATOM     98  C   UNL     1      13.188  -6.209  -7.388  1.00  0.00     0.198 A 
ATOM     99  C   UNL     1      13.931  -5.866  -9.644  1.00  0.00     0.198 A 
ATOM    100  F   UNL     1      13.042  -4.104 -10.921  1.00  0.00    -0.203 F 
ATOM    101  F   UNL     1      13.266  -6.879  -6.229  1.00  0.00    -0.200 F 
ATOM    102  C   UNL     1      13.991  -6.579  -8.456  1.00  0.00     0.200 A 
ATOM    103  F   UNL     1      14.689  -6.235 -10.685  1.00  0.00    -0.200 F 
ATOM    104  F   UNL     1      14.824  -7.622  -8.341  1.00  0.00    -0.200 F 
ENDBRANCH  71  94
ENDBRANCH  45  46
ENDBRANCH  37  40
ENDBRANCH  35  36
ENDBRANCH  34  35
ENDBRANCH   1  34
TORSDOF 16
