REMARK SMILES [NH3+]C1(CC(=O)N[C@@H]2CCCC[C@H]2C(=O)NCCCNC(=O)c2ccc(-c3c4nc(c(-c5c(F)c(F)c(F)c(F)c5F)c5ccc([nH]5)c(-c5c(F)c(F)c(F)c(F)c5F)c5nc(c(-c6c(F)c(F)c(F)c(F)c6F)c6ccc3[nH]6)C=C5)C=C4)cc2)CCC1
REMARK SMILES IDX 16 1 15 2 13 3 14 4 12 6 7 7 8 8 9 9 11 10 10 11 6 12 4 13
REMARK SMILES IDX 5 14 3 16 2 17 85 18 87 19 86 20 1 21 17 25 18 26 19 27
REMARK SMILES IDX 20 28 21 30 22 31 23 32 84 33 24 34 83 35 25 36 26 37 27 38
REMARK SMILES IDX 77 39 28 40 82 41 76 42 78 43 29 44 81 45 75 46 74 47 30 49
REMARK SMILES IDX 62 50 42 51 61 52 43 53 46 54 60 55 79 56 44 57 45 58 59 60
REMARK SMILES IDX 80 61 47 62 31 63 32 64 40 65 33 66 34 67 38 68 41 69 35 70
REMARK SMILES IDX 36 71 39 72 37 73 63 74 64 75 72 76 65 77 66 78 70 79 73 80
REMARK SMILES IDX 67 81 68 82 71 83 69 84 48 85 49 86 57 87 50 88 51 89 55 90
REMARK SMILES IDX 58 91 52 92 53 93 56 94 54 95
REMARK H PARENT 15 5 6 15 1 22 1 23 1 24 19 29 78 48 46 59
REMARK Flexibility Score: inf
ROOT
ATOM      1  C   UNL     1      -0.874   1.001  -6.202  1.00  0.00     0.117 C 
ENDROOT
BRANCH   1   2
ATOM      2  N   UNL     1      -0.520  -0.123  -5.367  1.00  0.00    -0.356 N 
ATOM      3  C   UNL     1      -0.401  -0.259  -4.034  1.00  0.00     0.225 C 
ATOM      4  O   UNL     1       0.198  -1.270  -3.661  1.00  0.00    -0.275 OA
ATOM      5  H   UNL     1      -0.329  -0.948  -5.870  1.00  0.00     0.163 HD
BRANCH   3   6
ATOM      6  C   UNL     1      -1.091   0.680  -3.057  1.00  0.00     0.101 C 
ATOM      7  C   UNL     1      -0.539   2.110  -2.935  1.00  0.00     0.094 C 
ATOM      8  C   UNL     1      -1.562   3.099  -2.332  1.00  0.00     0.026 C 
ATOM      9  C   UNL     1      -2.975   2.929  -2.860  1.00  0.00     0.002 C 
ATOM     10  C   UNL     1      -2.606   0.518  -3.297  1.00  0.00     0.015 C 
ATOM     11  C   UNL     1      -3.463   1.526  -2.561  1.00  0.00     0.001 C 
BRANCH   7  12
ATOM     12  N   UNL     1       0.714   2.317  -2.158  1.00  0.00    -0.352 N 
ATOM     13  C   UNL     1       1.316   1.690  -1.103  1.00  0.00     0.226 C 
ATOM     14  O   UNL     1       1.936   2.408  -0.312  1.00  0.00    -0.275 OA
ATOM     15  H   UNL     1       1.232   3.090  -2.480  1.00  0.00     0.163 HD
BRANCH  13  16
ATOM     16  C   UNL     1       1.431   0.190  -1.037  1.00  0.00     0.168 C 
BRANCH  16  17
ATOM     17  C   UNL     1       0.658  -0.602   0.016  1.00  0.00     0.103 C 
ATOM     18  C   UNL     1       0.604  -2.130  -0.313  1.00  0.00     0.069 C 
ATOM     19  C   UNL     1      -0.894  -0.675   0.205  1.00  0.00     0.069 C 
ATOM     20  C   UNL     1      -0.900  -1.981  -0.615  1.00  0.00     0.013 C 
BRANCH  17  21
ATOM     21  N   UNL     1       1.214  -0.459   1.369  1.00  0.00    -0.352 N 
ATOM     22  H   UNL     1       2.231  -0.405   1.315  1.00  0.00     0.344 HD
ATOM     23  H   UNL     1       0.945  -1.265   1.934  1.00  0.00     0.344 HD
ATOM     24  H   UNL     1       0.851   0.392   1.798  1.00  0.00     0.344 HD
ENDBRANCH  17  21
ENDBRANCH  16  17
ENDBRANCH  13  16
ENDBRANCH   7  12
ENDBRANCH   3   6
ENDBRANCH   1   2
BRANCH   1  25
ATOM     25  C   UNL     1       0.377   1.732  -6.672  1.00  0.00     0.042 C 
BRANCH  25  26
ATOM     26  C   UNL     1       1.522   0.791  -7.038  1.00  0.00     0.118 C 
BRANCH  26  27
ATOM     27  N   UNL     1       1.122  -0.224  -8.011  1.00  0.00    -0.352 N 
ATOM     28  C   UNL     1       1.259  -0.234  -9.376  1.00  0.00     0.251 C 
ATOM     29  H   UNL     1       0.690  -1.022  -7.629  1.00  0.00     0.163 HD
ATOM     30  O   UNL     1       0.633  -1.020 -10.066  1.00  0.00    -0.269 OA
BRANCH  28  31
ATOM     31  C   UNL     1       2.169   0.746  -9.985  1.00  0.00     0.039 A 
ATOM     32  C   UNL     1       1.738   1.501 -11.075  1.00  0.00     0.014 A 
ATOM     33  C   UNL     1       3.432   0.941  -9.425  1.00  0.00     0.014 A 
ATOM     34  C   UNL     1       2.563   2.511 -11.564  1.00  0.00     0.010 A 
ATOM     35  C   UNL     1       4.191   2.022  -9.829  1.00  0.00     0.010 A 
ATOM     36  C   UNL     1       3.776   2.801 -10.918  1.00  0.00    -0.014 A 
BRANCH  36  37
ATOM     37  C   UNL     1       4.672   3.882 -11.387  1.00  0.00     0.031 A 
ATOM     38  C   UNL     1       6.063   3.531 -11.833  1.00  0.00     0.074 A 
ATOM     39  C   UNL     1       4.267   5.163 -11.325  1.00  0.00     0.049 A 
ATOM     40  N   UNL     1       7.055   4.320 -12.153  1.00  0.00    -0.248 NA
ATOM     41  C   UNL     1       6.400   2.097 -11.882  1.00  0.00     0.031 C 
ATOM     42  C   UNL     1       2.956   5.619 -10.860  1.00  0.00     0.029 A 
ATOM     43  N   UNL     1       4.928   6.322 -11.643  1.00  0.00    -0.354 N 
ATOM     44  C   UNL     1       8.130   3.481 -12.412  1.00  0.00     0.074 A 
ATOM     45  C   UNL     1       7.697   2.131 -12.140  1.00  0.00     0.031 C 
ATOM     46  C   UNL     1       2.899   6.958 -10.949  1.00  0.00     0.029 A 
ATOM     47  C   UNL     1       4.183   7.456 -11.432  1.00  0.00     0.049 A 
ATOM     48  H   UNL     1       5.849   6.338 -11.990  1.00  0.00     0.167 HD
ATOM     49  C   UNL     1       9.361   3.808 -12.870  1.00  0.00     0.037 A 
ATOM     50  C   UNL     1       4.510   8.750 -11.604  1.00  0.00     0.037 A 
ATOM     51  C   UNL     1       9.766   5.152 -13.172  1.00  0.00     0.049 A 
ATOM     52  C   UNL     1       5.887   9.087 -12.112  1.00  0.00     0.074 A 
ATOM     53  C   UNL     1      10.967   5.595 -13.696  1.00  0.00     0.029 A 
ATOM     54  N   UNL     1       8.972   6.274 -12.979  1.00  0.00    -0.354 N 
ATOM     55  N   UNL     1       6.878   8.284 -12.418  1.00  0.00    -0.248 NA
ATOM     56  C   UNL     1       6.189  10.511 -12.307  1.00  0.00     0.031 C 
ATOM     57  C   UNL     1      10.918   6.990 -13.773  1.00  0.00     0.029 A 
ATOM     58  C   UNL     1       9.665   7.412 -13.356  1.00  0.00     0.049 A 
ATOM     59  H   UNL     1       8.053   6.263 -12.625  1.00  0.00     0.167 HD
ATOM     60  C   UNL     1       7.904   9.098 -12.876  1.00  0.00     0.074 A 
ATOM     61  C   UNL     1       7.411  10.459 -12.817  1.00  0.00     0.031 C 
ATOM     62  C   UNL     1       9.142   8.754 -13.309  1.00  0.00     0.037 A 
BRANCH  49  63
ATOM     63  C   UNL     1      10.343   2.691 -13.076  1.00  0.00     0.064 A 
ATOM     64  C   UNL     1      10.158   1.720 -14.073  1.00  0.00     0.173 A 
ATOM     65  C   UNL     1      11.494   2.599 -12.279  1.00  0.00     0.173 A 
ATOM     66  F   UNL     1       9.067   1.751 -14.852  1.00  0.00    -0.203 F 
ATOM     67  C   UNL     1      11.069   0.680 -14.240  1.00  0.00     0.198 A 
ATOM     68  C   UNL     1      12.421   1.579 -12.473  1.00  0.00     0.198 A 
ATOM     69  F   UNL     1      11.723   3.501 -11.313  1.00  0.00    -0.203 F 
ATOM     70  F   UNL     1      10.837  -0.270 -15.157  1.00  0.00    -0.200 F 
ATOM     71  C   UNL     1      12.203   0.615 -13.446  1.00  0.00     0.200 A 
ATOM     72  F   UNL     1      13.525   1.525 -11.715  1.00  0.00    -0.200 F 
ATOM     73  F   UNL     1      13.083  -0.383 -13.613  1.00  0.00    -0.200 F 
ENDBRANCH  49  63
BRANCH  50  74
ATOM     74  C   UNL     1       3.514   9.817 -11.323  1.00  0.00     0.064 A 
ATOM     75  C   UNL     1       2.975  10.588 -12.363  1.00  0.00     0.173 A 
ATOM     76  C   UNL     1       3.083  10.094 -10.018  1.00  0.00     0.173 A 
ATOM     77  F   UNL     1       3.366  10.371 -13.628  1.00  0.00    -0.203 F 
ATOM     78  C   UNL     1       2.068  11.613 -12.106  1.00  0.00     0.198 A 
ATOM     79  C   UNL     1       2.151  11.099  -9.764  1.00  0.00     0.198 A 
ATOM     80  F   UNL     1       3.557   9.378  -8.987  1.00  0.00    -0.203 F 
ATOM     81  F   UNL     1       1.610  12.368 -13.114  1.00  0.00    -0.200 F 
ATOM     82  C   UNL     1       1.653  11.865 -10.807  1.00  0.00     0.200 A 
ATOM     83  F   UNL     1       1.738  11.326  -8.510  1.00  0.00    -0.200 F 
ATOM     84  F   UNL     1       0.778  12.849 -10.560  1.00  0.00    -0.200 F 
ENDBRANCH  50  74
BRANCH  62  85
ATOM     85  C   UNL     1      10.030   9.855 -13.809  1.00  0.00     0.064 A 
ATOM     86  C   UNL     1      10.608  10.792 -12.941  1.00  0.00     0.173 A 
ATOM     87  C   UNL     1      10.352   9.934 -15.173  1.00  0.00     0.173 A 
ATOM     88  F   UNL     1      10.320  10.767 -11.631  1.00  0.00    -0.203 F 
ATOM     89  C   UNL     1      11.459  11.782 -13.424  1.00  0.00     0.198 A 
ATOM     90  C   UNL     1      11.230  10.903 -15.646  1.00  0.00     0.198 A 
ATOM     91  F   UNL     1       9.832   9.055 -16.043  1.00  0.00    -0.203 F 
ATOM     92  F   UNL     1      11.963  12.696 -12.584  1.00  0.00    -0.200 F 
ATOM     93  C   UNL     1      11.777  11.831 -14.773  1.00  0.00     0.200 A 
ATOM     94  F   UNL     1      11.550  10.937 -16.947  1.00  0.00    -0.200 F 
ATOM     95  F   UNL     1      12.607  12.777 -15.233  1.00  0.00    -0.200 F 
ENDBRANCH  62  85
ENDBRANCH  36  37
ENDBRANCH  28  31
ENDBRANCH  26  27
ENDBRANCH  25  26
ENDBRANCH   1  25
TORSDOF 14
