REMARK SMILES COC(=O)c1nccc(N2CCO[C@H](CC(=O)NCCCNC(=O)c3ccc(-c4c5nc(c(-c6c(F)c(F)c(F)c(F)c6F)c6ccc([nH]6)c(-c6c(F)c(F)c(F)c(F)c6F)c6nc(c(-c7c(F)c(F)c(F)c(F)c7F)c7ccc4[nH]7)C=C6)C=C5)cc3)C2)n1
REMARK SMILES IDX 19 1 18 2 16 3 17 4 15 6 14 7 10 8 11 9 88 10 12 11 13 12
REMARK SMILES IDX 9 13 5 14 6 15 89 16 7 17 8 18 3 19 4 20 2 21 1 22 20 23
REMARK SMILES IDX 21 24 22 25 23 26 24 28 25 29 26 30 87 31 27 32 86 33 28 34
REMARK SMILES IDX 29 35 30 36 80 37 31 38 85 39 79 40 81 41 32 42 84 43 78 44
REMARK SMILES IDX 77 45 33 47 65 48 45 49 64 50 46 51 49 52 63 53 82 54 47 55
REMARK SMILES IDX 48 56 62 58 83 59 50 60 34 61 35 62 43 63 36 64 37 65 41 66
REMARK SMILES IDX 44 67 38 68 39 69 42 70 40 71 66 72 67 73 75 74 68 75 69 76
REMARK SMILES IDX 73 77 76 78 70 79 71 80 74 81 72 82 51 83 52 84 60 85 53 86
REMARK SMILES IDX 54 87 58 88 61 89 55 90 56 91 59 92 57 93
REMARK H PARENT 18 5 22 27 81 46 49 57
REMARK Flexibility Score: inf
ROOT
ATOM      1  C   UNL     1      -2.094   4.209   6.458  1.00  0.00     0.117 C 
ENDROOT
BRANCH   1   2
ATOM      2  N   UNL     1      -3.107   4.235   7.499  1.00  0.00    -0.356 N 
ATOM      3  C   UNL     1      -4.017   3.287   7.873  1.00  0.00     0.222 C 
ATOM      4  O   UNL     1      -4.884   3.619   8.684  1.00  0.00    -0.275 OA
ATOM      5  H   UNL     1      -3.143   5.071   8.019  1.00  0.00     0.163 HD
BRANCH   3   6
ATOM      6  C   UNL     1      -3.866   1.844   7.449  1.00  0.00     0.133 C 
BRANCH   6   7
ATOM      7  C   UNL     1      -4.598   1.257   6.226  1.00  0.00     0.147 C 
ATOM      8  N   UNL     1      -2.829   1.352   4.544  1.00  0.00    -0.352 N 
ATOM      9  C   UNL     1      -3.618   2.189   3.643  1.00  0.00     0.146 C 
ATOM     10  C   UNL     1      -3.640   0.432   5.339  1.00  0.00     0.150 C 
ATOM     11  C   UNL     1      -4.714   2.921   4.466  1.00  0.00     0.182 C 
ATOM     12  O   UNL     1      -5.414   2.131   5.436  1.00  0.00    -0.374 OA
BRANCH   8  13
ATOM     13  C   UNL     1      -1.482   1.101   4.365  1.00  0.00     0.133 A 
ATOM     14  C   UNL     1       0.365   0.629   3.096  1.00  0.00     0.241 A 
ATOM     15  N   UNL     1       1.222   0.660   4.140  1.00  0.00    -0.231 NA
ATOM     16  N   UNL     1      -0.968   0.897   3.143  1.00  0.00    -0.205 NA
ATOM     17  C   UNL     1       0.683   0.916   5.326  1.00  0.00     0.117 A 
ATOM     18  C   UNL     1      -0.664   1.095   5.490  1.00  0.00     0.067 A 
BRANCH  14  19
ATOM     19  C   UNL     1       0.965   0.082   1.838  1.00  0.00     0.376 C 
ATOM     20  O   UNL     1       1.974  -0.623   1.825  1.00  0.00    -0.242 OA
BRANCH  19  21
ATOM     21  O   UNL     1       0.277   0.464   0.731  1.00  0.00    -0.463 OA
ATOM     22  C   UNL     1       0.863  -0.031  -0.474  1.00  0.00     0.282 C 
ENDBRANCH  19  21
ENDBRANCH  14  19
ENDBRANCH   8  13
ENDBRANCH   6   7
ENDBRANCH   3   6
ENDBRANCH   1   2
BRANCH   1  23
ATOM     23  C   UNL     1      -2.295   5.351   5.460  1.00  0.00     0.042 C 
BRANCH  23  24
ATOM     24  C   UNL     1      -1.528   6.606   5.846  1.00  0.00     0.118 C 
BRANCH  24  25
ATOM     25  N   UNL     1      -0.216   6.663   5.222  1.00  0.00    -0.352 N 
ATOM     26  C   UNL     1       0.225   7.119   4.002  1.00  0.00     0.251 C 
ATOM     27  H   UNL     1       0.504   6.301   5.788  1.00  0.00     0.163 HD
ATOM     28  O   UNL     1       1.383   6.854   3.679  1.00  0.00    -0.269 OA
BRANCH  26  29
ATOM     29  C   UNL     1      -0.622   7.893   3.053  1.00  0.00     0.039 A 
ATOM     30  C   UNL     1      -0.305   7.840   1.686  1.00  0.00     0.014 A 
ATOM     31  C   UNL     1      -1.644   8.747   3.458  1.00  0.00     0.014 A 
ATOM     32  C   UNL     1      -1.015   8.610   0.753  1.00  0.00     0.010 A 
ATOM     33  C   UNL     1      -2.432   9.417   2.520  1.00  0.00     0.010 A 
ATOM     34  C   UNL     1      -2.106   9.392   1.157  1.00  0.00    -0.014 A 
BRANCH  34  35
ATOM     35  C   UNL     1      -2.875  10.246   0.207  1.00  0.00     0.031 A 
ATOM     36  C   UNL     1      -2.981  11.735   0.448  1.00  0.00     0.074 A 
ATOM     37  C   UNL     1      -3.540   9.693  -0.825  1.00  0.00     0.049 A 
ATOM     38  N   UNL     1      -3.719  12.629  -0.163  1.00  0.00    -0.248 NA
ATOM     39  C   UNL     1      -2.181  12.284   1.555  1.00  0.00     0.031 C 
ATOM     40  C   UNL     1      -3.559   8.268  -1.155  1.00  0.00     0.029 A 
ATOM     41  N   UNL     1      -4.342  10.265  -1.783  1.00  0.00    -0.354 N 
ATOM     42  C   UNL     1      -3.510  13.824   0.517  1.00  0.00     0.074 A 
ATOM     43  C   UNL     1      -2.621  13.531   1.619  1.00  0.00     0.031 C 
ATOM     44  C   UNL     1      -4.306   8.080  -2.256  1.00  0.00     0.029 A 
ATOM     45  C   UNL     1      -4.857   9.363  -2.682  1.00  0.00     0.049 A 
ATOM     46  H   UNL     1      -4.530  11.231  -1.822  1.00  0.00     0.167 HD
ATOM     47  C   UNL     1      -3.991  15.060   0.236  1.00  0.00     0.037 A 
ATOM     48  C   UNL     1      -5.687   9.547  -3.727  1.00  0.00     0.037 A 
ATOM     49  C   UNL     1      -4.817  15.364  -0.903  1.00  0.00     0.049 A 
ATOM     50  C   UNL     1      -6.186  10.933  -4.037  1.00  0.00     0.074 A 
ATOM     51  C   UNL     1      -5.285  16.596  -1.327  1.00  0.00     0.029 A 
ATOM     52  N   UNL     1      -5.287  14.425  -1.809  1.00  0.00    -0.354 N 
ATOM     53  N   UNL     1      -5.939  12.060  -3.417  1.00  0.00    -0.248 NA
ATOM     54  C   UNL     1      -7.078  11.070  -5.198  1.00  0.00     0.031 C 
ATOM     55  C   UNL     1      -6.071  16.397  -2.466  1.00  0.00     0.029 A 
ATOM     56  C   UNL     1      -6.053  15.048  -2.780  1.00  0.00     0.049 A 
ATOM     57  H   UNL     1      -5.103  13.459  -1.767  1.00  0.00     0.167 HD
ATOM     58  C   UNL     1      -6.617  13.043  -4.127  1.00  0.00     0.074 A 
ATOM     59  C   UNL     1      -7.276  12.380  -5.233  1.00  0.00     0.031 C 
ATOM     60  C   UNL     1      -6.689  14.375  -3.884  1.00  0.00     0.037 A 
BRANCH  47  61
ATOM     61  C   UNL     1      -3.628  16.180   1.171  1.00  0.00     0.064 A 
ATOM     62  C   UNL     1      -2.314  16.665   1.272  1.00  0.00     0.173 A 
ATOM     63  C   UNL     1      -4.612  16.796   1.960  1.00  0.00     0.173 A 
ATOM     64  F   UNL     1      -1.332  16.108   0.548  1.00  0.00    -0.203 F 
ATOM     65  C   UNL     1      -1.993  17.691   2.157  1.00  0.00     0.198 A 
ATOM     66  C   UNL     1      -4.294  17.846   2.818  1.00  0.00     0.198 A 
ATOM     67  F   UNL     1      -5.887  16.382   1.897  1.00  0.00    -0.203 F 
ATOM     68  F   UNL     1      -0.720  18.091   2.282  1.00  0.00    -0.200 F 
ATOM     69  C   UNL     1      -2.983  18.285   2.924  1.00  0.00     0.200 A 
ATOM     70  F   UNL     1      -5.255  18.430   3.547  1.00  0.00    -0.200 F 
ATOM     71  F   UNL     1      -2.672  19.274   3.773  1.00  0.00    -0.200 F 
ENDBRANCH  47  61
BRANCH  48  72
ATOM     72  C   UNL     1      -6.071   8.393  -4.583  1.00  0.00     0.064 A 
ATOM     73  C   UNL     1      -5.592   8.288  -5.897  1.00  0.00     0.173 A 
ATOM     74  C   UNL     1      -6.917   7.377  -4.114  1.00  0.00     0.173 A 
ATOM     75  F   UNL     1      -4.798   9.246  -6.397  1.00  0.00    -0.203 F 
ATOM     76  C   UNL     1      -5.959   7.222  -6.715  1.00  0.00     0.198 A 
ATOM     77  C   UNL     1      -7.260   6.296  -4.924  1.00  0.00     0.198 A 
ATOM     78  F   UNL     1      -7.398   7.427  -2.864  1.00  0.00    -0.203 F 
ATOM     79  F   UNL     1      -5.522   7.171  -7.981  1.00  0.00    -0.200 F 
ATOM     80  C   UNL     1      -6.788   6.224  -6.226  1.00  0.00     0.200 A 
ATOM     81  F   UNL     1      -8.049   5.326  -4.444  1.00  0.00    -0.200 F 
ATOM     82  F   UNL     1      -7.136   5.195  -7.011  1.00  0.00    -0.200 F 
ENDBRANCH  48  72
BRANCH  60  83
ATOM     83  C   UNL     1      -7.470  15.211  -4.854  1.00  0.00     0.064 A 
ATOM     84  C   UNL     1      -8.871  15.166  -4.905  1.00  0.00     0.173 A 
ATOM     85  C   UNL     1      -6.809  16.100  -5.716  1.00  0.00     0.173 A 
ATOM     86  F   UNL     1      -9.548  14.322  -4.112  1.00  0.00    -0.203 F 
ATOM     87  C   UNL     1      -9.580  15.962  -5.800  1.00  0.00     0.198 A 
ATOM     88  C   UNL     1      -7.522  16.916  -6.588  1.00  0.00     0.198 A 
ATOM     89  F   UNL     1      -5.470  16.186  -5.701  1.00  0.00    -0.203 F 
ATOM     90  F   UNL     1     -10.915  15.869  -5.864  1.00  0.00    -0.200 F 
ATOM     91  C   UNL     1      -8.906  16.842  -6.635  1.00  0.00     0.200 A 
ATOM     92  F   UNL     1      -6.871  17.775  -7.385  1.00  0.00    -0.200 F 
ATOM     93  F   UNL     1      -9.591  17.613  -7.491  1.00  0.00    -0.200 F 
ENDBRANCH  60  83
ENDBRANCH  34  35
ENDBRANCH  26  29
ENDBRANCH  24  25
ENDBRANCH  23  24
ENDBRANCH   1  23
TORSDOF 14
