REMARK SMILES CC(C)Oc1ccc([C@H](O)[C@@H](F)C(=O)NCCCNC(=O)c2ccc(-c3c4nc(c(-c5c(F)c(F)c(F)c(F)c5F)c5ccc([nH]5)c(-c5c(F)c(F)c(F)c(F)c5F)c5nc(c(-c6c(F)c(F)c(F)c(F)c6F)c6ccc3[nH]6)C=C5)C=C4)cc2)cc1
REMARK SMILES IDX 16 1 15 2 13 3 14 4 11 6 12 7 9 8 8 9 5 10 6 11 86 12 7 13
REMARK SMILES IDX 85 14 4 15 2 16 1 17 3 18 10 19 17 21 18 22 19 23 20 24
REMARK SMILES IDX 21 26 22 27 23 28 84 29 24 30 83 31 25 32 26 33 27 34 77 35
REMARK SMILES IDX 28 36 82 37 76 38 78 39 29 40 81 41 75 42 74 43 30 45 62 46
REMARK SMILES IDX 42 47 61 48 43 49 46 50 60 51 79 52 44 53 45 54 59 56 80 57
REMARK SMILES IDX 47 58 31 59 32 60 40 61 33 62 34 63 38 64 41 65 35 66 36 67
REMARK SMILES IDX 39 68 37 69 63 70 64 71 72 72 65 73 66 74 70 75 73 76 67 77
REMARK SMILES IDX 68 78 71 79 69 80 48 81 49 82 57 83 50 84 51 85 55 86 58 87
REMARK SMILES IDX 52 88 53 89 56 90 54 91
REMARK H PARENT 15 5 10 20 19 25 78 44 46 55
REMARK Flexibility Score: inf
ROOT
ATOM      1  C   UNL     1      -2.758   7.234  -0.283  1.00  0.00     0.117 C 
ENDROOT
BRANCH   1   2
ATOM      2  N   UNL     1      -3.892   7.420   0.603  1.00  0.00    -0.353 N 
ATOM      3  C   UNL     1      -4.424   6.582   1.536  1.00  0.00     0.257 C 
ATOM      4  O   UNL     1      -5.373   7.008   2.201  1.00  0.00    -0.272 OA
ATOM      5  H   UNL     1      -4.349   8.288   0.515  1.00  0.00     0.163 HD
BRANCH   3   6
ATOM      6  C   UNL     1      -3.871   5.178   1.761  1.00  0.00     0.288 C 
ATOM      7  F   UNL     1      -2.513   5.220   1.992  1.00  0.00    -0.234 F 
BRANCH   6   8
ATOM      8  C   UNL     1      -4.092   4.207   0.595  1.00  0.00     0.188 C 
BRANCH   8   9
ATOM      9  C   UNL     1      -5.498   3.883   0.135  1.00  0.00    -0.016 A 
ATOM     10  C   UNL     1      -8.042   3.174  -0.854  1.00  0.00     0.119 A 
ATOM     11  C   UNL     1      -7.926   3.962   0.288  1.00  0.00     0.047 A 
ATOM     12  C   UNL     1      -6.901   2.776  -1.536  1.00  0.00     0.047 A 
ATOM     13  C   UNL     1      -6.663   4.299   0.792  1.00  0.00     0.010 A 
ATOM     14  C   UNL     1      -5.642   3.114  -1.036  1.00  0.00     0.010 A 
BRANCH  10  15
ATOM     15  O   UNL     1      -9.297   2.907  -1.319  1.00  0.00    -0.491 OA
BRANCH  15  16
ATOM     16  C   UNL     1      -9.741   1.539  -1.240  1.00  0.00     0.167 C 
ATOM     17  C   UNL     1      -9.227   0.685  -2.397  1.00  0.00     0.052 C 
ATOM     18  C   UNL     1      -9.517   0.873   0.118  1.00  0.00     0.052 C 
ENDBRANCH  15  16
ENDBRANCH  10  15
ENDBRANCH   8   9
BRANCH   8  19
ATOM     19  O   UNL     1      -3.470   2.949   0.927  1.00  0.00    -0.385 OA
ATOM     20  H   UNL     1      -3.931   2.549   1.681  1.00  0.00     0.211 HD
ENDBRANCH   8  19
ENDBRANCH   6   8
ENDBRANCH   3   6
ENDBRANCH   1   2
BRANCH   1  21
ATOM     21  C   UNL     1      -3.191   7.087  -1.739  1.00  0.00     0.042 C 
BRANCH  21  22
ATOM     22  C   UNL     1      -3.909   8.308  -2.308  1.00  0.00     0.118 C 
BRANCH  22  23
ATOM     23  N   UNL     1      -3.071   9.499  -2.327  1.00  0.00    -0.352 N 
ATOM     24  C   UNL     1      -2.646  10.268  -3.378  1.00  0.00     0.251 C 
ATOM     25  H   UNL     1      -2.760   9.799  -1.442  1.00  0.00     0.163 HD
ATOM     26  O   UNL     1      -1.785  11.130  -3.191  1.00  0.00    -0.269 OA
BRANCH  24  27
ATOM     27  C   UNL     1      -3.190  10.066  -4.737  1.00  0.00     0.039 A 
ATOM     28  C   UNL     1      -2.315  10.107  -5.827  1.00  0.00     0.014 A 
ATOM     29  C   UNL     1      -4.557   9.867  -4.948  1.00  0.00     0.014 A 
ATOM     30  C   UNL     1      -2.799   9.881  -7.118  1.00  0.00     0.010 A 
ATOM     31  C   UNL     1      -5.026   9.568  -6.224  1.00  0.00     0.010 A 
ATOM     32  C   UNL     1      -4.152   9.570  -7.323  1.00  0.00    -0.014 A 
BRANCH  32  33
ATOM     33  C   UNL     1      -4.676   9.237  -8.672  1.00  0.00     0.031 A 
ATOM     34  C   UNL     1      -5.713  10.112  -9.318  1.00  0.00     0.074 A 
ATOM     35  C   UNL     1      -4.276   8.103  -9.280  1.00  0.00     0.049 A 
ATOM     36  N   UNL     1      -6.371   9.932 -10.436  1.00  0.00    -0.248 NA
ATOM     37  C   UNL     1      -6.080  11.342  -8.598  1.00  0.00     0.031 C 
ATOM     38  C   UNL     1      -3.304   7.152  -8.740  1.00  0.00     0.029 A 
ATOM     39  N   UNL     1      -4.653   7.547 -10.478  1.00  0.00    -0.354 N 
ATOM     40  C   UNL     1      -7.239  11.011 -10.543  1.00  0.00     0.074 A 
ATOM     41  C   UNL     1      -7.059  11.817  -9.355  1.00  0.00     0.031 C 
ATOM     42  C   UNL     1      -3.151   6.139  -9.607  1.00  0.00     0.029 A 
ATOM     43  C   UNL     1      -4.047   6.343 -10.741  1.00  0.00     0.049 A 
ATOM     44  H   UNL     1      -5.297   7.972 -11.090  1.00  0.00     0.167 HD
ATOM     45  C   UNL     1      -8.093  11.311 -11.550  1.00  0.00     0.037 A 
ATOM     46  C   UNL     1      -4.208   5.490 -11.771  1.00  0.00     0.037 A 
ATOM     47  C   UNL     1      -8.252  10.517 -12.741  1.00  0.00     0.049 A 
ATOM     48  C   UNL     1      -5.179   5.838 -12.868  1.00  0.00     0.074 A 
ATOM     49  C   UNL     1      -9.046  10.769 -13.846  1.00  0.00     0.029 A 
ATOM     50  N   UNL     1      -7.607   9.312 -12.979  1.00  0.00    -0.354 N 
ATOM     51  N   UNL     1      -5.946   6.894 -12.990  1.00  0.00    -0.248 NA
ATOM     52  C   UNL     1      -5.305   4.876 -13.972  1.00  0.00     0.031 C 
ATOM     53  C   UNL     1      -8.922   9.692 -14.728  1.00  0.00     0.029 A 
ATOM     54  C   UNL     1      -8.006   8.796 -14.201  1.00  0.00     0.049 A 
ATOM     55  H   UNL     1      -6.961   8.887 -12.370  1.00  0.00     0.167 HD
ATOM     56  C   UNL     1      -6.619   6.740 -14.194  1.00  0.00     0.074 A 
ATOM     57  C   UNL     1      -6.162   5.493 -14.772  1.00  0.00     0.031 C 
ATOM     58  C   UNL     1      -7.533   7.559 -14.770  1.00  0.00     0.037 A 
BRANCH  45  59
ATOM     59  C   UNL     1      -8.929  12.551 -11.409  1.00  0.00     0.064 A 
ATOM     60  C   UNL     1      -8.363  13.833 -11.471  1.00  0.00     0.173 A 
ATOM     61  C   UNL     1     -10.321  12.457 -11.254  1.00  0.00     0.173 A 
ATOM     62  F   UNL     1      -7.036  13.979 -11.610  1.00  0.00    -0.203 F 
ATOM     63  C   UNL     1      -9.154  14.973 -11.353  1.00  0.00     0.198 A 
ATOM     64  C   UNL     1     -11.112  13.599 -11.168  1.00  0.00     0.198 A 
ATOM     65  F   UNL     1     -10.916  11.256 -11.196  1.00  0.00    -0.203 F 
ATOM     66  F   UNL     1      -8.584  16.186 -11.365  1.00  0.00    -0.200 F 
ATOM     67  C   UNL     1     -10.528  14.855 -11.209  1.00  0.00     0.200 A 
ATOM     68  F   UNL     1     -12.442  13.484 -11.046  1.00  0.00    -0.200 F 
ATOM     69  F   UNL     1     -11.289  15.954 -11.105  1.00  0.00    -0.200 F 
ENDBRANCH  45  59
BRANCH  46  70
ATOM     70  C   UNL     1      -3.424   4.229 -11.820  1.00  0.00     0.064 A 
ATOM     71  C   UNL     1      -2.424   4.040 -12.784  1.00  0.00     0.173 A 
ATOM     72  C   UNL     1      -3.658   3.186 -10.912  1.00  0.00     0.173 A 
ATOM     73  F   UNL     1      -2.176   5.000 -13.688  1.00  0.00    -0.203 F 
ATOM     74  C   UNL     1      -1.703   2.850 -12.852  1.00  0.00     0.198 A 
ATOM     75  C   UNL     1      -2.915   2.008 -10.960  1.00  0.00     0.198 A 
ATOM     76  F   UNL     1      -4.599   3.317  -9.966  1.00  0.00    -0.203 F 
ATOM     77  F   UNL     1      -0.785   2.678 -13.813  1.00  0.00    -0.200 F 
ATOM     78  C   UNL     1      -1.944   1.837 -11.936  1.00  0.00     0.200 A 
ATOM     79  F   UNL     1      -3.141   1.039 -10.063  1.00  0.00    -0.200 F 
ATOM     80  F   UNL     1      -1.248   0.695 -11.998  1.00  0.00    -0.200 F 
ENDBRANCH  46  70
BRANCH  58  81
ATOM     81  C   UNL     1      -8.072   7.161 -16.113  1.00  0.00     0.064 A 
ATOM     82  C   UNL     1      -8.965   6.090 -16.263  1.00  0.00     0.173 A 
ATOM     83  C   UNL     1      -7.730   7.897 -17.259  1.00  0.00     0.173 A 
ATOM     84  F   UNL     1      -9.310   5.345 -15.202  1.00  0.00    -0.203 F 
ATOM     85  C   UNL     1      -9.481   5.759 -17.513  1.00  0.00     0.198 A 
ATOM     86  C   UNL     1      -8.273   7.583 -18.501  1.00  0.00     0.198 A 
ATOM     87  F   UNL     1      -6.885   8.934 -17.169  1.00  0.00    -0.203 F 
ATOM     88  F   UNL     1     -10.300   4.705 -17.640  1.00  0.00    -0.200 F 
ATOM     89  C   UNL     1      -9.143   6.511 -18.629  1.00  0.00     0.200 A 
ATOM     90  F   UNL     1      -7.957   8.320 -19.575  1.00  0.00    -0.200 F 
ATOM     91  F   UNL     1      -9.652   6.199 -19.829  1.00  0.00    -0.200 F 
ENDBRANCH  58  81
ENDBRANCH  32  33
ENDBRANCH  24  27
ENDBRANCH  22  23
ENDBRANCH  21  22
ENDBRANCH   1  21
TORSDOF 15
