REMARK SMILES CN(CCCC(=O)NCCCNC(=O)c1ccc(-c2c3nc(c(-c4c(F)c(F)c(F)c(F)c4F)c4ccc([nH]4)c(-c4c(F)c(F)c(F)c(F)c4F)c4nc(c(-c5c(F)c(F)c(F)c(F)c5F)c5ccc2[nH]5)C=C4)C=C3)cc1)C(=O)c1ccc(Br)o1
REMARK SMILES IDX 6 1 7 2 8 3 5 5 4 6 3 7 2 8 1 9 78 10 79 11 80 12 81 13
REMARK SMILES IDX 85 14 82 15 83 16 84 17 9 18 10 19 11 20 12 21 13 22 14 24
REMARK SMILES IDX 15 25 16 26 77 27 17 28 76 29 18 30 19 31 20 32 70 33 21 34
REMARK SMILES IDX 75 35 69 36 71 37 22 38 74 39 68 40 67 41 23 43 55 44 35 45
REMARK SMILES IDX 54 46 36 47 39 48 53 49 72 50 37 51 38 52 52 54 73 55 40 56
REMARK SMILES IDX 24 57 25 58 33 59 26 60 27 61 31 62 34 63 28 64 29 65 32 66
REMARK SMILES IDX 30 67 56 68 57 69 65 70 58 71 59 72 63 73 66 74 60 75 61 76
REMARK SMILES IDX 64 77 62 78 41 79 42 80 50 81 43 82 44 83 48 84 51 85 45 86
REMARK SMILES IDX 46 87 49 88 47 89
REMARK H PARENT 8 4 12 23 71 42 39 53
REMARK Flexibility Score: inf
ROOT
ATOM      1  C   UNL     1      -1.401   3.076  -3.697  1.00  0.00     0.220 C 
ATOM      2  O   UNL     1      -2.225   3.226  -4.602  1.00  0.00    -0.275 OA
ATOM      3  N   UNL     1      -0.086   3.123  -4.035  1.00  0.00    -0.356 N 
ATOM      4  H   UNL     1       0.093   3.385  -4.967  1.00  0.00     0.163 HD
ENDROOT
BRANCH   1   5
ATOM      5  C   UNL     1      -1.853   2.974  -2.251  1.00  0.00     0.102 C 
BRANCH   5   6
ATOM      6  C   UNL     1      -1.857   1.638  -1.520  1.00  0.00     0.031 C 
BRANCH   6   7
ATOM      7  C   UNL     1      -0.561   0.985  -1.038  1.00  0.00     0.120 C 
BRANCH   7   8
ATOM      8  N   UNL     1       0.107   1.326   0.236  1.00  0.00    -0.339 N 
ATOM      9  C   UNL     1       0.855   0.214   0.829  1.00  0.00     0.147 C 
BRANCH   8  10
ATOM     10  C   UNL     1       0.384   2.553   0.881  1.00  0.00     0.289 C 
ATOM     11  O   UNL     1       0.859   2.545   2.020  1.00  0.00    -0.265 OA
BRANCH  10  12
ATOM     12  C   UNL     1       0.189   3.827   0.231  1.00  0.00     0.193 A 
ATOM     13  C   UNL     1      -0.728   4.841   0.453  1.00  0.00     0.057 A 
ATOM     14  O   UNL     1       1.183   4.302  -0.589  1.00  0.00    -0.444 OA
ATOM     15  C   UNL     1      -0.331   5.941  -0.353  1.00  0.00     0.059 A 
ATOM     16  C   UNL     1       0.848   5.569  -0.954  1.00  0.00     0.170 A 
ATOM     17  Br  UNL     1       1.847   6.635  -2.115  1.00  0.00    -0.008 Br
ENDBRANCH  10  12
ENDBRANCH   8  10
ENDBRANCH   7   8
ENDBRANCH   6   7
ENDBRANCH   5   6
ENDBRANCH   1   5
BRANCH   3  18
ATOM     18  C   UNL     1       1.094   2.849  -3.245  1.00  0.00     0.117 C 
BRANCH  18  19
ATOM     19  C   UNL     1       1.724   1.525  -3.650  1.00  0.00     0.042 C 
BRANCH  19  20
ATOM     20  C   UNL     1       2.685   1.689  -4.807  1.00  0.00     0.118 C 
BRANCH  20  21
ATOM     21  N   UNL     1       4.005   2.120  -4.365  1.00  0.00    -0.352 N 
ATOM     22  C   UNL     1       5.228   1.567  -4.664  1.00  0.00     0.251 C 
ATOM     23  H   UNL     1       4.024   2.908  -3.776  1.00  0.00     0.163 HD
ATOM     24  O   UNL     1       6.241   1.937  -4.079  1.00  0.00    -0.269 OA
BRANCH  22  25
ATOM     25  C   UNL     1       5.305   0.488  -5.673  1.00  0.00     0.039 A 
ATOM     26  C   UNL     1       6.079  -0.644  -5.409  1.00  0.00     0.014 A 
ATOM     27  C   UNL     1       4.569   0.575  -6.857  1.00  0.00     0.014 A 
ATOM     28  C   UNL     1       6.053  -1.721  -6.299  1.00  0.00     0.010 A 
ATOM     29  C   UNL     1       4.458  -0.535  -7.681  1.00  0.00     0.010 A 
ATOM     30  C   UNL     1       5.209  -1.692  -7.421  1.00  0.00    -0.014 A 
BRANCH  30  31
ATOM     31  C   UNL     1       5.110  -2.831  -8.368  1.00  0.00     0.031 A 
ATOM     32  C   UNL     1       5.457  -2.614  -9.817  1.00  0.00     0.074 A 
ATOM     33  C   UNL     1       4.610  -4.014  -7.958  1.00  0.00     0.049 A 
ATOM     34  N   UNL     1       5.276  -3.407 -10.841  1.00  0.00    -0.248 NA
ATOM     35  C   UNL     1       6.042  -1.308 -10.169  1.00  0.00     0.031 C 
ATOM     36  C   UNL     1       4.179  -4.330  -6.595  1.00  0.00     0.029 A 
ATOM     37  N   UNL     1       4.357  -5.167  -8.660  1.00  0.00    -0.354 N 
ATOM     38  C   UNL     1       5.674  -2.679 -11.955  1.00  0.00     0.074 A 
ATOM     39  C   UNL     1       6.069  -1.368 -11.491  1.00  0.00     0.031 C 
ATOM     40  C   UNL     1       3.729  -5.595  -6.557  1.00  0.00     0.029 A 
ATOM     41  C   UNL     1       3.802  -6.167  -7.898  1.00  0.00     0.049 A 
ATOM     42  H   UNL     1       4.555  -5.268  -9.619  1.00  0.00     0.167 HD
ATOM     43  C   UNL     1       5.727  -3.077 -13.247  1.00  0.00     0.037 A 
ATOM     44  C   UNL     1       3.387  -7.400  -8.248  1.00  0.00     0.037 A 
ATOM     45  C   UNL     1       5.418  -4.409 -13.691  1.00  0.00     0.049 A 
ATOM     46  C   UNL     1       3.527  -7.840  -9.681  1.00  0.00     0.074 A 
ATOM     47  C   UNL     1       5.542  -4.944 -14.960  1.00  0.00     0.029 A 
ATOM     48  N   UNL     1       4.939  -5.419 -12.871  1.00  0.00    -0.354 N 
ATOM     49  N   UNL     1       3.975  -7.166 -10.713  1.00  0.00    -0.248 NA
ATOM     50  C   UNL     1       3.112  -9.214  -9.999  1.00  0.00     0.031 C 
ATOM     51  C   UNL     1       5.111  -6.273 -14.915  1.00  0.00     0.029 A 
ATOM     52  C   UNL     1       4.755  -6.574 -13.610  1.00  0.00     0.049 A 
ATOM     53  H   UNL     1       4.758  -5.328 -11.908  1.00  0.00     0.167 HD
ATOM     54  C   UNL     1       3.930  -8.041 -11.789  1.00  0.00     0.074 A 
ATOM     55  C   UNL     1       3.419  -9.298 -11.286  1.00  0.00     0.031 C 
ATOM     56  C   UNL     1       4.280  -7.824 -13.079  1.00  0.00     0.037 A 
BRANCH  43  57
ATOM     57  C   UNL     1       6.154  -2.074 -14.277  1.00  0.00     0.064 A 
ATOM     58  C   UNL     1       7.484  -1.639 -14.374  1.00  0.00     0.173 A 
ATOM     59  C   UNL     1       5.233  -1.592 -15.219  1.00  0.00     0.173 A 
ATOM     60  F   UNL     1       8.399  -2.062 -13.489  1.00  0.00    -0.203 F 
ATOM     61  C   UNL     1       7.872  -0.745 -15.367  1.00  0.00     0.198 A 
ATOM     62  C   UNL     1       5.631  -0.719 -16.228  1.00  0.00     0.198 A 
ATOM     63  F   UNL     1       3.950  -1.980 -15.171  1.00  0.00    -0.203 F 
ATOM     64  F   UNL     1       9.141  -0.315 -15.419  1.00  0.00    -0.200 F 
ATOM     65  C   UNL     1       6.949  -0.293 -16.299  1.00  0.00     0.200 A 
ATOM     66  F   UNL     1       4.741  -0.293 -17.134  1.00  0.00    -0.200 F 
ATOM     67  F   UNL     1       7.329   0.555 -17.264  1.00  0.00    -0.200 F 
ENDBRANCH  43  57
BRANCH  44  68
ATOM     68  C   UNL     1       2.819  -8.320  -7.227  1.00  0.00     0.064 A 
ATOM     69  C   UNL     1       3.519  -9.466  -6.824  1.00  0.00     0.173 A 
ATOM     70  C   UNL     1       1.558  -8.092  -6.657  1.00  0.00     0.173 A 
ATOM     71  F   UNL     1       4.720  -9.737  -7.355  1.00  0.00    -0.203 F 
ATOM     72  C   UNL     1       2.967 -10.366  -5.914  1.00  0.00     0.198 A 
ATOM     73  C   UNL     1       1.019  -8.978  -5.726  1.00  0.00     0.198 A 
ATOM     74  F   UNL     1       0.850  -7.007  -7.003  1.00  0.00    -0.203 F 
ATOM     75  F   UNL     1       3.634 -11.481  -5.590  1.00  0.00    -0.200 F 
ATOM     76  C   UNL     1       1.718 -10.119  -5.364  1.00  0.00     0.200 A 
ATOM     77  F   UNL     1      -0.182  -8.730  -5.186  1.00  0.00    -0.200 F 
ATOM     78  F   UNL     1       1.185 -10.987  -4.492  1.00  0.00    -0.200 F 
ENDBRANCH  44  68
BRANCH  56  79
ATOM     79  C   UNL     1       4.181  -8.980 -14.027  1.00  0.00     0.064 A 
ATOM     80  C   UNL     1       2.945  -9.432 -14.508  1.00  0.00     0.173 A 
ATOM     81  C   UNL     1       5.346  -9.596 -14.511  1.00  0.00     0.173 A 
ATOM     82  F   UNL     1       1.806  -8.882 -14.063  1.00  0.00    -0.203 F 
ATOM     83  C   UNL     1       2.877 -10.473 -15.430  1.00  0.00     0.198 A 
ATOM     84  C   UNL     1       5.275 -10.618 -15.452  1.00  0.00     0.198 A 
ATOM     85  F   UNL     1       6.552  -9.191 -14.085  1.00  0.00    -0.203 F 
ATOM     86  F   UNL     1       1.685 -10.914 -15.852  1.00  0.00    -0.200 F 
ATOM     87  C   UNL     1       4.042 -11.058 -15.907  1.00  0.00     0.200 A 
ATOM     88  F   UNL     1       6.401 -11.173 -15.922  1.00  0.00    -0.200 F 
ATOM     89  F   UNL     1       3.974 -12.051 -16.805  1.00  0.00    -0.200 F 
ENDBRANCH  56  79
ENDBRANCH  30  31
ENDBRANCH  22  25
ENDBRANCH  20  21
ENDBRANCH  19  20
ENDBRANCH  18  19
ENDBRANCH   3  18
TORSDOF 15
