REMARK SMILES CCC[NH2+][C@]1(C(=O)NCCCNC(=O)c2ccc(-c3c4nc(c(-c5c(F)c(F)c(F)c(F)c5F)c5ccc([nH]5)c(-c5c(F)c(F)c(F)c(F)c5F)c5nc(c(-c6c(F)c(F)c(F)c(F)c6F)c6ccc3[nH]6)C=C5)C=C4)cc2)CC[C@@H](Sc2nnc(C)n2C)C1
REMARK SMILES IDX 9 1 8 2 6 3 7 4 5 6 78 7 89 8 79 9 80 10 4 11 3 14 2 15 1 16
REMARK SMILES IDX 81 17 82 18 83 19 87 20 84 21 85 22 88 23 86 24 10 25 11 26
REMARK SMILES IDX 12 27 13 28 14 30 15 31 16 32 77 33 17 34 76 35 18 36 19 37
REMARK SMILES IDX 20 38 70 39 21 40 75 41 69 42 71 43 22 44 74 45 68 46 67 47
REMARK SMILES IDX 23 49 55 50 35 51 54 52 36 53 39 54 53 55 72 56 37 57 38 58
REMARK SMILES IDX 52 60 73 61 40 62 24 63 25 64 33 65 26 66 27 67 31 68 34 69
REMARK SMILES IDX 28 70 29 71 32 72 30 73 56 74 57 75 65 76 58 77 59 78 63 79
REMARK SMILES IDX 66 80 60 81 61 82 64 83 62 84 41 85 42 86 50 87 43 88 44 89
REMARK SMILES IDX 48 90 51 91 45 92 46 93 49 94 47 95
REMARK H PARENT 8 5 4 12 4 13 12 29 71 48 39 59
REMARK Flexibility Score: inf
ROOT
ATOM      1  C   UNL     1       1.277   1.648   2.197  1.00  0.00     0.118 C 
ENDROOT
BRANCH   1   2
ATOM      2  N   UNL     1       0.464   1.889   1.022  1.00  0.00    -0.351 N 
ATOM      3  C   UNL     1       0.277   2.958   0.211  1.00  0.00     0.281 C 
ATOM      4  O   UNL     1      -0.578   2.769  -0.671  1.00  0.00    -0.268 OA
ATOM      5  H   UNL     1      -0.070   1.106   0.756  1.00  0.00     0.163 HD
BRANCH   3   6
ATOM      6  C   UNL     1       0.988   4.351   0.317  1.00  0.00     0.176 C 
ATOM      7  C   UNL     1       1.596   4.671  -1.080  1.00  0.00     0.080 C 
ATOM      8  C   UNL     1      -0.111   5.435   0.383  1.00  0.00     0.094 C 
ATOM      9  C   UNL     1       1.552   6.193  -1.240  1.00  0.00     0.022 C 
ATOM     10  C   UNL     1       0.483   6.684  -0.262  1.00  0.00     0.062 C 
BRANCH   6  11
ATOM     11  N   UNL     1       2.054   4.423   1.340  1.00  0.00    -0.334 N 
ATOM     12  H   UNL     1       2.249   3.469   1.644  1.00  0.00     0.347 HD
ATOM     13  H   UNL     1       2.825   4.903   0.875  1.00  0.00     0.347 HD
BRANCH  11  14
ATOM     14  C   UNL     1       1.796   5.216   2.537  1.00  0.00     0.261 C 
BRANCH  14  15
ATOM     15  C   UNL     1       2.814   4.927   3.646  1.00  0.00     0.058 C 
ATOM     16  C   UNL     1       4.218   5.416   3.332  1.00  0.00     0.010 C 
ENDBRANCH  14  15
ENDBRANCH  11  14
ENDBRANCH   6  11
BRANCH  10  17
ATOM     17  S   UNL     1      -0.791   7.814  -0.914  1.00  0.00    -0.082 SA
BRANCH  17  18
ATOM     18  C   UNL     1      -1.488   6.914  -2.213  1.00  0.00     0.191 A 
ATOM     19  N   UNL     1      -1.071   6.944  -3.456  1.00  0.00    -0.123 NA
ATOM     20  N   UNL     1      -2.587   6.107  -2.116  1.00  0.00    -0.309 N 
ATOM     21  N   UNL     1      -1.883   6.115  -4.191  1.00  0.00    -0.135 NA
ATOM     22  C   UNL     1      -2.783   5.598  -3.380  1.00  0.00     0.130 A 
ATOM     23  C   UNL     1      -3.388   5.786  -0.963  1.00  0.00     0.154 C 
ATOM     24  C   UNL     1      -3.841   4.629  -3.742  1.00  0.00     0.090 C 
ENDBRANCH  17  18
ENDBRANCH  10  17
ENDBRANCH   3   6
ENDBRANCH   1   2
BRANCH   1  25
ATOM     25  C   UNL     1       0.547   1.993   3.493  1.00  0.00     0.042 C 
BRANCH  25  26
ATOM     26  C   UNL     1      -0.708   1.168   3.768  1.00  0.00     0.118 C 
BRANCH  26  27
ATOM     27  N   UNL     1      -0.424  -0.230   4.041  1.00  0.00    -0.352 N 
ATOM     28  C   UNL     1      -0.686  -1.010   5.139  1.00  0.00     0.251 C 
ATOM     29  H   UNL     1       0.038  -0.700   3.310  1.00  0.00     0.163 HD
ATOM     30  O   UNL     1      -0.203  -2.139   5.188  1.00  0.00    -0.269 OA
BRANCH  28  31
ATOM     31  C   UNL     1      -1.514  -0.530   6.274  1.00  0.00     0.039 A 
ATOM     32  C   UNL     1      -1.167  -0.954   7.562  1.00  0.00     0.014 A 
ATOM     33  C   UNL     1      -2.656   0.258   6.099  1.00  0.00     0.014 A 
ATOM     34  C   UNL     1      -1.929  -0.558   8.665  1.00  0.00     0.010 A 
ATOM     35  C   UNL     1      -3.373   0.717   7.208  1.00  0.00     0.010 A 
ATOM     36  C   UNL     1      -3.025   0.304   8.502  1.00  0.00    -0.014 A 
BRANCH  36  37
ATOM     37  C   UNL     1      -3.800   0.763   9.687  1.00  0.00     0.031 A 
ATOM     38  C   UNL     1      -5.234   0.352   9.881  1.00  0.00     0.074 A 
ATOM     39  C   UNL     1      -3.209   1.566  10.592  1.00  0.00     0.049 A 
ATOM     40  N   UNL     1      -6.041   0.611  10.881  1.00  0.00    -0.248 NA
ATOM     41  C   UNL     1      -5.851  -0.433   8.803  1.00  0.00     0.031 C 
ATOM     42  C   UNL     1      -1.845   2.086  10.495  1.00  0.00     0.029 A 
ATOM     43  N   UNL     1      -3.676   2.076  11.778  1.00  0.00    -0.354 N 
ATOM     44  C   UNL     1      -7.257   0.028  10.549  1.00  0.00     0.074 A 
ATOM     45  C   UNL     1      -7.099  -0.549   9.231  1.00  0.00     0.031 C 
ATOM     46  C   UNL     1      -1.568   2.801  11.597  1.00  0.00     0.029 A 
ATOM     47  C   UNL     1      -2.741   2.809  12.467  1.00  0.00     0.049 A 
ATOM     48  H   UNL     1      -4.594   1.931  12.104  1.00  0.00     0.167 HD
ATOM     49  C   UNL     1      -8.394  -0.045  11.284  1.00  0.00     0.037 A 
ATOM     50  C   UNL     1      -2.812   3.403  13.673  1.00  0.00     0.037 A 
ATOM     51  C   UNL     1      -8.548   0.511  12.604  1.00  0.00     0.049 A 
ATOM     52  C   UNL     1      -4.074   3.286  14.482  1.00  0.00     0.074 A 
ATOM     53  C   UNL     1      -9.643   0.446  13.449  1.00  0.00     0.029 A 
ATOM     54  N   UNL     1      -7.574   1.238  13.273  1.00  0.00    -0.354 N 
ATOM     55  N   UNL     1      -5.192   2.670  14.188  1.00  0.00    -0.248 NA
ATOM     56  C   UNL     1      -4.074   3.938  15.799  1.00  0.00     0.031 C 
ATOM     57  C   UNL     1      -9.344   1.163  14.614  1.00  0.00     0.029 A 
ATOM     58  C   UNL     1      -8.047   1.639  14.513  1.00  0.00     0.049 A 
ATOM     59  H   UNL     1      -6.677   1.439  12.919  1.00  0.00     0.167 HD
ATOM     60  C   UNL     1      -6.020   2.836  15.289  1.00  0.00     0.074 A 
ATOM     61  C   UNL     1      -5.267   3.597  16.265  1.00  0.00     0.031 C 
ATOM     62  C   UNL     1      -7.289   2.398  15.475  1.00  0.00     0.037 A 
BRANCH  49  63
ATOM     63  C   UNL     1      -9.563  -0.761  10.672  1.00  0.00     0.064 A 
ATOM     64  C   UNL     1      -9.559  -2.153  10.493  1.00  0.00     0.173 A 
ATOM     65  C   UNL     1     -10.707  -0.052  10.273  1.00  0.00     0.173 A 
ATOM     66  F   UNL     1      -8.486  -2.876  10.846  1.00  0.00    -0.203 F 
ATOM     67  C   UNL     1     -10.641  -2.804   9.904  1.00  0.00     0.198 A 
ATOM     68  C   UNL     1     -11.799  -0.711   9.712  1.00  0.00     0.198 A 
ATOM     69  F   UNL     1     -10.766   1.279  10.427  1.00  0.00    -0.203 F 
ATOM     70  F   UNL     1     -10.590  -4.126   9.691  1.00  0.00    -0.200 F 
ATOM     71  C   UNL     1     -11.761  -2.083   9.519  1.00  0.00     0.200 A 
ATOM     72  F   UNL     1     -12.885  -0.015   9.349  1.00  0.00    -0.200 F 
ATOM     73  F   UNL     1     -12.800  -2.711   8.951  1.00  0.00    -0.200 F 
ENDBRANCH  49  63
BRANCH  50  74
ATOM     74  C   UNL     1      -1.622   4.104  14.218  1.00  0.00     0.064 A 
ATOM     75  C   UNL     1      -0.885   3.546  15.272  1.00  0.00     0.173 A 
ATOM     76  C   UNL     1      -1.190   5.329  13.692  1.00  0.00     0.173 A 
ATOM     77  F   UNL     1      -1.274   2.385  15.819  1.00  0.00    -0.203 F 
ATOM     78  C   UNL     1       0.234   4.194  15.789  1.00  0.00     0.198 A 
ATOM     79  C   UNL     1      -0.056   5.965  14.194  1.00  0.00     0.198 A 
ATOM     80  F   UNL     1      -1.859   5.899  12.679  1.00  0.00    -0.203 F 
ATOM     81  F   UNL     1       0.901   3.657  16.819  1.00  0.00    -0.200 F 
ATOM     82  C   UNL     1       0.651   5.400  15.245  1.00  0.00     0.200 A 
ATOM     83  F   UNL     1       0.352   7.123  13.658  1.00  0.00    -0.200 F 
ATOM     84  F   UNL     1       1.733   6.020  15.737  1.00  0.00    -0.200 F 
ENDBRANCH  50  74
BRANCH  62  85
ATOM     85  C   UNL     1      -7.931   2.712  16.794  1.00  0.00     0.064 A 
ATOM     86  C   UNL     1      -8.335   4.014  17.125  1.00  0.00     0.173 A 
ATOM     87  C   UNL     1      -8.150   1.697  17.738  1.00  0.00     0.173 A 
ATOM     88  F   UNL     1      -8.132   5.022  16.263  1.00  0.00    -0.203 F 
ATOM     89  C   UNL     1      -8.901   4.295  18.365  1.00  0.00     0.198 A 
ATOM     90  C   UNL     1      -8.743   1.976  18.966  1.00  0.00     0.198 A 
ATOM     91  F   UNL     1      -7.788   0.434  17.469  1.00  0.00    -0.203 F 
ATOM     92  F   UNL     1      -9.226   5.556  18.681  1.00  0.00    -0.200 F 
ATOM     93  C   UNL     1      -9.108   3.276  19.283  1.00  0.00     0.200 A 
ATOM     94  F   UNL     1      -8.951   0.989  19.849  1.00  0.00    -0.200 F 
ATOM     95  F   UNL     1      -9.649   3.549  20.478  1.00  0.00    -0.200 F 
ENDBRANCH  62  85
ENDBRANCH  36  37
ENDBRANCH  28  31
ENDBRANCH  26  27
ENDBRANCH  25  26
ENDBRANCH   1  25
TORSDOF 15
