REMARK SMILES C[C@H](O)C[C@@H](Cc1cccc(Br)c1)C(=O)OCCOC(=O)c1ccc(-c2c3nc(c(-c4c(F)c(F)c(F)c(F)c4F)c4ccc([nH]4)c(-c4c(F)c(F)c(F)c(F)c4F)c4nc(c(-c5c(F)c(F)c(F)c(F)c5F)c5ccc2[nH]5)C=C4)C=C3)cc1
REMARK SMILES IDX 17 1 16 2 14 3 15 4 5 5 4 6 2 7 1 8 3 9 6 11 7 12 8 13 13 14
REMARK SMILES IDX 9 15 11 16 10 17 12 18 18 19 19 20 20 21 21 22 22 23 23 24
REMARK SMILES IDX 84 25 24 26 83 27 25 28 26 29 27 30 77 31 28 32 82 33 76 34
REMARK SMILES IDX 78 35 29 36 81 37 75 38 74 39 30 41 62 42 42 43 61 44 43 45
REMARK SMILES IDX 46 46 60 47 79 48 44 49 45 50 59 52 80 53 47 54 31 55 32 56
REMARK SMILES IDX 40 57 33 58 34 59 38 60 41 61 35 62 36 63 39 64 37 65 63 66
REMARK SMILES IDX 64 67 72 68 65 69 66 70 70 71 73 72 67 73 68 74 71 75 69 76
REMARK SMILES IDX 48 77 49 78 57 79 50 80 51 81 55 82 58 83 52 84 53 85 56 86
REMARK SMILES IDX 54 87
REMARK H PARENT 3 10 78 40 46 51
REMARK Flexibility Score: inf
ROOT
ATOM      1  C   UNL     1      -4.932   0.068  -2.217  1.00  0.00     0.274 C 
ENDROOT
BRANCH   1   2
ATOM      2  O   UNL     1      -3.503  -0.111  -2.188  1.00  0.00    -0.462 OA
BRANCH   2   3
ATOM      3  C   UNL     1      -2.759   1.006  -1.984  1.00  0.00     0.309 C 
ATOM      4  O   UNL     1      -3.212   2.135  -1.830  1.00  0.00    -0.252 OA
BRANCH   3   5
ATOM      5  C   UNL     1      -1.264   0.734  -2.010  1.00  0.00     0.106 C 
BRANCH   5   6
ATOM      6  C   UNL     1      -0.878  -0.654  -1.465  1.00  0.00     0.047 C 
BRANCH   6   7
ATOM      7  C   UNL     1       0.620  -0.790  -1.168  1.00  0.00     0.112 C 
ATOM      8  C   UNL     1       0.981  -2.217  -0.783  1.00  0.00     0.038 C 
BRANCH   7   9
ATOM      9  O   UNL     1       0.958   0.062  -0.076  1.00  0.00    -0.393 OA
ATOM     10  H   UNL     1       0.456  -0.205   0.710  1.00  0.00     0.210 HD
ENDBRANCH   7   9
ENDBRANCH   6   7
ENDBRANCH   5   6
BRANCH   5  11
ATOM     11  C   UNL     1      -0.689   1.096  -3.391  1.00  0.00     0.051 C 
BRANCH  11  12
ATOM     12  C   UNL     1      -1.212   0.298  -4.563  1.00  0.00    -0.046 A 
ATOM     13  C   UNL     1      -0.812  -1.028  -4.779  1.00  0.00     0.004 A 
ATOM     14  C   UNL     1      -2.104   0.889  -5.470  1.00  0.00     0.019 A 
ATOM     15  C   UNL     1      -1.326  -1.764  -5.848  1.00  0.00     0.001 A 
ATOM     16  C   UNL     1      -2.594   0.157  -6.553  1.00  0.00     0.018 A 
ATOM     17  C   UNL     1      -2.218  -1.171  -6.739  1.00  0.00     0.016 A 
ATOM     18  Br  UNL     1      -3.772   0.978  -7.782  1.00  0.00    -0.051 Br
ENDBRANCH  11  12
ENDBRANCH   5  11
ENDBRANCH   3   5
ENDBRANCH   2   3
ENDBRANCH   1   2
BRANCH   1  19
ATOM     19  C   UNL     1      -5.584  -0.431  -0.927  1.00  0.00     0.275 C 
BRANCH  19  20
ATOM     20  O   UNL     1      -5.133   0.329   0.210  1.00  0.00    -0.458 OA
BRANCH  20  21
ATOM     21  C   UNL     1      -4.139  -0.252   0.919  1.00  0.00     0.338 C 
ATOM     22  O   UNL     1      -3.645  -1.352   0.743  1.00  0.00    -0.246 OA
BRANCH  21  23
ATOM     23  C   UNL     1      -3.617   0.696   1.915  1.00  0.00     0.060 A 
ATOM     24  C   UNL     1      -2.304   1.146   1.762  1.00  0.00     0.016 A 
ATOM     25  C   UNL     1      -4.356   1.030   3.051  1.00  0.00     0.016 A 
ATOM     26  C   UNL     1      -1.706   1.906   2.760  1.00  0.00     0.010 A 
ATOM     27  C   UNL     1      -3.753   1.797   4.056  1.00  0.00     0.010 A 
ATOM     28  C   UNL     1      -2.416   2.211   3.926  1.00  0.00    -0.014 A 
BRANCH  28  29
ATOM     29  C   UNL     1      -1.698   2.858   5.048  1.00  0.00     0.031 A 
ATOM     30  C   UNL     1      -1.217   2.017   6.197  1.00  0.00     0.074 A 
ATOM     31  C   UNL     1      -1.412   4.170   5.002  1.00  0.00     0.049 A 
ATOM     32  N   UNL     1      -0.566   2.377   7.274  1.00  0.00    -0.248 NA
ATOM     33  C   UNL     1      -1.507   0.577   6.121  1.00  0.00     0.031 C 
ATOM     34  C   UNL     1      -1.780   5.075   3.915  1.00  0.00     0.029 A 
ATOM     35  N   UNL     1      -0.732   4.966   5.889  1.00  0.00    -0.354 N 
ATOM     36  C   UNL     1      -0.387   1.215   8.011  1.00  0.00     0.074 A 
ATOM     37  C   UNL     1      -1.007   0.139   7.268  1.00  0.00     0.031 C 
ATOM     38  C   UNL     1      -1.309   6.303   4.192  1.00  0.00     0.029 A 
ATOM     39  C   UNL     1      -0.635   6.274   5.488  1.00  0.00     0.049 A 
ATOM     40  H   UNL     1      -0.350   4.630   6.732  1.00  0.00     0.167 HD
ATOM     41  C   UNL     1       0.244   1.060   9.200  1.00  0.00     0.037 A 
ATOM     42  C   UNL     1      -0.070   7.329   6.105  1.00  0.00     0.037 A 
ATOM     43  C   UNL     1       0.884   2.123   9.925  1.00  0.00     0.049 A 
ATOM     44  C   UNL     1       0.598   7.134   7.439  1.00  0.00     0.074 A 
ATOM     45  C   UNL     1       1.556   2.064  11.134  1.00  0.00     0.029 A 
ATOM     46  N   UNL     1       0.936   3.443   9.502  1.00  0.00    -0.354 N 
ATOM     47  N   UNL     1       0.758   6.033   8.132  1.00  0.00    -0.248 NA
ATOM     48  C   UNL     1       1.165   8.331   8.076  1.00  0.00     0.031 C 
ATOM     49  C   UNL     1       1.990   3.355  11.457  1.00  0.00     0.029 A 
ATOM     50  C   UNL     1       1.618   4.211  10.432  1.00  0.00     0.049 A 
ATOM     51  H   UNL     1       0.547   3.784   8.665  1.00  0.00     0.167 HD
ATOM     52  C   UNL     1       1.461   6.398   9.271  1.00  0.00     0.074 A 
ATOM     53  C   UNL     1       1.708   7.822   9.172  1.00  0.00     0.031 C 
ATOM     54  C   UNL     1       1.865   5.624  10.308  1.00  0.00     0.037 A 
BRANCH  41  55
ATOM     55  C   UNL     1       0.242  -0.312   9.803  1.00  0.00     0.064 A 
ATOM     56  C   UNL     1       1.064  -1.336   9.310  1.00  0.00     0.173 A 
ATOM     57  C   UNL     1      -0.579  -0.598  10.904  1.00  0.00     0.173 A 
ATOM     58  F   UNL     1       1.855  -1.115   8.250  1.00  0.00    -0.203 F 
ATOM     59  C   UNL     1       1.047  -2.604   9.886  1.00  0.00     0.198 A 
ATOM     60  C   UNL     1      -0.577  -1.860  11.490  1.00  0.00     0.198 A 
ATOM     61  F   UNL     1      -1.382   0.350  11.412  1.00  0.00    -0.203 F 
ATOM     62  F   UNL     1       1.811  -3.580   9.375  1.00  0.00    -0.200 F 
ATOM     63  C   UNL     1       0.231  -2.863  10.977  1.00  0.00     0.200 A 
ATOM     64  F   UNL     1      -1.361  -2.107  12.549  1.00  0.00    -0.200 F 
ATOM     65  F   UNL     1       0.218  -4.084  11.531  1.00  0.00    -0.200 F 
ENDBRANCH  41  55
BRANCH  42  66
ATOM     66  C   UNL     1      -0.109   8.668   5.465  1.00  0.00     0.064 A 
ATOM     67  C   UNL     1       1.055   9.251   4.945  1.00  0.00     0.173 A 
ATOM     68  C   UNL     1      -1.305   9.392   5.367  1.00  0.00     0.173 A 
ATOM     69  F   UNL     1       2.227   8.606   5.039  1.00  0.00    -0.203 F 
ATOM     70  C   UNL     1       1.025  10.516   4.363  1.00  0.00     0.198 A 
ATOM     71  C   UNL     1      -1.338  10.647   4.764  1.00  0.00     0.198 A 
ATOM     72  F   UNL     1      -2.444   8.877   5.853  1.00  0.00    -0.203 F 
ATOM     73  F   UNL     1       2.158  11.069   3.909  1.00  0.00    -0.200 F 
ATOM     74  C   UNL     1      -0.172  11.211   4.268  1.00  0.00     0.200 A 
ATOM     75  F   UNL     1      -2.497  11.312   4.668  1.00  0.00    -0.200 F 
ATOM     76  F   UNL     1      -0.200  12.427   3.707  1.00  0.00    -0.200 F 
ENDBRANCH  42  66
BRANCH  54  77
ATOM     77  C   UNL     1       2.644   6.295  11.399  1.00  0.00     0.064 A 
ATOM     78  C   UNL     1       2.021   7.125  12.341  1.00  0.00     0.173 A 
ATOM     79  C   UNL     1       4.025   6.079  11.519  1.00  0.00     0.173 A 
ATOM     80  F   UNL     1       0.706   7.373  12.256  1.00  0.00    -0.203 F 
ATOM     81  C   UNL     1       2.758   7.734  13.353  1.00  0.00     0.198 A 
ATOM     82  C   UNL     1       4.754   6.671  12.546  1.00  0.00     0.198 A 
ATOM     83  F   UNL     1       4.665   5.289  10.644  1.00  0.00    -0.203 F 
ATOM     84  F   UNL     1       2.150   8.557  14.219  1.00  0.00    -0.200 F 
ATOM     85  C   UNL     1       4.122   7.503  13.458  1.00  0.00     0.200 A 
ATOM     86  F   UNL     1       6.071   6.441  12.650  1.00  0.00    -0.200 F 
ATOM     87  F   UNL     1       4.829   8.090  14.433  1.00  0.00    -0.200 F 
ENDBRANCH  54  77
ENDBRANCH  28  29
ENDBRANCH  21  23
ENDBRANCH  20  21
ENDBRANCH  19  20
ENDBRANCH   1  19
TORSDOF 16
