REMARK SMILES C[C@H]1CC=C(C2=NN=C(C(=O)OCCOC(=O)c3ccc(-c4c5nc(c(-c6c(F)c(F)c(F)c(F)c6F)c6ccc([nH]6)c(-c6c(F)c(F)c(F)c(F)c6F)c6nc(c(-c7c(F)c(F)c(F)c(F)c7F)c7ccc4[nH]7)C=C6)C=C5)cc3)C2)O1
REMARK SMILES IDX 14 1 13 2 12 3 10 4 11 5 9 6 6 7 7 8 81 9 8 10 5 11 1 12
REMARK SMILES IDX 2 13 3 14 82 15 4 16 15 17 16 18 17 19 18 20 19 21 80 22
REMARK SMILES IDX 20 23 79 24 21 25 22 26 23 27 73 28 24 29 78 30 72 31 74 32
REMARK SMILES IDX 25 33 77 34 71 35 70 36 26 38 58 39 38 40 57 41 39 42 42 43
REMARK SMILES IDX 56 44 75 45 40 46 41 47 55 49 76 50 43 51 27 52 28 53 36 54
REMARK SMILES IDX 29 55 30 56 34 57 37 58 31 59 32 60 35 61 33 62 59 63 60 64
REMARK SMILES IDX 68 65 61 66 62 67 66 68 69 69 63 70 64 71 67 72 65 73 44 74
REMARK SMILES IDX 45 75 53 76 46 77 47 78 51 79 54 80 48 81 49 82 52 83 50 84
REMARK H PARENT 74 37 42 48
REMARK Flexibility Score: inf
ROOT
ATOM      1  C   UNL     1       4.689   8.979  -1.707  1.00  0.00     0.275 C 
ENDROOT
BRANCH   1   2
ATOM      2  C   UNL     1       5.754   8.116  -2.374  1.00  0.00     0.275 C 
BRANCH   2   3
ATOM      3  O   UNL     1       5.178   6.955  -3.001  1.00  0.00    -0.458 OA
BRANCH   3   4
ATOM      4  C   UNL     1       5.080   5.854  -2.232  1.00  0.00     0.355 C 
ATOM      5  O   UNL     1       5.530   5.687  -1.106  1.00  0.00    -0.245 OA
BRANCH   4   6
ATOM      6  C   UNL     1       4.181   4.817  -2.842  1.00  0.00     0.154 C 
ATOM      7  C   UNL     1       2.833   3.057  -3.050  1.00  0.00     0.111 C 
ATOM      8  N   UNL     1       3.264   3.384  -4.232  1.00  0.00    -0.151 NA
ATOM      9  C   UNL     1       3.299   3.984  -1.979  1.00  0.00     0.128 C 
ATOM     10  N   UNL     1       4.128   4.518  -4.104  1.00  0.00    -0.147 NA
BRANCH   7  11
ATOM     11  C   UNL     1       2.057   1.849  -2.722  1.00  0.00     0.139 C 
ATOM     12  C   UNL     1      -0.714   0.120  -1.559  1.00  0.00     0.053 C 
ATOM     13  C   UNL     1       0.782   0.411  -1.585  1.00  0.00     0.174 C 
ATOM     14  C   UNL     1       1.509  -0.365  -2.691  1.00  0.00     0.076 C 
ATOM     15  O   UNL     1       1.036   1.830  -1.778  1.00  0.00    -0.489 OA
ATOM     16  C   UNL     1       2.397   0.674  -3.242  1.00  0.00     0.025 C 
ENDBRANCH   7  11
ENDBRANCH   4   6
ENDBRANCH   3   4
ENDBRANCH   2   3
ENDBRANCH   1   2
BRANCH   1  17
ATOM     17  O   UNL     1       4.151   8.321  -0.561  1.00  0.00    -0.458 OA
BRANCH  17  18
ATOM     18  C   UNL     1       3.089   7.523  -0.813  1.00  0.00     0.338 C 
ATOM     19  O   UNL     1       2.679   7.160  -1.899  1.00  0.00    -0.246 OA
BRANCH  18  20
ATOM     20  C   UNL     1       2.320   7.329   0.417  1.00  0.00     0.060 A 
ATOM     21  C   UNL     1       1.076   6.711   0.244  1.00  0.00     0.016 A 
ATOM     22  C   UNL     1       2.612   8.150   1.512  1.00  0.00     0.016 A 
ATOM     23  C   UNL     1       0.028   7.161   1.004  1.00  0.00     0.010 A 
ATOM     24  C   UNL     1       1.560   8.623   2.245  1.00  0.00     0.010 A 
ATOM     25  C   UNL     1       0.277   8.194   1.909  1.00  0.00    -0.014 A 
BRANCH  25  26
ATOM     26  C   UNL     1      -0.848   8.771   2.600  1.00  0.00     0.031 A 
ATOM     27  C   UNL     1      -1.343   7.875   3.665  1.00  0.00     0.074 A 
ATOM     28  C   UNL     1      -1.245  10.029   2.336  1.00  0.00     0.049 A 
ATOM     29  N   UNL     1      -2.494   7.299   3.749  1.00  0.00    -0.248 NA
ATOM     30  C   UNL     1      -0.354   7.389   4.646  1.00  0.00     0.031 C 
ATOM     31  C   UNL     1      -0.604  11.012   1.454  1.00  0.00     0.029 A 
ATOM     32  N   UNL     1      -2.257  10.739   2.898  1.00  0.00    -0.354 N 
ATOM     33  C   UNL     1      -2.435   6.544   4.915  1.00  0.00     0.074 A 
ATOM     34  C   UNL     1      -1.051   6.450   5.281  1.00  0.00     0.031 C 
ATOM     35  C   UNL     1      -1.100  12.242   1.719  1.00  0.00     0.029 A 
ATOM     36  C   UNL     1      -2.169  12.111   2.692  1.00  0.00     0.049 A 
ATOM     37  H   UNL     1      -2.988  10.320   3.406  1.00  0.00     0.167 HD
ATOM     38  C   UNL     1      -3.551   6.343   5.663  1.00  0.00     0.037 A 
ATOM     39  C   UNL     1      -2.874  13.052   3.366  1.00  0.00     0.037 A 
ATOM     40  C   UNL     1      -4.739   6.572   4.881  1.00  0.00     0.049 A 
ATOM     41  C   UNL     1      -4.023  12.364   4.005  1.00  0.00     0.074 A 
ATOM     42  C   UNL     1      -5.328   5.961   3.794  1.00  0.00     0.029 A 
ATOM     43  N   UNL     1      -5.297   7.822   4.975  1.00  0.00    -0.354 N 
ATOM     44  N   UNL     1      -5.013  11.841   3.336  1.00  0.00    -0.248 NA
ATOM     45  C   UNL     1      -3.855  11.857   5.359  1.00  0.00     0.031 C 
ATOM     46  C   UNL     1      -5.942   7.014   3.053  1.00  0.00     0.029 A 
ATOM     47  C   UNL     1      -5.744   8.211   3.742  1.00  0.00     0.049 A 
ATOM     48  H   UNL     1      -5.364   8.355   5.800  1.00  0.00     0.167 HD
ATOM     49  C   UNL     1      -5.315  10.664   4.008  1.00  0.00     0.074 A 
ATOM     50  C   UNL     1      -4.656  10.789   5.304  1.00  0.00     0.031 C 
ATOM     51  C   UNL     1      -5.820   9.594   3.326  1.00  0.00     0.037 A 
BRANCH  38  52
ATOM     52  C   UNL     1      -3.556   6.415   7.174  1.00  0.00     0.064 A 
ATOM     53  C   UNL     1      -4.748   6.109   7.856  1.00  0.00     0.173 A 
ATOM     54  C   UNL     1      -2.564   7.062   7.949  1.00  0.00     0.173 A 
ATOM     55  F   UNL     1      -5.763   5.507   7.218  1.00  0.00    -0.203 F 
ATOM     56  C   UNL     1      -4.963   6.503   9.179  1.00  0.00     0.198 A 
ATOM     57  C   UNL     1      -2.761   7.403   9.284  1.00  0.00     0.198 A 
ATOM     58  F   UNL     1      -1.410   7.498   7.433  1.00  0.00    -0.203 F 
ATOM     59  F   UNL     1      -6.162   6.309   9.743  1.00  0.00    -0.200 F 
ATOM     60  C   UNL     1      -3.972   7.157   9.889  1.00  0.00     0.200 A 
ATOM     61  F   UNL     1      -1.793   8.053   9.945  1.00  0.00    -0.200 F 
ATOM     62  F   UNL     1      -4.199   7.596  11.133  1.00  0.00    -0.200 F 
ENDBRANCH  38  52
BRANCH  39  63
ATOM     63  C   UNL     1      -2.423  14.403   3.771  1.00  0.00     0.064 A 
ATOM     64  C   UNL     1      -3.339  15.412   4.104  1.00  0.00     0.173 A 
ATOM     65  C   UNL     1      -1.073  14.649   4.093  1.00  0.00     0.173 A 
ATOM     66  F   UNL     1      -4.649  15.232   3.881  1.00  0.00    -0.203 F 
ATOM     67  C   UNL     1      -2.929  16.596   4.728  1.00  0.00     0.198 A 
ATOM     68  C   UNL     1      -0.664  15.831   4.711  1.00  0.00     0.198 A 
ATOM     69  F   UNL     1      -0.139  13.707   3.898  1.00  0.00    -0.203 F 
ATOM     70  F   UNL     1      -3.837  17.518   5.078  1.00  0.00    -0.200 F 
ATOM     71  C   UNL     1      -1.593  16.801   5.037  1.00  0.00     0.200 A 
ATOM     72  F   UNL     1       0.624  15.996   5.042  1.00  0.00    -0.200 F 
ATOM     73  F   UNL     1      -1.208  17.909   5.685  1.00  0.00    -0.200 F 
ENDBRANCH  39  63
BRANCH  51  74
ATOM     74  C   UNL     1      -6.316   9.857   1.931  1.00  0.00     0.064 A 
ATOM     75  C   UNL     1      -5.484  10.215   0.855  1.00  0.00     0.173 A 
ATOM     76  C   UNL     1      -7.668   9.632   1.653  1.00  0.00     0.173 A 
ATOM     77  F   UNL     1      -4.163  10.351   1.023  1.00  0.00    -0.203 F 
ATOM     78  C   UNL     1      -5.997  10.391  -0.429  1.00  0.00     0.198 A 
ATOM     79  C   UNL     1      -8.172   9.771   0.363  1.00  0.00     0.198 A 
ATOM     80  F   UNL     1      -8.496   9.233   2.631  1.00  0.00    -0.203 F 
ATOM     81  F   UNL     1      -5.187  10.753  -1.435  1.00  0.00    -0.200 F 
ATOM     82  C   UNL     1      -7.341  10.163  -0.674  1.00  0.00     0.200 A 
ATOM     83  F   UNL     1      -9.462   9.501   0.122  1.00  0.00    -0.200 F 
ATOM     84  F   UNL     1      -7.831  10.295  -1.915  1.00  0.00    -0.200 F 
ENDBRANCH  51  74
ENDBRANCH  25  26
ENDBRANCH  18  20
ENDBRANCH  17  18
ENDBRANCH   1  17
TORSDOF 12
