REMARK SMILES C[C@H]1CCC[C@H](C)N1C(=O)[C@H]1[C@@H](C(=O)OCCOC(=O)c2ccc(-c3c4nc(c(-c5c(F)c(F)c(F)c(F)c5F)c5ccc([nH]5)c(-c5c(F)c(F)c(F)c(F)c5F)c5nc(c(-c6c(F)c(F)c(F)c(F)c6F)c6ccc3[nH]6)C=C5)C=C4)cc2)[C@H]2CC[C@@H]1O2
REMARK SMILES IDX 17 1 16 2 15 3 13 4 14 5 12 6 11 7 87 8 84 9 86 10 88 11
REMARK SMILES IDX 85 12 9 13 1 14 2 15 3 16 8 17 4 18 6 19 5 20 7 21 10 22
REMARK SMILES IDX 18 23 19 24 20 25 21 26 22 27 83 28 23 29 82 30 24 31 25 32
REMARK SMILES IDX 26 33 76 34 27 35 81 36 75 37 77 38 28 39 80 40 74 41 73 42
REMARK SMILES IDX 29 44 61 45 41 46 60 47 42 48 45 49 59 50 78 51 43 52 44 53
REMARK SMILES IDX 58 55 79 56 46 57 30 58 31 59 39 60 32 61 33 62 37 63 40 64
REMARK SMILES IDX 34 65 35 66 38 67 36 68 62 69 63 70 71 71 64 72 65 73 69 74
REMARK SMILES IDX 72 75 66 76 67 77 70 78 68 79 47 80 48 81 56 82 49 83 50 84
REMARK SMILES IDX 54 85 57 86 51 87 52 88 55 89 53 90
REMARK H PARENT 77 43 45 54
REMARK Flexibility Score: inf
ROOT
ATOM      1  C   UNL     1      -0.380   6.691  -1.944  1.00  0.00     0.275 C 
ENDROOT
BRANCH   1   2
ATOM      2  C   UNL     1       0.094   5.388  -1.311  1.00  0.00     0.274 C 
BRANCH   2   3
ATOM      3  O   UNL     1      -0.132   4.252  -2.188  1.00  0.00    -0.462 OA
BRANCH   3   4
ATOM      4  C   UNL     1      -0.825   3.220  -1.656  1.00  0.00     0.312 C 
ATOM      5  O   UNL     1      -1.380   3.269  -0.561  1.00  0.00    -0.252 OA
BRANCH   4   6
ATOM      6  C   UNL     1      -0.939   1.968  -2.519  1.00  0.00     0.143 C 
ATOM      7  C   UNL     1       0.097   1.468  -3.526  1.00  0.00     0.124 C 
ATOM      8  C   UNL     1      -0.820   0.621  -4.437  1.00  0.00     0.132 C 
ATOM      9  C   UNL     1      -2.319   1.855  -3.289  1.00  0.00     0.133 C 
ATOM     10  C   UNL     1      -1.596   1.221  -5.583  1.00  0.00     0.035 C 
ATOM     11  O   UNL     1      -1.962   0.470  -3.548  1.00  0.00    -0.373 OA
ATOM     12  C   UNL     1      -2.679   1.977  -4.835  1.00  0.00     0.036 C 
BRANCH   7  13
ATOM     13  C   UNL     1       0.972   2.494  -4.212  1.00  0.00     0.229 C 
ATOM     14  C   UNL     1       2.334   1.553  -1.444  1.00  0.00     0.031 C 
ATOM     15  C   UNL     1       2.688   2.807  -2.247  1.00  0.00     0.082 C 
ATOM     16  C   UNL     1       4.223   2.938  -2.145  1.00  0.00     0.025 C 
ATOM     17  N   UNL     1       2.192   2.929  -3.660  1.00  0.00    -0.337 N 
ATOM     18  C   UNL     1       4.760   4.155  -2.868  1.00  0.00     0.004 C 
ATOM     19  C   UNL     1       2.852   3.970  -4.503  1.00  0.00     0.082 C 
ATOM     20  C   UNL     1       4.369   4.055  -4.326  1.00  0.00     0.025 C 
ATOM     21  C   UNL     1       2.200   5.348  -4.312  1.00  0.00     0.031 C 
ATOM     22  O   UNL     1       0.602   2.935  -5.304  1.00  0.00    -0.274 OA
ENDBRANCH   7  13
ENDBRANCH   4   6
ENDBRANCH   3   4
ENDBRANCH   2   3
ENDBRANCH   1   2
BRANCH   1  23
ATOM     23  O   UNL     1      -1.801   6.613  -2.098  1.00  0.00    -0.458 OA
BRANCH  23  24
ATOM     24  C   UNL     1      -2.240   6.517  -3.369  1.00  0.00     0.338 C 
ATOM     25  O   UNL     1      -1.621   6.675  -4.403  1.00  0.00    -0.246 OA
BRANCH  24  26
ATOM     26  C   UNL     1      -3.642   6.098  -3.309  1.00  0.00     0.060 A 
ATOM     27  C   UNL     1      -3.943   4.853  -2.757  1.00  0.00     0.016 A 
ATOM     28  C   UNL     1      -4.640   6.901  -3.847  1.00  0.00     0.016 A 
ATOM     29  C   UNL     1      -5.233   4.354  -2.825  1.00  0.00     0.010 A 
ATOM     30  C   UNL     1      -5.958   6.453  -3.797  1.00  0.00     0.010 A 
ATOM     31  C   UNL     1      -6.263   5.169  -3.304  1.00  0.00    -0.014 A 
BRANCH  31  32
ATOM     32  C   UNL     1      -7.667   4.697  -3.276  1.00  0.00     0.031 A 
ATOM     33  C   UNL     1      -8.450   4.641  -4.552  1.00  0.00     0.074 A 
ATOM     34  C   UNL     1      -8.239   4.363  -2.103  1.00  0.00     0.049 A 
ATOM     35  N   UNL     1      -9.742   4.559  -4.727  1.00  0.00    -0.248 NA
ATOM     36  C   UNL     1      -7.675   4.710  -5.802  1.00  0.00     0.031 C 
ATOM     37  C   UNL     1      -7.561   4.324  -0.805  1.00  0.00     0.029 A 
ATOM     38  N   UNL     1      -9.530   4.004  -1.810  1.00  0.00    -0.354 N 
ATOM     39  C   UNL     1      -9.941   4.636  -6.098  1.00  0.00     0.074 A 
ATOM     40  C   UNL     1      -8.637   4.759  -6.713  1.00  0.00     0.031 C 
ATOM     41  C   UNL     1      -8.432   3.943   0.139  1.00  0.00     0.029 A 
ATOM     42  C   UNL     1      -9.750   3.812  -0.468  1.00  0.00     0.049 A 
ATOM     43  H   UNL     1     -10.229   3.894  -2.494  1.00  0.00     0.167 HD
ATOM     44  C   UNL     1     -11.116   4.618  -6.770  1.00  0.00     0.037 A 
ATOM     45  C   UNL     1     -10.897   3.619   0.208  1.00  0.00     0.037 A 
ATOM     46  C   UNL     1     -12.396   4.444  -6.135  1.00  0.00     0.049 A 
ATOM     47  C   UNL     1     -12.187   3.619  -0.559  1.00  0.00     0.074 A 
ATOM     48  C   UNL     1     -13.653   4.415  -6.711  1.00  0.00     0.029 A 
ATOM     49  N   UNL     1     -12.573   4.247  -4.772  1.00  0.00    -0.354 N 
ATOM     50  N   UNL     1     -12.382   3.781  -1.846  1.00  0.00    -0.248 NA
ATOM     51  C   UNL     1     -13.418   3.439   0.220  1.00  0.00     0.031 C 
ATOM     52  C   UNL     1     -14.594   4.221  -5.693  1.00  0.00     0.029 A 
ATOM     53  C   UNL     1     -13.920   4.096  -4.488  1.00  0.00     0.049 A 
ATOM     54  H   UNL     1     -11.849   4.220  -4.106  1.00  0.00     0.167 HD
ATOM     55  C   UNL     1     -13.753   3.717  -2.034  1.00  0.00     0.074 A 
ATOM     56  C   UNL     1     -14.341   3.478  -0.731  1.00  0.00     0.031 C 
ATOM     57  C   UNL     1     -14.466   3.855  -3.178  1.00  0.00     0.037 A 
BRANCH  44  58
ATOM     58  C   UNL     1     -11.074   4.826  -8.254  1.00  0.00     0.064 A 
ATOM     59  C   UNL     1     -10.615   3.833  -9.131  1.00  0.00     0.173 A 
ATOM     60  C   UNL     1     -11.532   6.031  -8.810  1.00  0.00     0.173 A 
ATOM     61  F   UNL     1     -10.150   2.670  -8.649  1.00  0.00    -0.203 F 
ATOM     62  C   UNL     1     -10.601   4.044 -10.508  1.00  0.00     0.198 A 
ATOM     63  C   UNL     1     -11.539   6.230 -10.188  1.00  0.00     0.198 A 
ATOM     64  F   UNL     1     -11.980   7.015  -8.015  1.00  0.00    -0.203 F 
ATOM     65  F   UNL     1     -10.123   3.095 -11.325  1.00  0.00    -0.200 F 
ATOM     66  C   UNL     1     -11.069   5.238 -11.036  1.00  0.00     0.200 A 
ATOM     67  F   UNL     1     -12.000   7.381 -10.696  1.00  0.00    -0.200 F 
ATOM     68  F   UNL     1     -11.062   5.436 -12.361  1.00  0.00    -0.200 F 
ENDBRANCH  44  58
BRANCH  45  69
ATOM     69  C   UNL     1     -10.872   3.472   1.686  1.00  0.00     0.064 A 
ATOM     70  C   UNL     1     -11.184   2.248   2.292  1.00  0.00     0.173 A 
ATOM     71  C   UNL     1     -10.520   4.543   2.522  1.00  0.00     0.173 A 
ATOM     72  F   UNL     1     -11.550   1.201   1.538  1.00  0.00    -0.203 F 
ATOM     73  C   UNL     1     -11.152   2.103   3.678  1.00  0.00     0.198 A 
ATOM     74  C   UNL     1     -10.459   4.388   3.905  1.00  0.00     0.198 A 
ATOM     75  F   UNL     1     -10.210   5.735   1.992  1.00  0.00    -0.203 F 
ATOM     76  F   UNL     1     -11.491   0.932   4.234  1.00  0.00    -0.200 F 
ATOM     77  C   UNL     1     -10.781   3.170   4.482  1.00  0.00     0.200 A 
ATOM     78  F   UNL     1     -10.084   5.418   4.676  1.00  0.00    -0.200 F 
ATOM     79  F   UNL     1     -10.741   3.027   5.814  1.00  0.00    -0.200 F 
ENDBRANCH  45  69
BRANCH  57  80
ATOM     80  C   UNL     1     -15.953   3.724  -3.061  1.00  0.00     0.064 A 
ATOM     81  C   UNL     1     -16.736   4.756  -2.527  1.00  0.00     0.173 A 
ATOM     82  C   UNL     1     -16.599   2.565  -3.513  1.00  0.00     0.173 A 
ATOM     83  F   UNL     1     -16.156   5.874  -2.065  1.00  0.00    -0.203 F 
ATOM     84  C   UNL     1     -18.117   4.623  -2.429  1.00  0.00     0.198 A 
ATOM     85  C   UNL     1     -17.983   2.445  -3.435  1.00  0.00     0.198 A 
ATOM     86  F   UNL     1     -15.888   1.553  -4.034  1.00  0.00    -0.203 F 
ATOM     87  F   UNL     1     -18.846   5.603  -1.877  1.00  0.00    -0.200 F 
ATOM     88  C   UNL     1     -18.739   3.471  -2.888  1.00  0.00     0.200 A 
ATOM     89  F   UNL     1     -18.584   1.335  -3.885  1.00  0.00    -0.200 F 
ATOM     90  F   UNL     1     -20.070   3.345  -2.795  1.00  0.00    -0.200 F 
ENDBRANCH  57  80
ENDBRANCH  31  32
ENDBRANCH  24  26
ENDBRANCH  23  24
ENDBRANCH   1  23
TORSDOF 12
