REMARK SMILES O=C(C[C@@H]([NH2+]Cc1ccccc1)C(=O)/N=c1/[nH]c(-c2ccccc2)cs1)OCCOC(=O)c1ccc(-c2c3nc(c(-c4c(F)c(F)c(F)c(F)c4F)c4ccc([nH]4)c(-c4c(F)c(F)c(F)c(F)c4F)c4nc(c(-c5c(F)c(F)c(F)c(F)c5F)c5ccc2[nH]5)C=C4)C=C3)cc1
REMARK SMILES IDX 28 1 27 2 2 3 1 4 3 5 4 6 5 7 6 10 7 11 8 12 12 13 9 14
REMARK SMILES IDX 11 15 10 16 13 17 14 18 15 19 16 20 17 21 26 22 18 23 25 25
REMARK SMILES IDX 19 26 20 27 24 28 21 29 23 30 22 31 29 32 30 33 31 34 32 35
REMARK SMILES IDX 33 36 34 37 95 38 35 39 94 40 36 41 37 42 38 43 88 44 39 45
REMARK SMILES IDX 93 46 87 47 89 48 40 49 92 50 86 51 85 52 41 54 73 55 53 56
REMARK SMILES IDX 72 57 54 58 57 59 71 60 90 61 55 62 56 63 70 65 91 66 58 67
REMARK SMILES IDX 42 68 43 69 51 70 44 71 45 72 49 73 52 74 46 75 47 76 50 77
REMARK SMILES IDX 48 78 74 79 75 80 83 81 76 82 77 83 81 84 84 85 78 86 79 87
REMARK SMILES IDX 82 88 80 89 59 90 60 91 68 92 61 93 62 94 66 95 69 96 63 97
REMARK SMILES IDX 64 98 67 99 65 100
REMARK H PARENT 5 8 5 9 17 24 89 53 57 64
REMARK Flexibility Score: inf
ROOT
ATOM      1  C   UNL     1       3.588  -0.045  -1.464  1.00  0.00     0.274 C 
ENDROOT
BRANCH   1   2
ATOM      2  O   UNL     1       2.486  -0.669  -0.766  1.00  0.00    -0.462 OA
BRANCH   2   3
ATOM      3  C   UNL     1       2.312  -0.689   0.578  1.00  0.00     0.312 C 
ATOM      4  O   UNL     1       1.403  -1.352   1.073  1.00  0.00    -0.252 OA
BRANCH   3   5
ATOM      5  C   UNL     1       3.218   0.135   1.452  1.00  0.00     0.198 C 
BRANCH   5   6
ATOM      6  C   UNL     1       4.227  -0.680   2.245  1.00  0.00     0.286 C 
BRANCH   6   7
ATOM      7  N   UNL     1       5.165  -1.471   1.402  1.00  0.00    -0.332 N 
ATOM      8  H   UNL     1       5.820  -0.826   0.960  1.00  0.00     0.347 HD
ATOM      9  H   UNL     1       4.598  -1.978   0.723  1.00  0.00     0.347 HD
BRANCH   7  10
ATOM     10  C   UNL     1       5.938  -2.477   2.154  1.00  0.00     0.297 C 
BRANCH  10  11
ATOM     11  C   UNL     1       5.142  -3.731   2.441  1.00  0.00     0.006 A 
ATOM     12  C   UNL     1       4.265  -3.797   3.534  1.00  0.00     0.009 A 
ATOM     13  C   UNL     1       5.234  -4.838   1.586  1.00  0.00     0.009 A 
ATOM     14  C   UNL     1       3.456  -4.915   3.733  1.00  0.00     0.001 A 
ATOM     15  C   UNL     1       4.449  -5.972   1.806  1.00  0.00     0.001 A 
ATOM     16  C   UNL     1       3.548  -6.003   2.869  1.00  0.00     0.000 A 
ENDBRANCH  10  11
ENDBRANCH   7  10
ENDBRANCH   6   7
BRANCH   6  17
ATOM     17  C   UNL     1       4.996   0.190   3.295  1.00  0.00     0.307 C 
ATOM     18  O   UNL     1       5.371  -0.357   4.335  1.00  0.00    -0.265 OA
BRANCH  17  19
ATOM     19  N   UNL     1       5.164   1.552   3.162  1.00  0.00    -0.180 NA
ATOM     20  C   UNL     1       5.771   2.140   2.189  1.00  0.00     0.190 A 
ATOM     21  N   UNL     1       6.031   3.494   2.138  1.00  0.00    -0.330 N 
ATOM     22  S   UNL     1       6.356   1.451   0.660  1.00  0.00    -0.105 S 
ATOM     23  C   UNL     1       6.480   3.988   0.931  1.00  0.00     0.058 A 
ATOM     24  H   UNL     1       5.904   4.077   2.921  1.00  0.00     0.169 HD
ATOM     25  C   UNL     1       6.599   3.041  -0.016  1.00  0.00     0.095 A 
BRANCH  23  26
ATOM     26  C   UNL     1       6.829   5.391   0.690  1.00  0.00    -0.001 A 
ATOM     27  C   UNL     1       8.050   5.674   0.051  1.00  0.00     0.010 A 
ATOM     28  C   UNL     1       5.986   6.456   1.026  1.00  0.00     0.010 A 
ATOM     29  C   UNL     1       8.399   6.978  -0.295  1.00  0.00     0.001 A 
ATOM     30  C   UNL     1       6.340   7.767   0.679  1.00  0.00     0.001 A 
ATOM     31  C   UNL     1       7.537   8.025   0.010  1.00  0.00     0.000 A 
ENDBRANCH  23  26
ENDBRANCH  17  19
ENDBRANCH   6  17
ENDBRANCH   5   6
ENDBRANCH   3   5
ENDBRANCH   2   3
ENDBRANCH   1   2
BRANCH   1  32
ATOM     32  C   UNL     1       3.244   1.365  -1.955  1.00  0.00     0.275 C 
BRANCH  32  33
ATOM     33  O   UNL     1       2.938   2.228  -0.844  1.00  0.00    -0.458 OA
BRANCH  33  34
ATOM     34  C   UNL     1       1.618   2.446  -0.620  1.00  0.00     0.338 C 
ATOM     35  O   UNL     1       0.703   2.185  -1.383  1.00  0.00    -0.246 OA
BRANCH  34  36
ATOM     36  C   UNL     1       1.407   2.881   0.784  1.00  0.00     0.060 A 
ATOM     37  C   UNL     1       0.229   2.467   1.415  1.00  0.00     0.016 A 
ATOM     38  C   UNL     1       2.350   3.626   1.504  1.00  0.00     0.016 A 
ATOM     39  C   UNL     1      -0.039   2.848   2.731  1.00  0.00     0.010 A 
ATOM     40  C   UNL     1       2.093   3.983   2.837  1.00  0.00     0.010 A 
ATOM     41  C   UNL     1       0.872   3.640   3.445  1.00  0.00    -0.014 A 
BRANCH  41  42
ATOM     42  C   UNL     1       0.443   4.226   4.746  1.00  0.00     0.031 A 
ATOM     43  C   UNL     1       0.028   5.674   4.799  1.00  0.00     0.074 A 
ATOM     44  C   UNL     1       0.325   3.470   5.855  1.00  0.00     0.049 A 
ATOM     45  N   UNL     1      -0.561   6.338   5.763  1.00  0.00    -0.248 NA
ATOM     46  C   UNL     1       0.323   6.487   3.609  1.00  0.00     0.031 C 
ATOM     47  C   UNL     1       0.722   2.069   5.974  1.00  0.00     0.029 A 
ATOM     48  N   UNL     1      -0.184   3.782   7.095  1.00  0.00    -0.354 N 
ATOM     49  C   UNL     1      -0.739   7.628   5.281  1.00  0.00     0.074 A 
ATOM     50  C   UNL     1      -0.120   7.680   3.975  1.00  0.00     0.031 C 
ATOM     51  C   UNL     1       0.432   1.637   7.215  1.00  0.00     0.029 A 
ATOM     52  C   UNL     1      -0.181   2.727   7.975  1.00  0.00     0.049 A 
ATOM     53  H   UNL     1      -0.518   4.678   7.330  1.00  0.00     0.167 HD
ATOM     54  C   UNL     1      -1.393   8.669   5.851  1.00  0.00     0.037 A 
ATOM     55  C   UNL     1      -0.640   2.643   9.240  1.00  0.00     0.037 A 
ATOM     56  C   UNL     1      -2.002   8.639   7.153  1.00  0.00     0.049 A 
ATOM     57  C   UNL     1      -1.344   3.822   9.866  1.00  0.00     0.074 A 
ATOM     58  C   UNL     1      -2.703   9.642   7.802  1.00  0.00     0.029 A 
ATOM     59  N   UNL     1      -1.974   7.552   8.012  1.00  0.00    -0.354 N 
ATOM     60  N   UNL     1      -1.596   5.005   9.360  1.00  0.00    -0.248 NA
ATOM     61  C   UNL     1      -1.856   3.640  11.234  1.00  0.00     0.031 C 
ATOM     62  C   UNL     1      -3.062   9.176   9.071  1.00  0.00     0.029 A 
ATOM     63  C   UNL     1      -2.629   7.866   9.193  1.00  0.00     0.049 A 
ATOM     64  H   UNL     1      -1.551   6.686   7.813  1.00  0.00     0.167 HD
ATOM     65  C   UNL     1      -2.318   5.692  10.330  1.00  0.00     0.074 A 
ATOM     66  C   UNL     1      -2.484   4.788  11.447  1.00  0.00     0.031 C 
ATOM     67  C   UNL     1      -2.799   6.960  10.298  1.00  0.00     0.037 A 
BRANCH  54  68
ATOM     68  C   UNL     1      -1.499   9.932   5.048  1.00  0.00     0.064 A 
ATOM     69  C   UNL     1      -2.317  10.002   3.909  1.00  0.00     0.173 A 
ATOM     70  C   UNL     1      -0.810  11.090   5.433  1.00  0.00     0.173 A 
ATOM     71  F   UNL     1      -2.986   8.917   3.490  1.00  0.00    -0.203 F 
ATOM     72  C   UNL     1      -2.419  11.177   3.170  1.00  0.00     0.198 A 
ATOM     73  C   UNL     1      -0.937  12.273   4.709  1.00  0.00     0.198 A 
ATOM     74  F   UNL     1      -0.017  11.077   6.515  1.00  0.00    -0.203 F 
ATOM     75  F   UNL     1      -3.166  11.206   2.058  1.00  0.00    -0.200 F 
ATOM     76  C   UNL     1      -1.735  12.313   3.575  1.00  0.00     0.200 A 
ATOM     77  F   UNL     1      -0.284  13.373   5.106  1.00  0.00    -0.200 F 
ATOM     78  F   UNL     1      -1.837  13.446   2.866  1.00  0.00    -0.200 F 
ENDBRANCH  54  68
BRANCH  55  79
ATOM     79  C   UNL     1      -0.482   1.379  10.009  1.00  0.00     0.064 A 
ATOM     80  C   UNL     1      -1.590   0.588  10.347  1.00  0.00     0.173 A 
ATOM     81  C   UNL     1       0.778   0.966  10.467  1.00  0.00     0.173 A 
ATOM     82  F   UNL     1      -2.819   0.959   9.960  1.00  0.00    -0.203 F 
ATOM     83  C   UNL     1      -1.448  -0.549  11.140  1.00  0.00     0.198 A 
ATOM     84  C   UNL     1       0.922  -0.188  11.235  1.00  0.00     0.198 A 
ATOM     85  F   UNL     1       1.868   1.691  10.178  1.00  0.00    -0.203 F 
ATOM     86  F   UNL     1      -2.531  -1.249  11.503  1.00  0.00    -0.200 F 
ATOM     87  C   UNL     1      -0.192  -0.938  11.581  1.00  0.00     0.200 A 
ATOM     88  F   UNL     1       2.137  -0.562  11.657  1.00  0.00    -0.200 F 
ATOM     89  F   UNL     1      -0.058  -2.026  12.352  1.00  0.00    -0.200 F 
ENDBRANCH  55  79
BRANCH  67  90
ATOM     90  C   UNL     1      -3.579   7.439  11.491  1.00  0.00     0.064 A 
ATOM     91  C   UNL     1      -2.961   7.689  12.726  1.00  0.00     0.173 A 
ATOM     92  C   UNL     1      -4.958   7.680  11.390  1.00  0.00     0.173 A 
ATOM     93  F   UNL     1      -1.647   7.466  12.880  1.00  0.00    -0.203 F 
ATOM     94  C   UNL     1      -3.699   8.129  13.822  1.00  0.00     0.198 A 
ATOM     95  C   UNL     1      -5.687   8.150  12.479  1.00  0.00     0.198 A 
ATOM     96  F   UNL     1      -5.598   7.469  10.230  1.00  0.00    -0.203 F 
ATOM     97  F   UNL     1      -3.095   8.309  15.005  1.00  0.00    -0.200 F 
ATOM     98  C   UNL     1      -5.060   8.364  13.697  1.00  0.00     0.200 A 
ATOM     99  F   UNL     1      -6.999   8.393  12.351  1.00  0.00    -0.200 F 
ATOM    100  F   UNL     1      -5.768   8.790  14.752  1.00  0.00    -0.200 F 
ENDBRANCH  67  90
ENDBRANCH  41  42
ENDBRANCH  34  36
ENDBRANCH  33  34
ENDBRANCH  32  33
ENDBRANCH   1  32
TORSDOF 18
