REMARK SMILES Cn1cc(C(=O)OCCOC(=O)c2ccc(-c3c4nc(c(-c5c(F)c(F)c(F)c(F)c5F)c5ccc([nH]5)c(-c5c(F)c(F)c(F)c(F)c5F)c5nc(c(-c6c(F)c(F)c(F)c(F)c6F)c6ccc3[nH]6)C=C5)C=C4)cc2)c(C(=O)Nc2ccc(-n3cncn3)cc2)n1
REMARK SMILES IDX 8 1 7 2 5 3 6 4 4 5 1 6 2 7 3 8 91 9 76 10 77 11 78 12 79 13
REMARK SMILES IDX 80 15 81 16 90 17 82 18 89 19 83 20 84 21 85 22 88 23 86 24
REMARK SMILES IDX 87 25 9 26 10 27 11 28 12 29 13 30 14 31 75 32 15 33 74 34
REMARK SMILES IDX 16 35 17 36 18 37 68 38 19 39 73 40 67 41 69 42 20 43 72 44
REMARK SMILES IDX 66 45 65 46 21 48 53 49 33 50 52 51 34 52 37 53 51 54 70 55
REMARK SMILES IDX 35 56 36 57 50 59 71 60 38 61 22 62 23 63 31 64 24 65 25 66
REMARK SMILES IDX 29 67 32 68 26 69 27 70 30 71 28 72 54 73 55 74 63 75 56 76
REMARK SMILES IDX 57 77 61 78 64 79 58 80 59 81 62 82 60 83 39 84 40 85 48 86
REMARK SMILES IDX 41 87 42 88 46 89 49 90 43 91 44 92 47 93 45 94
REMARK H PARENT 79 14 69 47 37 58
REMARK Flexibility Score: inf
ROOT
ATOM      1  C   UNL     1       2.629  -3.494  -1.738  1.00  0.00     0.275 C 
ENDROOT
BRANCH   1   2
ATOM      2  O   UNL     1       1.780  -2.481  -1.186  1.00  0.00    -0.458 OA
BRANCH   2   3
ATOM      3  C   UNL     1       1.873  -2.180   0.140  1.00  0.00     0.342 C 
ATOM      4  O   UNL     1       2.494  -2.821   0.973  1.00  0.00    -0.246 OA
BRANCH   3   5
ATOM      5  C   UNL     1       1.062  -1.021   0.416  1.00  0.00     0.111 A 
ATOM      6  C   UNL     1      -2.117   0.643   0.136  1.00  0.00     0.173 C 
ATOM      7  N   UNL     1      -0.767   0.183   0.355  1.00  0.00    -0.274 N 
ATOM      8  C   UNL     1      -0.290  -1.050   0.103  1.00  0.00     0.125 A 
ATOM      9  N   UNL     1       0.163   1.023   0.806  1.00  0.00    -0.167 NA
ATOM     10  C   UNL     1       1.317   0.309   0.898  1.00  0.00     0.165 A 
BRANCH  10  11
ATOM     11  C   UNL     1       2.481   1.071   1.453  1.00  0.00     0.277 C 
ATOM     12  O   UNL     1       2.400   2.293   1.645  1.00  0.00    -0.267 OA
ATOM     13  N   UNL     1       3.608   0.501   1.997  1.00  0.00    -0.321 N 
ATOM     14  H   UNL     1       3.866   0.900   2.859  1.00  0.00     0.170 HD
BRANCH  13  15
ATOM     15  C   UNL     1       4.462  -0.519   1.591  1.00  0.00     0.041 A 
ATOM     16  C   UNL     1       5.237  -1.147   2.564  1.00  0.00     0.028 A 
ATOM     17  C   UNL     1       4.618  -0.883   0.263  1.00  0.00     0.028 A 
ATOM     18  C   UNL     1       5.950  -2.304   2.245  1.00  0.00     0.030 A 
ATOM     19  C   UNL     1       5.387  -1.997  -0.082  1.00  0.00     0.030 A 
ATOM     20  C   UNL     1       5.941  -2.784   0.931  1.00  0.00     0.067 A 
BRANCH  20  21
ATOM     21  N   UNL     1       6.308  -4.130   0.680  1.00  0.00    -0.221 N 
ATOM     22  C   UNL     1       6.298  -4.819  -0.510  1.00  0.00     0.225 A 
ATOM     23  N   UNL     1       6.524  -5.008   1.692  1.00  0.00    -0.155 NA
ATOM     24  N   UNL     1       6.364  -6.113  -0.295  1.00  0.00    -0.223 NA
ATOM     25  C   UNL     1       6.470  -6.181   1.062  1.00  0.00     0.246 A 
ENDBRANCH  20  21
ENDBRANCH  13  15
ENDBRANCH  10  11
ENDBRANCH   3   5
ENDBRANCH   2   3
ENDBRANCH   1   2
BRANCH   1  26
ATOM     26  C   UNL     1       3.124  -3.007  -3.107  1.00  0.00     0.275 C 
BRANCH  26  27
ATOM     27  O   UNL     1       3.756  -1.710  -2.992  1.00  0.00    -0.458 OA
BRANCH  27  28
ATOM     28  C   UNL     1       2.961  -0.647  -3.293  1.00  0.00     0.338 C 
ATOM     29  O   UNL     1       1.833  -0.695  -3.754  1.00  0.00    -0.246 OA
BRANCH  28  30
ATOM     30  C   UNL     1       3.588   0.623  -2.843  1.00  0.00     0.060 A 
ATOM     31  C   UNL     1       2.748   1.600  -2.293  1.00  0.00     0.016 A 
ATOM     32  C   UNL     1       4.968   0.860  -2.917  1.00  0.00     0.016 A 
ATOM     33  C   UNL     1       3.272   2.818  -1.850  1.00  0.00     0.010 A 
ATOM     34  C   UNL     1       5.492   2.089  -2.482  1.00  0.00     0.010 A 
ATOM     35  C   UNL     1       4.642   3.090  -1.978  1.00  0.00    -0.014 A 
BRANCH  35  36
ATOM     36  C   UNL     1       5.114   4.490  -1.803  1.00  0.00     0.031 A 
ATOM     37  C   UNL     1       5.046   5.413  -2.991  1.00  0.00     0.074 A 
ATOM     38  C   UNL     1       5.533   4.977  -0.620  1.00  0.00     0.049 A 
ATOM     39  N   UNL     1       5.260   6.704  -3.061  1.00  0.00    -0.248 NA
ATOM     40  C   UNL     1       4.671   4.795  -4.274  1.00  0.00     0.031 C 
ATOM     41  C   UNL     1       5.627   4.224   0.626  1.00  0.00     0.029 A 
ATOM     42  N   UNL     1       5.947   6.245  -0.281  1.00  0.00    -0.354 N 
ATOM     43  C   UNL     1       4.998   7.056  -4.377  1.00  0.00     0.074 A 
ATOM     44  C   UNL     1       4.667   5.840  -5.087  1.00  0.00     0.031 C 
ATOM     45  C   UNL     1       6.073   5.045   1.597  1.00  0.00     0.029 A 
ATOM     46  C   UNL     1       6.293   6.381   1.040  1.00  0.00     0.049 A 
ATOM     47  H   UNL     1       5.991   6.987  -0.928  1.00  0.00     0.167 HD
ATOM     48  C   UNL     1       5.005   8.284  -4.946  1.00  0.00     0.037 A 
ATOM     49  C   UNL     1       6.726   7.461   1.722  1.00  0.00     0.037 A 
ATOM     50  C   UNL     1       5.371   9.501  -4.276  1.00  0.00     0.049 A 
ATOM     51  C   UNL     1       6.852   8.798   1.030  1.00  0.00     0.074 A 
ATOM     52  C   UNL     1       5.404  10.788  -4.783  1.00  0.00     0.029 A 
ATOM     53  N   UNL     1       5.790   9.577  -2.959  1.00  0.00    -0.354 N 
ATOM     54  N   UNL     1       6.524   9.136  -0.193  1.00  0.00    -0.248 NA
ATOM     55  C   UNL     1       7.407   9.908   1.824  1.00  0.00     0.031 C 
ATOM     56  C   UNL     1       5.891  11.639  -3.786  1.00  0.00     0.029 A 
ATOM     57  C   UNL     1       6.125  10.885  -2.647  1.00  0.00     0.049 A 
ATOM     58  H   UNL     1       5.844   8.816  -2.337  1.00  0.00     0.167 HD
ATOM     59  C   UNL     1       6.796  10.495  -0.301  1.00  0.00     0.074 A 
ATOM     60  C   UNL     1       7.314  10.925   0.979  1.00  0.00     0.031 C 
ATOM     61  C   UNL     1       6.628  11.313  -1.369  1.00  0.00     0.037 A 
BRANCH  48  62
ATOM     62  C   UNL     1       4.607   8.364  -6.385  1.00  0.00     0.064 A 
ATOM     63  C   UNL     1       3.261   8.272  -6.769  1.00  0.00     0.173 A 
ATOM     64  C   UNL     1       5.572   8.548  -7.384  1.00  0.00     0.173 A 
ATOM     65  F   UNL     1       2.307   8.078  -5.846  1.00  0.00    -0.203 F 
ATOM     66  C   UNL     1       2.897   8.345  -8.110  1.00  0.00     0.198 A 
ATOM     67  C   UNL     1       5.202   8.638  -8.722  1.00  0.00     0.198 A 
ATOM     68  F   UNL     1       6.871   8.637  -7.062  1.00  0.00    -0.203 F 
ATOM     69  F   UNL     1       1.610   8.219  -8.461  1.00  0.00    -0.200 F 
ATOM     70  C   UNL     1       3.866   8.532  -9.084  1.00  0.00     0.200 A 
ATOM     71  F   UNL     1       6.138   8.821  -9.664  1.00  0.00    -0.200 F 
ATOM     72  F   UNL     1       3.515   8.601 -10.376  1.00  0.00    -0.200 F 
ENDBRANCH  48  62
BRANCH  49  73
ATOM     73  C   UNL     1       7.082   7.348   3.160  1.00  0.00     0.064 A 
ATOM     74  C   UNL     1       6.304   7.967   4.149  1.00  0.00     0.173 A 
ATOM     75  C   UNL     1       8.251   6.689   3.565  1.00  0.00     0.173 A 
ATOM     76  F   UNL     1       5.199   8.645   3.805  1.00  0.00    -0.203 F 
ATOM     77  C   UNL     1       6.695   7.949   5.487  1.00  0.00     0.198 A 
ATOM     78  C   UNL     1       8.630   6.654   4.905  1.00  0.00     0.198 A 
ATOM     79  F   UNL     1       9.038   6.097   2.655  1.00  0.00    -0.203 F 
ATOM     80  F   UNL     1       5.966   8.598   6.405  1.00  0.00    -0.200 F 
ATOM     81  C   UNL     1       7.856   7.292   5.864  1.00  0.00     0.200 A 
ATOM     82  F   UNL     1       9.755   6.021   5.266  1.00  0.00    -0.200 F 
ATOM     83  F   UNL     1       8.241   7.290   7.147  1.00  0.00    -0.200 F 
ENDBRANCH  49  73
BRANCH  61  84
ATOM     84  C   UNL     1       6.980  12.763  -1.206  1.00  0.00     0.064 A 
ATOM     85  C   UNL     1       8.314  13.192  -1.158  1.00  0.00     0.173 A 
ATOM     86  C   UNL     1       5.973  13.740  -1.164  1.00  0.00     0.173 A 
ATOM     87  F   UNL     1       9.312  12.296  -1.182  1.00  0.00    -0.203 F 
ATOM     88  C   UNL     1       8.627  14.546  -1.060  1.00  0.00     0.198 A 
ATOM     89  C   UNL     1       6.291  15.094  -1.091  1.00  0.00     0.198 A 
ATOM     90  F   UNL     1       4.681  13.383  -1.215  1.00  0.00    -0.203 F 
ATOM     91  F   UNL     1       9.909  14.931  -0.985  1.00  0.00    -0.200 F 
ATOM     92  C   UNL     1       7.617  15.496  -1.035  1.00  0.00     0.200 A 
ATOM     93  F   UNL     1       5.314  16.011  -1.079  1.00  0.00    -0.200 F 
ATOM     94  F   UNL     1       7.921  16.798  -0.955  1.00  0.00    -0.200 F 
ENDBRANCH  61  84
ENDBRANCH  35  36
ENDBRANCH  28  30
ENDBRANCH  27  28
ENDBRANCH  26  27
ENDBRANCH   1  26
TORSDOF 14
