REMARK SMILES O=C(OCCOC(=O)[C@H]1[C@@H](C(=O)Nc2ccccc2-c2ccccc2)[C@@H]2C=C[C@H]1O2)c1ccc(-c2c3nc(c(-c4c(F)c(F)c(F)c(F)c4F)c4ccc([nH]4)c(-c4c(F)c(F)c(F)c(F)c4F)c4nc(c(-c5c(F)c(F)c(F)c(F)c5F)c5ccc2[nH]5)C=C4)C=C3)cc1
REMARK SMILES IDX 5 1 4 2 3 3 2 4 1 5 31 6 32 7 93 8 33 9 92 10 34 11 35 12
REMARK SMILES IDX 36 13 86 14 37 15 91 16 85 17 87 18 38 19 90 20 84 21 83 22
REMARK SMILES IDX 39 24 71 25 51 26 70 27 52 28 55 29 69 30 88 31 53 32 54 33
REMARK SMILES IDX 68 35 89 36 56 37 40 38 41 39 49 40 42 41 43 42 47 43 50 44
REMARK SMILES IDX 44 45 45 46 48 47 46 48 72 49 73 50 81 51 74 52 75 53 79 54
REMARK SMILES IDX 82 55 76 56 77 57 80 58 78 59 57 60 58 61 66 62 59 63 60 64
REMARK SMILES IDX 64 65 67 66 61 67 62 68 65 69 63 70 6 71 7 72 8 73 9 74
REMARK SMILES IDX 10 75 29 76 26 77 28 78 30 79 27 80 11 81 12 82 13 83 14 85
REMARK SMILES IDX 15 86 19 87 16 88 18 89 17 90 20 91 21 92 25 93 22 94 24 95
REMARK SMILES IDX 23 96
REMARK H PARENT 87 23 55 34 13 84
REMARK Flexibility Score: inf
ROOT
ATOM      1  C   UNL     1       2.241  -4.152  -3.953  1.00  0.00     0.274 C 
ENDROOT
BRANCH   1   2
ATOM      2  C   UNL     1       0.829  -4.529  -4.410  1.00  0.00     0.275 C 
BRANCH   2   3
ATOM      3  O   UNL     1       0.127  -3.486  -5.104  1.00  0.00    -0.458 OA
BRANCH   3   4
ATOM      4  C   UNL     1      -0.668  -2.508  -4.607  1.00  0.00     0.338 C 
ATOM      5  O   UNL     1      -1.375  -1.869  -5.388  1.00  0.00    -0.246 OA
BRANCH   4   6
ATOM      6  C   UNL     1      -0.650  -2.070  -3.173  1.00  0.00     0.060 A 
ATOM      7  C   UNL     1      -0.359  -2.863  -2.055  1.00  0.00     0.016 A 
ATOM      8  C   UNL     1      -0.897  -0.705  -2.953  1.00  0.00     0.016 A 
ATOM      9  C   UNL     1      -0.170  -2.296  -0.783  1.00  0.00     0.010 A 
ATOM     10  C   UNL     1      -0.685  -0.129  -1.695  1.00  0.00     0.010 A 
ATOM     11  C   UNL     1      -0.288  -0.918  -0.599  1.00  0.00    -0.014 A 
BRANCH  11  12
ATOM     12  C   UNL     1      -0.151  -0.301   0.745  1.00  0.00     0.031 A 
ATOM     13  C   UNL     1      -1.393   0.292   1.339  1.00  0.00     0.074 A 
ATOM     14  C   UNL     1       1.021  -0.231   1.413  1.00  0.00     0.049 A 
ATOM     15  N   UNL     1      -1.556   0.942   2.459  1.00  0.00    -0.248 NA
ATOM     16  C   UNL     1      -2.619   0.159   0.532  1.00  0.00     0.031 C 
ATOM     17  C   UNL     1       2.308  -0.759   0.960  1.00  0.00     0.029 A 
ATOM     18  N   UNL     1       1.318   0.342   2.631  1.00  0.00    -0.354 N 
ATOM     19  C   UNL     1      -2.901   1.276   2.485  1.00  0.00     0.074 A 
ATOM     20  C   UNL     1      -3.466   0.909   1.209  1.00  0.00     0.031 C 
ATOM     21  C   UNL     1       3.255  -0.464   1.872  1.00  0.00     0.029 A 
ATOM     22  C   UNL     1       2.650   0.283   2.970  1.00  0.00     0.049 A 
ATOM     23  H   UNL     1       0.636   0.757   3.207  1.00  0.00     0.167 HD
ATOM     24  C   UNL     1      -3.636   1.755   3.513  1.00  0.00     0.037 A 
ATOM     25  C   UNL     1       3.300   0.777   4.046  1.00  0.00     0.037 A 
ATOM     26  C   UNL     1      -3.083   2.102   4.785  1.00  0.00     0.049 A 
ATOM     27  C   UNL     1       2.491   1.428   5.145  1.00  0.00     0.074 A 
ATOM     28  C   UNL     1      -3.729   2.566   5.913  1.00  0.00     0.029 A 
ATOM     29  N   UNL     1      -1.731   2.028   5.089  1.00  0.00    -0.354 N 
ATOM     30  N   UNL     1       1.196   1.629   5.209  1.00  0.00    -0.248 NA
ATOM     31  C   UNL     1       3.223   1.882   6.337  1.00  0.00     0.031 C 
ATOM     32  C   UNL     1      -2.759   2.820   6.887  1.00  0.00     0.029 A 
ATOM     33  C   UNL     1      -1.516   2.464   6.382  1.00  0.00     0.049 A 
ATOM     34  H   UNL     1      -1.030   1.713   4.474  1.00  0.00     0.167 HD
ATOM     35  C   UNL     1       0.952   2.170   6.465  1.00  0.00     0.074 A 
ATOM     36  C   UNL     1       2.235   2.280   7.127  1.00  0.00     0.031 C 
ATOM     37  C   UNL     1      -0.229   2.527   7.028  1.00  0.00     0.037 A 
BRANCH  24  38
ATOM     38  C   UNL     1      -5.106   1.885   3.256  1.00  0.00     0.064 A 
ATOM     39  C   UNL     1      -5.906   0.747   3.041  1.00  0.00     0.173 A 
ATOM     40  C   UNL     1      -5.691   3.144   3.082  1.00  0.00     0.173 A 
ATOM     41  F   UNL     1      -5.380  -0.482   3.162  1.00  0.00    -0.203 F 
ATOM     42  C   UNL     1      -7.214   0.870   2.583  1.00  0.00     0.198 A 
ATOM     43  C   UNL     1      -7.013   3.262   2.662  1.00  0.00     0.198 A 
ATOM     44  F   UNL     1      -4.968   4.258   3.272  1.00  0.00    -0.203 F 
ATOM     45  F   UNL     1      -7.917  -0.228   2.270  1.00  0.00    -0.200 F 
ATOM     46  C   UNL     1      -7.765   2.127   2.391  1.00  0.00     0.200 A 
ATOM     47  F   UNL     1      -7.549   4.476   2.479  1.00  0.00    -0.200 F 
ATOM     48  F   UNL     1      -9.012   2.245   1.917  1.00  0.00    -0.200 F 
ENDBRANCH  24  38
BRANCH  25  49
ATOM     49  C   UNL     1       4.784   0.671   4.170  1.00  0.00     0.064 A 
ATOM     50  C   UNL     1       5.381  -0.154   5.135  1.00  0.00     0.173 A 
ATOM     51  C   UNL     1       5.636   1.453   3.376  1.00  0.00     0.173 A 
ATOM     52  F   UNL     1       4.614  -0.905   5.939  1.00  0.00    -0.203 F 
ATOM     53  C   UNL     1       6.764  -0.166   5.325  1.00  0.00     0.198 A 
ATOM     54  C   UNL     1       7.021   1.425   3.552  1.00  0.00     0.198 A 
ATOM     55  F   UNL     1       5.124   2.258   2.434  1.00  0.00    -0.203 F 
ATOM     56  F   UNL     1       7.299  -0.920   6.296  1.00  0.00    -0.200 F 
ATOM     57  C   UNL     1       7.583   0.624   4.534  1.00  0.00     0.200 A 
ATOM     58  F   UNL     1       7.808   2.188   2.780  1.00  0.00    -0.200 F 
ATOM     59  F   UNL     1       8.909   0.625   4.728  1.00  0.00    -0.200 F 
ENDBRANCH  25  49
BRANCH  37  60
ATOM     60  C   UNL     1      -0.212   3.001   8.451  1.00  0.00     0.064 A 
ATOM     61  C   UNL     1       0.279   4.265   8.804  1.00  0.00     0.173 A 
ATOM     62  C   UNL     1      -0.793   2.213   9.456  1.00  0.00     0.173 A 
ATOM     63  F   UNL     1       0.858   5.047   7.881  1.00  0.00    -0.203 F 
ATOM     64  C   UNL     1       0.189   4.722  10.116  1.00  0.00     0.198 A 
ATOM     65  C   UNL     1      -0.911   2.687  10.758  1.00  0.00     0.198 A 
ATOM     66  F   UNL     1      -1.282   0.998   9.165  1.00  0.00    -0.203 F 
ATOM     67  F   UNL     1       0.689   5.922  10.440  1.00  0.00    -0.200 F 
ATOM     68  C   UNL     1      -0.418   3.940  11.088  1.00  0.00     0.200 A 
ATOM     69  F   UNL     1      -1.516   1.937  11.690  1.00  0.00    -0.200 F 
ATOM     70  F   UNL     1      -0.529   4.394  12.343  1.00  0.00    -0.200 F 
ENDBRANCH  37  60
ENDBRANCH  11  12
ENDBRANCH   4   6
ENDBRANCH   3   4
ENDBRANCH   2   3
ENDBRANCH   1   2
BRANCH   1  71
ATOM     71  O   UNL     1       2.342  -2.777  -3.543  1.00  0.00    -0.462 OA
BRANCH  71  72
ATOM     72  C   UNL     1       3.474  -2.110  -3.905  1.00  0.00     0.312 C 
ATOM     73  O   UNL     1       4.431  -2.649  -4.469  1.00  0.00    -0.252 OA
BRANCH  72  74
ATOM     74  C   UNL     1       3.535  -0.694  -3.359  1.00  0.00     0.147 C 
ATOM     75  C   UNL     1       3.910   0.439  -4.328  1.00  0.00     0.129 C 
ATOM     76  C   UNL     1       2.213  -0.159  -2.871  1.00  0.00     0.157 C 
ATOM     77  C   UNL     1       2.609   1.245  -4.454  1.00  0.00     0.155 C 
ATOM     78  C   UNL     1       2.327   1.190  -2.205  1.00  0.00     0.004 C 
ATOM     79  O   UNL     1       1.624   0.243  -4.128  1.00  0.00    -0.365 OA
ATOM     80  C   UNL     1       2.510   2.074  -3.197  1.00  0.00     0.004 C 
BRANCH  75  81
ATOM     81  C   UNL     1       4.507   0.045  -5.638  1.00  0.00     0.231 C 
ATOM     82  O   UNL     1       3.886  -0.615  -6.472  1.00  0.00    -0.274 OA
ATOM     83  N   UNL     1       5.763   0.507  -5.955  1.00  0.00    -0.325 N 
ATOM     84  H   UNL     1       6.252   0.007  -6.647  1.00  0.00     0.169 HD
BRANCH  83  85
ATOM     85  C   UNL     1       6.431   1.625  -5.394  1.00  0.00     0.049 A 
ATOM     86  C   UNL     1       6.567   2.693  -6.301  1.00  0.00     0.027 A 
ATOM     87  C   UNL     1       6.874   1.772  -4.048  1.00  0.00     0.005 A 
ATOM     88  C   UNL     1       7.059   3.930  -5.894  1.00  0.00     0.002 A 
ATOM     89  C   UNL     1       7.417   3.031  -3.692  1.00  0.00     0.011 A 
ATOM     90  C   UNL     1       7.485   4.099  -4.588  1.00  0.00     0.001 A 
BRANCH  87  91
ATOM     91  C   UNL     1       6.757   0.753  -2.961  1.00  0.00    -0.016 A 
ATOM     92  C   UNL     1       6.261   1.141  -1.692  1.00  0.00     0.009 A 
ATOM     93  C   UNL     1       7.027  -0.610  -3.147  1.00  0.00     0.009 A 
ATOM     94  C   UNL     1       6.028   0.218  -0.669  1.00  0.00     0.001 A 
ATOM     95  C   UNL     1       6.789  -1.541  -2.121  1.00  0.00     0.001 A 
ATOM     96  C   UNL     1       6.287  -1.129  -0.885  1.00  0.00     0.000 A 
ENDBRANCH  87  91
ENDBRANCH  83  85
ENDBRANCH  75  81
ENDBRANCH  72  74
ENDBRANCH  71  72
ENDBRANCH   1  71
TORSDOF 14
