REMARK SMILES COc1ccc(/C=C2/C(=O)N(c3ccccc3)C(=O)N=C2OCCOC(=O)c2ccc(-c3c4nc(c(-c5c(F)c(F)c(F)c(F)c5F)c5ccc([nH]5)c(-c5c(F)c(F)c(F)c(F)c5F)c5nc(c(-c6c(F)c(F)c(F)c(F)c6F)c6ccc3[nH]6)C=C5)C=C4)cc2)cc1C(=O)[O-]
REMARK SMILES IDX 24 1 23 2 22 3 21 4 7 5 8 6 9 7 10 8 11 9 20 10 18 11 19 12
REMARK SMILES IDX 6 13 3 14 4 15 92 16 5 17 91 18 2 19 1 20 93 21 94 22 95 23
REMARK SMILES IDX 12 24 13 25 17 26 14 27 16 28 15 29 25 30 26 31 27 32 28 33
REMARK SMILES IDX 29 34 90 35 30 36 89 37 31 38 32 39 33 40 83 41 34 42 88 43
REMARK SMILES IDX 82 44 84 45 35 46 87 47 81 48 80 49 36 51 68 52 48 53 67 54
REMARK SMILES IDX 49 55 52 56 66 57 85 58 50 59 51 60 65 62 86 63 53 64 37 65
REMARK SMILES IDX 38 66 46 67 39 68 40 69 44 70 47 71 41 72 42 73 45 74 43 75
REMARK SMILES IDX 69 76 70 77 78 78 71 79 72 80 76 81 79 82 73 83 74 84 77 85
REMARK SMILES IDX 75 86 54 87 55 88 63 89 56 90 57 91 61 92 64 93 58 94 59 95
REMARK SMILES IDX 62 96 60 97
REMARK H PARENT 84 50 52 61
REMARK Flexibility Score: inf
ROOT
ATOM      1  C   UNL     1      -3.383  -4.059  -4.215  1.00  0.00     0.274 C 
ENDROOT
BRANCH   1   2
ATOM      2  C   UNL     1      -2.413  -4.956  -3.441  1.00  0.00     0.273 C 
BRANCH   2   3
ATOM      3  O   UNL     1      -1.046  -4.678  -3.833  1.00  0.00    -0.473 OA
BRANCH   3   4
ATOM      4  C   UNL     1      -0.232  -5.666  -4.262  1.00  0.00     0.231 C 
ATOM      5  C   UNL     1       1.930  -4.381  -3.853  1.00  0.00     0.027 C 
ATOM      6  C   UNL     1       1.129  -5.215  -4.547  1.00  0.00     0.103 C 
ATOM      7  C   UNL     1       1.709  -5.867  -5.759  1.00  0.00     0.272 C 
ATOM      8  O   UNL     1       2.656  -5.353  -6.351  1.00  0.00    -0.268 OA
ATOM      9  N   UNL     1       1.112  -7.082  -6.082  1.00  0.00    -0.226 N 
ATOM     10  N   UNL     1      -0.644  -6.856  -4.519  1.00  0.00    -0.156 NA
ATOM     11  C   UNL     1       0.240  -7.695  -5.169  1.00  0.00     0.358 C 
ATOM     12  O   UNL     1       0.171  -8.905  -4.985  1.00  0.00    -0.245 OA
BRANCH   5  13
ATOM     13  C   UNL     1       1.744  -3.600  -2.613  1.00  0.00    -0.024 A 
ATOM     14  C   UNL     1       1.439  -1.853  -0.414  1.00  0.00     0.127 A 
ATOM     15  C   UNL     1       0.530  -2.887  -0.628  1.00  0.00     0.048 A 
ATOM     16  C   UNL     1       2.593  -1.784  -1.196  1.00  0.00     0.040 A 
ATOM     17  C   UNL     1       0.709  -3.777  -1.692  1.00  0.00     0.012 A 
ATOM     18  C   UNL     1       2.712  -2.624  -2.316  1.00  0.00     0.022 A 
BRANCH  14  19
ATOM     19  O   UNL     1       1.122  -0.972   0.585  1.00  0.00    -0.496 OA
ATOM     20  C   UNL     1       0.829   0.321   0.047  1.00  0.00     0.278 C 
ENDBRANCH  14  19
BRANCH  16  21
ATOM     21  C   UNL     1       3.740  -0.900  -0.901  1.00  0.00     0.075 C 
ATOM     22  O   UNL     1       4.548  -0.494  -1.718  1.00  0.00    -0.545 OA
ATOM     23  O   UNL     1       3.895  -0.666   0.412  1.00  0.00    -0.545 OA
ENDBRANCH  16  21
ENDBRANCH   5  13
BRANCH   9  24
ATOM     24  C   UNL     1       1.430  -7.709  -7.339  1.00  0.00     0.054 A 
ATOM     25  C   UNL     1       1.499  -6.912  -8.501  1.00  0.00     0.027 A 
ATOM     26  C   UNL     1       1.526  -9.098  -7.497  1.00  0.00     0.027 A 
ATOM     27  C   UNL     1       1.597  -7.487  -9.773  1.00  0.00     0.002 A 
ATOM     28  C   UNL     1       1.663  -9.670  -8.768  1.00  0.00     0.002 A 
ATOM     29  C   UNL     1       1.675  -8.867  -9.906  1.00  0.00     0.000 A 
ENDBRANCH   9  24
ENDBRANCH   3   4
ENDBRANCH   2   3
ENDBRANCH   1   2
BRANCH   1  30
ATOM     30  O   UNL     1      -3.705  -4.684  -5.471  1.00  0.00    -0.458 OA
BRANCH  30  31
ATOM     31  C   UNL     1      -3.059  -4.204  -6.556  1.00  0.00     0.338 C 
ATOM     32  O   UNL     1      -2.355  -3.215  -6.639  1.00  0.00    -0.246 OA
BRANCH  31  33
ATOM     33  C   UNL     1      -3.109  -5.251  -7.583  1.00  0.00     0.060 A 
ATOM     34  C   UNL     1      -2.056  -6.156  -7.568  1.00  0.00     0.016 A 
ATOM     35  C   UNL     1      -4.097  -5.333  -8.561  1.00  0.00     0.016 A 
ATOM     36  C   UNL     1      -1.964  -7.144  -8.534  1.00  0.00     0.010 A 
ATOM     37  C   UNL     1      -4.001  -6.335  -9.543  1.00  0.00     0.010 A 
ATOM     38  C   UNL     1      -2.916  -7.233  -9.550  1.00  0.00    -0.014 A 
BRANCH  38  39
ATOM     39  C   UNL     1      -2.642  -8.159 -10.682  1.00  0.00     0.031 A 
ATOM     40  C   UNL     1      -2.318  -7.581 -12.031  1.00  0.00     0.074 A 
ATOM     41  C   UNL     1      -2.512  -9.487 -10.491  1.00  0.00     0.049 A 
ATOM     42  N   UNL     1      -2.182  -8.183 -13.185  1.00  0.00    -0.248 NA
ATOM     43  C   UNL     1      -2.104  -6.126 -12.086  1.00  0.00     0.031 C 
ATOM     44  C   UNL     1      -2.618 -10.172  -9.202  1.00  0.00     0.029 A 
ATOM     45  N   UNL     1      -2.220 -10.494 -11.378  1.00  0.00    -0.354 N 
ATOM     46  C   UNL     1      -1.940  -7.176 -14.109  1.00  0.00     0.074 A 
ATOM     47  C   UNL     1      -1.916  -5.926 -13.382  1.00  0.00     0.031 C 
ATOM     48  C   UNL     1      -2.345 -11.475  -9.375  1.00  0.00     0.029 A 
ATOM     49  C   UNL     1      -2.150 -11.737 -10.797  1.00  0.00     0.049 A 
ATOM     50  H   UNL     1      -2.074 -10.340 -12.339  1.00  0.00     0.167 HD
ATOM     51  C   UNL     1      -1.772  -7.288 -15.448  1.00  0.00     0.037 A 
ATOM     52  C   UNL     1      -1.997 -12.954 -11.356  1.00  0.00     0.037 A 
ATOM     53  C   UNL     1      -1.735  -8.540 -16.154  1.00  0.00     0.049 A 
ATOM     54  C   UNL     1      -1.905 -13.060 -12.855  1.00  0.00     0.074 A 
ATOM     55  C   UNL     1      -1.620  -8.764 -17.515  1.00  0.00     0.029 A 
ATOM     56  N   UNL     1      -1.788  -9.786 -15.547  1.00  0.00    -0.354 N 
ATOM     57  N   UNL     1      -1.829 -12.106 -13.751  1.00  0.00    -0.248 NA
ATOM     58  C   UNL     1      -1.920 -14.415 -13.425  1.00  0.00     0.031 C 
ATOM     59  C   UNL     1      -1.640 -10.146 -17.734  1.00  0.00     0.029 A 
ATOM     60  C   UNL     1      -1.723 -10.783 -16.506  1.00  0.00     0.049 A 
ATOM     61  H   UNL     1      -1.861  -9.939 -14.577  1.00  0.00     0.167 HD
ATOM     62  C   UNL     1      -1.787 -12.741 -14.985  1.00  0.00     0.074 A 
ATOM     63  C   UNL     1      -1.813 -14.165 -14.723  1.00  0.00     0.031 C 
ATOM     64  C   UNL     1      -1.747 -12.195 -16.225  1.00  0.00     0.037 A 
BRANCH  51  65
ATOM     65  C   UNL     1      -1.698  -6.019 -16.242  1.00  0.00     0.064 A 
ATOM     66  C   UNL     1      -0.560  -5.202 -16.249  1.00  0.00     0.173 A 
ATOM     67  C   UNL     1      -2.795  -5.627 -17.026  1.00  0.00     0.173 A 
ATOM     68  F   UNL     1       0.505  -5.520 -15.497  1.00  0.00    -0.203 F 
ATOM     69  C   UNL     1      -0.531  -4.026 -16.996  1.00  0.00     0.198 A 
ATOM     70  C   UNL     1      -2.752  -4.467 -17.791  1.00  0.00     0.198 A 
ATOM     71  F   UNL     1      -3.908  -6.375 -17.051  1.00  0.00    -0.203 F 
ATOM     72  F   UNL     1       0.550  -3.234 -16.954  1.00  0.00    -0.200 F 
ATOM     73  C   UNL     1      -1.623  -3.664 -17.771  1.00  0.00     0.200 A 
ATOM     74  F   UNL     1      -3.807  -4.124 -18.544  1.00  0.00    -0.200 F 
ATOM     75  F   UNL     1      -1.591  -2.534 -18.492  1.00  0.00    -0.200 F 
ENDBRANCH  51  65
BRANCH  52  76
ATOM     76  C   UNL     1      -2.004 -14.178 -10.508  1.00  0.00     0.064 A 
ATOM     77  C   UNL     1      -0.879 -15.010 -10.424  1.00  0.00     0.173 A 
ATOM     78  C   UNL     1      -3.147 -14.558  -9.786  1.00  0.00     0.173 A 
ATOM     79  F   UNL     1       0.227 -14.714 -11.123  1.00  0.00    -0.203 F 
ATOM     80  C   UNL     1      -0.901 -16.177  -9.660  1.00  0.00     0.198 A 
ATOM     81  C   UNL     1      -3.155 -15.704  -8.994  1.00  0.00     0.198 A 
ATOM     82  F   UNL     1      -4.258 -13.809  -9.844  1.00  0.00    -0.203 F 
ATOM     83  F   UNL     1       0.171 -16.981  -9.639  1.00  0.00    -0.200 F 
ATOM     84  C   UNL     1      -2.035 -16.517  -8.938  1.00  0.00     0.200 A 
ATOM     85  F   UNL     1      -4.251 -16.021  -8.292  1.00  0.00    -0.200 F 
ATOM     86  F   UNL     1      -2.053 -17.635  -8.200  1.00  0.00    -0.200 F 
ENDBRANCH  52  76
BRANCH  64  87
ATOM     87  C   UNL     1      -1.711 -13.139 -17.390  1.00  0.00     0.064 A 
ATOM     88  C   UNL     1      -2.849 -13.858 -17.782  1.00  0.00     0.173 A 
ATOM     89  C   UNL     1      -0.540 -13.293 -18.146  1.00  0.00     0.173 A 
ATOM     90  F   UNL     1      -3.988 -13.755 -17.081  1.00  0.00    -0.203 F 
ATOM     91  C   UNL     1      -2.809 -14.716 -18.878  1.00  0.00     0.198 A 
ATOM     92  C   UNL     1      -0.511 -14.132 -19.256  1.00  0.00     0.198 A 
ATOM     93  F   UNL     1       0.573 -12.621 -17.814  1.00  0.00    -0.203 F 
ATOM     94  F   UNL     1      -3.896 -15.427 -19.210  1.00  0.00    -0.200 F 
ATOM     95  C   UNL     1      -1.643 -14.847 -19.617  1.00  0.00     0.200 A 
ATOM     96  F   UNL     1       0.612 -14.248 -19.977  1.00  0.00    -0.200 F 
ATOM     97  F   UNL     1      -1.609 -15.669 -20.676  1.00  0.00    -0.200 F 
ENDBRANCH  64  87
ENDBRANCH  38  39
ENDBRANCH  31  33
ENDBRANCH  30  31
ENDBRANCH   1  30
TORSDOF 14
