REMARK SMILES Cc1ccc(C(=O)OCCOC(=O)c2ccc(-c3c4nc(c(-c5c(F)c(F)c(F)c(F)c5F)c5ccc([nH]5)c(-c5c(F)c(F)c(F)c(F)c5F)c5nc(c(-c6c(F)c(F)c(F)c(F)c6F)c6ccc3[nH]6)C=C5)C=C4)cc2)cc1S(=O)(=O)N(CC1CC1)C(C)C
REMARK SMILES IDX 9 1 8 2 6 3 7 4 5 5 1 6 2 7 3 8 78 9 4 10 77 11 79 12 80 13
REMARK SMILES IDX 81 14 82 15 83 16 84 17 85 18 86 19 87 20 88 21 89 22 10 23
REMARK SMILES IDX 11 24 12 25 13 26 14 27 15 28 76 29 16 30 75 31 17 32 18 33
REMARK SMILES IDX 19 34 69 35 20 36 74 37 68 38 70 39 21 40 73 41 67 42 66 43
REMARK SMILES IDX 22 45 54 46 34 47 53 48 35 49 38 50 52 51 71 52 36 53 37 54
REMARK SMILES IDX 51 56 72 57 39 58 23 59 24 60 32 61 25 62 26 63 30 64 33 65
REMARK SMILES IDX 27 66 28 67 31 68 29 69 55 70 56 71 64 72 57 73 58 74 62 75
REMARK SMILES IDX 65 76 59 77 60 78 63 79 61 80 40 81 41 82 49 83 42 84 43 85
REMARK SMILES IDX 47 86 50 87 44 88 45 89 48 90 46 91
REMARK H PARENT 70 44 38 55
REMARK Flexibility Score: inf
ROOT
ATOM      1  C   UNL     1      -4.650   1.609  -2.613  1.00  0.00     0.275 C 
ENDROOT
BRANCH   1   2
ATOM      2  O   UNL     1      -3.344   1.024  -2.505  1.00  0.00    -0.458 OA
BRANCH   2   3
ATOM      3  C   UNL     1      -2.662   1.562  -1.464  1.00  0.00     0.338 C 
ATOM      4  O   UNL     1      -3.097   2.405  -0.688  1.00  0.00    -0.246 OA
BRANCH   3   5
ATOM      5  C   UNL     1      -1.269   1.095  -1.331  1.00  0.00     0.061 A 
ATOM      6  C   UNL     1       2.458  -0.105   0.477  1.00  0.00     0.046 C 
ATOM      7  C   UNL     1       1.248   0.387  -0.268  1.00  0.00    -0.031 A 
ATOM      8  C   UNL     1       0.384  -0.585  -0.823  1.00  0.00     0.006 A 
ATOM      9  C   UNL     1       0.882   1.735  -0.392  1.00  0.00     0.086 A 
ATOM     10  C   UNL     1      -0.863  -0.235  -1.367  1.00  0.00     0.016 A 
ATOM     11  C   UNL     1      -0.373   2.072  -0.909  1.00  0.00     0.037 A 
BRANCH   9  12
ATOM     12  S   UNL     1       1.781   3.119   0.264  1.00  0.00     0.243 S 
ATOM     13  O   UNL     1       1.223   4.316  -0.323  1.00  0.00    -0.207 OA
ATOM     14  O   UNL     1       1.729   2.936   1.709  1.00  0.00    -0.207 OA
BRANCH  12  15
ATOM     15  N   UNL     1       3.390   3.045  -0.232  1.00  0.00    -0.195 NA
BRANCH  15  16
ATOM     16  C   UNL     1       3.820   2.417  -1.500  1.00  0.00     0.106 C 
BRANCH  16  17
ATOM     17  C   UNL     1       2.963   2.597  -2.718  1.00  0.00     0.004 C 
ATOM     18  C   UNL     1       2.424   3.900  -3.257  1.00  0.00     0.005 C 
ATOM     19  C   UNL     1       3.598   3.257  -3.926  1.00  0.00     0.005 C 
ENDBRANCH  16  17
ENDBRANCH  15  16
BRANCH  15  20
ATOM     20  C   UNL     1       4.321   4.132   0.251  1.00  0.00     0.067 C 
ATOM     21  C   UNL     1       4.299   5.359  -0.658  1.00  0.00     0.025 C 
ATOM     22  C   UNL     1       4.072   4.569   1.695  1.00  0.00     0.025 C 
ENDBRANCH  15  20
ENDBRANCH  12  15
ENDBRANCH   9  12
ENDBRANCH   3   5
ENDBRANCH   2   3
ENDBRANCH   1   2
BRANCH   1  23
ATOM     23  C   UNL     1      -5.668   0.747  -3.361  1.00  0.00     0.275 C 
BRANCH  23  24
ATOM     24  O   UNL     1      -5.536  -0.699  -3.356  1.00  0.00    -0.458 OA
BRANCH  24  25
ATOM     25  C   UNL     1      -5.016  -1.525  -2.422  1.00  0.00     0.338 C 
ATOM     26  O   UNL     1      -4.591  -2.637  -2.708  1.00  0.00    -0.246 OA
BRANCH  25  27
ATOM     27  C   UNL     1      -4.947  -1.062  -1.028  1.00  0.00     0.060 A 
ATOM     28  C   UNL     1      -3.840  -1.441  -0.248  1.00  0.00     0.016 A 
ATOM     29  C   UNL     1      -5.938  -0.236  -0.510  1.00  0.00     0.016 A 
ATOM     30  C   UNL     1      -3.666  -0.910   1.024  1.00  0.00     0.010 A 
ATOM     31  C   UNL     1      -5.730   0.360   0.713  1.00  0.00     0.010 A 
ATOM     32  C   UNL     1      -4.621  -0.011   1.493  1.00  0.00    -0.014 A 
BRANCH  32  33
ATOM     33  C   UNL     1      -4.800   0.263   2.909  1.00  0.00     0.031 A 
ATOM     34  C   UNL     1      -4.189   1.393   3.620  1.00  0.00     0.074 A 
ATOM     35  C   UNL     1      -5.761  -0.525   3.437  1.00  0.00     0.049 A 
ATOM     36  N   UNL     1      -4.131   1.471   4.907  1.00  0.00    -0.248 NA
ATOM     37  C   UNL     1      -3.568   2.529   2.950  1.00  0.00     0.031 C 
ATOM     38  C   UNL     1      -6.550  -0.365   4.641  1.00  0.00     0.029 A 
ATOM     39  N   UNL     1      -6.137  -1.786   2.936  1.00  0.00    -0.354 N 
ATOM     40  C   UNL     1      -3.775   2.764   5.229  1.00  0.00     0.074 A 
ATOM     41  C   UNL     1      -3.326   3.346   3.985  1.00  0.00     0.031 C 
ATOM     42  C   UNL     1      -7.098  -1.557   4.948  1.00  0.00     0.029 A 
ATOM     43  C   UNL     1      -6.507  -2.544   4.049  1.00  0.00     0.049 A 
ATOM     44  H   UNL     1      -6.138  -2.074   1.995  1.00  0.00     0.167 HD
ATOM     45  C   UNL     1      -4.087   3.238   6.474  1.00  0.00     0.037 A 
ATOM     46  C   UNL     1      -5.702  -3.577   4.437  1.00  0.00     0.037 A 
ATOM     47  C   UNL     1      -4.707   2.183   7.275  1.00  0.00     0.049 A 
ATOM     48  C   UNL     1      -5.167  -3.353   5.826  1.00  0.00     0.074 A 
ATOM     49  C   UNL     1      -6.040   1.872   7.491  1.00  0.00     0.029 A 
ATOM     50  N   UNL     1      -3.972   1.064   7.655  1.00  0.00    -0.354 N 
ATOM     51  N   UNL     1      -4.870  -2.179   6.311  1.00  0.00    -0.248 NA
ATOM     52  C   UNL     1      -4.977  -4.435   6.783  1.00  0.00     0.031 C 
ATOM     53  C   UNL     1      -6.112   0.529   7.926  1.00  0.00     0.029 A 
ATOM     54  C   UNL     1      -4.822   0.030   8.002  1.00  0.00     0.049 A 
ATOM     55  H   UNL     1      -2.989   1.015   7.674  1.00  0.00     0.167 HD
ATOM     56  C   UNL     1      -4.550  -2.318   7.634  1.00  0.00     0.074 A 
ATOM     57  C   UNL     1      -4.596  -3.750   7.874  1.00  0.00     0.031 C 
ATOM     58  C   UNL     1      -4.318  -1.253   8.454  1.00  0.00     0.037 A 
BRANCH  45  59
ATOM     59  C   UNL     1      -4.193   4.712   6.820  1.00  0.00     0.064 A 
ATOM     60  C   UNL     1      -5.164   5.170   7.743  1.00  0.00     0.173 A 
ATOM     61  C   UNL     1      -3.421   5.730   6.233  1.00  0.00     0.173 A 
ATOM     62  F   UNL     1      -5.889   4.322   8.482  1.00  0.00    -0.203 F 
ATOM     63  C   UNL     1      -5.435   6.526   7.947  1.00  0.00     0.198 A 
ATOM     64  C   UNL     1      -3.713   7.090   6.412  1.00  0.00     0.198 A 
ATOM     65  F   UNL     1      -2.334   5.441   5.506  1.00  0.00    -0.203 F 
ATOM     66  F   UNL     1      -6.394   6.889   8.810  1.00  0.00    -0.200 F 
ATOM     67  C   UNL     1      -4.734   7.487   7.253  1.00  0.00     0.200 A 
ATOM     68  F   UNL     1      -2.997   8.018   5.759  1.00  0.00    -0.200 F 
ATOM     69  F   UNL     1      -5.023   8.786   7.414  1.00  0.00    -0.200 F 
ENDBRANCH  45  59
BRANCH  46  70
ATOM     70  C   UNL     1      -4.936  -4.231   3.328  1.00  0.00     0.064 A 
ATOM     71  C   UNL     1      -5.638  -4.739   2.212  1.00  0.00     0.173 A 
ATOM     72  C   UNL     1      -3.544  -4.138   3.208  1.00  0.00     0.173 A 
ATOM     73  F   UNL     1      -6.976  -4.855   2.258  1.00  0.00    -0.203 F 
ATOM     74  C   UNL     1      -4.993  -5.052   1.015  1.00  0.00     0.198 A 
ATOM     75  C   UNL     1      -2.897  -4.464   2.010  1.00  0.00     0.198 A 
ATOM     76  F   UNL     1      -2.802  -3.669   4.220  1.00  0.00    -0.203 F 
ATOM     77  F   UNL     1      -5.708  -5.451  -0.046  1.00  0.00    -0.200 F 
ATOM     78  C   UNL     1      -3.623  -4.899   0.910  1.00  0.00     0.200 A 
ATOM     79  F   UNL     1      -1.571  -4.299   1.898  1.00  0.00    -0.200 F 
ATOM     80  F   UNL     1      -3.002  -5.140  -0.254  1.00  0.00    -0.200 F 
ENDBRANCH  46  70
BRANCH  58  81
ATOM     81  C   UNL     1      -3.725  -1.343   9.830  1.00  0.00     0.064 A 
ATOM     82  C   UNL     1      -2.772  -2.309  10.187  1.00  0.00     0.173 A 
ATOM     83  C   UNL     1      -3.978  -0.336  10.791  1.00  0.00     0.173 A 
ATOM     84  F   UNL     1      -2.374  -3.248   9.317  1.00  0.00    -0.203 F 
ATOM     85  C   UNL     1      -2.156  -2.302  11.438  1.00  0.00     0.198 A 
ATOM     86  C   UNL     1      -3.317  -0.299  12.014  1.00  0.00     0.198 A 
ATOM     87  F   UNL     1      -4.852   0.654  10.559  1.00  0.00    -0.203 F 
ATOM     88  F   UNL     1      -1.282  -3.268  11.750  1.00  0.00    -0.200 F 
ATOM     89  C   UNL     1      -2.416  -1.290  12.344  1.00  0.00     0.200 A 
ATOM     90  F   UNL     1      -3.543   0.715  12.862  1.00  0.00    -0.200 F 
ATOM     91  F   UNL     1      -1.785  -1.261  13.524  1.00  0.00    -0.200 F 
ENDBRANCH  58  81
ENDBRANCH  32  33
ENDBRANCH  25  27
ENDBRANCH  24  25
ENDBRANCH  23  24
ENDBRANCH   1  23
TORSDOF 16
