REMARK SMILES COc1ccc(C(=O)OCCOC(=O)c2ccc(-c3c4nc(c(-c5c(F)c(F)c(F)c(F)c5F)c5ccc([nH]5)c(-c5c(F)c(F)c(F)c(F)c5F)c5nc(c(-c6c(F)c(F)c(F)c(F)c6F)c6ccc3[nH]6)C=C5)C=C4)cc2)cc1NC(=O)c1cc([N+](=O)[O-])ccc1Cl
REMARK SMILES IDX 10 1 9 2 7 3 8 4 6 5 3 6 4 7 79 8 5 9 78 10 2 11 1 12 80 13
REMARK SMILES IDX 81 14 82 16 83 17 84 18 91 19 85 20 90 21 92 22 89 23 86 24
REMARK SMILES IDX 87 25 88 26 11 27 12 28 13 29 14 30 15 31 16 32 77 33 17 34
REMARK SMILES IDX 76 35 18 36 19 37 20 38 70 39 21 40 75 41 69 42 71 43 22 44
REMARK SMILES IDX 74 45 68 46 67 47 23 49 55 50 35 51 54 52 36 53 39 54 53 55
REMARK SMILES IDX 72 56 37 57 38 58 52 60 73 61 40 62 24 63 25 64 33 65 26 66
REMARK SMILES IDX 27 67 31 68 34 69 28 70 29 71 32 72 30 73 56 74 57 75 65 76
REMARK SMILES IDX 58 77 59 78 63 79 66 80 60 81 61 82 64 83 62 84 41 85 42 86
REMARK SMILES IDX 50 87 43 88 44 89 48 90 51 91 45 92 46 93 49 94 47 95
REMARK H PARENT 80 15 71 48 39 59
REMARK Flexibility Score: inf
ROOT
ATOM      1  C   UNL     1       3.404  -6.828   4.153  1.00  0.00     0.275 C 
ENDROOT
BRANCH   1   2
ATOM      2  O   UNL     1       3.103  -5.493   3.699  1.00  0.00    -0.458 OA
BRANCH   2   3
ATOM      3  C   UNL     1       1.906  -5.315   3.081  1.00  0.00     0.338 C 
ATOM      4  O   UNL     1       1.075  -6.174   2.857  1.00  0.00    -0.246 OA
BRANCH   3   5
ATOM      5  C   UNL     1       1.709  -3.887   2.703  1.00  0.00     0.062 A 
ATOM      6  C   UNL     1       1.369  -1.344   1.630  1.00  0.00     0.142 A 
ATOM      7  C   UNL     1       0.252  -2.064   2.048  1.00  0.00     0.049 A 
ATOM      8  C   UNL     1       2.655  -1.900   1.722  1.00  0.00     0.084 A 
ATOM      9  C   UNL     1       0.421  -3.375   2.495  1.00  0.00     0.019 A 
ATOM     10  C   UNL     1       2.816  -3.093   2.414  1.00  0.00     0.045 A 
BRANCH   6  11
ATOM     11  O   UNL     1       1.194  -0.078   1.137  1.00  0.00    -0.495 OA
ATOM     12  C   UNL     1       0.901  -0.086  -0.261  1.00  0.00     0.278 C 
ENDBRANCH   6  11
BRANCH   8  13
ATOM     13  N   UNL     1       3.691  -1.294   0.984  1.00  0.00    -0.319 N 
ATOM     14  C   UNL     1       4.861  -1.799   0.456  1.00  0.00     0.257 C 
ATOM     15  H   UNL     1       3.554  -0.334   0.814  1.00  0.00     0.170 HD
ATOM     16  O   UNL     1       5.570  -1.092  -0.259  1.00  0.00    -0.269 OA
BRANCH  14  17
ATOM     17  C   UNL     1       5.351  -3.160   0.750  1.00  0.00     0.065 A 
ATOM     18  C   UNL     1       6.523  -3.222   1.519  1.00  0.00     0.101 A 
ATOM     19  C   UNL     1       4.715  -4.341   0.338  1.00  0.00     0.054 A 
ATOM     20  C   UNL     1       7.005  -4.464   1.944  1.00  0.00     0.270 A 
ATOM     21  C   UNL     1       5.179  -5.577   0.812  1.00  0.00     0.028 A 
ATOM     22  Cl  UNL     1       3.342  -4.348  -0.709  1.00  0.00    -0.083 Cl
ATOM     23  C   UNL     1       6.317  -5.642   1.624  1.00  0.00     0.087 A 
BRANCH  20  24
ATOM     24  N   UNL     1       8.239  -4.531   2.738  1.00  0.00     0.062 N 
ATOM     25  O   UNL     1       8.882  -3.483   2.888  1.00  0.00    -0.258 OA
ATOM     26  O   UNL     1       8.559  -5.631   3.206  1.00  0.00    -0.258 OA
ENDBRANCH  20  24
ENDBRANCH  14  17
ENDBRANCH   8  13
ENDBRANCH   3   5
ENDBRANCH   2   3
ENDBRANCH   1   2
BRANCH   1  27
ATOM     27  C   UNL     1       3.300  -6.931   5.675  1.00  0.00     0.275 C 
BRANCH  27  28
ATOM     28  O   UNL     1       1.934  -6.769   6.098  1.00  0.00    -0.458 OA
BRANCH  28  29
ATOM     29  C   UNL     1       1.612  -5.520   6.501  1.00  0.00     0.338 C 
ATOM     30  O   UNL     1       2.351  -4.555   6.612  1.00  0.00    -0.246 OA
BRANCH  29  31
ATOM     31  C   UNL     1       0.158  -5.412   6.649  1.00  0.00     0.060 A 
ATOM     32  C   UNL     1      -0.567  -5.036   5.525  1.00  0.00     0.016 A 
ATOM     33  C   UNL     1      -0.467  -5.504   7.886  1.00  0.00     0.016 A 
ATOM     34  C   UNL     1      -1.892  -4.652   5.626  1.00  0.00     0.010 A 
ATOM     35  C   UNL     1      -1.834  -5.212   7.976  1.00  0.00     0.010 A 
ATOM     36  C   UNL     1      -2.549  -4.749   6.852  1.00  0.00    -0.014 A 
BRANCH  36  37
ATOM     37  C   UNL     1      -3.963  -4.307   6.955  1.00  0.00     0.031 A 
ATOM     38  C   UNL     1      -4.330  -3.200   7.900  1.00  0.00     0.074 A 
ATOM     39  C   UNL     1      -4.909  -4.875   6.183  1.00  0.00     0.049 A 
ATOM     40  N   UNL     1      -5.513  -2.789   8.280  1.00  0.00    -0.248 NA
ATOM     41  C   UNL     1      -3.213  -2.469   8.517  1.00  0.00     0.031 C 
ATOM     42  C   UNL     1      -4.671  -5.914   5.179  1.00  0.00     0.029 A 
ATOM     43  N   UNL     1      -6.263  -4.660   6.123  1.00  0.00    -0.354 N 
ATOM     44  C   UNL     1      -5.282  -1.801   9.228  1.00  0.00     0.074 A 
ATOM     45  C   UNL     1      -3.847  -1.682   9.373  1.00  0.00     0.031 C 
ATOM     46  C   UNL     1      -5.832  -6.233   4.592  1.00  0.00     0.029 A 
ATOM     47  C   UNL     1      -6.907  -5.498   5.246  1.00  0.00     0.049 A 
ATOM     48  H   UNL     1      -6.726  -3.974   6.655  1.00  0.00     0.167 HD
ATOM     49  C   UNL     1      -6.191  -1.069   9.916  1.00  0.00     0.037 A 
ATOM     50  C   UNL     1      -8.221  -5.701   5.035  1.00  0.00     0.037 A 
ATOM     51  C   UNL     1      -7.615  -1.174   9.724  1.00  0.00     0.049 A 
ATOM     52  C   UNL     1      -9.214  -4.910   5.835  1.00  0.00     0.074 A 
ATOM     53  C   UNL     1      -8.626  -0.460  10.341  1.00  0.00     0.029 A 
ATOM     54  N   UNL     1      -8.230  -2.054   8.841  1.00  0.00    -0.354 N 
ATOM     55  N   UNL     1      -8.996  -4.005   6.759  1.00  0.00    -0.248 NA
ATOM     56  C   UNL     1     -10.633  -5.175   5.574  1.00  0.00     0.031 C 
ATOM     57  C   UNL     1      -9.853  -0.949   9.878  1.00  0.00     0.029 A 
ATOM     58  C   UNL     1      -9.608  -1.921   8.920  1.00  0.00     0.049 A 
ATOM     59  H   UNL     1      -7.757  -2.679   8.246  1.00  0.00     0.167 HD
ATOM     60  C   UNL     1     -10.247  -3.583   7.184  1.00  0.00     0.074 A 
ATOM     61  C   UNL     1     -11.220  -4.318   6.399  1.00  0.00     0.031 C 
ATOM     62  C   UNL     1     -10.561  -2.671   8.137  1.00  0.00     0.037 A 
BRANCH  49  63
ATOM     63  C   UNL     1      -5.668  -0.143  10.979  1.00  0.00     0.064 A 
ATOM     64  C   UNL     1      -4.903   0.995  10.679  1.00  0.00     0.173 A 
ATOM     65  C   UNL     1      -5.925  -0.415  12.333  1.00  0.00     0.173 A 
ATOM     66  F   UNL     1      -4.615   1.298   9.404  1.00  0.00    -0.203 F 
ATOM     67  C   UNL     1      -4.371   1.791  11.692  1.00  0.00     0.198 A 
ATOM     68  C   UNL     1      -5.425   0.405  13.341  1.00  0.00     0.198 A 
ATOM     69  F   UNL     1      -6.657  -1.484  12.681  1.00  0.00    -0.203 F 
ATOM     70  F   UNL     1      -3.578   2.825  11.382  1.00  0.00    -0.200 F 
ATOM     71  C   UNL     1      -4.635   1.498  13.021  1.00  0.00     0.200 A 
ATOM     72  F   UNL     1      -5.695   0.127  14.624  1.00  0.00    -0.200 F 
ATOM     73  F   UNL     1      -4.118   2.260  13.994  1.00  0.00    -0.200 F 
ENDBRANCH  49  63
BRANCH  50  74
ATOM     74  C   UNL     1      -8.646  -6.738   4.060  1.00  0.00     0.064 A 
ATOM     75  C   UNL     1      -9.248  -6.389   2.845  1.00  0.00     0.173 A 
ATOM     76  C   UNL     1      -8.402  -8.100   4.300  1.00  0.00     0.173 A 
ATOM     77  F   UNL     1      -9.521  -5.103   2.578  1.00  0.00    -0.203 F 
ATOM     78  C   UNL     1      -9.585  -7.361   1.904  1.00  0.00     0.198 A 
ATOM     79  C   UNL     1      -8.709  -9.067   3.346  1.00  0.00     0.198 A 
ATOM     80  F   UNL     1      -7.823  -8.487   5.446  1.00  0.00    -0.203 F 
ATOM     81  F   UNL     1     -10.181  -7.003   0.759  1.00  0.00    -0.200 F 
ATOM     82  C   UNL     1      -9.303  -8.697   2.150  1.00  0.00     0.200 A 
ATOM     83  F   UNL     1      -8.413 -10.353   3.579  1.00  0.00    -0.200 F 
ATOM     84  F   UNL     1      -9.603  -9.627   1.233  1.00  0.00    -0.200 F 
ENDBRANCH  50  74
BRANCH  62  85
ATOM     85  C   UNL     1     -12.020  -2.397   8.363  1.00  0.00     0.064 A 
ATOM     86  C   UNL     1     -12.862  -3.338   8.975  1.00  0.00     0.173 A 
ATOM     87  C   UNL     1     -12.575  -1.164   7.989  1.00  0.00     0.173 A 
ATOM     88  F   UNL     1     -12.384  -4.539   9.335  1.00  0.00    -0.203 F 
ATOM     89  C   UNL     1     -14.212  -3.064   9.178  1.00  0.00     0.198 A 
ATOM     90  C   UNL     1     -13.917  -0.881   8.225  1.00  0.00     0.198 A 
ATOM     91  F   UNL     1     -11.813  -0.228   7.404  1.00  0.00    -0.203 F 
ATOM     92  F   UNL     1     -15.009  -3.997   9.715  1.00  0.00    -0.200 F 
ATOM     93  C   UNL     1     -14.736  -1.833   8.811  1.00  0.00     0.200 A 
ATOM     94  F   UNL     1     -14.418   0.314   7.882  1.00  0.00    -0.200 F 
ATOM     95  F   UNL     1     -16.034  -1.569   9.014  1.00  0.00    -0.200 F 
ENDBRANCH  62  85
ENDBRANCH  36  37
ENDBRANCH  29  31
ENDBRANCH  28  29
ENDBRANCH  27  28
ENDBRANCH   1  27
TORSDOF 15
