REMARK SMILES O=C(OCCOC(=O)[C@@H]1C[C@@H]2CC[C@H]1N2C(=O)c1ccncc1Cl)c1ccc(-c2c3nc(c(-c4c(F)c(F)c(F)c(F)c4F)c4ccc([nH]4)c(-c4c(F)c(F)c(F)c(F)c4F)c4nc(c(-c5c(F)c(F)c(F)c(F)c5F)c5ccc2[nH]5)C=C4)C=C3)cc1
REMARK SMILES IDX 4 1 3 2 2 3 1 4 25 5 26 6 87 7 27 8 86 9 28 10 29 11 30 12
REMARK SMILES IDX 80 13 31 14 85 15 79 16 81 17 32 18 84 19 78 20 77 21 33 23
REMARK SMILES IDX 65 24 45 25 64 26 46 27 49 28 63 29 82 30 47 31 48 32 62 34
REMARK SMILES IDX 83 35 50 36 34 37 35 38 43 39 36 40 37 41 41 42 44 43 38 44
REMARK SMILES IDX 39 45 42 46 40 47 66 48 67 49 75 50 68 51 69 52 73 53 76 54
REMARK SMILES IDX 70 55 71 56 74 57 72 58 51 59 52 60 60 61 53 62 54 63 58 64
REMARK SMILES IDX 61 65 55 66 56 67 59 68 57 69 5 70 6 71 7 72 8 73 9 74 10 75
REMARK SMILES IDX 14 76 11 77 13 78 15 79 12 80 16 81 17 82 18 83 19 84 23 85
REMARK SMILES IDX 20 86 22 87 24 88 21 89
REMARK H PARENT 81 22 49 33
REMARK Flexibility Score: inf
ROOT
ATOM      1  C   UNL     1       4.613  -1.032   1.030  1.00  0.00     0.275 C 
ENDROOT
BRANCH   1   2
ATOM      2  O   UNL     1       3.543  -0.089   1.209  1.00  0.00    -0.458 OA
BRANCH   2   3
ATOM      3  C   UNL     1       3.422   1.157   0.694  1.00  0.00     0.338 C 
ATOM      4  O   UNL     1       2.703   1.975   1.264  1.00  0.00    -0.246 OA
BRANCH   3   5
ATOM      5  C   UNL     1       3.958   1.524  -0.656  1.00  0.00     0.060 A 
ATOM      6  C   UNL     1       5.125   1.034  -1.247  1.00  0.00     0.016 A 
ATOM      7  C   UNL     1       3.193   2.447  -1.392  1.00  0.00     0.016 A 
ATOM      8  C   UNL     1       5.479   1.376  -2.556  1.00  0.00     0.010 A 
ATOM      9  C   UNL     1       3.534   2.788  -2.706  1.00  0.00     0.010 A 
ATOM     10  C   UNL     1       4.690   2.257  -3.294  1.00  0.00    -0.014 A 
BRANCH  10  11
ATOM     11  C   UNL     1       5.224   2.849  -4.542  1.00  0.00     0.031 A 
ATOM     12  C   UNL     1       5.788   4.237  -4.434  1.00  0.00     0.074 A 
ATOM     13  C   UNL     1       5.282   2.172  -5.704  1.00  0.00     0.049 A 
ATOM     14  N   UNL     1       6.260   5.021  -5.365  1.00  0.00    -0.248 NA
ATOM     15  C   UNL     1       5.837   4.813  -3.078  1.00  0.00     0.031 C 
ATOM     16  C   UNL     1       4.906   0.773  -5.900  1.00  0.00     0.029 A 
ATOM     17  N   UNL     1       5.694   2.580  -6.951  1.00  0.00    -0.354 N 
ATOM     18  C   UNL     1       6.667   6.172  -4.704  1.00  0.00     0.074 A 
ATOM     19  C   UNL     1       6.323   6.019  -3.311  1.00  0.00     0.031 C 
ATOM     20  C   UNL     1       5.087   0.450  -7.195  1.00  0.00     0.029 A 
ATOM     21  C   UNL     1       5.510   1.634  -7.934  1.00  0.00     0.049 A 
ATOM     22  H   UNL     1       6.085   3.467  -7.125  1.00  0.00     0.167 HD
ATOM     23  C   UNL     1       7.307   7.250  -5.211  1.00  0.00     0.037 A 
ATOM     24  C   UNL     1       5.623   1.750  -9.273  1.00  0.00     0.037 A 
ATOM     25  C   UNL     1       7.638   7.392  -6.598  1.00  0.00     0.049 A 
ATOM     26  C   UNL     1       6.142   3.040  -9.841  1.00  0.00     0.074 A 
ATOM     27  C   UNL     1       8.300   8.426  -7.230  1.00  0.00     0.029 A 
ATOM     28  N   UNL     1       7.308   6.463  -7.576  1.00  0.00    -0.354 N 
ATOM     29  N   UNL     1       6.502   4.133  -9.216  1.00  0.00    -0.248 NA
ATOM     30  C   UNL     1       6.311   3.091 -11.300  1.00  0.00     0.031 C 
ATOM     31  C   UNL     1       8.315   8.153  -8.602  1.00  0.00     0.029 A 
ATOM     32  C   UNL     1       7.719   6.918  -8.814  1.00  0.00     0.049 A 
ATOM     33  H   UNL     1       6.848   5.608  -7.411  1.00  0.00     0.167 HD
ATOM     34  C   UNL     1       6.984   4.986 -10.196  1.00  0.00     0.074 A 
ATOM     35  C   UNL     1       6.836   4.297 -11.462  1.00  0.00     0.031 C 
ATOM     36  C   UNL     1       7.541   6.212 -10.056  1.00  0.00     0.037 A 
BRANCH  23  37
ATOM     37  C   UNL     1       7.632   8.353  -4.249  1.00  0.00     0.064 A 
ATOM     38  C   UNL     1       8.576   8.188  -3.222  1.00  0.00     0.173 A 
ATOM     39  C   UNL     1       6.935   9.568  -4.310  1.00  0.00     0.173 A 
ATOM     40  F   UNL     1       9.250   7.033  -3.104  1.00  0.00    -0.203 F 
ATOM     41  C   UNL     1       8.767   9.175  -2.260  1.00  0.00     0.198 A 
ATOM     42  C   UNL     1       7.155  10.567  -3.366  1.00  0.00     0.198 A 
ATOM     43  F   UNL     1       6.021   9.775  -5.269  1.00  0.00    -0.203 F 
ATOM     44  F   UNL     1       9.607   8.958  -1.237  1.00  0.00    -0.200 F 
ATOM     45  C   UNL     1       8.057  10.364  -2.333  1.00  0.00     0.200 A 
ATOM     46  F   UNL     1       6.472  11.718  -3.442  1.00  0.00    -0.200 F 
ATOM     47  F   UNL     1       8.227  11.306  -1.395  1.00  0.00    -0.200 F 
ENDBRANCH  23  37
BRANCH  24  48
ATOM     48  C   UNL     1       5.171   0.679 -10.203  1.00  0.00     0.064 A 
ATOM     49  C   UNL     1       5.971  -0.417 -10.538  1.00  0.00     0.173 A 
ATOM     50  C   UNL     1       3.910   0.775 -10.817  1.00  0.00     0.173 A 
ATOM     51  F   UNL     1       7.208  -0.521 -10.033  1.00  0.00    -0.203 F 
ATOM     52  C   UNL     1       5.509  -1.401 -11.417  1.00  0.00     0.198 A 
ATOM     53  C   UNL     1       3.440  -0.218 -11.676  1.00  0.00     0.198 A 
ATOM     54  F   UNL     1       3.109   1.811 -10.527  1.00  0.00    -0.203 F 
ATOM     55  F   UNL     1       6.302  -2.432 -11.739  1.00  0.00    -0.200 F 
ATOM     56  C   UNL     1       4.239  -1.309 -11.972  1.00  0.00     0.200 A 
ATOM     57  F   UNL     1       2.208  -0.123 -12.195  1.00  0.00    -0.200 F 
ATOM     58  F   UNL     1       3.793  -2.264 -12.800  1.00  0.00    -0.200 F 
ENDBRANCH  24  48
BRANCH  36  59
ATOM     59  C   UNL     1       8.082   6.858 -11.292  1.00  0.00     0.064 A 
ATOM     60  C   UNL     1       7.243   7.434 -12.254  1.00  0.00     0.173 A 
ATOM     61  C   UNL     1       9.469   6.950 -11.476  1.00  0.00     0.173 A 
ATOM     62  F   UNL     1       5.910   7.343 -12.130  1.00  0.00    -0.203 F 
ATOM     63  C   UNL     1       7.777   8.080 -13.364  1.00  0.00     0.198 A 
ATOM     64  C   UNL     1       9.999   7.623 -12.570  1.00  0.00     0.198 A 
ATOM     65  F   UNL     1      10.308   6.407 -10.582  1.00  0.00    -0.203 F 
ATOM     66  F   UNL     1       6.961   8.597 -14.292  1.00  0.00    -0.200 F 
ATOM     67  C   UNL     1       9.153   8.185 -13.514  1.00  0.00     0.200 A 
ATOM     68  F   UNL     1      11.328   7.732 -12.708  1.00  0.00    -0.200 F 
ATOM     69  F   UNL     1       9.665   8.826 -14.574  1.00  0.00    -0.200 F 
ENDBRANCH  36  59
ENDBRANCH  10  11
ENDBRANCH   3   5
ENDBRANCH   2   3
ENDBRANCH   1   2
BRANCH   1  70
ATOM     70  C   UNL     1       4.344  -2.094  -0.044  1.00  0.00     0.274 C 
BRANCH  70  71
ATOM     71  O   UNL     1       3.812  -1.567  -1.275  1.00  0.00    -0.462 OA
BRANCH  71  72
ATOM     72  C   UNL     1       2.449  -1.481  -1.317  1.00  0.00     0.311 C 
ATOM     73  O   UNL     1       1.715  -1.849  -0.418  1.00  0.00    -0.252 OA
BRANCH  72  74
ATOM     74  C   UNL     1       1.972  -0.810  -2.594  1.00  0.00     0.124 C 
ATOM     75  C   UNL     1       0.955   0.325  -2.284  1.00  0.00     0.042 C 
ATOM     76  C   UNL     1       1.161  -1.712  -3.551  1.00  0.00     0.100 C 
ATOM     77  C   UNL     1      -0.308  -0.127  -3.018  1.00  0.00     0.086 C 
ATOM     78  C   UNL     1       0.079  -2.493  -2.787  1.00  0.00     0.028 C 
ATOM     79  N   UNL     1       0.293  -0.723  -4.183  1.00  0.00    -0.332 N 
ATOM     80  C   UNL     1      -0.885  -1.370  -2.329  1.00  0.00     0.027 C 
BRANCH  79  81
ATOM     81  C   UNL     1      -0.064  -0.428  -5.465  1.00  0.00     0.256 C 
ATOM     82  O   UNL     1      -0.877   0.439  -5.768  1.00  0.00    -0.269 OA
BRANCH  81  83
ATOM     83  C   UNL     1       0.677  -1.079  -6.543  1.00  0.00     0.061 A 
ATOM     84  C   UNL     1       1.523  -0.242  -7.257  1.00  0.00     0.035 A 
ATOM     85  C   UNL     1       0.563  -2.423  -6.884  1.00  0.00     0.072 A 
ATOM     86  C   UNL     1       2.275  -0.815  -8.250  1.00  0.00     0.112 A 
ATOM     87  C   UNL     1       1.403  -2.898  -7.881  1.00  0.00     0.132 A 
ATOM     88  Cl  UNL     1      -0.585  -3.491  -6.190  1.00  0.00    -0.082 Cl
ATOM     89  N   UNL     1       2.280  -2.125  -8.564  1.00  0.00    -0.263 NA
ENDBRANCH  81  83
ENDBRANCH  79  81
ENDBRANCH  72  74
ENDBRANCH  71  72
ENDBRANCH  70  71
ENDBRANCH   1  70
TORSDOF 13
