REMARK SMILES O=C(COc1ccccc1/C=N/NC(=O)c1cc(-c2ccc(F)cc2)nc2ccccc12)OCCOC(=O)c1ccc(-c2c3nc(c(-c4c(F)c(F)c(F)c(F)c4F)c4ccc([nH]4)c(-c4c(F)c(F)c(F)c(F)c4F)c4nc(c(-c5c(F)c(F)c(F)c(F)c5F)c5ccc2[nH]5)C=C4)C=C3)cc1
REMARK SMILES IDX 1 1 2 2 3 3 4 4 5 5 6 6 10 7 7 8 9 9 8 10 11 11 12 12 13 13
REMARK SMILES IDX 14 14 15 16 16 17 17 18 32 19 18 20 27 21 31 22 26 23 28 24
REMARK SMILES IDX 30 25 29 26 19 27 20 28 25 29 21 30 24 31 22 32 23 33 33 34
REMARK SMILES IDX 34 35 35 36 36 37 37 38 38 39 39 40 40 41 101 42 41 43
REMARK SMILES IDX 100 44 42 45 43 46 44 47 94 48 45 49 99 50 93 51 95 52 46 53
REMARK SMILES IDX 98 54 92 55 91 56 47 58 79 59 59 60 78 61 60 62 63 63 77 64
REMARK SMILES IDX 96 65 61 66 62 67 76 69 97 70 64 71 48 72 49 73 57 74 50 75
REMARK SMILES IDX 51 76 55 77 58 78 52 79 53 80 56 81 54 82 80 83 81 84 89 85
REMARK SMILES IDX 82 86 83 87 87 88 90 89 84 90 85 91 88 92 86 93 65 94 66 95
REMARK SMILES IDX 74 96 67 97 68 98 72 99 75 100 69 101 70 102 73 103 71 104
REMARK H PARENT 13 15 95 57 63 68
REMARK Flexibility Score: inf
ROOT
ATOM      1  O   UNL     1       1.320   0.046  -0.419  1.00  0.00    -0.248 OA
ATOM      2  C   UNL     1       2.521   0.017  -0.091  1.00  0.00     0.344 C 
ENDROOT
BRANCH   2   3
ATOM      3  C   UNL     1       3.362   1.306  -0.302  1.00  0.00     0.352 C 
BRANCH   3   4
ATOM      4  O   UNL     1       4.118   2.003   0.550  1.00  0.00    -0.481 OA
BRANCH   4   5
ATOM      5  C   UNL     1       3.253   2.561   1.420  1.00  0.00     0.129 A 
ATOM      6  C   UNL     1       3.753   3.802   1.685  1.00  0.00     0.047 A 
ATOM      7  C   UNL     1       2.251   1.929   2.227  1.00  0.00     0.037 A 
ATOM      8  C   UNL     1       3.467   4.249   2.936  1.00  0.00     0.004 A 
ATOM      9  C   UNL     1       1.857   2.506   3.357  1.00  0.00     0.013 A 
ATOM     10  C   UNL     1       2.473   3.660   3.716  1.00  0.00     0.001 A 
BRANCH   7  11
ATOM     11  C   UNL     1       1.394   0.769   2.068  1.00  0.00     0.145 C 
ATOM     12  N   UNL     1       0.555  -0.064   2.590  1.00  0.00    -0.180 NA
BRANCH  12  13
ATOM     13  N   UNL     1       0.026  -1.117   1.727  1.00  0.00    -0.243 N 
ATOM     14  C   UNL     1       0.278  -1.808   0.526  1.00  0.00     0.272 C 
ATOM     15  H   UNL     1      -0.800  -1.470   2.129  1.00  0.00     0.194 HD
ATOM     16  O   UNL     1      -0.677  -2.631   0.836  1.00  0.00    -0.267 OA
BRANCH  14  17
ATOM     17  C   UNL     1       0.258  -2.701  -0.615  1.00  0.00     0.053 A 
ATOM     18  C   UNL     1       1.415  -2.388  -1.637  1.00  0.00     0.043 A 
ATOM     19  C   UNL     1      -0.854  -4.105  -1.111  1.00  0.00     0.013 A 
ATOM     20  C   UNL     1       1.208  -2.853  -2.801  1.00  0.00     0.072 A 
ATOM     21  C   UNL     1      -0.267  -4.599  -2.124  1.00  0.00     0.072 A 
ATOM     22  C   UNL     1      -1.896  -5.402  -1.541  1.00  0.00     0.011 A 
ATOM     23  N   UNL     1       0.487  -3.651  -2.293  1.00  0.00    -0.248 NA
ATOM     24  C   UNL     1      -0.100  -5.354  -3.257  1.00  0.00     0.029 A 
ATOM     25  C   UNL     1      -1.989  -6.189  -2.922  1.00  0.00     0.001 A 
ATOM     26  C   UNL     1      -1.150  -5.839  -3.892  1.00  0.00     0.002 A 
BRANCH  20  27
ATOM     27  C   UNL     1       1.717  -3.021  -4.063  1.00  0.00     0.000 A 
ATOM     28  C   UNL     1       0.754  -3.422  -4.995  1.00  0.00     0.013 A 
ATOM     29  C   UNL     1       3.069  -3.280  -4.087  1.00  0.00     0.013 A 
ATOM     30  C   UNL     1       1.181  -4.396  -5.849  1.00  0.00     0.040 A 
ATOM     31  C   UNL     1       3.488  -4.038  -5.124  1.00  0.00     0.040 A 
ATOM     32  C   UNL     1       2.544  -4.587  -5.987  1.00  0.00     0.123 A 
ATOM     33  F   UNL     1       2.959  -5.247  -7.062  1.00  0.00    -0.207 F 
ENDBRANCH  20  27
ENDBRANCH  14  17
ENDBRANCH  12  13
ENDBRANCH   7  11
ENDBRANCH   4   5
ENDBRANCH   3   4
ENDBRANCH   2   3
BRANCH   2  34
ATOM     34  O   UNL     1       3.040  -1.018   0.584  1.00  0.00    -0.460 OA
BRANCH  34  35
ATOM     35  C   UNL     1       4.436  -1.004   0.538  1.00  0.00     0.274 C 
BRANCH  35  36
ATOM     36  C   UNL     1       4.877  -1.154  -0.949  1.00  0.00     0.275 C 
BRANCH  36  37
ATOM     37  O   UNL     1       4.429  -0.160  -2.060  1.00  0.00    -0.458 OA
BRANCH  37  38
ATOM     38  C   UNL     1       3.150   0.189  -2.509  1.00  0.00     0.338 C 
ATOM     39  O   UNL     1       2.075  -0.315  -2.316  1.00  0.00    -0.246 OA
BRANCH  38  40
ATOM     40  C   UNL     1       2.517   1.464  -2.838  1.00  0.00     0.060 A 
ATOM     41  C   UNL     1       1.348   2.142  -2.193  1.00  0.00     0.016 A 
ATOM     42  C   UNL     1       3.071   1.873  -3.970  1.00  0.00     0.016 A 
ATOM     43  C   UNL     1       0.796   3.241  -2.753  1.00  0.00     0.010 A 
ATOM     44  C   UNL     1       2.494   2.971  -4.508  1.00  0.00     0.010 A 
ATOM     45  C   UNL     1       1.421   3.672  -3.900  1.00  0.00    -0.014 A 
BRANCH  45  46
ATOM     46  C   UNL     1       1.011   4.944  -4.461  1.00  0.00     0.031 A 
ATOM     47  C   UNL     1       0.395   4.990  -5.799  1.00  0.00     0.074 A 
ATOM     48  C   UNL     1       1.253   6.060  -3.750  1.00  0.00     0.049 A 
ATOM     49  N   UNL     1       0.033   6.066  -6.433  1.00  0.00    -0.248 NA
ATOM     50  C   UNL     1       0.150   3.729  -6.521  1.00  0.00     0.031 C 
ATOM     51  C   UNL     1       1.835   6.075  -2.409  1.00  0.00     0.029 A 
ATOM     52  N   UNL     1       1.054   7.382  -4.046  1.00  0.00    -0.354 N 
ATOM     53  C   UNL     1      -0.498   5.624  -7.621  1.00  0.00     0.074 A 
ATOM     54  C   UNL     1      -0.384   4.181  -7.650  1.00  0.00     0.031 C 
ATOM     55  C   UNL     1       1.937   7.341  -1.995  1.00  0.00     0.029 A 
ATOM     56  C   UNL     1       1.457   8.227  -3.045  1.00  0.00     0.049 A 
ATOM     57  H   UNL     1       0.660   7.694  -4.893  1.00  0.00     0.167 HD
ATOM     58  C   UNL     1      -1.032   6.396  -8.584  1.00  0.00     0.037 A 
ATOM     59  C   UNL     1       1.459   9.569  -2.949  1.00  0.00     0.037 A 
ATOM     60  C   UNL     1      -1.082   7.821  -8.549  1.00  0.00     0.049 A 
ATOM     61  C   UNL     1       0.969  10.392  -4.093  1.00  0.00     0.074 A 
ATOM     62  C   UNL     1      -1.603   8.639  -9.530  1.00  0.00     0.029 A 
ATOM     63  N   UNL     1      -0.601   8.631  -7.540  1.00  0.00    -0.354 N 
ATOM     64  N   UNL     1       0.454   9.949  -5.206  1.00  0.00    -0.248 NA
ATOM     65  C   UNL     1       1.050  11.861  -4.004  1.00  0.00     0.031 C 
ATOM     66  C   UNL     1      -1.427   9.946  -9.140  1.00  0.00     0.029 A 
ATOM     67  C   UNL     1      -0.825   9.944  -7.900  1.00  0.00     0.049 A 
ATOM     68  H   UNL     1      -0.172   8.325  -6.708  1.00  0.00     0.167 HD
ATOM     69  C   UNL     1       0.108  11.069  -5.928  1.00  0.00     0.074 A 
ATOM     70  C   UNL     1       0.483  12.229  -5.145  1.00  0.00     0.031 C 
ATOM     71  C   UNL     1      -0.481  11.095  -7.139  1.00  0.00     0.037 A 
BRANCH  58  72
ATOM     72  C   UNL     1      -1.553   5.748  -9.812  1.00  0.00     0.064 A 
ATOM     73  C   UNL     1      -2.676   4.926  -9.817  1.00  0.00     0.173 A 
ATOM     74  C   UNL     1      -0.935   6.041 -11.035  1.00  0.00     0.173 A 
ATOM     75  F   UNL     1      -3.402   4.756  -8.702  1.00  0.00    -0.203 F 
ATOM     76  C   UNL     1      -3.058   4.291 -10.991  1.00  0.00     0.198 A 
ATOM     77  C   UNL     1      -1.404   5.508 -12.220  1.00  0.00     0.198 A 
ATOM     78  F   UNL     1       0.073   6.925 -11.085  1.00  0.00    -0.203 F 
ATOM     79  F   UNL     1      -3.931   3.277 -10.953  1.00  0.00    -0.200 F 
ATOM     80  C   UNL     1      -2.479   4.642 -12.200  1.00  0.00     0.200 A 
ATOM     81  F   UNL     1      -0.782   5.796 -13.368  1.00  0.00    -0.200 F 
ATOM     82  F   UNL     1      -2.979   4.162 -13.346  1.00  0.00    -0.200 F 
ENDBRANCH  58  72
BRANCH  59  83
ATOM     83  C   UNL     1       2.023  10.231  -1.758  1.00  0.00     0.064 A 
ATOM     84  C   UNL     1       1.310  11.191  -1.040  1.00  0.00     0.173 A 
ATOM     85  C   UNL     1       3.365  10.022  -1.428  1.00  0.00     0.173 A 
ATOM     86  F   UNL     1      -0.011  11.336  -1.226  1.00  0.00    -0.203 F 
ATOM     87  C   UNL     1       1.979  12.042  -0.170  1.00  0.00     0.198 A 
ATOM     88  C   UNL     1       3.991  10.781  -0.458  1.00  0.00     0.198 A 
ATOM     89  F   UNL     1       4.063   9.045  -2.023  1.00  0.00    -0.203 F 
ATOM     90  F   UNL     1       1.391  13.166   0.256  1.00  0.00    -0.200 F 
ATOM     91  C   UNL     1       3.294  11.787   0.179  1.00  0.00     0.200 A 
ATOM     92  F   UNL     1       5.285  10.573  -0.196  1.00  0.00    -0.200 F 
ATOM     93  F   UNL     1       3.873  12.493   1.157  1.00  0.00    -0.200 F 
ENDBRANCH  59  83
BRANCH  71  94
ATOM     94  C   UNL     1      -0.785  12.415  -7.744  1.00  0.00     0.064 A 
ATOM     95  C   UNL     1       0.258  13.277  -8.062  1.00  0.00     0.173 A 
ATOM     96  C   UNL     1      -2.096  12.811  -8.047  1.00  0.00     0.173 A 
ATOM     97  F   UNL     1       1.529  12.865  -7.945  1.00  0.00    -0.203 F 
ATOM     98  C   UNL     1      -0.014  14.568  -8.473  1.00  0.00     0.198 A 
ATOM     99  C   UNL     1      -2.350  14.060  -8.593  1.00  0.00     0.198 A 
ATOM    100  F   UNL     1      -3.121  11.960  -7.888  1.00  0.00    -0.203 F 
ATOM    101  F   UNL     1       0.956  15.488  -8.455  1.00  0.00    -0.200 F 
ATOM    102  C   UNL     1      -1.303  14.935  -8.817  1.00  0.00     0.200 A 
ATOM    103  F   UNL     1      -3.609  14.437  -8.849  1.00  0.00    -0.200 F 
ATOM    104  F   UNL     1      -1.521  16.122  -9.395  1.00  0.00    -0.200 F 
ENDBRANCH  71  94
ENDBRANCH  45  46
ENDBRANCH  38  40
ENDBRANCH  37  38
ENDBRANCH  36  37
ENDBRANCH  35  36
ENDBRANCH  34  35
ENDBRANCH   2  34
TORSDOF 17
