REMARK SMILES CCc1c(C)nn(CC(=O)N2CCC[C@@H](Cn3cc(C(=O)OCCOC(=O)c4ccc(-c5c6nc(c(-c7c(F)c(F)c(F)c(F)c7F)c7ccc([nH]7)c(-c7c(F)c(F)c(F)c(F)c7F)c7nc(c(-c8c(F)c(F)c(F)c(F)c8F)c8ccc5[nH]8)C=C7)C=C6)cc4)nn3)C2)c1C
REMARK SMILES IDX 20 1 21 2 19 3 17 4 18 5 92 6 91 7 16 8 15 9 11 10 12 11
REMARK SMILES IDX 93 12 13 13 14 14 9 15 10 16 8 17 7 18 3 19 4 20 94 21 5 22
REMARK SMILES IDX 6 23 95 24 2 25 1 26 22 27 23 28 24 29 25 30 26 31 27 32
REMARK SMILES IDX 28 33 29 34 90 35 30 36 89 37 31 38 32 39 33 40 83 41 34 42
REMARK SMILES IDX 88 43 82 44 84 45 35 46 87 47 81 48 80 49 36 51 68 52 48 53
REMARK SMILES IDX 67 54 49 55 52 56 66 57 85 58 50 59 51 60 65 62 86 63 53 64
REMARK SMILES IDX 37 65 38 66 46 67 39 68 40 69 44 70 47 71 41 72 42 73 45 74
REMARK SMILES IDX 43 75 69 76 70 77 78 78 71 79 72 80 76 81 79 82 73 83 74 84
REMARK SMILES IDX 77 85 75 86 54 87 55 88 63 89 56 90 57 91 61 92 64 93 58 94
REMARK SMILES IDX 59 95 62 96 60 97
REMARK H PARENT 84 50 52 61
REMARK Flexibility Score: inf
ROOT
ATOM      1  C   UNL     1       6.895  -0.953   2.106  1.00  0.00     0.360 C 
ATOM      2  O   UNL     1       8.031  -1.386   2.288  1.00  0.00    -0.244 OA
ENDROOT
BRANCH   1   3
ATOM      3  C   UNL     1       6.547  -0.030   1.040  1.00  0.00     0.190 A 
ATOM      4  N   UNL     1       5.575   1.548  -0.037  1.00  0.00    -0.251 N 
ATOM      5  C   UNL     1       5.290   0.440   0.705  1.00  0.00     0.146 A 
ATOM      6  N   UNL     1       6.843   1.511  -0.480  1.00  0.00    -0.067 NA
ATOM      7  N   UNL     1       7.468   0.570   0.216  1.00  0.00    -0.123 NA
BRANCH   4   8
ATOM      8  C   UNL     1       4.874   2.816   0.042  1.00  0.00     0.151 C 
BRANCH   8   9
ATOM      9  C   UNL     1       5.102   3.557   1.386  1.00  0.00     0.030 C 
ATOM     10  N   UNL     1       4.718   3.445   3.844  1.00  0.00    -0.341 N 
ATOM     11  C   UNL     1       6.114   3.789   4.127  1.00  0.00     0.119 C 
ATOM     12  C   UNL     1       4.523   2.770   2.575  1.00  0.00     0.125 C 
ATOM     13  C   UNL     1       6.740   4.606   3.002  1.00  0.00     0.022 C 
ATOM     14  C   UNL     1       6.573   3.915   1.648  1.00  0.00     0.009 C 
BRANCH  10  15
ATOM     15  C   UNL     1       3.750   3.708   4.802  1.00  0.00     0.244 C 
ATOM     16  O   UNL     1       3.988   4.539   5.693  1.00  0.00    -0.273 OA
BRANCH  15  17
ATOM     17  C   UNL     1       2.510   2.842   4.983  1.00  0.00     0.244 C 
BRANCH  17  18
ATOM     18  N   UNL     1       1.777   2.378   3.819  1.00  0.00    -0.260 N 
ATOM     19  C   UNL     1       0.819   1.152   2.249  1.00  0.00    -0.004 A 
ATOM     20  C   UNL     1       0.532   2.540   2.106  1.00  0.00     0.063 A 
ATOM     21  C   UNL     1       1.626   1.080   3.377  1.00  0.00     0.039 A 
ATOM     22  C   UNL     1      -0.277   3.225   1.067  1.00  0.00     0.069 C 
ATOM     23  N   UNL     1       1.114   3.271   3.062  1.00  0.00    -0.177 NA
ATOM     24  C   UNL     1       2.267  -0.084   4.046  1.00  0.00     0.066 C 
BRANCH  19  25
ATOM     25  C   UNL     1       0.335   0.030   1.387  1.00  0.00     0.036 C 
ATOM     26  C   UNL     1       0.998  -0.006   0.017  1.00  0.00     0.009 C 
ENDBRANCH  19  25
ENDBRANCH  17  18
ENDBRANCH  15  17
ENDBRANCH  10  15
ENDBRANCH   8   9
ENDBRANCH   4   8
ENDBRANCH   1   3
BRANCH   1  27
ATOM     27  O   UNL     1       5.811  -1.300   2.873  1.00  0.00    -0.457 OA
BRANCH  27  28
ATOM     28  C   UNL     1       5.987  -2.449   3.718  1.00  0.00     0.275 C 
BRANCH  28  29
ATOM     29  C   UNL     1       5.640  -3.724   2.963  1.00  0.00     0.275 C 
BRANCH  29  30
ATOM     30  O   UNL     1       6.566  -3.942   1.902  1.00  0.00    -0.458 OA
BRANCH  30  31
ATOM     31  C   UNL     1       6.184  -3.463   0.696  1.00  0.00     0.338 C 
ATOM     32  O   UNL     1       5.257  -2.704   0.468  1.00  0.00    -0.246 OA
BRANCH  31  33
ATOM     33  C   UNL     1       6.904  -4.189  -0.351  1.00  0.00     0.060 A 
ATOM     34  C   UNL     1       6.598  -3.850  -1.671  1.00  0.00     0.016 A 
ATOM     35  C   UNL     1       7.522  -5.400  -0.010  1.00  0.00     0.016 A 
ATOM     36  C   UNL     1       6.684  -4.839  -2.624  1.00  0.00     0.010 A 
ATOM     37  C   UNL     1       7.578  -6.391  -0.952  1.00  0.00     0.010 A 
ATOM     38  C   UNL     1       7.074  -6.121  -2.220  1.00  0.00    -0.014 A 
BRANCH  38  39
ATOM     39  C   UNL     1       7.068  -7.177  -3.203  1.00  0.00     0.031 A 
ATOM     40  C   UNL     1       8.178  -7.045  -4.169  1.00  0.00     0.074 A 
ATOM     41  C   UNL     1       6.218  -8.218  -3.139  1.00  0.00     0.049 A 
ATOM     42  N   UNL     1       8.093  -6.820  -5.436  1.00  0.00    -0.248 NA
ATOM     43  C   UNL     1       9.547  -6.975  -3.631  1.00  0.00     0.031 C 
ATOM     44  C   UNL     1       5.280  -8.572  -2.071  1.00  0.00     0.029 A 
ATOM     45  N   UNL     1       6.088  -9.250  -4.011  1.00  0.00    -0.354 N 
ATOM     46  C   UNL     1       9.405  -6.770  -5.889  1.00  0.00     0.074 A 
ATOM     47  C   UNL     1      10.244  -6.675  -4.725  1.00  0.00     0.031 C 
ATOM     48  C   UNL     1       4.855  -9.845  -2.257  1.00  0.00     0.029 A 
ATOM     49  C   UNL     1       5.390 -10.342  -3.513  1.00  0.00     0.049 A 
ATOM     50  H   UNL     1       6.459  -9.227  -4.922  1.00  0.00     0.167 HD
ATOM     51  C   UNL     1       9.705  -7.092  -7.174  1.00  0.00     0.037 A 
ATOM     52  C   UNL     1       5.351 -11.576  -4.078  1.00  0.00     0.037 A 
ATOM     53  C   UNL     1       8.547  -6.972  -8.024  1.00  0.00     0.049 A 
ATOM     54  C   UNL     1       5.763 -11.422  -5.501  1.00  0.00     0.074 A 
ATOM     55  C   UNL     1       7.696  -5.930  -8.340  1.00  0.00     0.029 A 
ATOM     56  N   UNL     1       7.874  -8.117  -8.375  1.00  0.00    -0.354 N 
ATOM     57  N   UNL     1       5.045 -10.801  -6.397  1.00  0.00    -0.248 NA
ATOM     58  C   UNL     1       7.185 -11.527  -5.804  1.00  0.00     0.031 C 
ATOM     59  C   UNL     1       6.396  -6.514  -8.384  1.00  0.00     0.029 A 
ATOM     60  C   UNL     1       6.537  -7.885  -8.169  1.00  0.00     0.049 A 
ATOM     61  H   UNL     1       8.276  -8.951  -8.711  1.00  0.00     0.167 HD
ATOM     62  C   UNL     1       5.962 -10.072  -7.140  1.00  0.00     0.074 A 
ATOM     63  C   UNL     1       7.270 -10.610  -6.772  1.00  0.00     0.031 C 
ATOM     64  C   UNL     1       5.605  -8.906  -7.755  1.00  0.00     0.037 A 
BRANCH  51  65
ATOM     65  C   UNL     1      10.930  -7.882  -7.553  1.00  0.00     0.064 A 
ATOM     66  C   UNL     1      11.237  -8.054  -8.914  1.00  0.00     0.173 A 
ATOM     67  C   UNL     1      11.642  -8.713  -6.657  1.00  0.00     0.173 A 
ATOM     68  F   UNL     1      10.600  -7.338  -9.853  1.00  0.00    -0.203 F 
ATOM     69  C   UNL     1      12.134  -9.034  -9.347  1.00  0.00     0.198 A 
ATOM     70  C   UNL     1      12.578  -9.648  -7.088  1.00  0.00     0.198 A 
ATOM     71  F   UNL     1      11.382  -8.746  -5.345  1.00  0.00    -0.203 F 
ATOM     72  F   UNL     1      12.297  -9.250 -10.659  1.00  0.00    -0.200 F 
ATOM     73  C   UNL     1      12.801  -9.832  -8.434  1.00  0.00     0.200 A 
ATOM     74  F   UNL     1      13.194 -10.425  -6.186  1.00  0.00    -0.200 F 
ATOM     75  F   UNL     1      13.613 -10.811  -8.850  1.00  0.00    -0.200 F 
ENDBRANCH  51  65
BRANCH  52  76
ATOM     76  C   UNL     1       5.338 -12.895  -3.397  1.00  0.00     0.064 A 
ATOM     77  C   UNL     1       5.043 -14.072  -4.106  1.00  0.00     0.173 A 
ATOM     78  C   UNL     1       5.887 -13.064  -2.111  1.00  0.00     0.173 A 
ATOM     79  F   UNL     1       4.561 -14.005  -5.355  1.00  0.00    -0.203 F 
ATOM     80  C   UNL     1       5.306 -15.339  -3.569  1.00  0.00     0.198 A 
ATOM     81  C   UNL     1       6.142 -14.327  -1.574  1.00  0.00     0.198 A 
ATOM     82  F   UNL     1       6.279 -12.008  -1.384  1.00  0.00    -0.203 F 
ATOM     83  F   UNL     1       5.069 -16.437  -4.300  1.00  0.00    -0.200 F 
ATOM     84  C   UNL     1       5.865 -15.464  -2.308  1.00  0.00     0.200 A 
ATOM     85  F   UNL     1       6.718 -14.431  -0.368  1.00  0.00    -0.200 F 
ATOM     86  F   UNL     1       6.175 -16.673  -1.819  1.00  0.00    -0.200 F 
ENDBRANCH  52  76
BRANCH  64  87
ATOM     87  C   UNL     1       4.143  -8.553  -7.798  1.00  0.00     0.064 A 
ATOM     88  C   UNL     1       3.353  -8.324  -6.657  1.00  0.00     0.173 A 
ATOM     89  C   UNL     1       3.559  -8.295  -9.045  1.00  0.00     0.173 A 
ATOM     90  F   UNL     1       3.865  -8.444  -5.426  1.00  0.00    -0.203 F 
ATOM     91  C   UNL     1       2.028  -7.903  -6.765  1.00  0.00     0.198 A 
ATOM     92  C   UNL     1       2.248  -7.837  -9.149  1.00  0.00     0.198 A 
ATOM     93  F   UNL     1       4.280  -8.440 -10.167  1.00  0.00    -0.203 F 
ATOM     94  F   UNL     1       1.292  -7.704  -5.661  1.00  0.00    -0.200 F 
ATOM     95  C   UNL     1       1.479  -7.653  -8.011  1.00  0.00     0.200 A 
ATOM     96  F   UNL     1       1.739  -7.548 -10.354  1.00  0.00    -0.200 F 
ATOM     97  F   UNL     1       0.219  -7.208  -8.116  1.00  0.00    -0.200 F 
ENDBRANCH  64  87
ENDBRANCH  38  39
ENDBRANCH  31  33
ENDBRANCH  30  31
ENDBRANCH  29  30
ENDBRANCH  28  29
ENDBRANCH  27  28
ENDBRANCH   1  27
TORSDOF 17
