REMARK SMILES O=C(OCCOC(=O)c1cc(S(=O)(=O)NNC(=O)[C@H]2C=C(c3ccccc3)N=N2)ccc1F)c1ccc(-c2c3nc(c(-c4c(F)c(F)c(F)c(F)c4F)c4ccc([nH]4)c(-c4c(F)c(F)c(F)c(F)c4F)c4nc(c(-c5c(F)c(F)c(F)c(F)c5F)c5ccc2[nH]5)C=C4)C=C3)cc1
REMARK SMILES IDX 6 1 5 2 4 3 3 4 2 5 1 6 34 7 35 8 96 9 36 10 95 11 37 12
REMARK SMILES IDX 38 13 39 14 89 15 40 16 94 17 88 18 90 19 41 20 93 21 87 22
REMARK SMILES IDX 86 23 42 25 74 26 54 27 73 28 55 29 58 30 72 31 91 32 56 33
REMARK SMILES IDX 57 34 71 36 92 37 59 38 43 39 44 40 52 41 45 42 46 43 50 44
REMARK SMILES IDX 53 45 47 46 48 47 51 48 49 49 75 50 76 51 84 52 77 53 78 54
REMARK SMILES IDX 82 55 85 56 79 57 80 58 83 59 81 60 60 61 61 62 69 63 62 64
REMARK SMILES IDX 63 65 67 66 70 67 64 68 65 69 68 70 66 71 7 72 8 73 9 74
REMARK SMILES IDX 10 75 32 76 11 77 31 78 33 79 30 80 12 81 13 82 14 83 15 84
REMARK SMILES IDX 16 86 17 87 18 89 19 90 20 91 29 92 21 93 28 94 22 95 23 96
REMARK SMILES IDX 27 97 24 98 26 99 25 100
REMARK H PARENT 90 24 58 35 15 85 16 88
REMARK Flexibility Score: inf
ROOT
ATOM      1  O   UNL     1       0.818   0.307   1.730  1.00  0.00    -0.458 OA
ENDROOT
BRANCH   1   2
ATOM      2  C   UNL     1       1.823   0.544   2.731  1.00  0.00     0.275 C 
BRANCH   2   3
ATOM      3  C   UNL     1       3.031  -0.357   2.479  1.00  0.00     0.275 C 
BRANCH   3   4
ATOM      4  O   UNL     1       3.805  -0.120   1.283  1.00  0.00    -0.458 OA
BRANCH   4   5
ATOM      5  C   UNL     1       3.223   0.519   0.247  1.00  0.00     0.338 C 
ATOM      6  O   UNL     1       3.019   1.719   0.172  1.00  0.00    -0.246 OA
BRANCH   5   7
ATOM      7  C   UNL     1       2.971  -0.423  -0.864  1.00  0.00     0.060 A 
ATOM      8  C   UNL     1       2.692  -1.772  -0.618  1.00  0.00     0.016 A 
ATOM      9  C   UNL     1       2.981   0.068  -2.173  1.00  0.00     0.016 A 
ATOM     10  C   UNL     1       2.485  -2.639  -1.679  1.00  0.00     0.010 A 
ATOM     11  C   UNL     1       2.766  -0.803  -3.236  1.00  0.00     0.010 A 
ATOM     12  C   UNL     1       2.548  -2.162  -2.991  1.00  0.00    -0.014 A 
BRANCH  12  13
ATOM     13  C   UNL     1       2.340  -3.129  -4.067  1.00  0.00     0.031 A 
ATOM     14  C   UNL     1       1.005  -3.795  -4.137  1.00  0.00     0.074 A 
ATOM     15  C   UNL     1       3.239  -3.358  -5.042  1.00  0.00     0.049 A 
ATOM     16  N   UNL     1       0.718  -5.058  -4.081  1.00  0.00    -0.248 NA
ATOM     17  C   UNL     1      -0.171  -2.926  -4.267  1.00  0.00     0.031 C 
ATOM     18  C   UNL     1       4.461  -2.614  -5.348  1.00  0.00     0.029 A 
ATOM     19  N   UNL     1       3.177  -4.287  -6.039  1.00  0.00    -0.354 N 
ATOM     20  C   UNL     1      -0.657  -5.157  -4.298  1.00  0.00     0.074 A 
ATOM     21  C   UNL     1      -1.166  -3.810  -4.324  1.00  0.00     0.031 C 
ATOM     22  C   UNL     1       4.912  -2.988  -6.566  1.00  0.00     0.029 A 
ATOM     23  C   UNL     1       4.097  -4.088  -7.053  1.00  0.00     0.049 A 
ATOM     24  H   UNL     1       2.534  -5.033  -6.037  1.00  0.00     0.167 HD
ATOM     25  C   UNL     1      -1.278  -6.335  -4.590  1.00  0.00     0.037 A 
ATOM     26  C   UNL     1       4.141  -4.745  -8.235  1.00  0.00     0.037 A 
ATOM     27  C   UNL     1      -0.473  -7.472  -4.250  1.00  0.00     0.049 A 
ATOM     28  C   UNL     1       3.398  -6.019  -8.078  1.00  0.00     0.074 A 
ATOM     29  C   UNL     1       0.050  -7.973  -3.074  1.00  0.00     0.029 A 
ATOM     30  N   UNL     1       0.172  -8.147  -5.254  1.00  0.00    -0.354 N 
ATOM     31  N   UNL     1       3.799  -7.024  -7.351  1.00  0.00    -0.248 NA
ATOM     32  C   UNL     1       1.997  -6.051  -8.468  1.00  0.00     0.031 C 
ATOM     33  C   UNL     1       1.308  -8.535  -3.440  1.00  0.00     0.029 A 
ATOM     34  C   UNL     1       1.454  -8.360  -4.817  1.00  0.00     0.049 A 
ATOM     35  H   UNL     1      -0.210  -8.423  -6.118  1.00  0.00     0.167 HD
ATOM     36  C   UNL     1       2.634  -7.589  -6.856  1.00  0.00     0.074 A 
ATOM     37  C   UNL     1       1.564  -7.031  -7.673  1.00  0.00     0.031 C 
ATOM     38  C   UNL     1       2.620  -8.242  -5.658  1.00  0.00     0.037 A 
BRANCH  25  39
ATOM     39  C   UNL     1      -2.527  -6.462  -5.421  1.00  0.00     0.064 A 
ATOM     40  C   UNL     1      -2.875  -5.536  -6.426  1.00  0.00     0.173 A 
ATOM     41  C   UNL     1      -3.262  -7.665  -5.417  1.00  0.00     0.173 A 
ATOM     42  F   UNL     1      -2.180  -4.405  -6.610  1.00  0.00    -0.203 F 
ATOM     43  C   UNL     1      -3.892  -5.784  -7.348  1.00  0.00     0.198 A 
ATOM     44  C   UNL     1      -4.245  -7.932  -6.374  1.00  0.00     0.198 A 
ATOM     45  F   UNL     1      -2.987  -8.630  -4.527  1.00  0.00    -0.203 F 
ATOM     46  F   UNL     1      -4.170  -4.867  -8.285  1.00  0.00    -0.200 F 
ATOM     47  C   UNL     1      -4.560  -6.992  -7.338  1.00  0.00     0.200 A 
ATOM     48  F   UNL     1      -4.849  -9.128  -6.393  1.00  0.00    -0.200 F 
ATOM     49  F   UNL     1      -5.471  -7.262  -8.282  1.00  0.00    -0.200 F 
ENDBRANCH  25  39
BRANCH  26  50
ATOM     50  C   UNL     1       4.554  -4.226  -9.558  1.00  0.00     0.064 A 
ATOM     51  C   UNL     1       4.411  -2.864  -9.889  1.00  0.00     0.173 A 
ATOM     52  C   UNL     1       4.837  -5.101 -10.618  1.00  0.00     0.173 A 
ATOM     53  F   UNL     1       4.060  -1.962  -8.961  1.00  0.00    -0.203 F 
ATOM     54  C   UNL     1       4.526  -2.409 -11.202  1.00  0.00     0.198 A 
ATOM     55  C   UNL     1       4.939  -4.646 -11.936  1.00  0.00     0.198 A 
ATOM     56  F   UNL     1       4.945  -6.419 -10.396  1.00  0.00    -0.203 F 
ATOM     57  F   UNL     1       4.329  -1.111 -11.475  1.00  0.00    -0.200 F 
ATOM     58  C   UNL     1       4.773  -3.302 -12.227  1.00  0.00     0.200 A 
ATOM     59  F   UNL     1       5.138  -5.521 -12.931  1.00  0.00    -0.200 F 
ATOM     60  F   UNL     1       4.806  -2.874 -13.497  1.00  0.00    -0.200 F 
ENDBRANCH  26  50
BRANCH  38  61
ATOM     61  C   UNL     1       3.938  -8.599  -5.032  1.00  0.00     0.064 A 
ATOM     62  C   UNL     1       4.172  -9.938  -4.688  1.00  0.00     0.173 A 
ATOM     63  C   UNL     1       4.888  -7.649  -4.618  1.00  0.00     0.173 A 
ATOM     64  F   UNL     1       3.270 -10.881  -5.002  1.00  0.00    -0.203 F 
ATOM     65  C   UNL     1       5.303 -10.311  -3.966  1.00  0.00     0.198 A 
ATOM     66  C   UNL     1       6.038  -8.030  -3.931  1.00  0.00     0.198 A 
ATOM     67  F   UNL     1       4.684  -6.340  -4.813  1.00  0.00    -0.203 F 
ATOM     68  F   UNL     1       5.466 -11.589  -3.596  1.00  0.00    -0.200 F 
ATOM     69  C   UNL     1       6.240  -9.359  -3.596  1.00  0.00     0.200 A 
ATOM     70  F   UNL     1       6.933  -7.105  -3.553  1.00  0.00    -0.200 F 
ATOM     71  F   UNL     1       7.320  -9.719  -2.889  1.00  0.00    -0.200 F 
ENDBRANCH  38  61
ENDBRANCH  12  13
ENDBRANCH   5   7
ENDBRANCH   4   5
ENDBRANCH   3   4
ENDBRANCH   2   3
ENDBRANCH   1   2
BRANCH   1  72
ATOM     72  C   UNL     1       0.139   1.411   1.334  1.00  0.00     0.341 C 
ATOM     73  O   UNL     1       0.244   2.553   1.742  1.00  0.00    -0.246 OA
BRANCH  72  74
ATOM     74  C   UNL     1      -0.750   1.026   0.240  1.00  0.00     0.097 A 
ATOM     75  C   UNL     1      -0.428   1.363  -1.076  1.00  0.00     0.040 A 
ATOM     76  C   UNL     1      -1.940   0.371   0.532  1.00  0.00     0.137 A 
ATOM     77  C   UNL     1      -1.306   1.000  -2.104  1.00  0.00     0.085 A 
ATOM     78  C   UNL     1      -2.819   0.022  -0.491  1.00  0.00     0.041 A 
ATOM     79  F   UNL     1      -2.271   0.084   1.798  1.00  0.00    -0.206 F 
ATOM     80  C   UNL     1      -2.501   0.326  -1.819  1.00  0.00     0.025 A 
BRANCH  77  81
ATOM     81  S   UNL     1      -0.890   1.512  -3.747  1.00  0.00     0.257 S 
ATOM     82  O   UNL     1      -0.562   2.928  -3.693  1.00  0.00    -0.205 OA
ATOM     83  O   UNL     1       0.002   0.538  -4.302  1.00  0.00    -0.205 OA
BRANCH  81  84
ATOM     84  N   UNL     1      -2.331   1.379  -4.638  1.00  0.00    -0.123 NA
ATOM     85  H   UNL     1      -2.754   0.484  -4.391  1.00  0.00     0.167 HD
BRANCH  84  86
ATOM     86  N   UNL     1      -3.347   2.387  -4.471  1.00  0.00    -0.275 N 
ATOM     87  C   UNL     1      -4.040   2.999  -5.488  1.00  0.00     0.265 C 
ATOM     88  H   UNL     1      -3.563   2.661  -3.551  1.00  0.00     0.186 HD
ATOM     89  O   UNL     1      -5.034   3.669  -5.200  1.00  0.00    -0.271 OA
BRANCH  87  90
ATOM     90  C   UNL     1      -3.501   2.853  -6.913  1.00  0.00     0.244 C 
ATOM     91  C   UNL     1      -4.533   2.404  -7.872  1.00  0.00     0.042 C 
ATOM     92  N   UNL     1      -3.162   4.217  -7.408  1.00  0.00    -0.171 NA
ATOM     93  C   UNL     1      -4.677   3.418  -8.728  1.00  0.00     0.091 C 
ATOM     94  N   UNL     1      -3.841   4.470  -8.442  1.00  0.00    -0.155 NA
BRANCH  93  95
ATOM     95  C   UNL     1      -5.581   3.432  -9.879  1.00  0.00     0.002 A 
ATOM     96  C   UNL     1      -5.170   4.012 -11.087  1.00  0.00     0.010 A 
ATOM     97  C   UNL     1      -6.874   2.896  -9.793  1.00  0.00     0.010 A 
ATOM     98  C   UNL     1      -6.025   4.038 -12.190  1.00  0.00     0.001 A 
ATOM     99  C   UNL     1      -7.731   2.928 -10.894  1.00  0.00     0.001 A 
ATOM    100  C   UNL     1      -7.304   3.495 -12.093  1.00  0.00     0.000 A 
ENDBRANCH  93  95
ENDBRANCH  87  90
ENDBRANCH  84  86
ENDBRANCH  81  84
ENDBRANCH  77  81
ENDBRANCH  72  74
ENDBRANCH   1  72
TORSDOF 16
