REMARK SMILES COc1cccc(N2/C(=[NH+]/C(=O)CCC(=O)OCCOC(=O)c3ccc(-c4c5nc(c(-c6c(F)c(F)c(F)c(F)c6F)c6ccc([nH]6)c(-c6c(F)c(F)c(F)c(F)c6F)c6nc(c(-c7c(F)c(F)c(F)c(F)c7F)c7ccc4[nH]7)C=C6)C=C5)cc3)S[C@@H]3CS(=O)(=O)C[C@H]32)c1
REMARK SMILES IDX 18 1 17 2 15 3 16 4 14 5 13 6 11 7 8 8 9 9 93 10 10 11 86 12
REMARK SMILES IDX 87 13 92 14 88 16 89 17 12 18 90 19 91 20 7 21 3 22 4 23
REMARK SMILES IDX 94 24 5 25 6 26 2 27 1 28 19 29 20 30 21 31 22 32 23 33
REMARK SMILES IDX 24 34 85 35 25 36 84 37 26 38 27 39 28 40 78 41 29 42 83 43
REMARK SMILES IDX 77 44 79 45 30 46 82 47 76 48 75 49 31 51 63 52 43 53 62 54
REMARK SMILES IDX 44 55 47 56 61 57 80 58 45 59 46 60 60 62 81 63 48 64 32 65
REMARK SMILES IDX 33 66 41 67 34 68 35 69 39 70 42 71 36 72 37 73 40 74 38 75
REMARK SMILES IDX 64 76 65 77 73 78 66 79 67 80 71 81 74 82 68 83 69 84 72 85
REMARK SMILES IDX 70 86 49 87 50 88 58 89 51 90 52 91 56 92 59 93 53 94 54 95
REMARK SMILES IDX 57 96 55 97
REMARK H PARENT 10 15 79 50 47 61
REMARK Flexibility Score: inf
ROOT
ATOM      1  C   UNL     1       3.335  -1.378   0.647  1.00  0.00     0.274 C 
ENDROOT
BRANCH   1   2
ATOM      2  O   UNL     1       4.656  -1.917   0.716  1.00  0.00    -0.462 OA
BRANCH   2   3
ATOM      3  C   UNL     1       5.401  -1.649   1.803  1.00  0.00     0.306 C 
ATOM      4  O   UNL     1       5.157  -0.795   2.643  1.00  0.00    -0.252 OA
BRANCH   3   5
ATOM      5  C   UNL     1       6.594  -2.567   1.834  1.00  0.00     0.135 C 
BRANCH   5   6
ATOM      6  C   UNL     1       6.187  -4.034   1.822  1.00  0.00     0.139 C 
BRANCH   6   7
ATOM      7  C   UNL     1       6.006  -4.687   0.455  1.00  0.00     0.308 C 
ATOM      8  N   UNL     1       3.866  -4.033  -2.466  1.00  0.00    -0.216 N 
ATOM      9  C   UNL     1       4.912  -4.249  -1.549  1.00  0.00     0.319 C 
ATOM     10  C   UNL     1       4.290  -4.034  -3.870  1.00  0.00     0.212 C 
ATOM     11  N   UNL     1       4.873  -4.348  -0.261  1.00  0.00    -0.204 N 
ATOM     12  S   UNL     1       6.440  -4.390  -2.509  1.00  0.00    -0.029 SA
ATOM     13  C   UNL     1       5.473  -5.007  -3.889  1.00  0.00     0.120 C 
ATOM     14  C   UNL     1       3.369  -4.585  -4.939  1.00  0.00     0.188 C 
ATOM     15  H   UNL     1       4.028  -4.180   0.216  1.00  0.00     0.316 HD
ATOM     16  C   UNL     1       6.026  -5.013  -5.285  1.00  0.00     0.156 C 
ATOM     17  S   UNL     1       4.524  -4.957  -6.270  1.00  0.00     0.155 S 
ATOM     18  O   UNL     1       6.790  -5.579   0.129  1.00  0.00    -0.247 OA
ATOM     19  O   UNL     1       4.240  -6.286  -6.765  1.00  0.00    -0.229 OA
ATOM     20  O   UNL     1       4.604  -3.803  -7.140  1.00  0.00    -0.229 OA
BRANCH   8  21
ATOM     21  C   UNL     1       2.518  -3.773  -2.187  1.00  0.00     0.132 A 
ATOM     22  C   UNL     1       0.632  -2.224  -1.984  1.00  0.00     0.123 A 
ATOM     23  C   UNL     1      -0.226  -3.294  -1.735  1.00  0.00     0.047 A 
ATOM     24  C   UNL     1       1.983  -2.472  -2.268  1.00  0.00     0.098 A 
ATOM     25  C   UNL     1       0.271  -4.596  -1.724  1.00  0.00     0.008 A 
ATOM     26  C   UNL     1       1.635  -4.831  -1.930  1.00  0.00     0.052 A 
BRANCH  22  27
ATOM     27  O   UNL     1       0.054  -0.984  -2.030  1.00  0.00    -0.497 OA
ATOM     28  C   UNL     1       0.682   0.029  -1.246  1.00  0.00     0.278 C 
ENDBRANCH  22  27
ENDBRANCH   8  21
ENDBRANCH   6   7
ENDBRANCH   5   6
ENDBRANCH   3   5
ENDBRANCH   2   3
ENDBRANCH   1   2
BRANCH   1  29
ATOM     29  C   UNL     1       2.311  -2.427   1.078  1.00  0.00     0.275 C 
BRANCH  29  30
ATOM     30  O   UNL     1       2.219  -2.393   2.502  1.00  0.00    -0.458 OA
BRANCH  30  31
ATOM     31  C   UNL     1       2.640  -3.495   3.153  1.00  0.00     0.338 C 
ATOM     32  O   UNL     1       2.966  -4.578   2.725  1.00  0.00    -0.246 OA
BRANCH  31  33
ATOM     33  C   UNL     1       2.749  -3.076   4.545  1.00  0.00     0.060 A 
ATOM     34  C   UNL     1       3.998  -2.682   5.030  1.00  0.00     0.016 A 
ATOM     35  C   UNL     1       1.597  -3.022   5.325  1.00  0.00     0.016 A 
ATOM     36  C   UNL     1       4.104  -2.241   6.337  1.00  0.00     0.010 A 
ATOM     37  C   UNL     1       1.703  -2.567   6.630  1.00  0.00     0.010 A 
ATOM     38  C   UNL     1       2.960  -2.200   7.141  1.00  0.00    -0.014 A 
BRANCH  38  39
ATOM     39  C   UNL     1       3.096  -1.877   8.569  1.00  0.00     0.031 A 
ATOM     40  C   UNL     1       2.986  -2.992   9.561  1.00  0.00     0.074 A 
ATOM     41  C   UNL     1       3.325  -0.608   8.940  1.00  0.00     0.049 A 
ATOM     42  N   UNL     1       2.993  -2.943  10.865  1.00  0.00    -0.248 NA
ATOM     43  C   UNL     1       2.833  -4.349   9.007  1.00  0.00     0.031 C 
ATOM     44  C   UNL     1       3.481   0.523   8.024  1.00  0.00     0.029 A 
ATOM     45  N   UNL     1       3.460  -0.057  10.185  1.00  0.00    -0.354 N 
ATOM     46  C   UNL     1       2.825  -4.255  11.287  1.00  0.00     0.074 A 
ATOM     47  C   UNL     1       2.687  -5.075  10.105  1.00  0.00     0.031 C 
ATOM     48  C   UNL     1       3.693   1.638   8.742  1.00  0.00     0.029 A 
ATOM     49  C   UNL     1       3.636   1.304  10.161  1.00  0.00     0.049 A 
ATOM     50  H   UNL     1       3.434  -0.584  11.015  1.00  0.00     0.167 HD
ATOM     51  C   UNL     1       2.797  -4.721  12.556  1.00  0.00     0.037 A 
ATOM     52  C   UNL     1       3.712   2.174  11.183  1.00  0.00     0.037 A 
ATOM     53  C   UNL     1       2.946  -3.874  13.709  1.00  0.00     0.049 A 
ATOM     54  C   UNL     1       3.623   1.632  12.585  1.00  0.00     0.074 A 
ATOM     55  C   UNL     1       2.954  -4.227  15.045  1.00  0.00     0.029 A 
ATOM     56  N   UNL     1       3.105  -2.495  13.655  1.00  0.00    -0.354 N 
ATOM     57  N   UNL     1       3.484   0.390  12.986  1.00  0.00    -0.248 NA
ATOM     58  C   UNL     1       3.703   2.609  13.676  1.00  0.00     0.031 C 
ATOM     59  C   UNL     1       3.056  -3.055  15.801  1.00  0.00     0.029 A 
ATOM     60  C   UNL     1       3.184  -1.978  14.936  1.00  0.00     0.049 A 
ATOM     61  H   UNL     1       3.155  -1.964  12.827  1.00  0.00     0.167 HD
ATOM     62  C   UNL     1       3.491   0.431  14.372  1.00  0.00     0.074 A 
ATOM     63  C   UNL     1       3.664   1.822  14.741  1.00  0.00     0.031 C 
ATOM     64  C   UNL     1       3.365  -0.585  15.263  1.00  0.00     0.037 A 
BRANCH  51  65
ATOM     65  C   UNL     1       2.559  -6.190  12.754  1.00  0.00     0.064 A 
ATOM     66  C   UNL     1       3.507  -7.156  12.386  1.00  0.00     0.173 A 
ATOM     67  C   UNL     1       1.363  -6.637  13.337  1.00  0.00     0.173 A 
ATOM     68  F   UNL     1       4.659  -6.786  11.805  1.00  0.00    -0.203 F 
ATOM     69  C   UNL     1       3.257  -8.514  12.570  1.00  0.00     0.198 A 
ATOM     70  C   UNL     1       1.130  -7.993  13.550  1.00  0.00     0.198 A 
ATOM     71  F   UNL     1       0.419  -5.758  13.704  1.00  0.00    -0.203 F 
ATOM     72  F   UNL     1       4.155  -9.421  12.161  1.00  0.00    -0.200 F 
ATOM     73  C   UNL     1       2.073  -8.931  13.159  1.00  0.00     0.200 A 
ATOM     74  F   UNL     1      -0.010  -8.392  14.130  1.00  0.00    -0.200 F 
ATOM     75  F   UNL     1       1.837 -10.237  13.343  1.00  0.00    -0.200 F 
ENDBRANCH  51  65
BRANCH  52  76
ATOM     76  C   UNL     1       3.865   3.628  10.916  1.00  0.00     0.064 A 
ATOM     77  C   UNL     1       5.031   4.313  11.285  1.00  0.00     0.173 A 
ATOM     78  C   UNL     1       2.849   4.365  10.289  1.00  0.00     0.173 A 
ATOM     79  F   UNL     1       6.026   3.658  11.902  1.00  0.00    -0.203 F 
ATOM     80  C   UNL     1       5.164   5.682  11.060  1.00  0.00     0.198 A 
ATOM     81  C   UNL     1       2.997   5.727  10.034  1.00  0.00     0.198 A 
ATOM     82  F   UNL     1       1.714   3.760   9.910  1.00  0.00    -0.203 F 
ATOM     83  F   UNL     1       6.268   6.321  11.471  1.00  0.00    -0.200 F 
ATOM     84  C   UNL     1       4.150   6.387  10.430  1.00  0.00     0.200 A 
ATOM     85  F   UNL     1       2.022   6.399   9.408  1.00  0.00    -0.200 F 
ATOM     86  F   UNL     1       4.280   7.702  10.211  1.00  0.00    -0.200 F 
ENDBRANCH  52  76
BRANCH  64  87
ATOM     87  C   UNL     1       3.459  -0.227  16.718  1.00  0.00     0.064 A 
ATOM     88  C   UNL     1       2.447   0.490  17.370  1.00  0.00     0.173 A 
ATOM     89  C   UNL     1       4.564  -0.646  17.476  1.00  0.00     0.173 A 
ATOM     90  F   UNL     1       1.378   0.925  16.686  1.00  0.00    -0.203 F 
ATOM     91  C   UNL     1       2.553   0.804  18.722  1.00  0.00     0.198 A 
ATOM     92  C   UNL     1       4.648  -0.364  18.835  1.00  0.00     0.198 A 
ATOM     93  F   UNL     1       5.555  -1.344  16.900  1.00  0.00    -0.203 F 
ATOM     94  F   UNL     1       1.602   1.541  19.312  1.00  0.00    -0.200 F 
ATOM     95  C   UNL     1       3.647   0.369  19.454  1.00  0.00     0.200 A 
ATOM     96  F   UNL     1       5.696  -0.802  19.545  1.00  0.00    -0.200 F 
ATOM     97  F   UNL     1       3.742   0.664  20.758  1.00  0.00    -0.200 F 
ENDBRANCH  64  87
ENDBRANCH  38  39
ENDBRANCH  31  33
ENDBRANCH  30  31
ENDBRANCH  29  30
ENDBRANCH   1  29
TORSDOF 15
