REMARK SMILES CC(C)C[C@H](Cn1nnnc1CC1CC1)C(=O)OCCOC(=O)c1ccc(-c2c3nc(c(-c4c(F)c(F)c(F)c(F)c4F)c4ccc([nH]4)c(-c4c(F)c(F)c(F)c(F)c4F)c4nc(c(-c5c(F)c(F)c(F)c(F)c5F)c5ccc2[nH]5)C=C4)C=C3)cc1
REMARK SMILES IDX 19 1 18 2 16 3 17 4 5 5 4 6 2 7 1 8 3 9 6 10 7 11 8 12 11 13
REMARK SMILES IDX 9 14 10 15 12 16 13 17 14 18 15 19 20 20 21 21 22 22 23 23
REMARK SMILES IDX 24 24 25 25 86 26 26 27 85 28 27 29 28 30 29 31 79 32 30 33
REMARK SMILES IDX 84 34 78 35 80 36 31 37 83 38 77 39 76 40 32 42 64 43 44 44
REMARK SMILES IDX 63 45 45 46 48 47 62 48 81 49 46 50 47 51 61 53 82 54 49 55
REMARK SMILES IDX 33 56 34 57 42 58 35 59 36 60 40 61 43 62 37 63 38 64 41 65
REMARK SMILES IDX 39 66 65 67 66 68 74 69 67 70 68 71 72 72 75 73 69 74 70 75
REMARK SMILES IDX 73 76 71 77 50 78 51 79 59 80 52 81 53 82 57 83 60 84 54 85
REMARK SMILES IDX 55 86 58 87 56 88
REMARK H PARENT 80 41 48 52
REMARK Flexibility Score: inf
ROOT
ATOM      1  C   UNL     1      -5.164  -2.334  -0.712  1.00  0.00     0.274 C 
ENDROOT
BRANCH   1   2
ATOM      2  O   UNL     1      -3.727  -2.367  -0.742  1.00  0.00    -0.462 OA
BRANCH   2   3
ATOM      3  C   UNL     1      -3.097  -1.264  -1.213  1.00  0.00     0.310 C 
ATOM      4  O   UNL     1      -3.650  -0.266  -1.662  1.00  0.00    -0.252 OA
BRANCH   3   5
ATOM      5  C   UNL     1      -1.605  -1.426  -1.229  1.00  0.00     0.121 C 
BRANCH   5   6
ATOM      6  C   UNL     1      -1.094  -2.049  -2.553  1.00  0.00     0.020 C 
BRANCH   6   7
ATOM      7  C   UNL     1      -2.074  -2.841  -3.464  1.00  0.00    -0.017 C 
ATOM      8  C   UNL     1      -3.046  -1.992  -4.288  1.00  0.00     0.007 C 
ATOM      9  C   UNL     1      -1.278  -3.732  -4.423  1.00  0.00     0.007 C 
ENDBRANCH   6   7
ENDBRANCH   5   6
BRANCH   5  10
ATOM     10  C   UNL     1      -0.919  -1.899   0.089  1.00  0.00     0.163 C 
BRANCH  10  11
ATOM     11  N   UNL     1      -1.446  -2.909   0.982  1.00  0.00    -0.229 N 
ATOM     12  N   UNL     1      -1.410  -2.668   2.313  1.00  0.00    -0.045 NA
ATOM     13  C   UNL     1      -1.751  -4.234   0.797  1.00  0.00     0.151 A 
ATOM     14  N   UNL     1      -1.782  -3.793   2.900  1.00  0.00    -0.024 NA
ATOM     15  N   UNL     1      -1.990  -4.776   1.976  1.00  0.00    -0.114 NA
BRANCH  13  16
ATOM     16  C   UNL     1      -1.913  -4.914  -0.498  1.00  0.00     0.082 C 
BRANCH  16  17
ATOM     17  C   UNL     1      -0.721  -5.598  -1.090  1.00  0.00    -0.004 C 
ATOM     18  C   UNL     1       0.057  -6.668  -0.374  1.00  0.00     0.004 C 
ATOM     19  C   UNL     1      -0.875  -7.043  -1.492  1.00  0.00     0.004 C 
ENDBRANCH  16  17
ENDBRANCH  13  16
ENDBRANCH  10  11
ENDBRANCH   5  10
ENDBRANCH   3   5
ENDBRANCH   2   3
ENDBRANCH   1   2
BRANCH   1  20
ATOM     20  C   UNL     1      -5.687  -1.696   0.565  1.00  0.00     0.275 C 
BRANCH  20  21
ATOM     21  O   UNL     1      -5.476  -0.289   0.541  1.00  0.00    -0.458 OA
BRANCH  21  22
ATOM     22  C   UNL     1      -4.279   0.128   1.008  1.00  0.00     0.338 C 
ATOM     23  O   UNL     1      -3.339  -0.558   1.362  1.00  0.00    -0.246 OA
BRANCH  22  24
ATOM     24  C   UNL     1      -4.298   1.577   1.171  1.00  0.00     0.060 A 
ATOM     25  C   UNL     1      -3.143   2.163   1.705  1.00  0.00     0.016 A 
ATOM     26  C   UNL     1      -5.540   2.212   1.165  1.00  0.00     0.016 A 
ATOM     27  C   UNL     1      -3.293   3.294   2.470  1.00  0.00     0.010 A 
ATOM     28  C   UNL     1      -5.699   3.294   1.979  1.00  0.00     0.010 A 
ATOM     29  C   UNL     1      -4.588   3.769   2.675  1.00  0.00    -0.014 A 
BRANCH  29  30
ATOM     30  C   UNL     1      -4.787   4.892   3.555  1.00  0.00     0.031 A 
ATOM     31  C   UNL     1      -4.523   6.169   2.863  1.00  0.00     0.074 A 
ATOM     32  C   UNL     1      -5.343   4.734   4.769  1.00  0.00     0.049 A 
ATOM     33  N   UNL     1      -3.550   6.990   3.067  1.00  0.00    -0.248 NA
ATOM     34  C   UNL     1      -5.303   6.454   1.643  1.00  0.00     0.031 C 
ATOM     35  C   UNL     1      -5.904   3.509   5.347  1.00  0.00     0.029 A 
ATOM     36  N   UNL     1      -5.642   5.675   5.700  1.00  0.00    -0.354 N 
ATOM     37  C   UNL     1      -3.758   8.016   2.152  1.00  0.00     0.074 A 
ATOM     38  C   UNL     1      -4.634   7.493   1.145  1.00  0.00     0.031 C 
ATOM     39  C   UNL     1      -6.668   3.832   6.415  1.00  0.00     0.029 A 
ATOM     40  C   UNL     1      -6.561   5.260   6.656  1.00  0.00     0.049 A 
ATOM     41  H   UNL     1      -5.242   6.575   5.699  1.00  0.00     0.167 HD
ATOM     42  C   UNL     1      -3.522   9.305   2.514  1.00  0.00     0.037 A 
ATOM     43  C   UNL     1      -7.242   6.077   7.500  1.00  0.00     0.037 A 
ATOM     44  C   UNL     1      -2.630   9.357   3.650  1.00  0.00     0.049 A 
ATOM     45  C   UNL     1      -6.535   7.387   7.509  1.00  0.00     0.074 A 
ATOM     46  C   UNL     1      -1.364   8.866   3.915  1.00  0.00     0.029 A 
ATOM     47  N   UNL     1      -3.177   9.655   4.874  1.00  0.00    -0.354 N 
ATOM     48  N   UNL     1      -5.353   7.574   8.027  1.00  0.00    -0.248 NA
ATOM     49  C   UNL     1      -6.950   8.386   6.534  1.00  0.00     0.031 C 
ATOM     50  C   UNL     1      -1.392   8.476   5.287  1.00  0.00     0.029 A 
ATOM     51  C   UNL     1      -2.643   8.807   5.806  1.00  0.00     0.049 A 
ATOM     52  H   UNL     1      -3.842  10.359   5.050  1.00  0.00     0.167 HD
ATOM     53  C   UNL     1      -4.711   8.428   7.142  1.00  0.00     0.074 A 
ATOM     54  C   UNL     1      -5.772   8.972   6.300  1.00  0.00     0.031 C 
ATOM     55  C   UNL     1      -3.355   8.372   6.985  1.00  0.00     0.037 A 
BRANCH  42  56
ATOM     56  C   UNL     1      -4.454  10.449   2.161  1.00  0.00     0.064 A 
ATOM     57  C   UNL     1      -4.082  11.748   2.557  1.00  0.00     0.173 A 
ATOM     58  C   UNL     1      -5.802  10.312   1.749  1.00  0.00     0.173 A 
ATOM     59  F   UNL     1      -2.830  12.002   2.967  1.00  0.00    -0.203 F 
ATOM     60  C   UNL     1      -5.010  12.788   2.649  1.00  0.00     0.198 A 
ATOM     61  C   UNL     1      -6.712  11.365   1.792  1.00  0.00     0.198 A 
ATOM     62  F   UNL     1      -6.345   9.146   1.387  1.00  0.00    -0.203 F 
ATOM     63  F   UNL     1      -4.638  13.962   3.174  1.00  0.00    -0.200 F 
ATOM     64  C   UNL     1      -6.327  12.592   2.279  1.00  0.00     0.200 A 
ATOM     65  F   UNL     1      -7.986  11.146   1.438  1.00  0.00    -0.200 F 
ATOM     66  F   UNL     1      -7.234  13.564   2.436  1.00  0.00    -0.200 F 
ENDBRANCH  42  56
BRANCH  43  67
ATOM     67  C   UNL     1      -8.620   5.926   8.029  1.00  0.00     0.064 A 
ATOM     68  C   UNL     1      -9.075   6.734   9.086  1.00  0.00     0.173 A 
ATOM     69  C   UNL     1      -9.605   5.190   7.341  1.00  0.00     0.173 A 
ATOM     70  F   UNL     1      -8.212   7.503   9.766  1.00  0.00    -0.203 F 
ATOM     71  C   UNL     1     -10.432   6.825   9.412  1.00  0.00     0.198 A 
ATOM     72  C   UNL     1     -10.958   5.272   7.676  1.00  0.00     0.198 A 
ATOM     73  F   UNL     1      -9.293   4.452   6.267  1.00  0.00    -0.203 F 
ATOM     74  F   UNL     1     -10.833   7.661  10.380  1.00  0.00    -0.200 F 
ATOM     75  C   UNL     1     -11.374   6.101   8.700  1.00  0.00     0.200 A 
ATOM     76  F   UNL     1     -11.863   4.594   6.954  1.00  0.00    -0.200 F 
ATOM     77  F   UNL     1     -12.680   6.235   8.970  1.00  0.00    -0.200 F 
ENDBRANCH  43  67
BRANCH  55  78
ATOM     78  C   UNL     1      -2.567   7.610   8.013  1.00  0.00     0.064 A 
ATOM     79  C   UNL     1      -2.698   6.231   8.253  1.00  0.00     0.173 A 
ATOM     80  C   UNL     1      -1.549   8.289   8.695  1.00  0.00     0.173 A 
ATOM     81  F   UNL     1      -3.577   5.491   7.565  1.00  0.00    -0.203 F 
ATOM     82  C   UNL     1      -1.881   5.578   9.175  1.00  0.00     0.198 A 
ATOM     83  C   UNL     1      -0.708   7.627   9.584  1.00  0.00     0.198 A 
ATOM     84  F   UNL     1      -1.342   9.595   8.466  1.00  0.00    -0.203 F 
ATOM     85  F   UNL     1      -2.039   4.266   9.403  1.00  0.00    -0.200 F 
ATOM     86  C   UNL     1      -0.882   6.275   9.833  1.00  0.00     0.200 A 
ATOM     87  F   UNL     1       0.288   8.296  10.180  1.00  0.00    -0.200 F 
ATOM     88  F   UNL     1      -0.070   5.641  10.691  1.00  0.00    -0.200 F 
ENDBRANCH  55  78
ENDBRANCH  29  30
ENDBRANCH  22  24
ENDBRANCH  21  22
ENDBRANCH  20  21
ENDBRANCH   1  20
TORSDOF 17
