REMARK SMILES CC[NH2+][C@@]1(C(=O)OCCOC(=O)c2ccc(-c3c4nc(c(-c5c(F)c(F)c(F)c(F)c5F)c5ccc([nH]5)c(-c5c(F)c(F)c(F)c(F)c5F)c5nc(c(-c6c(F)c(F)c(F)c(F)c6F)c6ccc3[nH]6)C=C5)C=C4)cc2)CC[C@H](Oc2ccc3c(c2)OCO3)C1
REMARK SMILES IDX 8 1 7 2 5 3 6 4 4 5 76 6 89 7 77 8 78 9 3 10 2 13 1 14 79 15
REMARK SMILES IDX 80 16 81 17 85 18 82 19 84 20 83 21 86 22 88 23 87 24 9 25
REMARK SMILES IDX 10 26 11 27 12 28 13 29 14 30 75 31 15 32 74 33 16 34 17 35
REMARK SMILES IDX 18 36 68 37 19 38 73 39 67 40 69 41 20 42 72 43 66 44 65 45
REMARK SMILES IDX 21 47 53 48 33 49 52 50 34 51 37 52 51 53 70 54 35 55 36 56
REMARK SMILES IDX 50 58 71 59 38 60 22 61 23 62 31 63 24 64 25 65 29 66 32 67
REMARK SMILES IDX 26 68 27 69 30 70 28 71 54 72 55 73 63 74 56 75 57 76 61 77
REMARK SMILES IDX 64 78 58 79 59 80 62 81 60 82 39 83 40 84 48 85 41 86 42 87
REMARK SMILES IDX 46 88 49 89 43 90 44 91 47 92 45 93
REMARK H PARENT 3 11 3 12 69 46 37 57
REMARK Flexibility Score: inf
ROOT
ATOM      1  C   UNL     1       0.852  -1.599   6.516  1.00  0.00     0.274 C 
ENDROOT
BRANCH   1   2
ATOM      2  O   UNL     1       0.814  -2.107   5.170  1.00  0.00    -0.457 OA
BRANCH   2   3
ATOM      3  C   UNL     1       0.098  -1.417   4.249  1.00  0.00     0.368 C 
ATOM      4  O   UNL     1      -0.455  -0.345   4.478  1.00  0.00    -0.245 OA
BRANCH   3   5
ATOM      5  C   UNL     1       0.035  -2.144   2.856  1.00  0.00     0.198 C 
ATOM      6  C   UNL     1      -1.417  -2.610   2.676  1.00  0.00     0.085 C 
ATOM      7  C   UNL     1       0.793  -3.481   2.775  1.00  0.00     0.126 C 
ATOM      8  C   UNL     1      -1.497  -3.863   3.552  1.00  0.00     0.052 C 
ATOM      9  C   UNL     1      -0.105  -4.511   3.484  1.00  0.00     0.180 C 
BRANCH   5  10
ATOM     10  N   UNL     1       0.581  -1.184   1.870  1.00  0.00    -0.332 N 
ATOM     11  H   UNL     1       0.362  -0.246   2.204  1.00  0.00     0.347 HD
ATOM     12  H   UNL     1       1.574  -1.412   1.814  1.00  0.00     0.347 HD
BRANCH  10  13
ATOM     13  C   UNL     1       0.108  -1.277   0.498  1.00  0.00     0.257 C 
ATOM     14  C   UNL     1       0.829  -0.230  -0.344  1.00  0.00     0.071 C 
ENDBRANCH  10  13
ENDBRANCH   5  10
BRANCH   9  15
ATOM     15  O   UNL     1       0.464  -4.702   4.774  1.00  0.00    -0.490 OA
BRANCH  15  16
ATOM     16  C   UNL     1       0.096  -5.744   5.562  1.00  0.00     0.123 A 
ATOM     17  C   UNL     1      -0.921  -6.671   5.293  1.00  0.00     0.050 A 
ATOM     18  C   UNL     1       0.835  -5.827   6.748  1.00  0.00     0.097 A 
ATOM     19  C   UNL     1      -1.210  -7.687   6.214  1.00  0.00     0.054 A 
ATOM     20  C   UNL     1       0.536  -6.838   7.630  1.00  0.00     0.169 A 
ATOM     21  C   UNL     1      -0.461  -7.745   7.371  1.00  0.00     0.166 A 
ATOM     22  O   UNL     1       1.156  -7.066   8.818  1.00  0.00    -0.453 OA
ATOM     23  O   UNL     1      -0.595  -8.662   8.365  1.00  0.00    -0.454 OA
ATOM     24  C   UNL     1       0.470  -8.258   9.252  1.00  0.00     0.468 C 
ENDBRANCH  15  16
ENDBRANCH   9  15
ENDBRANCH   3   5
ENDBRANCH   2   3
ENDBRANCH   1   2
BRANCH   1  25
ATOM     25  C   UNL     1       2.296  -1.314   6.916  1.00  0.00     0.275 C 
BRANCH  25  26
ATOM     26  O   UNL     1       2.814  -0.247   6.105  1.00  0.00    -0.458 OA
BRANCH  26  27
ATOM     27  C   UNL     1       3.537  -0.645   5.037  1.00  0.00     0.338 C 
ATOM     28  O   UNL     1       3.893  -1.773   4.737  1.00  0.00    -0.246 OA
BRANCH  27  29
ATOM     29  C   UNL     1       3.814   0.516   4.191  1.00  0.00     0.060 A 
ATOM     30  C   UNL     1       2.840   0.940   3.287  1.00  0.00     0.016 A 
ATOM     31  C   UNL     1       5.082   1.091   4.199  1.00  0.00     0.016 A 
ATOM     32  C   UNL     1       3.160   1.884   2.317  1.00  0.00     0.010 A 
ATOM     33  C   UNL     1       5.373   2.099   3.280  1.00  0.00     0.010 A 
ATOM     34  C   UNL     1       4.427   2.480   2.308  1.00  0.00    -0.014 A 
BRANCH  34  35
ATOM     35  C   UNL     1       4.804   3.472   1.271  1.00  0.00     0.031 A 
ATOM     36  C   UNL     1       5.955   3.177   0.352  1.00  0.00     0.074 A 
ATOM     37  C   UNL     1       4.146   4.641   1.168  1.00  0.00     0.049 A 
ATOM     38  N   UNL     1       6.643   3.990  -0.406  1.00  0.00    -0.248 NA
ATOM     39  C   UNL     1       6.401   1.775   0.291  1.00  0.00     0.031 C 
ATOM     40  C   UNL     1       2.964   5.023   1.940  1.00  0.00     0.029 A 
ATOM     41  N   UNL     1       4.394   5.734   0.375  1.00  0.00    -0.354 N 
ATOM     42  C   UNL     1       7.640   3.215  -0.982  1.00  0.00     0.074 A 
ATOM     43  C   UNL     1       7.460   1.862  -0.501  1.00  0.00     0.031 C 
ATOM     44  C   UNL     1       2.583   6.258   1.578  1.00  0.00     0.029 A 
ATOM     45  C   UNL     1       3.546   6.786   0.618  1.00  0.00     0.049 A 
ATOM     46  H   UNL     1       5.109   5.761  -0.301  1.00  0.00     0.167 HD
ATOM     47  C   UNL     1       8.624   3.610  -1.824  1.00  0.00     0.037 A 
ATOM     48  C   UNL     1       3.576   8.053   0.164  1.00  0.00     0.037 A 
ATOM     49  C   UNL     1       8.762   4.949  -2.331  1.00  0.00     0.049 A 
ATOM     50  C   UNL     1       4.695   8.478  -0.744  1.00  0.00     0.074 A 
ATOM     51  C   UNL     1       9.736   5.464  -3.169  1.00  0.00     0.029 A 
ATOM     52  N   UNL     1       7.879   5.984  -2.060  1.00  0.00    -0.354 N 
ATOM     53  N   UNL     1       5.697   7.771  -1.207  1.00  0.00    -0.248 NA
ATOM     54  C   UNL     1       4.702   9.884  -1.173  1.00  0.00     0.031 C 
ATOM     55  C   UNL     1       9.451   6.816  -3.392  1.00  0.00     0.029 A 
ATOM     56  C   UNL     1       8.282   7.133  -2.719  1.00  0.00     0.049 A 
ATOM     57  H   UNL     1       7.083   5.912  -1.485  1.00  0.00     0.167 HD
ATOM     58  C   UNL     1       6.445   8.637  -1.991  1.00  0.00     0.074 A 
ATOM     59  C   UNL     1       5.776   9.922  -1.950  1.00  0.00     0.031 C 
ATOM     60  C   UNL     1       7.586   8.392  -2.678  1.00  0.00     0.037 A 
BRANCH  47  61
ATOM     61  C   UNL     1       9.652   2.592  -2.217  1.00  0.00     0.064 A 
ATOM     62  C   UNL     1       9.374   1.576  -3.141  1.00  0.00     0.173 A 
ATOM     63  C   UNL     1      10.949   2.659  -1.683  1.00  0.00     0.173 A 
ATOM     64  F   UNL     1       8.145   1.459  -3.666  1.00  0.00    -0.203 F 
ATOM     65  C   UNL     1      10.352   0.653  -3.504  1.00  0.00     0.198 A 
ATOM     66  C   UNL     1      11.930   1.750  -2.066  1.00  0.00     0.198 A 
ATOM     67  F   UNL     1      11.266   3.615  -0.797  1.00  0.00    -0.203 F 
ATOM     68  F   UNL     1      10.055  -0.333  -4.362  1.00  0.00    -0.200 F 
ATOM     69  C   UNL     1      11.630   0.744  -2.972  1.00  0.00     0.200 A 
ATOM     70  F   UNL     1      13.166   1.845  -1.557  1.00  0.00    -0.200 F 
ATOM     71  F   UNL     1      12.571  -0.141  -3.328  1.00  0.00    -0.200 F 
ENDBRANCH  47  61
BRANCH  48  72
ATOM     72  C   UNL     1       2.537   9.017   0.606  1.00  0.00     0.064 A 
ATOM     73  C   UNL     1       1.559   9.477  -0.286  1.00  0.00     0.173 A 
ATOM     74  C   UNL     1       2.486   9.480   1.929  1.00  0.00     0.173 A 
ATOM     75  F   UNL     1       1.583   9.083  -1.567  1.00  0.00    -0.203 F 
ATOM     76  C   UNL     1       0.571  10.368   0.129  1.00  0.00     0.198 A 
ATOM     77  C   UNL     1       1.482  10.349   2.349  1.00  0.00     0.198 A 
ATOM     78  F   UNL     1       3.401   9.069   2.820  1.00  0.00    -0.203 F 
ATOM     79  F   UNL     1      -0.334  10.818  -0.750  1.00  0.00    -0.200 F 
ATOM     80  C   UNL     1       0.528  10.796   1.448  1.00  0.00     0.200 A 
ATOM     81  F   UNL     1       1.438  10.750   3.627  1.00  0.00    -0.200 F 
ATOM     82  F   UNL     1      -0.429  11.643   1.849  1.00  0.00    -0.200 F 
ENDBRANCH  48  72
BRANCH  60  83
ATOM     83  C   UNL     1       8.155   9.521  -3.480  1.00  0.00     0.064 A 
ATOM     84  C   UNL     1       8.883  10.554  -2.875  1.00  0.00     0.173 A 
ATOM     85  C   UNL     1       8.015   9.536  -4.875  1.00  0.00     0.173 A 
ATOM     86  F   UNL     1       9.029  10.586  -1.542  1.00  0.00    -0.203 F 
ATOM     87  C   UNL     1       9.443  11.572  -3.641  1.00  0.00     0.198 A 
ATOM     88  C   UNL     1       8.591  10.546  -5.639  1.00  0.00     0.198 A 
ATOM     89  F   UNL     1       7.329   8.565  -5.496  1.00  0.00    -0.203 F 
ATOM     90  F   UNL     1      10.113  12.567  -3.043  1.00  0.00    -0.200 F 
ATOM     91  C   UNL     1       9.302  11.564  -5.022  1.00  0.00     0.200 A 
ATOM     92  F   UNL     1       8.460  10.533  -6.973  1.00  0.00    -0.200 F 
ATOM     93  F   UNL     1       9.848  12.542  -5.757  1.00  0.00    -0.200 F 
ENDBRANCH  60  83
ENDBRANCH  34  35
ENDBRANCH  27  29
ENDBRANCH  26  27
ENDBRANCH  25  26
ENDBRANCH   1  25
TORSDOF 15
