REMARK SMILES CCc1cc(C[NH+]2CCC(C(=O)OCCOC(=O)c3ccc(-c4c5nc(c(-c6c(F)c(F)c(F)c(F)c6F)c6ccc([nH]6)c(-c6c(F)c(F)c(F)c(F)c6F)c6nc(c(-c7c(F)c(F)c(F)c(F)c7F)c7ccc4[nH]7)C=C6)C=C5)cc3)(n3ccc(-c4ccco4)n3)CC2)on1
REMARK SMILES IDX 14 1 13 2 11 3 12 4 10 5 7 6 8 7 93 8 9 10 92 11 6 12 5 13
REMARK SMILES IDX 3 14 4 15 95 16 94 17 2 18 1 19 82 20 83 21 91 22 84 23
REMARK SMILES IDX 85 24 86 25 87 26 90 27 88 28 89 29 15 30 16 31 17 32 18 33
REMARK SMILES IDX 19 34 20 35 81 36 21 37 80 38 22 39 23 40 24 41 74 42 25 43
REMARK SMILES IDX 79 44 73 45 75 46 26 47 78 48 72 49 71 50 27 52 59 53 39 54
REMARK SMILES IDX 58 55 40 56 43 57 57 58 76 59 41 60 42 61 56 63 77 64 44 65
REMARK SMILES IDX 28 66 29 67 37 68 30 69 31 70 35 71 38 72 32 73 33 74 36 75
REMARK SMILES IDX 34 76 60 77 61 78 69 79 62 80 63 81 67 82 70 83 64 84 65 85
REMARK SMILES IDX 68 86 66 87 45 88 46 89 54 90 47 91 48 92 52 93 55 94 49 95
REMARK SMILES IDX 50 96 53 97 51 98
REMARK H PARENT 7 9 75 51 43 62
REMARK Flexibility Score: inf
ROOT
ATOM      1  C   UNL     1       8.704  -2.322  -7.583  1.00  0.00     0.274 C 
ENDROOT
BRANCH   1   2
ATOM      2  O   UNL     1       7.561  -1.673  -6.994  1.00  0.00    -0.460 OA
BRANCH   2   3
ATOM      3  C   UNL     1       6.598  -2.499  -6.487  1.00  0.00     0.334 C 
ATOM      4  O   UNL     1       6.649  -3.719  -6.613  1.00  0.00    -0.249 OA
BRANCH   3   5
ATOM      5  C   UNL     1       5.392  -1.721  -5.891  1.00  0.00     0.170 C 
ATOM      6  N   UNL     1       3.287   0.349  -6.335  1.00  0.00    -0.328 N 
ATOM      7  C   UNL     1       4.447   0.673  -5.509  1.00  0.00     0.265 C 
ATOM      8  C   UNL     1       3.026  -1.060  -6.627  1.00  0.00     0.265 C 
ATOM      9  H   UNL     1       3.584   0.698  -7.246  1.00  0.00     0.348 HD
ATOM     10  C   UNL     1       5.676  -0.199  -5.766  1.00  0.00     0.104 C 
ATOM     11  C   UNL     1       4.279  -1.874  -6.944  1.00  0.00     0.104 C 
BRANCH   6  12
ATOM     12  C   UNL     1       2.065   1.084  -5.927  1.00  0.00     0.341 C 
BRANCH  12  13
ATOM     13  C   UNL     1       1.553   0.825  -4.544  1.00  0.00     0.191 A 
ATOM     14  C   UNL     1       0.874   0.710  -2.439  1.00  0.00     0.084 A 
ATOM     15  C   UNL     1       1.520   1.555  -3.376  1.00  0.00     0.078 A 
ATOM     16  N   UNL     1       0.528  -0.452  -3.006  1.00  0.00    -0.085 NA
ATOM     17  O   UNL     1       0.931  -0.367  -4.326  1.00  0.00    -0.355 OA
BRANCH  14  18
ATOM     18  C   UNL     1       0.515   1.003  -1.020  1.00  0.00     0.056 C 
ATOM     19  C   UNL     1       1.112   0.032  -0.011  1.00  0.00     0.011 C 
ENDBRANCH  14  18
ENDBRANCH  12  13
ENDBRANCH   6  12
BRANCH   5  20
ATOM     20  N   UNL     1       4.998  -2.335  -4.604  1.00  0.00    -0.254 N 
ATOM     21  C   UNL     1       3.978  -1.952  -3.775  1.00  0.00     0.111 A 
ATOM     22  N   UNL     1       5.723  -3.344  -4.052  1.00  0.00    -0.168 NA
ATOM     23  C   UNL     1       3.966  -2.802  -2.713  1.00  0.00     0.054 A 
ATOM     24  C   UNL     1       5.125  -3.575  -2.886  1.00  0.00     0.128 A 
BRANCH  24  25
ATOM     25  C   UNL     1       5.612  -4.399  -1.757  1.00  0.00     0.154 A 
ATOM     26  C   UNL     1       6.969  -5.392  -1.517  1.00  0.00     0.052 A 
ATOM     27  O   UNL     1       4.494  -4.478  -0.406  1.00  0.00    -0.463 OA
ATOM     28  C   UNL     1       6.781  -6.330   0.158  1.00  0.00     0.043 A 
ATOM     29  C   UNL     1       4.976  -5.670   0.850  1.00  0.00     0.196 A 
ENDBRANCH  24  25
ENDBRANCH   5  20
ENDBRANCH   3   5
ENDBRANCH   2   3
ENDBRANCH   1   2
BRANCH   1  30
ATOM     30  C   UNL     1       9.963  -2.059  -6.752  1.00  0.00     0.275 C 
BRANCH  30  31
ATOM     31  O   UNL     1       9.800  -2.461  -5.370  1.00  0.00    -0.458 OA
BRANCH  31  32
ATOM     32  C   UNL     1       9.486  -1.446  -4.522  1.00  0.00     0.338 C 
ATOM     33  O   UNL     1       9.396  -0.263  -4.819  1.00  0.00    -0.246 OA
BRANCH  32  34
ATOM     34  C   UNL     1       9.030  -1.935  -3.202  1.00  0.00     0.060 A 
ATOM     35  C   UNL     1       7.780  -1.472  -2.792  1.00  0.00     0.016 A 
ATOM     36  C   UNL     1       9.763  -2.740  -2.334  1.00  0.00     0.016 A 
ATOM     37  C   UNL     1       7.186  -1.891  -1.606  1.00  0.00     0.010 A 
ATOM     38  C   UNL     1       9.148  -3.200  -1.151  1.00  0.00     0.010 A 
ATOM     39  C   UNL     1       7.806  -2.863  -0.836  1.00  0.00    -0.014 A 
BRANCH  39  40
ATOM     40  C   UNL     1       7.091  -3.469   0.354  1.00  0.00     0.031 A 
ATOM     41  C   UNL     1       7.431  -2.731   1.665  1.00  0.00     0.074 A 
ATOM     42  C   UNL     1       6.310  -4.654   0.363  1.00  0.00     0.049 A 
ATOM     43  N   UNL     1       7.099  -2.939   2.920  1.00  0.00    -0.248 NA
ATOM     44  C   UNL     1       8.273  -1.525   1.487  1.00  0.00     0.031 C 
ATOM     45  C   UNL     1       5.291  -6.220  -0.779  1.00  0.00     0.029 A 
ATOM     46  N   UNL     1       6.549  -5.588   1.982  1.00  0.00    -0.354 N 
ATOM     47  C   UNL     1       7.709  -1.917   3.657  1.00  0.00     0.074 A 
ATOM     48  C   UNL     1       8.458  -1.111   2.725  1.00  0.00     0.031 C 
ATOM     49  C   UNL     1       5.172  -7.578   0.152  1.00  0.00     0.029 A 
ATOM     50  C   UNL     1       5.827  -7.242   1.889  1.00  0.00     0.049 A 
ATOM     51  H   UNL     1       7.006  -5.223   2.774  1.00  0.00     0.167 HD
ATOM     52  C   UNL     1       7.667  -1.632   4.984  1.00  0.00     0.037 A 
ATOM     53  C   UNL     1       5.229  -7.974   2.862  1.00  0.00     0.037 A 
ATOM     54  C   UNL     1       6.994  -2.426   5.974  1.00  0.00     0.049 A 
ATOM     55  C   UNL     1       5.048  -7.429   4.241  1.00  0.00     0.074 A 
ATOM     56  C   UNL     1       6.853  -2.162   7.326  1.00  0.00     0.029 A 
ATOM     57  N   UNL     1       6.399  -3.656   5.740  1.00  0.00    -0.354 N 
ATOM     58  N   UNL     1       5.436  -6.289   4.755  1.00  0.00    -0.248 NA
ATOM     59  C   UNL     1       4.240  -8.259   5.147  1.00  0.00     0.031 C 
ATOM     60  C   UNL     1       6.256  -3.272   7.927  1.00  0.00     0.029 A 
ATOM     61  C   UNL     1       5.926  -4.180   6.935  1.00  0.00     0.049 A 
ATOM     62  H   UNL     1       6.325  -4.093   4.861  1.00  0.00     0.167 HD
ATOM     63  C   UNL     1       4.961  -6.289   6.060  1.00  0.00     0.074 A 
ATOM     64  C   UNL     1       4.152  -7.480   6.212  1.00  0.00     0.031 C 
ATOM     65  C   UNL     1       5.196  -5.412   7.066  1.00  0.00     0.037 A 
BRANCH  52  66
ATOM     66  C   UNL     1       8.417  -0.405   5.456  1.00  0.00     0.064 A 
ATOM     67  C   UNL     1       8.038   0.893   5.073  1.00  0.00     0.173 A 
ATOM     68  C   UNL     1       9.527  -0.530   6.308  1.00  0.00     0.173 A 
ATOM     69  F   UNL     1       6.989   1.079   4.258  1.00  0.00    -0.203 F 
ATOM     70  C   UNL     1       8.774   2.007   5.474  1.00  0.00     0.198 A 
ATOM     71  C   UNL     1      10.232   0.590   6.745  1.00  0.00     0.198 A 
ATOM     72  F   UNL     1       9.931  -1.740   6.722  1.00  0.00    -0.203 F 
ATOM     73  F   UNL     1       8.440   3.226   5.026  1.00  0.00    -0.200 F 
ATOM     74  C   UNL     1       9.866   1.855   6.314  1.00  0.00     0.200 A 
ATOM     75  F   UNL     1      11.272   0.443   7.577  1.00  0.00    -0.200 F 
ATOM     76  F   UNL     1      10.572   2.928   6.699  1.00  0.00    -0.200 F 
ENDBRANCH  52  66
BRANCH  53  77
ATOM     77  C   UNL     1       4.473  -9.174   2.392  1.00  0.00     0.064 A 
ATOM     78  C   UNL     1       3.068  -9.184   2.334  1.00  0.00     0.173 A 
ATOM     79  C   UNL     1       5.152 -10.268   1.834  1.00  0.00     0.173 A 
ATOM     80  F   UNL     1       2.368  -8.148   2.821  1.00  0.00    -0.203 F 
ATOM     81  C   UNL     1       2.375 -10.246   1.756  1.00  0.00     0.198 A 
ATOM     82  C   UNL     1       4.458 -11.307   1.216  1.00  0.00     0.198 A 
ATOM     83  F   UNL     1       6.493 -10.278   1.808  1.00  0.00    -0.203 F 
ATOM     84  F   UNL     1       1.035 -10.239   1.736  1.00  0.00    -0.200 F 
ATOM     85  C   UNL     1       3.071 -11.299   1.184  1.00  0.00     0.200 A 
ATOM     86  F   UNL     1       5.135 -12.293   0.613  1.00  0.00    -0.200 F 
ATOM     87  F   UNL     1       2.407 -12.297   0.586  1.00  0.00    -0.200 F 
ENDBRANCH  53  77
BRANCH  65  88
ATOM     88  C   UNL     1       4.664  -5.783   8.425  1.00  0.00     0.064 A 
ATOM     89  C   UNL     1       5.136  -6.920   9.103  1.00  0.00     0.173 A 
ATOM     90  C   UNL     1       3.692  -4.999   9.063  1.00  0.00     0.173 A 
ATOM     91  F   UNL     1       6.067  -7.706   8.540  1.00  0.00    -0.203 F 
ATOM     92  C   UNL     1       4.611  -7.290  10.337  1.00  0.00     0.198 A 
ATOM     93  C   UNL     1       3.203  -5.348  10.320  1.00  0.00     0.198 A 
ATOM     94  F   UNL     1       3.216  -3.893   8.472  1.00  0.00    -0.203 F 
ATOM     95  F   UNL     1       5.019  -8.425  10.923  1.00  0.00    -0.200 F 
ATOM     96  C   UNL     1       3.650  -6.501  10.947  1.00  0.00     0.200 A 
ATOM     97  F   UNL     1       2.292  -4.570  10.921  1.00  0.00    -0.200 F 
ATOM     98  F   UNL     1       3.145  -6.858  12.136  1.00  0.00    -0.200 F 
ENDBRANCH  65  88
ENDBRANCH  39  40
ENDBRANCH  32  34
ENDBRANCH  31  32
ENDBRANCH  30  31
ENDBRANCH   1  30
TORSDOF 16
