REMARK SMILES C[N@H+]1[C@H]2CC[C@@H]1CN(C(=O)NC(C)(C)CC(=O)OCCOC(=O)c1ccc(-c3c4nc(c(-c5c(F)c(F)c(F)c(F)c5F)c5ccc([nH]5)c(-c5c(F)c(F)c(F)c(F)c5F)c5nc(c(-c6c(F)c(F)c(F)c(F)c6F)c6ccc3[nH]6)C=C5)C=C4)cc1)CC2
REMARK SMILES IDX 18 1 16 2 17 3 15 4 12 5 13 6 14 7 11 8 9 9 10 10 8 12 7 13
REMARK SMILES IDX 6 14 1 15 2 16 3 17 4 19 5 21 87 22 88 23 19 25 20 26 21 27
REMARK SMILES IDX 22 28 23 29 24 30 25 31 86 32 26 33 85 34 27 35 28 36 29 37
REMARK SMILES IDX 79 38 30 39 84 40 78 41 80 42 31 43 83 44 77 45 76 46 32 48
REMARK SMILES IDX 64 49 44 50 63 51 45 52 48 53 62 54 81 55 46 56 47 57 61 59
REMARK SMILES IDX 82 60 49 61 33 62 34 63 42 64 35 65 36 66 40 67 43 68 37 69
REMARK SMILES IDX 38 70 41 71 39 72 65 73 66 74 74 75 67 76 68 77 72 78 75 79
REMARK SMILES IDX 69 80 70 81 73 82 71 83 50 84 51 85 59 86 52 87 53 88 57 89
REMARK SMILES IDX 60 90 54 91 55 92 58 93 56 94
REMARK H PARENT 11 11 2 18 80 47 48 58
REMARK Flexibility Score: 90.00
ROOT
ATOM      1  O   UNL     1      -2.019  -3.579   5.990  1.00  0.00    -0.462 OA
ENDROOT
BRANCH   1   2
ATOM      2  C   UNL     1      -1.451  -4.405   5.053  1.00  0.00     0.308 C 
ATOM      3  O   UNL     1      -2.036  -4.807   4.051  1.00  0.00    -0.252 OA
BRANCH   2   4
ATOM      4  C   UNL     1       0.025  -4.792   5.350  1.00  0.00     0.150 C 
BRANCH   4   5
ATOM      5  C   UNL     1       0.758  -3.863   6.296  1.00  0.00     0.047 C 
ATOM      6  C   UNL     1       2.294  -3.740   6.103  1.00  0.00     0.035 C 
ATOM      7  C   UNL     1       0.492  -4.282   7.750  1.00  0.00     0.035 C 
BRANCH   5   8
ATOM      8  N   UNL     1       0.236  -2.554   6.116  1.00  0.00    -0.333 N 
ATOM      9  C   UNL     1       0.167  -1.735   5.090  1.00  0.00     0.318 C 
ATOM     10  O   UNL     1       0.673  -0.722   5.606  1.00  0.00    -0.249 OA
ATOM     11  H   UNL     1      -0.160  -2.179   6.936  1.00  0.00     0.165 HD
BRANCH   9  12
ATOM     12  N   UNL     1      -0.395  -1.963   3.771  1.00  0.00    -0.319 N 
BRANCH  12  13
ATOM     13  C   UNL     1      -1.294  -0.841   2.832  1.00  0.00     0.186 C 
BRANCH  13  14
ATOM     14  C   UNL     1      -0.464   0.725   2.229  1.00  0.00     0.204 C 
ATOM     15  C   UNL     1       0.620  -0.453  -0.225  1.00  0.00     0.333 C 
ATOM     16  N   UNL     1       0.490  -0.581   1.228  1.00  0.00    -0.331 N 
ATOM     17  C   UNL     1       2.079  -0.803   1.948  1.00  0.00     0.186 CG0
ATOM     18  H   UNL     1      -0.124  -1.393   1.299  1.00  0.00     0.348 HD
ATOM     19  C   UNL     1       2.659   0.638   3.174  1.00  0.00     0.071 C 
ATOM     20  G   UNL     1       1.862  -2.296   2.459  1.00  0.00     0.000 G0
ATOM     21  C   UNL     1       1.035   1.865   3.490  1.00  0.00     0.073 C 
ENDBRANCH  13  14
ENDBRANCH  12  13
BRANCH  12  22
ATOM     22  C   UNL     1       0.390  -2.756   2.789  1.00  0.00     0.128 C 
BRANCH  22  23
ATOM     23  C   UNL     1       1.862  -2.296   2.459  1.00  0.00     0.086 CG0
ATOM     24  G   UNL     1       2.079  -0.803   1.948  1.00  0.00     0.000 G0
ENDBRANCH  22  23
ENDBRANCH  12  22
ENDBRANCH   9  12
ENDBRANCH   5   8
ENDBRANCH   4   5
ENDBRANCH   2   4
ENDBRANCH   1   2
BRANCH   1  25
ATOM     25  C   UNL     1      -3.245  -2.873   5.674  1.00  0.00     0.274 C 
BRANCH  25  26
ATOM     26  C   UNL     1      -3.223  -1.369   6.100  1.00  0.00     0.275 C 
BRANCH  26  27
ATOM     27  O   UNL     1      -2.388  -0.580   5.216  1.00  0.00    -0.458 OA
BRANCH  27  28
ATOM     28  C   UNL     1      -1.483   0.357   5.616  1.00  0.00     0.338 C 
ATOM     29  O   UNL     1      -1.413   0.823   6.740  1.00  0.00    -0.246 OA
BRANCH  28  30
ATOM     30  C   UNL     1      -0.674   0.879   4.382  1.00  0.00     0.060 A 
ATOM     31  C   UNL     1       0.706   0.171   3.404  1.00  0.00     0.016 A 
ATOM     32  C   UNL     1      -1.316   2.264   3.900  1.00  0.00     0.016 A 
ATOM     33  C   UNL     1       1.229   1.291   1.812  1.00  0.00     0.010 A 
ATOM     34  C   UNL     1      -0.851   3.112   2.635  1.00  0.00     0.010 A 
ATOM     35  C   UNL     1       0.331   2.723   1.610  1.00  0.00    -0.014 A 
BRANCH  35  36
ATOM     36  C   UNL     1       0.826   3.753   0.739  1.00  0.00     0.031 A 
ATOM     37  C   UNL     1       1.663   4.830   1.327  1.00  0.00     0.074 A 
ATOM     38  C   UNL     1       0.533   3.550  -0.543  1.00  0.00     0.049 A 
ATOM     39  N   UNL     1       2.454   5.653   0.708  1.00  0.00    -0.248 NA
ATOM     40  C   UNL     1       1.679   4.994   2.795  1.00  0.00     0.031 C 
ATOM     41  C   UNL     1      -0.343   2.490  -1.042  1.00  0.00     0.029 A 
ATOM     42  N   UNL     1       0.946   4.195  -1.654  1.00  0.00    -0.354 N 
ATOM     43  C   UNL     1       3.073   6.381   1.711  1.00  0.00     0.074 A 
ATOM     44  C   UNL     1       2.676   5.838   2.979  1.00  0.00     0.031 C 
ATOM     45  C   UNL     1      -0.305   2.478  -2.376  1.00  0.00     0.029 A 
ATOM     46  C   UNL     1       0.434   3.651  -2.799  1.00  0.00     0.049 A 
ATOM     47  H   UNL     1       1.550   4.972  -1.641  1.00  0.00     0.167 HD
ATOM     48  C   UNL     1       3.787   7.513   1.562  1.00  0.00     0.037 A 
ATOM     49  C   UNL     1       0.489   4.142  -4.041  1.00  0.00     0.037 A 
ATOM     50  C   UNL     1       3.855   8.153   0.282  1.00  0.00     0.049 A 
ATOM     51  C   UNL     1       1.196   5.455  -4.161  1.00  0.00     0.074 A 
ATOM     52  C   UNL     1       4.413   9.364  -0.053  1.00  0.00     0.029 A 
ATOM     53  N   UNL     1       3.242   7.645  -0.867  1.00  0.00    -0.354 N 
ATOM     54  N   UNL     1       1.799   6.146  -3.217  1.00  0.00    -0.248 NA
ATOM     55  C   UNL     1       1.199   6.085  -5.475  1.00  0.00     0.031 C 
ATOM     56  C   UNL     1       4.053   9.631  -1.377  1.00  0.00     0.029 A 
ATOM     57  C   UNL     1       3.385   8.531  -1.909  1.00  0.00     0.049 A 
ATOM     58  H   UNL     1       2.777   6.779  -0.921  1.00  0.00     0.167 HD
ATOM     59  C   UNL     1       2.269   7.293  -3.817  1.00  0.00     0.074 A 
ATOM     60  C   UNL     1       1.881   7.194  -5.218  1.00  0.00     0.031 C 
ATOM     61  C   UNL     1       2.959   8.329  -3.278  1.00  0.00     0.037 A 
BRANCH  48  62
ATOM     62  C   UNL     1       4.274   8.172   2.818  1.00  0.00     0.064 A 
ATOM     63  C   UNL     1       5.218   7.558   3.660  1.00  0.00     0.173 A 
ATOM     64  C   UNL     1       3.697   9.373   3.257  1.00  0.00     0.173 A 
ATOM     65  F   UNL     1       5.756   6.375   3.322  1.00  0.00    -0.203 F 
ATOM     66  C   UNL     1       5.537   8.103   4.902  1.00  0.00     0.198 A 
ATOM     67  C   UNL     1       4.051   9.938   4.479  1.00  0.00     0.198 A 
ATOM     68  F   UNL     1       2.751   9.979   2.523  1.00  0.00    -0.203 F 
ATOM     69  F   UNL     1       6.365   7.449   5.728  1.00  0.00    -0.200 F 
ATOM     70  C   UNL     1       4.960   9.297   5.306  1.00  0.00     0.200 A 
ATOM     71  F   UNL     1       3.486  11.089   4.871  1.00  0.00    -0.200 F 
ATOM     72  F   UNL     1       5.260   9.817   6.505  1.00  0.00    -0.200 F 
ENDBRANCH  48  62
BRANCH  49  73
ATOM     73  C   UNL     1      -0.221   3.445  -5.136  1.00  0.00     0.064 A 
ATOM     74  C   UNL     1       0.477   2.875  -6.203  1.00  0.00     0.173 A 
ATOM     75  C   UNL     1      -1.612   3.235  -5.080  1.00  0.00     0.173 A 
ATOM     76  F   UNL     1       1.806   3.032  -6.295  1.00  0.00    -0.203 F 
ATOM     77  C   UNL     1      -0.187   2.132  -7.179  1.00  0.00     0.198 A 
ATOM     78  C   UNL     1      -2.266   2.454  -6.027  1.00  0.00     0.198 A 
ATOM     79  F   UNL     1      -2.330   3.736  -4.062  1.00  0.00    -0.203 F 
ATOM     80  F   UNL     1       0.501   1.619  -8.208  1.00  0.00    -0.200 F 
ATOM     81  C   UNL     1      -1.554   1.912  -7.083  1.00  0.00     0.200 A 
ATOM     82  F   UNL     1      -3.577   2.208  -5.899  1.00  0.00    -0.200 F 
ATOM     83  F   UNL     1      -2.185   1.175  -8.007  1.00  0.00    -0.200 F 
ENDBRANCH  49  73
BRANCH  61  84
ATOM     84  C   UNL     1       3.412   9.376  -4.237  1.00  0.00     0.064 A 
ATOM     85  C   UNL     1       2.526  10.296  -4.807  1.00  0.00     0.173 A 
ATOM     86  C   UNL     1       4.786   9.513  -4.483  1.00  0.00     0.173 A 
ATOM     87  F   UNL     1       1.205  10.185  -4.599  1.00  0.00    -0.203 F 
ATOM     88  C   UNL     1       3.005  11.317  -5.614  1.00  0.00     0.198 A 
ATOM     89  C   UNL     1       5.263  10.567  -5.243  1.00  0.00     0.198 A 
ATOM     90  F   UNL     1       5.661   8.654  -3.938  1.00  0.00    -0.203 F 
ATOM     91  F   UNL     1       2.146  12.164  -6.195  1.00  0.00    -0.200 F 
ATOM     92  C   UNL     1       4.372  11.463  -5.815  1.00  0.00     0.200 A 
ATOM     93  F   UNL     1       6.583  10.727  -5.404  1.00  0.00    -0.200 F 
ATOM     94  F   UNL     1       4.833  12.474  -6.562  1.00  0.00    -0.200 F 
ENDBRANCH  61  84
ENDBRANCH  35  36
ENDBRANCH  28  30
ENDBRANCH  27  28
ENDBRANCH  26  27
ENDBRANCH  25  26
ENDBRANCH   1  25
TORSDOF 14
