REMARK SMILES O=C(OCCOC(=O)c1ccc(N2C(=O)/C(=C\C3=Cc4ccccc4OC3)SC2=S)cc1)c1ccc(-c2c3nc(c(-c4c(F)c(F)c(F)c(F)c4F)c4ccc([nH]4)c(-c4c(F)c(F)c(F)c(F)c4F)c4nc(c(-c5c(F)c(F)c(F)c(F)c5F)c5ccc2[nH]5)C=C4)C=C3)cc1
REMARK SMILES IDX 4 1 3 2 2 3 1 4 33 5 34 6 95 7 35 8 94 9 36 10 37 11 38 12
REMARK SMILES IDX 88 13 39 14 93 15 87 16 89 17 40 18 92 19 86 20 85 21 41 23
REMARK SMILES IDX 73 24 53 25 72 26 54 27 57 28 71 29 90 30 55 31 56 32 70 34
REMARK SMILES IDX 91 35 58 36 42 37 43 38 51 39 44 40 45 41 49 42 52 43 46 44
REMARK SMILES IDX 47 45 50 46 48 47 74 48 75 49 83 50 76 51 77 52 81 53 84 54
REMARK SMILES IDX 78 55 79 56 82 57 80 58 59 59 60 60 68 61 61 62 62 63 66 64
REMARK SMILES IDX 69 65 63 66 64 67 67 68 65 69 5 70 6 71 7 72 8 73 9 74 10 75
REMARK SMILES IDX 32 76 11 77 31 78 12 79 13 80 14 81 29 82 15 83 16 84 28 85
REMARK SMILES IDX 30 86 17 87 18 88 19 89 27 90 20 91 26 92 21 93 25 94 22 95
REMARK SMILES IDX 24 96 23 97
REMARK H PARENT 89 22 57 33
REMARK Flexibility Score: inf
ROOT
ATOM      1  C   UNL     1       4.064   0.488  -1.802  1.00  0.00     0.275 C 
ENDROOT
BRANCH   1   2
ATOM      2  O   UNL     1       3.030  -0.327  -1.244  1.00  0.00    -0.458 OA
BRANCH   2   3
ATOM      3  C   UNL     1       2.906  -0.798   0.015  1.00  0.00     0.338 C 
ATOM      4  O   UNL     1       1.919  -1.487   0.275  1.00  0.00    -0.246 OA
BRANCH   3   5
ATOM      5  C   UNL     1       3.856  -0.498   1.143  1.00  0.00     0.060 A 
ATOM      6  C   UNL     1       5.033   0.262   1.109  1.00  0.00     0.016 A 
ATOM      7  C   UNL     1       3.475  -1.009   2.387  1.00  0.00     0.016 A 
ATOM      8  C   UNL     1       5.748   0.586   2.270  1.00  0.00     0.010 A 
ATOM      9  C   UNL     1       4.186  -0.688   3.542  1.00  0.00     0.010 A 
ATOM     10  C   UNL     1       5.300   0.161   3.511  1.00  0.00    -0.014 A 
BRANCH  10  11
ATOM     11  C   UNL     1       5.981   0.581   4.768  1.00  0.00     0.031 A 
ATOM     12  C   UNL     1       6.481  -0.482   5.704  1.00  0.00     0.074 A 
ATOM     13  C   UNL     1       6.060   1.885   5.117  1.00  0.00     0.049 A 
ATOM     14  N   UNL     1       7.021  -0.360   6.889  1.00  0.00    -0.248 NA
ATOM     15  C   UNL     1       6.321  -1.876   5.258  1.00  0.00     0.031 C 
ATOM     16  C   UNL     1       5.530   3.014   4.344  1.00  0.00     0.029 A 
ATOM     17  N   UNL     1       6.569   2.486   6.246  1.00  0.00    -0.354 N 
ATOM     18  C   UNL     1       7.257  -1.659   7.318  1.00  0.00     0.074 A 
ATOM     19  C   UNL     1       6.688  -2.548   6.334  1.00  0.00     0.031 C 
ATOM     20  C   UNL     1       5.726   4.157   5.024  1.00  0.00     0.029 A 
ATOM     21  C   UNL     1       6.399   3.852   6.281  1.00  0.00     0.049 A 
ATOM     22  H   UNL     1       7.016   1.983   6.965  1.00  0.00     0.167 HD
ATOM     23  C   UNL     1       7.957  -2.080   8.395  1.00  0.00     0.037 A 
ATOM     24  C   UNL     1       6.751   4.751   7.221  1.00  0.00     0.037 A 
ATOM     25  C   UNL     1       8.545  -1.193   9.356  1.00  0.00     0.049 A 
ATOM     26  C   UNL     1       7.501   4.264   8.436  1.00  0.00     0.074 A 
ATOM     27  C   UNL     1       9.327  -1.498  10.452  1.00  0.00     0.029 A 
ATOM     28  N   UNL     1       8.403   0.188   9.327  1.00  0.00    -0.354 N 
ATOM     29  N   UNL     1       7.830   3.038   8.767  1.00  0.00    -0.248 NA
ATOM     30  C   UNL     1       7.958   5.285   9.390  1.00  0.00     0.031 C 
ATOM     31  C   UNL     1       9.633  -0.300  11.109  1.00  0.00     0.029 A 
ATOM     32  C   UNL     1       9.079   0.752  10.394  1.00  0.00     0.049 A 
ATOM     33  H   UNL     1       7.897   0.691   8.649  1.00  0.00     0.167 HD
ATOM     34  C   UNL     1       8.577   3.144   9.932  1.00  0.00     0.074 A 
ATOM     35  C   UNL     1       8.650   4.555  10.253  1.00  0.00     0.031 C 
ATOM     36  C   UNL     1       9.159   2.164  10.668  1.00  0.00     0.037 A 
BRANCH  23  37
ATOM     37  C   UNL     1       8.142  -3.563   8.536  1.00  0.00     0.064 A 
ATOM     38  C   UNL     1       8.909  -4.291   7.609  1.00  0.00     0.173 A 
ATOM     39  C   UNL     1       7.501  -4.274   9.558  1.00  0.00     0.173 A 
ATOM     40  F   UNL     1       9.525  -3.659   6.597  1.00  0.00    -0.203 F 
ATOM     41  C   UNL     1       8.976  -5.679   7.665  1.00  0.00     0.198 A 
ATOM     42  C   UNL     1       7.601  -5.662   9.633  1.00  0.00     0.198 A 
ATOM     43  F   UNL     1       6.759  -3.629  10.470  1.00  0.00    -0.203 F 
ATOM     44  F   UNL     1       9.638  -6.355   6.716  1.00  0.00    -0.200 F 
ATOM     45  C   UNL     1       8.323  -6.363   8.678  1.00  0.00     0.200 A 
ATOM     46  F   UNL     1       6.977  -6.324  10.616  1.00  0.00    -0.200 F 
ATOM     47  F   UNL     1       8.375  -7.702   8.723  1.00  0.00    -0.200 F 
ENDBRANCH  23  37
BRANCH  24  48
ATOM     48  C   UNL     1       6.471   6.203   7.036  1.00  0.00     0.064 A 
ATOM     49  C   UNL     1       7.513   7.111   6.793  1.00  0.00     0.173 A 
ATOM     50  C   UNL     1       5.172   6.722   7.138  1.00  0.00     0.173 A 
ATOM     51  F   UNL     1       8.777   6.668   6.704  1.00  0.00    -0.203 F 
ATOM     52  C   UNL     1       7.274   8.481   6.694  1.00  0.00     0.198 A 
ATOM     53  C   UNL     1       4.930   8.092   7.017  1.00  0.00     0.198 A 
ATOM     54  F   UNL     1       4.136   5.899   7.358  1.00  0.00    -0.203 F 
ATOM     55  F   UNL     1       8.299   9.326   6.516  1.00  0.00    -0.200 F 
ATOM     56  C   UNL     1       5.982   8.971   6.805  1.00  0.00     0.200 A 
ATOM     57  F   UNL     1       3.680   8.562   7.120  1.00  0.00    -0.200 F 
ATOM     58  F   UNL     1       5.754  10.289   6.720  1.00  0.00    -0.200 F 
ENDBRANCH  24  48
BRANCH  36  59
ATOM     59  C   UNL     1       9.981   2.586  11.848  1.00  0.00     0.064 A 
ATOM     60  C   UNL     1       9.394   3.076  13.022  1.00  0.00     0.173 A 
ATOM     61  C   UNL     1      11.377   2.434  11.820  1.00  0.00     0.173 A 
ATOM     62  F   UNL     1       8.066   3.254  13.089  1.00  0.00    -0.203 F 
ATOM     63  C   UNL     1      10.176   3.418  14.121  1.00  0.00     0.198 A 
ATOM     64  C   UNL     1      12.152   2.745  12.932  1.00  0.00     0.198 A 
ATOM     65  F   UNL     1      11.984   1.962  10.721  1.00  0.00    -0.203 F 
ATOM     66  F   UNL     1       9.599   3.925  15.219  1.00  0.00    -0.200 F 
ATOM     67  C   UNL     1      11.552   3.243  14.079  1.00  0.00     0.200 A 
ATOM     68  F   UNL     1      13.478   2.559  12.895  1.00  0.00    -0.200 F 
ATOM     69  F   UNL     1      12.301   3.557  15.144  1.00  0.00    -0.200 F 
ENDBRANCH  36  59
ENDBRANCH  10  11
ENDBRANCH   3   5
ENDBRANCH   2   3
ENDBRANCH   1   2
BRANCH   1  70
ATOM     70  C   UNL     1       3.865   1.992  -1.546  1.00  0.00     0.275 C 
BRANCH  70  71
ATOM     71  O   UNL     1       3.404   2.331  -0.216  1.00  0.00    -0.458 OA
BRANCH  71  72
ATOM     72  C   UNL     1       2.054   2.442  -0.079  1.00  0.00     0.338 C 
ATOM     73  O   UNL     1       1.234   2.275  -0.969  1.00  0.00    -0.246 OA
BRANCH  72  74
ATOM     74  C   UNL     1       1.653   2.738   1.326  1.00  0.00     0.060 A 
ATOM     75  C   UNL     1       0.510   2.122   1.845  1.00  0.00     0.018 A 
ATOM     76  C   UNL     1       2.325   3.661   2.123  1.00  0.00     0.018 A 
ATOM     77  C   UNL     1       0.037   2.429   3.140  1.00  0.00     0.028 A 
ATOM     78  C   UNL     1       1.841   3.966   3.417  1.00  0.00     0.028 A 
ATOM     79  C   UNL     1       0.673   3.377   3.956  1.00  0.00     0.051 A 
BRANCH  79  80
ATOM     80  N   UNL     1       0.212   3.688   5.305  1.00  0.00    -0.261 N 
ATOM     81  C   UNL     1      -0.427   2.736   6.122  1.00  0.00     0.270 C 
ATOM     82  C   UNL     1       0.248   4.963   5.864  1.00  0.00     0.152 C 
ATOM     83  O   UNL     1      -1.059   1.751   5.760  1.00  0.00    -0.268 OA
ATOM     84  C   UNL     1      -0.437   3.192   7.559  1.00  0.00     0.081 C 
ATOM     85  S   UNL     1      -0.367   4.926   7.521  1.00  0.00    -0.054 SA
ATOM     86  S   UNL     1       0.651   6.446   5.193  1.00  0.00    -0.051 S 
ATOM     87  C   UNL     1      -0.357   2.575   8.757  1.00  0.00     0.028 C 
BRANCH  87  88
ATOM     88  C   UNL     1      -0.021   1.203   9.197  1.00  0.00    -0.009 C 
ATOM     89  C   UNL     1      -0.084   0.080   8.453  1.00  0.00     0.019 C 
ATOM     90  C   UNL     1       1.299   1.213   9.986  1.00  0.00     0.265 C 
ATOM     91  C   UNL     1       1.046   0.131   7.492  1.00  0.00     0.017 A 
ATOM     92  O   UNL     1       2.396   1.446   9.071  1.00  0.00    -0.488 OA
ATOM     93  C   UNL     1       0.836  -0.346   6.206  1.00  0.00     0.012 A 
ATOM     94  C   UNL     1       2.171   0.931   7.809  1.00  0.00     0.127 A 
ATOM     95  C   UNL     1       1.607   0.188   5.191  1.00  0.00     0.001 A 
ATOM     96  C   UNL     1       2.965   1.422   6.793  1.00  0.00     0.047 A 
ATOM     97  C   UNL     1       2.621   1.109   5.483  1.00  0.00     0.004 A 
ENDBRANCH  87  88
ENDBRANCH  79  80
ENDBRANCH  72  74
ENDBRANCH  71  72
ENDBRANCH  70  71
ENDBRANCH   1  70
TORSDOF 13
