REMARK SMILES Cc1cc(/C=C2\C(=O)N(Cc3ccco3)C(=O)N=C2OCCOC(=O)c2ccc(-c3c4nc(c(-c5c(F)c(F)c(F)c(F)c5F)c5ccc([nH]5)c(-c5c(F)c(F)c(F)c(F)c5F)c5nc(c(-c6c(F)c(F)c(F)c(F)c6F)c6ccc3[nH]6)C=C5)C=C4)cc2)c(C)n1-c1ccc(Cl)c(C(=O)[O-])c1
REMARK SMILES IDX 21 1 20 2 19 3 5 4 6 5 7 6 8 7 9 8 18 9 16 10 17 11 4 12
REMARK SMILES IDX 1 13 2 14 3 15 91 16 89 17 90 18 92 19 93 20 101 21 94 22
REMARK SMILES IDX 97 23 95 24 96 25 98 26 99 27 100 28 10 29 11 30 12 31 15 32
REMARK SMILES IDX 13 33 14 34 22 35 23 36 24 37 25 38 26 39 27 40 88 41 28 42
REMARK SMILES IDX 87 43 29 44 30 45 31 46 81 47 32 48 86 49 80 50 82 51 33 52
REMARK SMILES IDX 85 53 79 54 78 55 34 57 66 58 46 59 65 60 47 61 50 62 64 63
REMARK SMILES IDX 83 64 48 65 49 66 63 68 84 69 51 70 35 71 36 72 44 73 37 74
REMARK SMILES IDX 38 75 42 76 45 77 39 78 40 79 43 80 41 81 67 82 68 83 76 84
REMARK SMILES IDX 69 85 70 86 74 87 77 88 71 89 72 90 75 91 73 92 52 93 53 94
REMARK SMILES IDX 61 95 54 96 55 97 59 98 62 99 56 100 57 101 60 102 58 103
REMARK H PARENT 82 56 50 67
REMARK Flexibility Score: inf
ROOT
ATOM      1  C   UNL     1      -4.521   7.790  -2.391  1.00  0.00     0.273 C 
ENDROOT
BRANCH   1   2
ATOM      2  O   UNL     1      -3.670   6.564  -2.235  1.00  0.00    -0.473 OA
BRANCH   2   3
ATOM      3  C   UNL     1      -2.344   6.827  -2.210  1.00  0.00     0.231 C 
ATOM      4  C   UNL     1      -1.563   4.474  -1.474  1.00  0.00     0.029 C 
ATOM      5  C   UNL     1      -1.349   5.762  -1.855  1.00  0.00     0.103 C 
ATOM      6  C   UNL     1       0.041   6.322  -1.919  1.00  0.00     0.267 C 
ATOM      7  O   UNL     1       1.018   5.666  -2.265  1.00  0.00    -0.268 OA
ATOM      8  N   UNL     1       0.090   7.646  -1.544  1.00  0.00    -0.250 N 
ATOM      9  N   UNL     1      -2.038   8.049  -2.411  1.00  0.00    -0.156 NA
ATOM     10  C   UNL     1      -0.901   8.552  -1.871  1.00  0.00     0.354 C 
ATOM     11  O   UNL     1      -0.842   9.724  -1.616  1.00  0.00    -0.245 OA
BRANCH   4  12
ATOM     12  C   UNL     1      -0.634   3.474  -0.921  1.00  0.00    -0.003 A 
ATOM     13  C   UNL     1       0.639  -0.001  -0.201  1.00  0.00     0.065 C 
ATOM     14  C   UNL     1       0.344   1.453  -0.403  1.00  0.00     0.020 A 
ATOM     15  C   UNL     1      -0.669   2.060  -1.140  1.00  0.00     0.031 A 
ATOM     16  N   UNL     1       1.033   2.455   0.259  1.00  0.00    -0.318 N 
ATOM     17  C   UNL     1       0.380   3.671   0.019  1.00  0.00     0.027 A 
ATOM     18  C   UNL     1       0.878   4.932   0.631  1.00  0.00     0.065 C 
BRANCH  16  19
ATOM     19  C   UNL     1       2.220   2.298   1.046  1.00  0.00     0.046 A 
ATOM     20  C   UNL     1       2.248   2.781   2.356  1.00  0.00     0.028 A 
ATOM     21  C   UNL     1       3.401   1.816   0.461  1.00  0.00     0.038 A 
ATOM     22  C   UNL     1       3.461   2.896   3.035  1.00  0.00     0.023 A 
ATOM     23  C   UNL     1       4.635   1.908   1.153  1.00  0.00     0.018 A 
ATOM     24  C   UNL     1       4.657   2.486   2.433  1.00  0.00     0.050 A 
ATOM     25  Cl  UNL     1       6.092   2.767   3.357  1.00  0.00    -0.084 Cl
BRANCH  23  26
ATOM     26  C   UNL     1       5.890   1.435   0.499  1.00  0.00     0.073 C 
ATOM     27  O   UNL     1       7.037   1.579   0.873  1.00  0.00    -0.545 OA
ATOM     28  O   UNL     1       5.648   0.755  -0.638  1.00  0.00    -0.545 OA
ENDBRANCH  23  26
ENDBRANCH  16  19
ENDBRANCH   4  12
BRANCH   8  29
ATOM     29  C   UNL     1       1.181   8.149  -0.747  1.00  0.00     0.206 C 
BRANCH  29  30
ATOM     30  C   UNL     1       2.125   8.961  -1.539  1.00  0.00     0.123 A 
ATOM     31  C   UNL     1       2.046  10.195  -2.149  1.00  0.00     0.047 A 
ATOM     32  O   UNL     1       3.377   8.449  -1.678  1.00  0.00    -0.467 OA
ATOM     33  C   UNL     1       3.315  10.438  -2.714  1.00  0.00     0.042 A 
ATOM     34  C   UNL     1       4.091   9.351  -2.394  1.00  0.00     0.195 A 
ENDBRANCH  29  30
ENDBRANCH   8  29
ENDBRANCH   2   3
ENDBRANCH   1   2
BRANCH   1  35
ATOM     35  C   UNL     1      -4.654   8.689  -1.085  1.00  0.00     0.274 C 
BRANCH  35  36
ATOM     36  O   UNL     1      -4.174  10.115  -1.072  1.00  0.00    -0.458 OA
BRANCH  36  37
ATOM     37  C   UNL     1      -3.828  10.633   0.178  1.00  0.00     0.338 C 
ATOM     38  O   UNL     1      -3.697   9.908   1.163  1.00  0.00    -0.246 OA
BRANCH  37  39
ATOM     39  C   UNL     1      -3.679  12.169   0.403  1.00  0.00     0.060 A 
ATOM     40  C   UNL     1      -2.485  12.850   0.160  1.00  0.00     0.016 A 
ATOM     41  C   UNL     1      -4.571  12.887   1.244  1.00  0.00     0.016 A 
ATOM     42  C   UNL     1      -2.225  14.177   0.711  1.00  0.00     0.010 A 
ATOM     43  C   UNL     1      -4.294  14.219   1.820  1.00  0.00     0.010 A 
ATOM     44  C   UNL     1      -3.096  14.920   1.587  1.00  0.00    -0.014 A 
BRANCH  44  45
ATOM     45  C   UNL     1      -2.438  16.056   2.540  1.00  0.00     0.031 A 
ATOM     46  C   UNL     1      -1.227  15.388   3.098  1.00  0.00     0.074 A 
ATOM     47  C   UNL     1      -2.597  17.354   3.054  1.00  0.00     0.049 A 
ATOM     48  N   UNL     1      -1.279  14.258   3.748  1.00  0.00    -0.248 NA
ATOM     49  C   UNL     1       0.115  15.818   2.700  1.00  0.00     0.031 C 
ATOM     50  C   UNL     1      -3.684  18.316   2.801  1.00  0.00     0.029 A 
ATOM     51  N   UNL     1      -1.784  18.153   3.943  1.00  0.00    -0.354 N 
ATOM     52  C   UNL     1       0.018  14.018   4.130  1.00  0.00     0.074 A 
ATOM     53  C   UNL     1       0.835  14.847   3.264  1.00  0.00     0.031 C 
ATOM     54  C   UNL     1      -3.440  19.530   3.382  1.00  0.00     0.029 A 
ATOM     55  C   UNL     1      -2.196  19.518   4.154  1.00  0.00     0.049 A 
ATOM     56  H   UNL     1      -0.985  17.782   4.383  1.00  0.00     0.167 HD
ATOM     57  C   UNL     1       0.239  13.684   5.432  1.00  0.00     0.037 A 
ATOM     58  C   UNL     1      -1.661  20.552   4.922  1.00  0.00     0.037 A 
ATOM     59  C   UNL     1       0.994  14.663   6.160  1.00  0.00     0.049 A 
ATOM     60  C   UNL     1      -0.735  20.003   5.927  1.00  0.00     0.074 A 
ATOM     61  C   UNL     1       2.099  15.441   5.881  1.00  0.00     0.029 A 
ATOM     62  N   UNL     1       0.365  15.263   7.231  1.00  0.00    -0.354 N 
ATOM     63  N   UNL     1      -1.177  19.498   7.037  1.00  0.00    -0.248 NA
ATOM     64  C   UNL     1       0.716  20.177   5.870  1.00  0.00     0.031 C 
ATOM     65  C   UNL     1       1.794  16.714   6.421  1.00  0.00     0.029 A 
ATOM     66  C   UNL     1       0.653  16.607   7.210  1.00  0.00     0.049 A 
ATOM     67  H   UNL     1      -0.195  14.806   7.899  1.00  0.00     0.167 HD
ATOM     68  C   UNL     1      -0.104  18.838   7.535  1.00  0.00     0.074 A 
ATOM     69  C   UNL     1       1.048  19.519   6.985  1.00  0.00     0.031 C 
ATOM     70  C   UNL     1      -0.306  17.521   7.777  1.00  0.00     0.037 A 
BRANCH  57  71
ATOM     71  C   UNL     1      -0.822  12.835   6.055  1.00  0.00     0.064 A 
ATOM     72  C   UNL     1      -0.549  11.494   6.330  1.00  0.00     0.173 A 
ATOM     73  C   UNL     1      -2.122  13.310   6.314  1.00  0.00     0.173 A 
ATOM     74  F   UNL     1       0.691  11.010   6.163  1.00  0.00    -0.203 F 
ATOM     75  C   UNL     1      -1.553  10.645   6.793  1.00  0.00     0.198 A 
ATOM     76  C   UNL     1      -3.132  12.451   6.730  1.00  0.00     0.198 A 
ATOM     77  F   UNL     1      -2.407  14.617   6.197  1.00  0.00    -0.203 F 
ATOM     78  F   UNL     1      -1.266   9.367   7.078  1.00  0.00    -0.200 F 
ATOM     79  C   UNL     1      -2.848  11.117   6.963  1.00  0.00     0.200 A 
ATOM     80  F   UNL     1      -4.372  12.923   6.921  1.00  0.00    -0.200 F 
ATOM     81  F   UNL     1      -3.816  10.290   7.380  1.00  0.00    -0.200 F 
ENDBRANCH  57  71
BRANCH  58  82
ATOM     82  C   UNL     1      -1.809  22.072   5.210  1.00  0.00     0.064 A 
ATOM     83  C   UNL     1      -1.609  22.598   6.536  1.00  0.00     0.173 A 
ATOM     84  C   UNL     1      -1.700  23.038   4.203  1.00  0.00     0.173 A 
ATOM     85  F   UNL     1      -1.743  21.826   7.622  1.00  0.00    -0.203 F 
ATOM     86  C   UNL     1      -1.199  23.914   6.804  1.00  0.00     0.198 A 
ATOM     87  C   UNL     1      -1.341  24.382   4.482  1.00  0.00     0.198 A 
ATOM     88  F   UNL     1      -1.843  22.683   2.920  1.00  0.00    -0.203 F 
ATOM     89  F   UNL     1      -0.887  24.282   8.058  1.00  0.00    -0.200 F 
ATOM     90  C   UNL     1      -1.051  24.806   5.772  1.00  0.00     0.200 A 
ATOM     91  F   UNL     1      -1.205  25.260   3.477  1.00  0.00    -0.200 F 
ATOM     92  F   UNL     1      -0.608  26.051   6.011  1.00  0.00    -0.200 F 
ENDBRANCH  58  82
BRANCH  70  93
ATOM     93  C   UNL     1      -1.669  17.150   8.366  1.00  0.00     0.064 A 
ATOM     94  C   UNL     1      -2.942  17.572   7.898  1.00  0.00     0.173 A 
ATOM     95  C   UNL     1      -1.681  16.396   9.546  1.00  0.00     0.173 A 
ATOM     96  F   UNL     1      -3.108  18.150   6.701  1.00  0.00    -0.203 F 
ATOM     97  C   UNL     1      -4.109  17.378   8.639  1.00  0.00     0.198 A 
ATOM     98  C   UNL     1      -2.861  16.139  10.248  1.00  0.00     0.198 A 
ATOM     99  F   UNL     1      -0.535  15.882  10.019  1.00  0.00    -0.203 F 
ATOM    100  F   UNL     1      -5.274  17.885   8.206  1.00  0.00    -0.200 F 
ATOM    101  C   UNL     1      -4.068  16.661   9.816  1.00  0.00     0.200 A 
ATOM    102  F   UNL     1      -2.822  15.380  11.351  1.00  0.00    -0.200 F 
ATOM    103  F   UNL     1      -5.189  16.450  10.520  1.00  0.00    -0.200 F 
ENDBRANCH  70  93
ENDBRANCH  44  45
ENDBRANCH  37  39
ENDBRANCH  36  37
ENDBRANCH  35  36
ENDBRANCH   1  35
TORSDOF 15
