REMARK SMILES Cc1nc2ccccc2n1CCC(=O)N1CC[C@H](O)C[C@@H]1C(=O)OCCOC(=O)c1ccc(-c2c3nc(c(-c4c(F)c(F)c(F)c(F)c4F)c4ccc([nH]4)c(-c4c(F)c(F)c(F)c(F)c4F)c4nc(c(-c5c(F)c(F)c(F)c(F)c5F)c5ccc2[nH]5)C=C4)C=C3)cc1
REMARK SMILES IDX 25 1 24 2 22 3 23 4 21 5 15 6 16 7 17 8 20 9 18 10 13 11
REMARK SMILES IDX 14 12 12 13 11 14 10 15 1 16 2 17 3 18 4 19 9 20 5 21 8 22
REMARK SMILES IDX 6 23 7 24 19 25 26 27 27 28 28 29 29 30 30 31 31 32 92 33
REMARK SMILES IDX 32 34 91 35 33 36 34 37 35 38 85 39 36 40 90 41 84 42 86 43
REMARK SMILES IDX 37 44 89 45 83 46 82 47 38 49 70 50 50 51 69 52 51 53 54 54
REMARK SMILES IDX 68 55 87 56 52 57 53 58 67 60 88 61 55 62 39 63 40 64 48 65
REMARK SMILES IDX 41 66 42 67 46 68 49 69 43 70 44 71 47 72 45 73 71 74 72 75
REMARK SMILES IDX 80 76 73 77 74 78 78 79 81 80 75 81 76 82 79 83 77 84 56 85
REMARK SMILES IDX 57 86 65 87 58 88 59 89 63 90 66 91 60 92 61 93 64 94 62 95
REMARK H PARENT 19 26 86 48 54 59
REMARK Flexibility Score: inf
ROOT
ATOM      1  C   UNL     1      -3.490  -2.526   0.523  1.00  0.00     0.274 C 
ENDROOT
BRANCH   1   2
ATOM      2  O   UNL     1      -2.358  -1.622   0.552  1.00  0.00    -0.461 OA
BRANCH   2   3
ATOM      3  C   UNL     1      -2.050  -0.838   1.627  1.00  0.00     0.329 C 
ATOM      4  O   UNL     1      -2.740  -0.820   2.634  1.00  0.00    -0.250 OA
BRANCH   3   5
ATOM      5  C   UNL     1      -0.776   0.088   1.369  1.00  0.00     0.197 C 
ATOM      6  N   UNL     1      -0.558   0.131  -0.065  1.00  0.00    -0.329 N 
ATOM      7  C   UNL     1       0.041  -1.091  -0.617  1.00  0.00     0.123 C 
ATOM      8  C   UNL     1       1.431  -1.386  -0.055  1.00  0.00     0.053 C 
ATOM      9  C   UNL     1       0.650   0.058   1.957  1.00  0.00     0.069 C 
ATOM     10  C   UNL     1       1.656  -0.968   1.395  1.00  0.00     0.118 C 
BRANCH   6  11
ATOM     11  C   UNL     1      -0.761   1.355  -0.663  1.00  0.00     0.225 C 
ATOM     12  O   UNL     1      -0.649   2.413  -0.038  1.00  0.00    -0.275 OA
BRANCH  11  13
ATOM     13  C   UNL     1      -1.255   1.401  -2.077  1.00  0.00     0.122 C 
BRANCH  13  14
ATOM     14  C   UNL     1      -0.177   1.872  -3.039  1.00  0.00     0.134 C 
BRANCH  14  15
ATOM     15  N   UNL     1       0.715   0.791  -3.420  1.00  0.00    -0.328 N 
ATOM     16  C   UNL     1       2.621   1.379  -1.857  1.00  0.00     0.088 C 
ATOM     17  C   UNL     1       1.918   0.485  -2.822  1.00  0.00     0.106 A 
ATOM     18  N   UNL     1       2.242  -0.771  -3.074  1.00  0.00    -0.234 NA
ATOM     19  C   UNL     1       1.247  -1.274  -3.878  1.00  0.00     0.089 A 
ATOM     20  C   UNL     1       0.337  -0.277  -4.208  1.00  0.00     0.068 A 
ATOM     21  C   UNL     1       1.007  -2.590  -4.303  1.00  0.00     0.030 A 
ATOM     22  C   UNL     1      -0.752  -0.496  -5.060  1.00  0.00     0.028 A 
ATOM     23  C   UNL     1      -0.094  -2.839  -5.132  1.00  0.00     0.002 A 
ATOM     24  C   UNL     1      -0.935  -1.800  -5.532  1.00  0.00     0.002 A 
ENDBRANCH  14  15
ENDBRANCH  13  14
ENDBRANCH  11  13
ENDBRANCH   6  11
BRANCH  10  25
ATOM     25  O   UNL     1       1.845  -2.080   2.259  1.00  0.00    -0.393 OA
ATOM     26  H   UNL     1       1.025  -2.595   2.308  1.00  0.00     0.210 HD
ENDBRANCH  10  25
ENDBRANCH   3   5
ENDBRANCH   2   3
ENDBRANCH   1   2
BRANCH   1  27
ATOM     27  C   UNL     1      -3.012  -3.987   0.534  1.00  0.00     0.275 C 
BRANCH  27  28
ATOM     28  O   UNL     1      -2.949  -4.429   1.904  1.00  0.00    -0.458 OA
BRANCH  28  29
ATOM     29  C   UNL     1      -1.718  -4.726   2.365  1.00  0.00     0.338 C 
ATOM     30  O   UNL     1      -0.772  -5.172   1.710  1.00  0.00    -0.246 OA
BRANCH  29  31
ATOM     31  C   UNL     1      -1.561  -3.895   3.566  1.00  0.00     0.060 A 
ATOM     32  C   UNL     1      -2.345  -3.903   4.714  1.00  0.00     0.016 A 
ATOM     33  C   UNL     1      -0.649  -2.882   3.387  1.00  0.00     0.016 A 
ATOM     34  C   UNL     1      -2.324  -2.774   5.564  1.00  0.00     0.010 A 
ATOM     35  C   UNL     1      -0.587  -1.824   4.267  1.00  0.00     0.010 A 
ATOM     36  C   UNL     1      -1.531  -1.657   5.257  1.00  0.00    -0.014 A 
BRANCH  36  37
ATOM     37  C   UNL     1      -1.365  -0.462   6.103  1.00  0.00     0.031 A 
ATOM     38  C   UNL     1      -0.347  -0.755   7.130  1.00  0.00     0.074 A 
ATOM     39  C   UNL     1      -1.771   0.830   5.987  1.00  0.00     0.049 A 
ATOM     40  N   UNL     1      -0.600  -1.359   8.238  1.00  0.00    -0.248 NA
ATOM     41  C   UNL     1       1.087  -0.634   6.822  1.00  0.00     0.031 C 
ATOM     42  C   UNL     1      -2.424   1.533   4.880  1.00  0.00     0.029 A 
ATOM     43  N   UNL     1      -1.652   1.834   6.928  1.00  0.00    -0.354 N 
ATOM     44  C   UNL     1       0.613  -1.447   8.891  1.00  0.00     0.074 A 
ATOM     45  C   UNL     1       1.617  -1.255   7.881  1.00  0.00     0.031 C 
ATOM     46  C   UNL     1      -2.511   2.864   5.149  1.00  0.00     0.029 A 
ATOM     47  C   UNL     1      -2.081   3.101   6.517  1.00  0.00     0.049 A 
ATOM     48  H   UNL     1      -1.289   1.669   7.828  1.00  0.00     0.167 HD
ATOM     49  C   UNL     1       0.637  -1.333  10.245  1.00  0.00     0.037 A 
ATOM     50  C   UNL     1      -2.138   4.236   7.271  1.00  0.00     0.037 A 
ATOM     51  C   UNL     1      -0.720  -1.345  10.762  1.00  0.00     0.049 A 
ATOM     52  C   UNL     1      -2.244   3.793   8.680  1.00  0.00     0.074 A 
ATOM     53  C   UNL     1      -1.768  -2.244  10.773  1.00  0.00     0.029 A 
ATOM     54  N   UNL     1      -1.264  -0.098  10.947  1.00  0.00    -0.354 N 
ATOM     55  N   UNL     1      -3.287   3.191   9.177  1.00  0.00    -0.248 NA
ATOM     56  C   UNL     1      -1.040   3.742   9.494  1.00  0.00     0.031 C 
ATOM     57  C   UNL     1      -2.957  -1.458  10.671  1.00  0.00     0.029 A 
ATOM     58  C   UNL     1      -2.605  -0.108  10.672  1.00  0.00     0.049 A 
ATOM     59  H   UNL     1      -0.759   0.695  11.238  1.00  0.00     0.167 HD
ATOM     60  C   UNL     1      -2.755   2.309  10.095  1.00  0.00     0.074 A 
ATOM     61  C   UNL     1      -1.418   2.818  10.380  1.00  0.00     0.031 C 
ATOM     62  C   UNL     1      -3.327   1.086  10.281  1.00  0.00     0.037 A 
BRANCH  49  63
ATOM     63  C   UNL     1       1.767  -0.729  11.048  1.00  0.00     0.064 A 
ATOM     64  C   UNL     1       1.646  -0.719  12.453  1.00  0.00     0.173 A 
ATOM     65  C   UNL     1       2.798   0.081  10.526  1.00  0.00     0.173 A 
ATOM     66  F   UNL     1       0.690  -1.436  13.063  1.00  0.00    -0.203 F 
ATOM     67  C   UNL     1       2.437   0.102  13.259  1.00  0.00     0.198 A 
ATOM     68  C   UNL     1       3.621   0.858  11.339  1.00  0.00     0.198 A 
ATOM     69  F   UNL     1       2.992   0.253   9.215  1.00  0.00    -0.203 F 
ATOM     70  F   UNL     1       2.193   0.174  14.574  1.00  0.00    -0.200 F 
ATOM     71  C   UNL     1       3.422   0.893  12.701  1.00  0.00     0.200 A 
ATOM     72  F   UNL     1       4.555   1.637  10.774  1.00  0.00    -0.200 F 
ATOM     73  F   UNL     1       4.144   1.723  13.463  1.00  0.00    -0.200 F 
ENDBRANCH  49  63
BRANCH  50  74
ATOM     74  C   UNL     1      -1.989   5.689   6.967  1.00  0.00     0.064 A 
ATOM     75  C   UNL     1      -2.358   6.678   7.907  1.00  0.00     0.173 A 
ATOM     76  C   UNL     1      -1.156   6.118   5.921  1.00  0.00     0.173 A 
ATOM     77  F   UNL     1      -3.129   6.363   8.959  1.00  0.00    -0.203 F 
ATOM     78  C   UNL     1      -1.865   7.989   7.843  1.00  0.00     0.198 A 
ATOM     79  C   UNL     1      -0.666   7.430   5.857  1.00  0.00     0.198 A 
ATOM     80  F   UNL     1      -0.714   5.245   5.006  1.00  0.00    -0.203 F 
ATOM     81  F   UNL     1      -2.168   8.869   8.809  1.00  0.00    -0.200 F 
ATOM     82  C   UNL     1      -1.002   8.357   6.828  1.00  0.00     0.200 A 
ATOM     83  F   UNL     1       0.198   7.770   4.890  1.00  0.00    -0.200 F 
ATOM     84  F   UNL     1      -0.460   9.584   6.812  1.00  0.00    -0.200 F 
ENDBRANCH  50  74
BRANCH  62  85
ATOM     85  C   UNL     1      -4.769   0.920   9.888  1.00  0.00     0.064 A 
ATOM     86  C   UNL     1      -5.269   1.011   8.578  1.00  0.00     0.173 A 
ATOM     87  C   UNL     1      -5.665   0.525  10.892  1.00  0.00     0.173 A 
ATOM     88  F   UNL     1      -4.472   1.329   7.550  1.00  0.00    -0.203 F 
ATOM     89  C   UNL     1      -6.605   0.723   8.294  1.00  0.00     0.198 A 
ATOM     90  C   UNL     1      -6.985   0.200  10.601  1.00  0.00     0.198 A 
ATOM     91  F   UNL     1      -5.240   0.403  12.160  1.00  0.00    -0.203 F 
ATOM     92  F   UNL     1      -7.063   0.819   7.037  1.00  0.00    -0.200 F 
ATOM     93  C   UNL     1      -7.456   0.301   9.303  1.00  0.00     0.200 A 
ATOM     94  F   UNL     1      -7.792  -0.243  11.575  1.00  0.00    -0.200 F 
ATOM     95  F   UNL     1      -8.724  -0.030   9.021  1.00  0.00    -0.200 F 
ENDBRANCH  62  85
ENDBRANCH  36  37
ENDBRANCH  29  31
ENDBRANCH  28  29
ENDBRANCH  27  28
ENDBRANCH   1  27
TORSDOF 16
