REMARK SMILES N#C/C(=C/c1cc2c(cc1Br)OCO2)C(=O)OCCOC(=O)c1ccc(-c2c3nc(c(-c4c(F)c(F)c(F)c(F)c4F)c4ccc([nH]4)c(-c4c(F)c(F)c(F)c(F)c4F)c4nc(c(-c5c(F)c(F)c(F)c(F)c5F)c5ccc2[nH]5)C=C4)C=C3)cc1
REMARK SMILES IDX 19 1 18 2 17 3 15 4 16 5 3 6 4 7 2 8 1 9 5 10 6 11 10 12
REMARK SMILES IDX 7 13 9 14 11 15 8 16 14 17 12 18 13 19 20 20 21 21 22 22
REMARK SMILES IDX 23 23 24 24 85 25 25 26 84 27 26 28 27 29 28 30 78 31 29 32
REMARK SMILES IDX 83 33 77 34 79 35 30 36 82 37 76 38 75 39 31 41 63 42 43 43
REMARK SMILES IDX 62 44 44 45 47 46 61 47 80 48 45 49 46 50 60 52 81 53 48 54
REMARK SMILES IDX 32 55 33 56 41 57 34 58 35 59 39 60 42 61 36 62 37 63 40 64
REMARK SMILES IDX 38 65 64 66 65 67 73 68 66 69 67 70 71 71 74 72 68 73 69 74
REMARK SMILES IDX 72 75 70 76 49 77 50 78 58 79 51 80 52 81 56 82 59 83 53 84
REMARK SMILES IDX 54 85 57 86 55 87
REMARK H PARENT 79 40 47 51
REMARK Flexibility Score: inf
ROOT
ATOM      1  C   UNL     1       6.117  -0.979   3.805  1.00  0.00     0.275 C 
ENDROOT
BRANCH   1   2
ATOM      2  C   UNL     1       6.374  -1.326   2.341  1.00  0.00     0.275 C 
BRANCH   2   3
ATOM      3  O   UNL     1       5.613  -0.463   1.473  1.00  0.00    -0.458 OA
BRANCH   3   4
ATOM      4  C   UNL     1       4.542  -1.024   0.858  1.00  0.00     0.349 C 
ATOM      5  O   UNL     1       4.151  -2.171   1.006  1.00  0.00    -0.245 OA
BRANCH   4   6
ATOM      6  C   UNL     1       3.860  -0.053  -0.030  1.00  0.00     0.138 C 
ATOM      7  C   UNL     1       4.524   0.631  -0.988  1.00  0.00     0.036 C 
BRANCH   6   8
ATOM      8  C   UNL     1       2.340  -0.053  -0.030  1.00  0.00     0.107 C 
ATOM      9  N   UNL     1       1.079  -0.053  -0.030  1.00  0.00    -0.192 NA
ENDBRANCH   6   8
BRANCH   7  10
ATOM     10  C   UNL     1       5.984   0.602  -1.213  1.00  0.00    -0.006 A 
ATOM     11  C   UNL     1       6.675   1.805  -0.991  1.00  0.00     0.060 A 
ATOM     12  C   UNL     1       6.718  -0.554  -1.593  1.00  0.00     0.029 A 
ATOM     13  C   UNL     1       8.051   1.798  -1.093  1.00  0.00     0.166 A 
ATOM     14  C   UNL     1       8.117  -0.536  -1.657  1.00  0.00     0.067 A 
ATOM     15  Br  UNL     1       5.869  -2.186  -2.085  1.00  0.00    -0.050 Br
ATOM     16  C   UNL     1       8.752   0.657  -1.396  1.00  0.00     0.166 A 
ATOM     17  O   UNL     1       8.866   2.870  -0.901  1.00  0.00    -0.454 OA
ATOM     18  O   UNL     1      10.096   0.861  -1.415  1.00  0.00    -0.454 OA
ATOM     19  C   UNL     1      10.161   2.272  -1.120  1.00  0.00     0.468 C 
ENDBRANCH   7  10
ENDBRANCH   4   6
ENDBRANCH   3   4
ENDBRANCH   2   3
ENDBRANCH   1   2
BRANCH   1  20
ATOM     20  O   UNL     1       4.743  -1.244   4.146  1.00  0.00    -0.458 OA
BRANCH  20  21
ATOM     21  C   UNL     1       3.936  -0.164   4.175  1.00  0.00     0.338 C 
ATOM     22  O   UNL     1       4.251   1.011   4.008  1.00  0.00    -0.246 OA
BRANCH  21  23
ATOM     23  C   UNL     1       2.538  -0.587   4.297  1.00  0.00     0.060 A 
ATOM     24  C   UNL     1       1.906  -1.058   3.155  1.00  0.00     0.016 A 
ATOM     25  C   UNL     1       1.799  -0.351   5.451  1.00  0.00     0.016 A 
ATOM     26  C   UNL     1       0.528  -1.183   3.105  1.00  0.00     0.010 A 
ATOM     27  C   UNL     1       0.419  -0.593   5.438  1.00  0.00     0.010 A 
ATOM     28  C   UNL     1      -0.237  -0.973   4.250  1.00  0.00    -0.014 A 
BRANCH  28  29
ATOM     29  C   UNL     1      -1.716  -1.079   4.164  1.00  0.00     0.031 A 
ATOM     30  C   UNL     1      -2.565   0.107   4.525  1.00  0.00     0.074 A 
ATOM     31  C   UNL     1      -2.303  -2.202   3.704  1.00  0.00     0.049 A 
ATOM     32  N   UNL     1      -3.851   0.169   4.751  1.00  0.00    -0.248 NA
ATOM     33  C   UNL     1      -1.868   1.396   4.665  1.00  0.00     0.031 C 
ATOM     34  C   UNL     1      -1.602  -3.388   3.207  1.00  0.00     0.029 A 
ATOM     35  N   UNL     1      -3.630  -2.523   3.558  1.00  0.00    -0.354 N 
ATOM     36  C   UNL     1      -4.101   1.477   5.144  1.00  0.00     0.074 A 
ATOM     37  C   UNL     1      -2.839   2.183   5.105  1.00  0.00     0.031 C 
ATOM     38  C   UNL     1      -2.499  -4.280   2.762  1.00  0.00     0.029 A 
ATOM     39  C   UNL     1      -3.837  -3.783   3.052  1.00  0.00     0.049 A 
ATOM     40  H   UNL     1      -4.362  -1.909   3.794  1.00  0.00     0.167 HD
ATOM     41  C   UNL     1      -5.282   2.024   5.518  1.00  0.00     0.037 A 
ATOM     42  C   UNL     1      -4.975  -4.484   2.893  1.00  0.00     0.037 A 
ATOM     43  C   UNL     1      -6.541   1.329   5.466  1.00  0.00     0.049 A 
ATOM     44  C   UNL     1      -6.268  -3.871   3.351  1.00  0.00     0.074 A 
ATOM     45  C   UNL     1      -7.798   1.786   5.818  1.00  0.00     0.029 A 
ATOM     46  N   UNL     1      -6.702   0.030   5.003  1.00  0.00    -0.354 N 
ATOM     47  N   UNL     1      -6.489  -2.675   3.841  1.00  0.00    -0.248 NA
ATOM     48  C   UNL     1      -7.465  -4.718   3.269  1.00  0.00     0.031 C 
ATOM     49  C   UNL     1      -8.716   0.753   5.599  1.00  0.00     0.029 A 
ATOM     50  C   UNL     1      -8.036  -0.335   5.072  1.00  0.00     0.049 A 
ATOM     51  H   UNL     1      -5.975  -0.547   4.675  1.00  0.00     0.167 HD
ATOM     52  C   UNL     1      -7.846  -2.622   4.119  1.00  0.00     0.074 A 
ATOM     53  C   UNL     1      -8.403  -3.899   3.722  1.00  0.00     0.031 C 
ATOM     54  C   UNL     1      -8.565  -1.611   4.664  1.00  0.00     0.037 A 
BRANCH  41  55
ATOM     55  C   UNL     1      -5.255   3.416   6.077  1.00  0.00     0.064 A 
ATOM     56  C   UNL     1      -5.046   4.546   5.275  1.00  0.00     0.173 A 
ATOM     57  C   UNL     1      -5.461   3.616   7.452  1.00  0.00     0.173 A 
ATOM     58  F   UNL     1      -4.826   4.409   3.959  1.00  0.00    -0.203 F 
ATOM     59  C   UNL     1      -5.019   5.823   5.832  1.00  0.00     0.198 A 
ATOM     60  C   UNL     1      -5.461   4.895   8.001  1.00  0.00     0.198 A 
ATOM     61  F   UNL     1      -5.666   2.568   8.264  1.00  0.00    -0.203 F 
ATOM     62  F   UNL     1      -4.770   6.886   5.055  1.00  0.00    -0.200 F 
ATOM     63  C   UNL     1      -5.233   5.997   7.192  1.00  0.00     0.200 A 
ATOM     64  F   UNL     1      -5.678   5.059   9.313  1.00  0.00    -0.200 F 
ATOM     65  F   UNL     1      -5.210   7.226   7.725  1.00  0.00    -0.200 F 
ENDBRANCH  41  55
BRANCH  42  66
ATOM     66  C   UNL     1      -4.929  -5.863   2.339  1.00  0.00     0.064 A 
ATOM     67  C   UNL     1      -5.500  -6.159   1.095  1.00  0.00     0.173 A 
ATOM     68  C   UNL     1      -4.308  -6.911   3.037  1.00  0.00     0.173 A 
ATOM     69  F   UNL     1      -6.133  -5.200   0.403  1.00  0.00    -0.203 F 
ATOM     70  C   UNL     1      -5.455  -7.450   0.570  1.00  0.00     0.198 A 
ATOM     71  C   UNL     1      -4.235  -8.193   2.497  1.00  0.00     0.198 A 
ATOM     72  F   UNL     1      -3.753  -6.685   4.237  1.00  0.00    -0.203 F 
ATOM     73  F   UNL     1      -6.043  -7.715  -0.604  1.00  0.00    -0.200 F 
ATOM     74  C   UNL     1      -4.813  -8.463   1.267  1.00  0.00     0.200 A 
ATOM     75  F   UNL     1      -3.602  -9.165   3.169  1.00  0.00    -0.200 F 
ATOM     76  F   UNL     1      -4.760  -9.701   0.757  1.00  0.00    -0.200 F 
ENDBRANCH  42  66
BRANCH  54  77
ATOM     77  C   UNL     1     -10.036  -1.841   4.831  1.00  0.00     0.064 A 
ATOM     78  C   UNL     1     -10.536  -2.676   5.839  1.00  0.00     0.173 A 
ATOM     79  C   UNL     1     -10.954  -1.195   3.990  1.00  0.00     0.173 A 
ATOM     80  F   UNL     1      -9.695  -3.329   6.655  1.00  0.00    -0.203 F 
ATOM     81  C   UNL     1     -11.906  -2.875   5.985  1.00  0.00     0.198 A 
ATOM     82  C   UNL     1     -12.323  -1.376   4.156  1.00  0.00     0.198 A 
ATOM     83  F   UNL     1     -10.522  -0.382   3.014  1.00  0.00    -0.203 F 
ATOM     84  F   UNL     1     -12.363  -3.712   6.927  1.00  0.00    -0.200 F 
ATOM     85  C   UNL     1     -12.798  -2.220   5.148  1.00  0.00     0.200 A 
ATOM     86  F   UNL     1     -13.184  -0.736   3.353  1.00  0.00    -0.200 F 
ATOM     87  F   UNL     1     -14.116  -2.410   5.293  1.00  0.00    -0.200 F 
ENDBRANCH  54  77
ENDBRANCH  28  29
ENDBRANCH  21  23
ENDBRANCH  20  21
ENDBRANCH   1  20
TORSDOF 13
