REMARK SMILES CN(Cc1ncc(C(=O)OCCOC(=O)c2ccc(-c3c4nc(c(-c5c(F)c(F)c(F)c(F)c5F)c5ccc([nH]5)c(-c5c(F)c(F)c(F)c(F)c5F)c5nc(c(-c6c(F)c(F)c(F)c(F)c6F)c6ccc3[nH]6)C=C5)C=C4)cc2)cn1)S(=O)(=O)c1ccc(Cl)cc1
REMARK SMILES IDX 11 1 10 2 8 3 9 4 7 5 4 6 5 7 80 8 6 9 79 10 3 11 2 12 1 13
REMARK SMILES IDX 81 14 82 15 83 16 84 17 85 18 90 19 86 20 89 21 87 22 88 23
REMARK SMILES IDX 12 24 13 25 14 26 15 27 16 28 17 29 78 30 18 31 77 32 19 33
REMARK SMILES IDX 20 34 21 35 71 36 22 37 76 38 70 39 72 40 23 41 75 42 69 43
REMARK SMILES IDX 68 44 24 46 56 47 36 48 55 49 37 50 40 51 54 52 73 53 38 54
REMARK SMILES IDX 39 55 53 57 74 58 41 59 25 60 26 61 34 62 27 63 28 64 32 65
REMARK SMILES IDX 35 66 29 67 30 68 33 69 31 70 57 71 58 72 66 73 59 74 60 75
REMARK SMILES IDX 64 76 67 77 61 78 62 79 65 80 63 81 42 82 43 83 51 84 44 85
REMARK SMILES IDX 45 86 49 87 52 88 46 89 47 90 50 91 48 92
REMARK H PARENT 72 45 40 56
REMARK Flexibility Score: inf
ROOT
ATOM      1  C   UNL     1      -2.416  -3.676   5.704  1.00  0.00     0.275 C 
ENDROOT
BRANCH   1   2
ATOM      2  O   UNL     1      -2.096  -2.935   4.506  1.00  0.00    -0.458 OA
BRANCH   2   3
ATOM      3  C   UNL     1      -3.002  -2.007   4.116  1.00  0.00     0.341 C 
ATOM      4  O   UNL     1      -4.054  -1.737   4.674  1.00  0.00    -0.246 OA
BRANCH   3   5
ATOM      5  C   UNL     1      -2.516  -1.241   2.960  1.00  0.00     0.096 A 
ATOM      6  C   UNL     1      -1.526   0.347   0.991  1.00  0.00     0.143 A 
ATOM      7  N   UNL     1      -1.124  -0.945   1.030  1.00  0.00    -0.239 NA
ATOM      8  N   UNL     1      -2.473   0.871   1.794  1.00  0.00    -0.239 NA
ATOM      9  C   UNL     1      -1.611  -1.706   2.039  1.00  0.00     0.130 A 
ATOM     10  C   UNL     1      -2.957   0.048   2.749  1.00  0.00     0.130 A 
BRANCH   6  11
ATOM     11  C   UNL     1      -0.814   1.297   0.038  1.00  0.00     0.179 C 
BRANCH  11  12
ATOM     12  N   UNL     1       0.665   1.473   0.223  1.00  0.00    -0.193 NA
ATOM     13  C   UNL     1       1.413   0.241  -0.144  1.00  0.00     0.125 C 
BRANCH  12  14
ATOM     14  S   UNL     1       1.179   2.107   1.723  1.00  0.00     0.243 S 
ATOM     15  O   UNL     1       0.582   1.333   2.792  1.00  0.00    -0.207 OA
ATOM     16  O   UNL     1       2.616   2.266   1.653  1.00  0.00    -0.207 OA
BRANCH  14  17
ATOM     17  C   UNL     1       0.485   3.747   1.787  1.00  0.00     0.082 A 
ATOM     18  C   UNL     1       1.209   4.818   1.249  1.00  0.00     0.023 A 
ATOM     19  C   UNL     1      -0.690   3.978   2.513  1.00  0.00     0.023 A 
ATOM     20  C   UNL     1       0.747   6.125   1.430  1.00  0.00     0.022 A 
ATOM     21  C   UNL     1      -1.150   5.287   2.685  1.00  0.00     0.022 A 
ATOM     22  C   UNL     1      -0.428   6.353   2.148  1.00  0.00     0.041 A 
ATOM     23  Cl  UNL     1      -0.978   7.965   2.393  1.00  0.00    -0.084 Cl
ENDBRANCH  14  17
ENDBRANCH  12  14
ENDBRANCH  11  12
ENDBRANCH   6  11
ENDBRANCH   3   5
ENDBRANCH   2   3
ENDBRANCH   1   2
BRANCH   1  24
ATOM     24  C   UNL     1      -1.622  -3.183   6.918  1.00  0.00     0.275 C 
BRANCH  24  25
ATOM     25  O   UNL     1      -2.024  -1.853   7.300  1.00  0.00    -0.458 OA
BRANCH  25  26
ATOM     26  C   UNL     1      -1.163  -0.876   6.933  1.00  0.00     0.338 C 
ATOM     27  O   UNL     1      -0.102  -1.007   6.349  1.00  0.00    -0.246 OA
BRANCH  26  28
ATOM     28  C   UNL     1      -1.742   0.446   7.210  1.00  0.00     0.060 A 
ATOM     29  C   UNL     1      -2.498   1.026   6.199  1.00  0.00     0.016 A 
ATOM     30  C   UNL     1      -1.401   1.188   8.338  1.00  0.00     0.016 A 
ATOM     31  C   UNL     1      -2.848   2.368   6.255  1.00  0.00     0.010 A 
ATOM     32  C   UNL     1      -1.837   2.519   8.440  1.00  0.00     0.010 A 
ATOM     33  C   UNL     1      -2.539   3.136   7.385  1.00  0.00    -0.014 A 
BRANCH  33  34
ATOM     34  C   UNL     1      -2.935   4.575   7.427  1.00  0.00     0.031 A 
ATOM     35  C   UNL     1      -1.898   5.654   7.606  1.00  0.00     0.074 A 
ATOM     36  C   UNL     1      -4.228   4.924   7.266  1.00  0.00     0.049 A 
ATOM     37  N   UNL     1      -2.063   6.941   7.791  1.00  0.00    -0.248 NA
ATOM     38  C   UNL     1      -0.490   5.230   7.585  1.00  0.00     0.031 C 
ATOM     39  C   UNL     1      -5.334   3.991   7.040  1.00  0.00     0.029 A 
ATOM     40  N   UNL     1      -4.835   6.158   7.255  1.00  0.00    -0.354 N 
ATOM     41  C   UNL     1      -0.789   7.470   7.959  1.00  0.00     0.074 A 
ATOM     42  C   UNL     1       0.139   6.362   7.869  1.00  0.00     0.031 C 
ATOM     43  C   UNL     1      -6.470   4.682   6.870  1.00  0.00     0.029 A 
ATOM     44  C   UNL     1      -6.197   6.099   7.077  1.00  0.00     0.049 A 
ATOM     45  H   UNL     1      -4.341   7.002   7.365  1.00  0.00     0.167 HD
ATOM     46  C   UNL     1      -0.428   8.760   8.170  1.00  0.00     0.037 A 
ATOM     47  C   UNL     1      -7.135   7.065   7.122  1.00  0.00     0.037 A 
ATOM     48  C   UNL     1      -1.353   9.865   8.216  1.00  0.00     0.049 A 
ATOM     49  C   UNL     1      -6.714   8.479   7.408  1.00  0.00     0.074 A 
ATOM     50  C   UNL     1      -1.082  11.211   8.401  1.00  0.00     0.029 A 
ATOM     51  N   UNL     1      -2.729   9.755   8.068  1.00  0.00    -0.354 N 
ATOM     52  N   UNL     1      -5.510   8.961   7.598  1.00  0.00    -0.248 NA
ATOM     53  C   UNL     1      -7.784   9.481   7.501  1.00  0.00     0.031 C 
ATOM     54  C   UNL     1      -2.296  11.905   8.425  1.00  0.00     0.029 A 
ATOM     55  C   UNL     1      -3.321  11.004   8.185  1.00  0.00     0.049 A 
ATOM     56  H   UNL     1      -3.213   8.914   7.903  1.00  0.00     0.167 HD
ATOM     57  C   UNL     1      -5.674  10.323   7.810  1.00  0.00     0.074 A 
ATOM     58  C   UNL     1      -7.093  10.593   7.704  1.00  0.00     0.031 C 
ATOM     59  C   UNL     1      -4.734  11.263   8.073  1.00  0.00     0.037 A 
BRANCH  46  60
ATOM     60  C   UNL     1       1.028   9.051   8.410  1.00  0.00     0.064 A 
ATOM     61  C   UNL     1       1.991   8.940   7.396  1.00  0.00     0.173 A 
ATOM     62  C   UNL     1       1.459   9.492   9.673  1.00  0.00     0.173 A 
ATOM     63  F   UNL     1       1.639   8.515   6.174  1.00  0.00    -0.203 F 
ATOM     64  C   UNL     1       3.332   9.228   7.645  1.00  0.00     0.198 A 
ATOM     65  C   UNL     1       2.793   9.813   9.908  1.00  0.00     0.198 A 
ATOM     66  F   UNL     1       0.581   9.628  10.678  1.00  0.00    -0.203 F 
ATOM     67  F   UNL     1       4.242   9.065   6.675  1.00  0.00    -0.200 F 
ATOM     68  C   UNL     1       3.731   9.671   8.897  1.00  0.00     0.200 A 
ATOM     69  F   UNL     1       3.171  10.260  11.114  1.00  0.00    -0.200 F 
ATOM     70  F   UNL     1       5.019   9.958   9.132  1.00  0.00    -0.200 F 
ENDBRANCH  46  60
BRANCH  47  71
ATOM     71  C   UNL     1      -8.570   6.717   6.937  1.00  0.00     0.064 A 
ATOM     72  C   UNL     1      -9.291   7.181   5.828  1.00  0.00     0.173 A 
ATOM     73  C   UNL     1      -9.251   5.915   7.866  1.00  0.00     0.173 A 
ATOM     74  F   UNL     1      -8.694   7.971   4.924  1.00  0.00    -0.203 F 
ATOM     75  C   UNL     1     -10.640   6.871   5.665  1.00  0.00     0.198 A 
ATOM     76  C   UNL     1     -10.589   5.574   7.682  1.00  0.00     0.198 A 
ATOM     77  F   UNL     1      -8.610   5.444   8.946  1.00  0.00    -0.203 F 
ATOM     78  F   UNL     1     -11.318   7.370   4.623  1.00  0.00    -0.200 F 
ATOM     79  C   UNL     1     -11.285   6.060   6.587  1.00  0.00     0.200 A 
ATOM     80  F   UNL     1     -11.201   4.774   8.566  1.00  0.00    -0.200 F 
ATOM     81  F   UNL     1     -12.579   5.753   6.424  1.00  0.00    -0.200 F 
ENDBRANCH  47  71
BRANCH  59  82
ATOM     82  C   UNL     1      -5.205  12.682   8.220  1.00  0.00     0.064 A 
ATOM     83  C   UNL     1      -5.957  13.101   9.327  1.00  0.00     0.173 A 
ATOM     84  C   UNL     1      -4.878  13.640   7.248  1.00  0.00     0.173 A 
ATOM     85  F   UNL     1      -6.312  12.221  10.275  1.00  0.00    -0.203 F 
ATOM     86  C   UNL     1      -6.392  14.419   9.440  1.00  0.00     0.198 A 
ATOM     87  C   UNL     1      -5.283  14.965   7.382  1.00  0.00     0.198 A 
ATOM     88  F   UNL     1      -4.156  13.294   6.172  1.00  0.00    -0.203 F 
ATOM     89  F   UNL     1      -7.159  14.784  10.476  1.00  0.00    -0.200 F 
ATOM     90  C   UNL     1      -6.048  15.351   8.472  1.00  0.00     0.200 A 
ATOM     91  F   UNL     1      -4.937  15.867   6.453  1.00  0.00    -0.200 F 
ATOM     92  F   UNL     1      -6.462  16.621   8.585  1.00  0.00    -0.200 F 
ENDBRANCH  59  82
ENDBRANCH  33  34
ENDBRANCH  26  28
ENDBRANCH  25  26
ENDBRANCH  24  25
ENDBRANCH   1  24
TORSDOF 15
