REMARK SMILES C[N@@H+](CCCCC(=O)OCCOC(=O)c1ccc(-c2c3nc(c(-c4c(F)c(F)c(F)c(F)c4F)c4ccc([nH]4)c(-c4c(F)c(F)c(F)c(F)c4F)c4nc(c(-c5c(F)c(F)c(F)c(F)c5F)c5ccc2[nH]5)C=C4)C=C3)cc1)CC(C)(C)O
REMARK SMILES IDX 7 1 8 2 6 3 5 4 4 5 3 6 2 7 1 8 78 10 79 11 80 12 81 13
REMARK SMILES IDX 82 14 9 16 10 17 11 18 12 19 13 20 14 21 15 22 16 23 77 24
REMARK SMILES IDX 17 25 76 26 18 27 19 28 20 29 70 30 21 31 75 32 69 33 71 34
REMARK SMILES IDX 22 35 74 36 68 37 67 38 23 40 55 41 35 42 54 43 36 44 39 45
REMARK SMILES IDX 53 46 72 47 37 48 38 49 52 51 73 52 40 53 24 54 25 55 33 56
REMARK SMILES IDX 26 57 27 58 31 59 34 60 28 61 29 62 32 63 30 64 56 65 57 66
REMARK SMILES IDX 65 67 58 68 59 69 63 70 66 71 60 72 61 73 64 74 62 75 41 76
REMARK SMILES IDX 42 77 50 78 43 79 44 80 48 81 51 82 45 83 46 84 49 85 47 86
REMARK H PARENT 2 9 82 15 71 39 39 50
REMARK Flexibility Score: inf
ROOT
ATOM      1  C   UNL     1      -3.624   3.368  -2.534  1.00  0.00     0.305 C 
ATOM      2  O   UNL     1      -4.054   4.364  -3.101  1.00  0.00    -0.252 OA
ENDROOT
BRANCH   1   3
ATOM      3  C   UNL     1      -2.158   3.051  -2.406  1.00  0.00     0.123 C 
BRANCH   3   4
ATOM      4  C   UNL     1      -1.761   2.739  -0.959  1.00  0.00     0.017 C 
BRANCH   4   5
ATOM      5  C   UNL     1      -1.610   1.245  -0.649  1.00  0.00     0.062 C 
BRANCH   5   6
ATOM      6  C   UNL     1      -0.460   0.528  -1.375  1.00  0.00     0.262 C 
BRANCH   6   7
ATOM      7  N   UNL     1       0.895   0.586  -0.821  1.00  0.00    -0.335 N 
ATOM      8  C   UNL     1       1.115  -0.340   0.271  1.00  0.00     0.332 C 
ATOM      9  H   UNL     1       1.474   0.221  -1.578  1.00  0.00     0.347 HD
BRANCH   7  10
ATOM     10  C   UNL     1       1.504   1.915  -0.685  1.00  0.00     0.296 C 
BRANCH  10  11
ATOM     11  C   UNL     1       1.549   2.694   0.681  1.00  0.00     0.108 C 
ATOM     12  C   UNL     1       2.634   2.172   1.630  1.00  0.00     0.048 C 
ATOM     13  C   UNL     1       1.824   4.180   0.396  1.00  0.00     0.048 C 
BRANCH  11  14
ATOM     14  O   UNL     1       0.294   2.625   1.361  1.00  0.00    -0.385 OA
ATOM     15  H   UNL     1       0.084   1.698   1.559  1.00  0.00     0.211 HD
ENDBRANCH  11  14
ENDBRANCH  10  11
ENDBRANCH   7  10
ENDBRANCH   6   7
ENDBRANCH   5   6
ENDBRANCH   4   5
ENDBRANCH   3   4
ENDBRANCH   1   3
BRANCH   1  16
ATOM     16  O   UNL     1      -4.376   2.417  -1.917  1.00  0.00    -0.462 OA
BRANCH  16  17
ATOM     17  C   UNL     1      -5.719   2.808  -1.584  1.00  0.00     0.274 C 
BRANCH  17  18
ATOM     18  C   UNL     1      -5.708   3.463  -0.202  1.00  0.00     0.275 C 
BRANCH  18  19
ATOM     19  O   UNL     1      -5.007   4.717  -0.284  1.00  0.00    -0.458 OA
BRANCH  19  20
ATOM     20  C   UNL     1      -4.410   5.129   0.856  1.00  0.00     0.338 C 
ATOM     21  O   UNL     1      -4.434   4.590   1.947  1.00  0.00    -0.246 OA
BRANCH  20  22
ATOM     22  C   UNL     1      -3.747   6.417   0.595  1.00  0.00     0.060 A 
ATOM     23  C   UNL     1      -2.564   6.477  -0.146  1.00  0.00     0.016 A 
ATOM     24  C   UNL     1      -4.297   7.571   1.152  1.00  0.00     0.016 A 
ATOM     25  C   UNL     1      -1.914   7.704  -0.317  1.00  0.00     0.010 A 
ATOM     26  C   UNL     1      -3.667   8.800   0.949  1.00  0.00     0.010 A 
ATOM     27  C   UNL     1      -2.461   8.875   0.229  1.00  0.00    -0.014 A 
BRANCH  27  28
ATOM     28  C   UNL     1      -1.776  10.187   0.091  1.00  0.00     0.031 A 
ATOM     29  C   UNL     1      -1.180  10.850   1.302  1.00  0.00     0.074 A 
ATOM     30  C   UNL     1      -1.734  10.810  -1.101  1.00  0.00     0.049 A 
ATOM     31  N   UNL     1      -0.687  12.056   1.432  1.00  0.00    -0.248 NA
ATOM     32  C   UNL     1      -1.142  10.048   2.534  1.00  0.00     0.031 C 
ATOM     33  C   UNL     1      -2.256  10.271  -2.355  1.00  0.00     0.029 A 
ATOM     34  N   UNL     1      -1.246  12.048  -1.444  1.00  0.00    -0.354 N 
ATOM     35  C   UNL     1      -0.307  12.168   2.763  1.00  0.00     0.074 A 
ATOM     36  C   UNL     1      -0.639  10.913   3.404  1.00  0.00     0.031 C 
ATOM     37  C   UNL     1      -2.066  11.174  -3.332  1.00  0.00     0.029 A 
ATOM     38  C   UNL     1      -1.458  12.373  -2.761  1.00  0.00     0.049 A 
ATOM     39  H   UNL     1      -0.789  12.643  -0.808  1.00  0.00     0.167 HD
ATOM     40  C   UNL     1       0.269  13.221   3.391  1.00  0.00     0.037 A 
ATOM     41  C   UNL     1      -1.220  13.521  -3.426  1.00  0.00     0.037 A 
ATOM     42  C   UNL     1       0.618  14.462   2.750  1.00  0.00     0.049 A 
ATOM     43  C   UNL     1      -0.624  14.693  -2.694  1.00  0.00     0.074 A 
ATOM     44  C   UNL     1       1.234  15.575   3.298  1.00  0.00     0.029 A 
ATOM     45  N   UNL     1       0.380  14.755   1.416  1.00  0.00    -0.354 N 
ATOM     46  N   UNL     1      -0.262  14.789  -1.438  1.00  0.00    -0.248 NA
ATOM     47  C   UNL     1      -0.410  15.921  -3.474  1.00  0.00     0.031 C 
ATOM     48  C   UNL     1       1.333  16.556   2.305  1.00  0.00     0.029 A 
ATOM     49  C   UNL     1       0.819  16.039   1.127  1.00  0.00     0.049 A 
ATOM     50  H   UNL     1      -0.038  14.143   0.768  1.00  0.00     0.167 HD
ATOM     51  C   UNL     1       0.237  16.074  -1.281  1.00  0.00     0.074 A 
ATOM     52  C   UNL     1       0.147  16.719  -2.574  1.00  0.00     0.031 C 
ATOM     53  C   UNL     1       0.726  16.667  -0.165  1.00  0.00     0.037 A 
BRANCH  40  54
ATOM     54  C   UNL     1       0.542  13.086   4.860  1.00  0.00     0.064 A 
ATOM     55  C   UNL     1       1.577  12.274   5.345  1.00  0.00     0.173 A 
ATOM     56  C   UNL     1      -0.218  13.810   5.791  1.00  0.00     0.173 A 
ATOM     57  F   UNL     1       2.325  11.553   4.496  1.00  0.00    -0.203 F 
ATOM     58  C   UNL     1       1.827  12.174   6.712  1.00  0.00     0.198 A 
ATOM     59  C   UNL     1       0.051  13.727   7.155  1.00  0.00     0.198 A 
ATOM     60  F   UNL     1      -1.216  14.605   5.378  1.00  0.00    -0.203 F 
ATOM     61  F   UNL     1       2.795  11.361   7.156  1.00  0.00    -0.200 F 
ATOM     62  C   UNL     1       1.068  12.905   7.614  1.00  0.00     0.200 A 
ATOM     63  F   UNL     1      -0.676  14.442   8.024  1.00  0.00    -0.200 F 
ATOM     64  F   UNL     1       1.314  12.811   8.928  1.00  0.00    -0.200 F 
ENDBRANCH  40  54
BRANCH  41  65
ATOM     65  C   UNL     1      -1.568  13.626  -4.866  1.00  0.00     0.064 A 
ATOM     66  C   UNL     1      -0.567  13.695  -5.844  1.00  0.00     0.173 A 
ATOM     67  C   UNL     1      -2.903  13.667  -5.292  1.00  0.00     0.173 A 
ATOM     68  F   UNL     1       0.725  13.689  -5.481  1.00  0.00    -0.203 F 
ATOM     69  C   UNL     1      -0.888  13.814  -7.194  1.00  0.00     0.198 A 
ATOM     70  C   UNL     1      -3.224  13.759  -6.645  1.00  0.00     0.198 A 
ATOM     71  F   UNL     1      -3.897  13.609  -4.394  1.00  0.00    -0.203 F 
ATOM     72  F   UNL     1       0.088  13.921  -8.106  1.00  0.00    -0.200 F 
ATOM     73  C   UNL     1      -2.216  13.839  -7.594  1.00  0.00     0.200 A 
ATOM     74  F   UNL     1      -4.508  13.775  -7.028  1.00  0.00    -0.200 F 
ATOM     75  F   UNL     1      -2.524  13.950  -8.893  1.00  0.00    -0.200 F 
ENDBRANCH  41  65
BRANCH  53  76
ATOM     76  C   UNL     1       1.228  18.075  -0.298  1.00  0.00     0.064 A 
ATOM     77  C   UNL     1       0.349  19.158  -0.433  1.00  0.00     0.173 A 
ATOM     78  C   UNL     1       2.604  18.345  -0.252  1.00  0.00     0.173 A 
ATOM     79  F   UNL     1      -0.975  18.949  -0.498  1.00  0.00    -0.203 F 
ATOM     80  C   UNL     1       0.830  20.461  -0.540  1.00  0.00     0.198 A 
ATOM     81  C   UNL     1       3.081  19.651  -0.334  1.00  0.00     0.198 A 
ATOM     82  F   UNL     1       3.486  17.343  -0.119  1.00  0.00    -0.203 F 
ATOM     83  F   UNL     1      -0.026  21.477  -0.711  1.00  0.00    -0.200 F 
ATOM     84  C   UNL     1       2.194  20.706  -0.484  1.00  0.00     0.200 A 
ATOM     85  F   UNL     1       4.398  19.887  -0.270  1.00  0.00    -0.200 F 
ATOM     86  F   UNL     1       2.655  21.961  -0.582  1.00  0.00    -0.200 F 
ENDBRANCH  53  76
ENDBRANCH  27  28
ENDBRANCH  20  22
ENDBRANCH  19  20
ENDBRANCH  18  19
ENDBRANCH  17  18
ENDBRANCH  16  17
ENDBRANCH   1  16
TORSDOF 18
