REMARK SMILES Cc1coc2c(C)c3oc(=O)c(CC(=O)NCC(=O)N[C@H](C(=O)OCCOC(=O)c4ccc(-c5c6nc(c(-c7c(F)c(F)c(F)c(F)c7F)c7ccc([nH]7)c(-c7c(F)c(F)c(F)c(F)c7F)c7nc(c(-c8c(F)c(F)c(F)c(F)c8F)c8ccc5[nH]8)C=C7)C=C6)cc4)C(C)C)c(C)c3cc12
REMARK SMILES IDX 24 1 22 2 23 3 21 4 20 5 18 6 19 7 17 9 16 10 14 11 15 12
REMARK SMILES IDX 13 14 12 15 1 16 2 17 3 18 100 19 4 20 5 21 99 22 6 23 98 24
REMARK SMILES IDX 7 25 8 26 96 27 9 28 97 29 10 30 11 31 93 32 94 33 95 34
REMARK SMILES IDX 25 35 26 36 27 37 28 38 29 39 30 40 31 41 92 42 32 43 91 44
REMARK SMILES IDX 33 45 34 46 35 47 85 48 36 49 90 50 84 51 86 52 37 53 89 54
REMARK SMILES IDX 83 55 82 56 38 58 70 59 50 60 69 61 51 62 54 63 68 64 87 65
REMARK SMILES IDX 52 66 53 67 67 69 88 70 55 71 39 72 40 73 48 74 41 75 42 76
REMARK SMILES IDX 46 77 49 78 43 79 44 80 47 81 45 82 71 83 72 84 80 85 73 86
REMARK SMILES IDX 74 87 78 88 81 89 75 90 76 91 79 92 77 93 56 94 57 95 65 96
REMARK SMILES IDX 58 97 59 98 63 99 66 100 60 101 61 102 64 103 62 104
REMARK H PARENT 20 8 16 13 86 57 54 68
REMARK Flexibility Score: inf
ROOT
ATOM      1  O   UNL     1      -0.657  -0.411   7.993  1.00  0.00    -0.461 OA
ENDROOT
BRANCH   1   2
ATOM      2  C   UNL     1      -0.520   0.798   7.332  1.00  0.00     0.329 C 
ATOM      3  O   UNL     1       0.000   1.763   7.896  1.00  0.00    -0.250 OA
BRANCH   2   4
ATOM      4  C   UNL     1      -1.079   0.953   5.663  1.00  0.00     0.194 C 
BRANCH   4   5
ATOM      5  N   UNL     1      -0.041   1.892   5.070  1.00  0.00    -0.341 N 
ATOM      6  C   UNL     1       1.164   1.693   4.443  1.00  0.00     0.240 C 
ATOM      7  O   UNL     1       1.688   2.663   3.888  1.00  0.00    -0.273 OA
ATOM      8  H   UNL     1      -0.284   2.842   5.153  1.00  0.00     0.164 HD
BRANCH   6   9
ATOM      9  C   UNL     1       1.765   0.292   4.254  1.00  0.00     0.216 C 
BRANCH   9  10
ATOM     10  N   UNL     1       1.784  -0.313   5.530  1.00  0.00    -0.347 N 
ATOM     11  C   UNL     1       1.113  -1.091   6.340  1.00  0.00     0.225 C 
ATOM     12  O   UNL     1       1.721  -0.784   7.388  1.00  0.00    -0.275 OA
ATOM     13  H   UNL     1       2.619  -0.049   5.981  1.00  0.00     0.164 HD
BRANCH  11  14
ATOM     14  C   UNL     1      -0.202  -2.134   6.297  1.00  0.00     0.143 C 
BRANCH  14  15
ATOM     15  C   UNL     1      -1.348  -1.765   5.523  1.00  0.00     0.051 A 
ATOM     16  C   UNL     1      -7.061   2.530   6.167  1.00  0.00     0.048 C 
ATOM     17  C   UNL     1      -6.533   2.205   4.816  1.00  0.00    -0.005 A 
ATOM     18  C   UNL     1      -7.011   2.561   3.579  1.00  0.00     0.199 A 
ATOM     19  C   UNL     1      -5.395   1.390   4.561  1.00  0.00     0.024 A 
ATOM     20  O   UNL     1      -6.248   2.041   2.583  1.00  0.00    -0.464 OA
ATOM     21  C   UNL     1      -5.255   1.283   3.152  1.00  0.00     0.140 A 
ATOM     22  C   UNL     1      -4.564   0.774   5.511  1.00  0.00     0.024 A 
ATOM     23  C   UNL     1      -4.308   0.557   2.374  1.00  0.00     0.036 A 
ATOM     24  C   UNL     1      -3.621  -0.024   4.970  1.00  0.00     0.022 A 
ATOM     25  C   UNL     1      -4.123   0.603   0.906  1.00  0.00     0.052 C 
ATOM     26  C   UNL     1      -3.523  -0.118   3.271  1.00  0.00     0.145 A 
ATOM     27  C   UNL     1      -2.565  -1.030   6.076  1.00  0.00    -0.029 A 
ATOM     28  O   UNL     1      -2.155  -1.166   2.645  1.00  0.00    -0.422 OA
ATOM     29  C   UNL     1      -3.163  -1.165   7.456  1.00  0.00     0.046 C 
ATOM     30  C   UNL     1      -1.018  -2.128   3.637  1.00  0.00     0.340 A 
ATOM     31  O   UNL     1      -0.130  -2.817   3.149  1.00  0.00    -0.246 OA
ENDBRANCH  14  15
ENDBRANCH  11  14
ENDBRANCH   9  10
ENDBRANCH   6   9
ENDBRANCH   4   5
BRANCH   4  32
ATOM     32  C   UNL     1      -1.599  -0.181   4.256  1.00  0.00     0.017 C 
ATOM     33  C   UNL     1      -2.932  -1.892   4.204  1.00  0.00     0.010 C 
ATOM     34  C   UNL     1      -1.301   0.917   2.884  1.00  0.00     0.010 C 
ENDBRANCH   4  32
ENDBRANCH   2   4
ENDBRANCH   1   2
BRANCH   1  35
ATOM     35  C   UNL     1       0.214  -1.098   9.132  1.00  0.00     0.274 C 
BRANCH  35  36
ATOM     36  C   UNL     1       1.031  -2.656   8.853  1.00  0.00     0.275 C 
BRANCH  36  37
ATOM     37  O   UNL     1       2.318  -2.859   8.007  1.00  0.00    -0.458 OA
BRANCH  37  38
ATOM     38  C   UNL     1       2.386  -3.344   6.722  1.00  0.00     0.338 C 
ATOM     39  O   UNL     1       1.480  -3.882   6.102  1.00  0.00    -0.246 OA
BRANCH  38  40
ATOM     40  C   UNL     1       3.654  -3.318   5.931  1.00  0.00     0.060 A 
ATOM     41  C   UNL     1       3.361  -3.306   4.530  1.00  0.00     0.016 A 
ATOM     42  C   UNL     1       4.376  -4.390   6.450  1.00  0.00     0.016 A 
ATOM     43  C   UNL     1       3.143  -4.524   3.914  1.00  0.00     0.010 A 
ATOM     44  C   UNL     1       4.301  -5.597   5.783  1.00  0.00     0.010 A 
ATOM     45  C   UNL     1       3.583  -5.671   4.582  1.00  0.00    -0.014 A 
BRANCH  45  46
ATOM     46  C   UNL     1       3.675  -6.889   3.806  1.00  0.00     0.031 A 
ATOM     47  C   UNL     1       4.497  -6.598   2.593  1.00  0.00     0.074 A 
ATOM     48  C   UNL     1       3.236  -8.063   4.295  1.00  0.00     0.049 A 
ATOM     49  N   UNL     1       4.120  -6.644   1.358  1.00  0.00    -0.248 NA
ATOM     50  C   UNL     1       5.742  -5.810   2.790  1.00  0.00     0.031 C 
ATOM     51  C   UNL     1       2.562  -8.341   5.566  1.00  0.00     0.029 A 
ATOM     52  N   UNL     1       3.467  -9.307   3.802  1.00  0.00    -0.354 N 
ATOM     53  C   UNL     1       5.188  -6.114   0.637  1.00  0.00     0.074 A 
ATOM     54  C   UNL     1       5.957  -5.343   1.562  1.00  0.00     0.031 C 
ATOM     55  C   UNL     1       2.703  -9.653   5.873  1.00  0.00     0.029 A 
ATOM     56  C   UNL     1       3.363 -10.315   4.767  1.00  0.00     0.049 A 
ATOM     57  H   UNL     1       3.686  -9.482   2.858  1.00  0.00     0.167 HD
ATOM     58  C   UNL     1       5.560  -6.687  -0.538  1.00  0.00     0.037 A 
ATOM     59  C   UNL     1       3.930 -11.541   4.616  1.00  0.00     0.037 A 
ATOM     60  C   UNL     1       4.449  -7.425  -1.091  1.00  0.00     0.049 A 
ATOM     61  C   UNL     1       4.203 -11.685   3.148  1.00  0.00     0.074 A 
ATOM     62  C   UNL     1       3.179  -7.056  -1.494  1.00  0.00     0.029 A 
ATOM     63  N   UNL     1       4.388  -8.772  -0.809  1.00  0.00    -0.354 N 
ATOM     64  N   UNL     1       3.243 -11.717   2.255  1.00  0.00    -0.248 NA
ATOM     65  C   UNL     1       5.490 -11.185   2.666  1.00  0.00     0.031 C 
ATOM     66  C   UNL     1       2.321  -8.071  -0.978  1.00  0.00     0.029 A 
ATOM     67  C   UNL     1       3.109  -9.071  -0.407  1.00  0.00     0.049 A 
ATOM     68  H   UNL     1       5.133  -9.411  -0.884  1.00  0.00     0.167 HD
ATOM     69  C   UNL     1       3.671 -10.860   1.245  1.00  0.00     0.074 A 
ATOM     70  C   UNL     1       5.078 -10.585   1.541  1.00  0.00     0.031 C 
ATOM     71  C   UNL     1       2.783 -10.189   0.451  1.00  0.00     0.037 A 
BRANCH  58  72
ATOM     72  C   UNL     1       7.004  -6.972  -0.895  1.00  0.00     0.064 A 
ATOM     73  C   UNL     1       7.269  -7.588  -2.132  1.00  0.00     0.173 A 
ATOM     74  C   UNL     1       8.095  -6.951   0.009  1.00  0.00     0.173 A 
ATOM     75  F   UNL     1       6.319  -7.660  -3.076  1.00  0.00    -0.203 F 
ATOM     76  C   UNL     1       8.484  -8.226  -2.394  1.00  0.00     0.198 A 
ATOM     77  C   UNL     1       9.316  -7.554  -0.271  1.00  0.00     0.198 A 
ATOM     78  F   UNL     1       8.023  -6.443   1.241  1.00  0.00    -0.203 F 
ATOM     79  F   UNL     1       8.640  -8.909  -3.535  1.00  0.00    -0.200 F 
ATOM     80  C   UNL     1       9.501  -8.222  -1.457  1.00  0.00     0.200 A 
ATOM     81  F   UNL     1      10.280  -7.546   0.662  1.00  0.00    -0.200 F 
ATOM     82  F   UNL     1      10.639  -8.892  -1.677  1.00  0.00    -0.200 F 
ENDBRANCH  58  72
BRANCH  59  83
ATOM     83  C   UNL     1       4.575 -12.381   5.657  1.00  0.00     0.064 A 
ATOM     84  C   UNL     1       4.825 -13.748   5.456  1.00  0.00     0.173 A 
ATOM     85  C   UNL     1       5.185 -11.800   6.788  1.00  0.00     0.173 A 
ATOM     86  F   UNL     1       4.325 -14.371   4.379  1.00  0.00    -0.203 F 
ATOM     87  C   UNL     1       5.639 -14.485   6.328  1.00  0.00     0.198 A 
ATOM     88  C   UNL     1       5.995 -12.535   7.657  1.00  0.00     0.198 A 
ATOM     89  F   UNL     1       5.080 -10.485   7.026  1.00  0.00    -0.203 F 
ATOM     90  F   UNL     1       5.889 -15.779   6.080  1.00  0.00    -0.200 F 
ATOM     91  C   UNL     1       6.230 -13.876   7.423  1.00  0.00     0.200 A 
ATOM     92  F   UNL     1       6.590 -11.921   8.691  1.00  0.00    -0.200 F 
ATOM     93  F   UNL     1       7.051 -14.566   8.227  1.00  0.00    -0.200 F 
ENDBRANCH  59  83
BRANCH  71  94
ATOM     94  C   UNL     1       1.313 -10.494   0.595  1.00  0.00     0.064 A 
ATOM     95  C   UNL     1       0.536 -10.149   1.716  1.00  0.00     0.173 A 
ATOM     96  C   UNL     1       0.628 -10.938  -0.541  1.00  0.00     0.173 A 
ATOM     97  F   UNL     1       1.099  -9.625   2.809  1.00  0.00    -0.203 F 
ATOM     98  C   UNL     1      -0.855 -10.261   1.705  1.00  0.00     0.198 A 
ATOM     99  C   UNL     1      -0.762 -11.017  -0.564  1.00  0.00     0.198 A 
ATOM    100  F   UNL     1       1.308 -11.221  -1.662  1.00  0.00    -0.203 F 
ATOM    101  F   UNL     1      -1.569  -9.912   2.786  1.00  0.00    -0.200 F 
ATOM    102  C   UNL     1      -1.503 -10.685   0.559  1.00  0.00     0.200 A 
ATOM    103  F   UNL     1      -1.386 -11.374  -1.694  1.00  0.00    -0.200 F 
ATOM    104  F   UNL     1      -2.842 -10.743   0.524  1.00  0.00    -0.200 F 
ENDBRANCH  71  94
ENDBRANCH  45  46
ENDBRANCH  38  40
ENDBRANCH  37  38
ENDBRANCH  36  37
ENDBRANCH  35  36
ENDBRANCH   1  35
TORSDOF 17
