REMARK SMILES COc1cc(CC(=O)N[C@@H](CC(=O)OCCOC(=O)c2ccc(-c3c4nc(c(-c5c(F)c(F)c(F)c(F)c5F)c5ccc([nH]5)c(-c5c(F)c(F)c(F)c(F)c5F)c5nc(c(-c6c(F)c(F)c(F)c(F)c6F)c6ccc3[nH]6)C=C5)C=C4)cc2)c2cccs2)ccc1C
REMARK SMILES IDX 14 1 12 2 13 3 11 4 10 5 9 6 7 7 8 8 6 10 5 11 3 12 4 13
REMARK SMILES IDX 90 14 89 15 91 16 88 17 2 18 1 19 83 20 84 21 87 22 85 23
REMARK SMILES IDX 86 24 15 25 16 26 17 27 18 28 19 29 20 30 21 31 82 32 22 33
REMARK SMILES IDX 81 34 23 35 24 36 25 37 75 38 26 39 80 40 74 41 76 42 27 43
REMARK SMILES IDX 79 44 73 45 72 46 28 48 60 49 40 50 59 51 41 52 44 53 58 54
REMARK SMILES IDX 77 55 42 56 43 57 57 59 78 60 45 61 29 62 30 63 38 64 31 65
REMARK SMILES IDX 32 66 36 67 39 68 33 69 34 70 37 71 35 72 61 73 62 74 70 75
REMARK SMILES IDX 63 76 64 77 68 78 71 79 65 80 66 81 69 82 67 83 46 84 47 85
REMARK SMILES IDX 55 86 48 87 49 88 53 89 56 90 50 91 51 92 54 93 52 94
REMARK H PARENT 9 9 76 47 44 58
REMARK Flexibility Score: inf
ROOT
ATOM      1  O   UNL     1       5.886  -2.401   5.865  1.00  0.00    -0.462 OA
ENDROOT
BRANCH   1   2
ATOM      2  C   UNL     1       4.823  -3.155   5.484  1.00  0.00     0.308 C 
ATOM      3  O   UNL     1       4.451  -4.162   6.051  1.00  0.00    -0.252 OA
BRANCH   2   4
ATOM      4  C   UNL     1       4.143  -2.553   4.276  1.00  0.00     0.153 C 
BRANCH   4   5
ATOM      5  C   UNL     1       5.056  -2.523   3.046  1.00  0.00     0.133 C 
BRANCH   5   6
ATOM      6  N   UNL     1       5.530  -3.863   2.759  1.00  0.00    -0.348 N 
ATOM      7  C   UNL     1       4.792  -4.867   2.189  1.00  0.00     0.224 C 
ATOM      8  O   UNL     1       5.053  -6.032   2.492  1.00  0.00    -0.275 OA
ATOM      9  H   UNL     1       6.463  -4.070   2.994  1.00  0.00     0.164 HD
BRANCH   7  10
ATOM     10  C   UNL     1       3.771  -4.536   1.114  1.00  0.00     0.135 C 
BRANCH  10  11
ATOM     11  C   UNL     1       2.461  -3.920   1.549  1.00  0.00    -0.035 A 
ATOM     12  C   UNL     1       0.895  -2.037   1.447  1.00  0.00     0.122 A 
ATOM     13  C   UNL     1       2.111  -2.634   1.095  1.00  0.00     0.051 A 
ATOM     14  C   UNL     1      -0.010  -2.740   2.255  1.00  0.00    -0.009 A 
ATOM     15  C   UNL     1       0.330  -4.029   2.700  1.00  0.00     0.007 A 
ATOM     16  C   UNL     1      -1.357  -2.179   2.624  1.00  0.00     0.048 C 
ATOM     17  C   UNL     1       1.553  -4.614   2.353  1.00  0.00     0.005 A 
BRANCH  12  18
ATOM     18  O   UNL     1       0.536  -0.768   1.079  1.00  0.00    -0.496 OA
ATOM     19  C   UNL     1       1.143  -0.246  -0.098  1.00  0.00     0.278 C 
ENDBRANCH  12  18
ENDBRANCH  10  11
ENDBRANCH   7  10
ENDBRANCH   5   6
BRANCH   5  20
ATOM     20  C   UNL     1       6.163  -1.499   3.201  1.00  0.00     0.027 A 
ATOM     21  C   UNL     1       5.986  -0.125   3.284  1.00  0.00     0.017 A 
ATOM     22  S   UNL     1       7.821  -1.908   3.382  1.00  0.00    -0.147 S 
ATOM     23  C   UNL     1       7.182   0.566   3.622  1.00  0.00     0.012 A 
ATOM     24  C   UNL     1       8.251  -0.291   3.740  1.00  0.00     0.065 A 
ENDBRANCH   5  20
ENDBRANCH   4   5
ENDBRANCH   2   4
ENDBRANCH   1   2
BRANCH   1  25
ATOM     25  C   UNL     1       6.594  -2.852   7.014  1.00  0.00     0.274 C 
BRANCH  25  26
ATOM     26  C   UNL     1       7.497  -1.740   7.569  1.00  0.00     0.275 C 
BRANCH  26  27
ATOM     27  O   UNL     1       7.266  -0.354   7.160  1.00  0.00    -0.458 OA
BRANCH  27  28
ATOM     28  C   UNL     1       6.134   0.391   7.094  1.00  0.00     0.338 C 
ATOM     29  O   UNL     1       6.125   1.530   6.645  1.00  0.00    -0.246 OA
BRANCH  28  30
ATOM     30  C   UNL     1       4.872  -0.223   7.524  1.00  0.00     0.060 A 
ATOM     31  C   UNL     1       3.728  -0.114   6.714  1.00  0.00     0.016 A 
ATOM     32  C   UNL     1       4.855  -0.982   8.683  1.00  0.00     0.016 A 
ATOM     33  C   UNL     1       2.593  -0.876   7.004  1.00  0.00     0.010 A 
ATOM     34  C   UNL     1       3.793  -1.829   8.895  1.00  0.00     0.010 A 
ATOM     35  C   UNL     1       2.646  -1.756   8.084  1.00  0.00    -0.014 A 
BRANCH  35  36
ATOM     36  C   UNL     1       1.482  -2.407   8.676  1.00  0.00     0.031 A 
ATOM     37  C   UNL     1       0.850  -3.644   8.187  1.00  0.00     0.074 A 
ATOM     38  C   UNL     1       1.142  -1.835   9.851  1.00  0.00     0.049 A 
ATOM     39  N   UNL     1      -0.248  -4.119   8.671  1.00  0.00    -0.248 NA
ATOM     40  C   UNL     1       1.370  -4.455   7.097  1.00  0.00     0.031 C 
ATOM     41  C   UNL     1       0.292  -2.305  10.929  1.00  0.00     0.029 A 
ATOM     42  N   UNL     1       1.441  -0.505  10.203  1.00  0.00    -0.354 N 
ATOM     43  C   UNL     1      -0.422  -5.401   8.190  1.00  0.00     0.074 A 
ATOM     44  C   UNL     1       0.572  -5.530   7.153  1.00  0.00     0.031 C 
ATOM     45  C   UNL     1      -0.127  -1.231  11.626  1.00  0.00     0.029 A 
ATOM     46  C   UNL     1       0.311  -0.051  10.886  1.00  0.00     0.049 A 
ATOM     47  H   UNL     1       2.266  -0.005  10.009  1.00  0.00     0.167 HD
ATOM     48  C   UNL     1      -1.304  -6.216   8.844  1.00  0.00     0.037 A 
ATOM     49  C   UNL     1      -0.513   0.838  10.256  1.00  0.00     0.037 A 
ATOM     50  C   UNL     1      -2.116  -5.423   9.773  1.00  0.00     0.049 A 
ATOM     51  C   UNL     1      -1.907   0.283  10.114  1.00  0.00     0.074 A 
ATOM     52  C   UNL     1      -2.039  -5.201  11.138  1.00  0.00     0.029 A 
ATOM     53  N   UNL     1      -2.956  -4.436   9.260  1.00  0.00    -0.354 N 
ATOM     54  N   UNL     1      -2.180  -0.980   9.928  1.00  0.00    -0.248 NA
ATOM     55  C   UNL     1      -3.094   1.118  10.232  1.00  0.00     0.031 C 
ATOM     56  C   UNL     1      -2.746  -4.003  11.424  1.00  0.00     0.029 A 
ATOM     57  C   UNL     1      -3.284  -3.521  10.241  1.00  0.00     0.049 A 
ATOM     58  H   UNL     1      -3.272  -4.397   8.328  1.00  0.00     0.167 HD
ATOM     59  C   UNL     1      -3.537  -1.151   9.993  1.00  0.00     0.074 A 
ATOM     60  C   UNL     1      -4.065   0.194  10.159  1.00  0.00     0.031 C 
ATOM     61  C   UNL     1      -4.135  -2.378   9.948  1.00  0.00     0.037 A 
BRANCH  48  62
ATOM     62  C   UNL     1      -1.247  -7.738   8.875  1.00  0.00     0.064 A 
ATOM     63  C   UNL     1      -1.780  -8.453   9.977  1.00  0.00     0.173 A 
ATOM     64  C   UNL     1      -0.606  -8.553   7.923  1.00  0.00     0.173 A 
ATOM     65  F   UNL     1      -2.504  -7.843  10.925  1.00  0.00    -0.203 F 
ATOM     66  C   UNL     1      -1.588  -9.829  10.159  1.00  0.00     0.198 A 
ATOM     67  C   UNL     1      -0.391  -9.926   8.117  1.00  0.00     0.198 A 
ATOM     68  F   UNL     1      -0.207  -8.072   6.743  1.00  0.00    -0.203 F 
ATOM     69  F   UNL     1      -2.097 -10.434  11.242  1.00  0.00    -0.200 F 
ATOM     70  C   UNL     1      -0.867 -10.561   9.243  1.00  0.00     0.200 A 
ATOM     71  F   UNL     1       0.285 -10.628   7.195  1.00  0.00    -0.200 F 
ATOM     72  F   UNL     1      -0.653 -11.870   9.431  1.00  0.00    -0.200 F 
ENDBRANCH  48  62
BRANCH  49  73
ATOM     73  C   UNL     1       0.159   1.733   9.257  1.00  0.00     0.064 A 
ATOM     74  C   UNL     1       1.317   2.451   9.639  1.00  0.00     0.173 A 
ATOM     75  C   UNL     1      -0.143   1.716   7.889  1.00  0.00     0.173 A 
ATOM     76  F   UNL     1       1.670   2.516  10.933  1.00  0.00    -0.203 F 
ATOM     77  C   UNL     1       2.170   3.034   8.700  1.00  0.00     0.198 A 
ATOM     78  C   UNL     1       0.703   2.322   6.951  1.00  0.00     0.198 A 
ATOM     79  F   UNL     1      -1.223   1.062   7.439  1.00  0.00    -0.203 F 
ATOM     80  F   UNL     1       3.304   3.625   9.103  1.00  0.00    -0.200 F 
ATOM     81  C   UNL     1       1.867   2.959   7.354  1.00  0.00     0.200 A 
ATOM     82  F   UNL     1       0.418   2.239   5.643  1.00  0.00    -0.200 F 
ATOM     83  F   UNL     1       2.705   3.474   6.442  1.00  0.00    -0.200 F 
ENDBRANCH  49  73
BRANCH  61  84
ATOM     84  C   UNL     1      -5.610  -2.607   9.747  1.00  0.00     0.064 A 
ATOM     85  C   UNL     1      -6.433  -1.729   9.022  1.00  0.00     0.173 A 
ATOM     86  C   UNL     1      -6.214  -3.821  10.151  1.00  0.00     0.173 A 
ATOM     87  F   UNL     1      -5.945  -0.611   8.468  1.00  0.00    -0.203 F 
ATOM     88  C   UNL     1      -7.781  -2.006   8.789  1.00  0.00     0.198 A 
ATOM     89  C   UNL     1      -7.543  -4.122   9.860  1.00  0.00     0.198 A 
ATOM     90  F   UNL     1      -5.527  -4.763  10.812  1.00  0.00    -0.203 F 
ATOM     91  F   UNL     1      -8.536  -1.111   8.137  1.00  0.00    -0.200 F 
ATOM     92  C   UNL     1      -8.332  -3.206   9.197  1.00  0.00     0.200 A 
ATOM     93  F   UNL     1      -8.045  -5.315  10.208  1.00  0.00    -0.200 F 
ATOM     94  F   UNL     1      -9.613  -3.489   8.927  1.00  0.00    -0.200 F 
ENDBRANCH  61  84
ENDBRANCH  35  36
ENDBRANCH  28  30
ENDBRANCH  27  28
ENDBRANCH  26  27
ENDBRANCH  25  26
ENDBRANCH   1  25
TORSDOF 17
