REMARK SMILES C#CC[N@H+](CC(=O)OCCOC(=O)c1ccc(-c2c3nc(c(-c4c(F)c(F)c(F)c(F)c4F)c4ccc([nH]4)c(-c4c(F)c(F)c(F)c(F)c4F)c4nc(c(-c5c(F)c(F)c(F)c(F)c5F)c5ccc2[nH]5)C=C4)C=C3)cc1)[C@H](C)c1cc(C)ccc1C
REMARK SMILES IDX 9 1 8 2 6 3 7 4 5 5 4 6 3 8 2 9 1 10 77 11 78 12 79 13 80 14
REMARK SMILES IDX 85 15 81 16 84 17 86 18 82 19 83 20 10 21 11 22 12 23 13 24
REMARK SMILES IDX 14 25 15 26 76 27 16 28 75 29 17 30 18 31 19 32 69 33 20 34
REMARK SMILES IDX 74 35 68 36 70 37 21 38 73 39 67 40 66 41 22 43 54 44 34 45
REMARK SMILES IDX 53 46 35 47 38 48 52 49 71 50 36 51 37 52 51 54 72 55 39 56
REMARK SMILES IDX 23 57 24 58 32 59 25 60 26 61 30 62 33 63 27 64 28 65 31 66
REMARK SMILES IDX 29 67 55 68 56 69 64 70 57 71 58 72 62 73 65 74 59 75 60 76
REMARK SMILES IDX 63 77 61 78 40 79 41 80 49 81 42 82 43 83 47 84 50 85 44 86
REMARK SMILES IDX 45 87 48 88 46 89
REMARK H PARENT 4 7 70 42 38 53
REMARK Flexibility Score: inf
ROOT
ATOM      1  C   UNL     1      -4.673  -5.314  -0.660  1.00  0.00     0.274 C 
ENDROOT
BRANCH   1   2
ATOM      2  O   UNL     1      -4.054  -4.047  -0.382  1.00  0.00    -0.458 OA
BRANCH   2   3
ATOM      3  C   UNL     1      -4.613  -3.289   0.589  1.00  0.00     0.361 C 
ATOM      4  O   UNL     1      -5.706  -3.529   1.097  1.00  0.00    -0.245 OA
BRANCH   3   5
ATOM      5  C   UNL     1      -3.834  -2.018   0.918  1.00  0.00     0.387 C 
BRANCH   5   6
ATOM      6  N   UNL     1      -2.329  -2.090   1.020  1.00  0.00    -0.310 N 
ATOM      7  H   UNL     1      -2.011  -2.851   1.620  1.00  0.00     0.349 HD
BRANCH   6   8
ATOM      8  C   UNL     1      -1.761  -2.387  -0.317  1.00  0.00     0.354 C 
BRANCH   8   9
ATOM      9  C   UNL     1      -0.302  -2.320  -0.490  1.00  0.00    -0.047 C 
ATOM     10  C   UNL     1       0.884  -2.335  -0.666  1.00  0.00     0.010 C 
ENDBRANCH   8   9
ENDBRANCH   6   8
BRANCH   6  11
ATOM     11  C   UNL     1      -1.837  -0.812   1.662  1.00  0.00     0.213 C 
ATOM     12  C   UNL     1      -2.216   0.412   0.793  1.00  0.00     0.081 C 
BRANCH  11  13
ATOM     13  C   UNL     1      -0.375  -0.805   2.189  1.00  0.00     0.012 A 
ATOM     14  C   UNL     1       0.262  -2.035   2.491  1.00  0.00     0.013 A 
ATOM     15  C   UNL     1       0.386   0.371   2.419  1.00  0.00    -0.042 A 
ATOM     16  C   UNL     1       1.643  -2.121   2.751  1.00  0.00    -0.051 A 
ATOM     17  C   UNL     1       1.776   0.276   2.630  1.00  0.00     0.004 A 
ATOM     18  C   UNL     1      -0.177   1.767   2.466  1.00  0.00     0.045 C 
ATOM     19  C   UNL     1       2.304  -3.454   2.941  1.00  0.00     0.044 C 
ATOM     20  C   UNL     1       2.404  -0.956   2.766  1.00  0.00     0.004 A 
ENDBRANCH  11  13
ENDBRANCH   6  11
ENDBRANCH   5   6
ENDBRANCH   3   5
ENDBRANCH   2   3
ENDBRANCH   1   2
BRANCH   1  21
ATOM     21  C   UNL     1      -4.096  -6.412   0.238  1.00  0.00     0.275 C 
BRANCH  21  22
ATOM     22  O   UNL     1      -4.543  -6.267   1.601  1.00  0.00    -0.458 OA
BRANCH  22  23
ATOM     23  C   UNL     1      -3.680  -5.633   2.430  1.00  0.00     0.338 C 
ATOM     24  O   UNL     1      -2.559  -5.236   2.169  1.00  0.00    -0.246 OA
BRANCH  23  25
ATOM     25  C   UNL     1      -4.327  -5.383   3.727  1.00  0.00     0.060 A 
ATOM     26  C   UNL     1      -4.616  -4.066   4.092  1.00  0.00     0.016 A 
ATOM     27  C   UNL     1      -4.550  -6.428   4.622  1.00  0.00     0.016 A 
ATOM     28  C   UNL     1      -5.121  -3.780   5.356  1.00  0.00     0.010 A 
ATOM     29  C   UNL     1      -5.070  -6.143   5.888  1.00  0.00     0.010 A 
ATOM     30  C   UNL     1      -5.346  -4.817   6.269  1.00  0.00    -0.014 A 
BRANCH  30  31
ATOM     31  C   UNL     1      -5.823  -4.501   7.637  1.00  0.00     0.031 A 
ATOM     32  C   UNL     1      -4.913  -4.705   8.814  1.00  0.00     0.074 A 
ATOM     33  C   UNL     1      -7.067  -4.019   7.818  1.00  0.00     0.049 A 
ATOM     34  N   UNL     1      -5.165  -4.574  10.092  1.00  0.00    -0.248 NA
ATOM     35  C   UNL     1      -3.534  -5.118   8.512  1.00  0.00     0.031 C 
ATOM     36  C   UNL     1      -8.025  -3.739   6.749  1.00  0.00     0.029 A 
ATOM     37  N   UNL     1      -7.739  -3.684   8.966  1.00  0.00    -0.354 N 
ATOM     38  C   UNL     1      -3.987  -4.910  10.746  1.00  0.00     0.074 A 
ATOM     39  C   UNL     1      -3.029  -5.281   9.726  1.00  0.00     0.031 C 
ATOM     40  C   UNL     1      -9.160  -3.268   7.290  1.00  0.00     0.029 A 
ATOM     41  C   UNL     1      -9.030  -3.273   8.744  1.00  0.00     0.049 A 
ATOM     42  H   UNL     1      -7.335  -3.733   9.863  1.00  0.00     0.167 HD
ATOM     43  C   UNL     1      -3.730  -4.901  12.077  1.00  0.00     0.037 A 
ATOM     44  C   UNL     1     -10.009  -2.967   9.617  1.00  0.00     0.037 A 
ATOM     45  C   UNL     1      -4.692  -4.523  13.082  1.00  0.00     0.049 A 
ATOM     46  C   UNL     1      -9.720  -3.042  11.092  1.00  0.00     0.074 A 
ATOM     47  C   UNL     1      -4.528  -4.464  14.455  1.00  0.00     0.029 A 
ATOM     48  N   UNL     1      -6.002  -4.146  12.821  1.00  0.00    -0.354 N 
ATOM     49  N   UNL     1      -8.603  -3.351  11.705  1.00  0.00    -0.248 NA
ATOM     50  C   UNL     1     -10.831  -2.724  11.998  1.00  0.00     0.031 C 
ATOM     51  C   UNL     1      -5.756  -4.121  15.028  1.00  0.00     0.029 A 
ATOM     52  C   UNL     1      -6.667  -3.886  14.010  1.00  0.00     0.049 A 
ATOM     53  H   UNL     1      -6.402  -4.074  11.924  1.00  0.00     0.167 HD
ATOM     54  C   UNL     1      -8.865  -3.232  13.063  1.00  0.00     0.074 A 
ATOM     55  C   UNL     1     -10.244  -2.805  13.183  1.00  0.00     0.031 C 
ATOM     56  C   UNL     1      -8.039  -3.455  14.116  1.00  0.00     0.037 A 
BRANCH  43  57
ATOM     57  C   UNL     1      -2.367  -5.350  12.527  1.00  0.00     0.064 A 
ATOM     58  C   UNL     1      -1.210  -4.602  12.259  1.00  0.00     0.173 A 
ATOM     59  C   UNL     1      -2.221  -6.536  13.264  1.00  0.00     0.173 A 
ATOM     60  F   UNL     1      -1.289  -3.465  11.550  1.00  0.00    -0.203 F 
ATOM     61  C   UNL     1       0.043  -5.042  12.680  1.00  0.00     0.198 A 
ATOM     62  C   UNL     1      -0.972  -6.953  13.716  1.00  0.00     0.198 A 
ATOM     63  F   UNL     1      -3.293  -7.287  13.557  1.00  0.00    -0.203 F 
ATOM     64  F   UNL     1       1.139  -4.340  12.362  1.00  0.00    -0.200 F 
ATOM     65  C   UNL     1       0.160  -6.212  13.415  1.00  0.00     0.200 A 
ATOM     66  F   UNL     1      -0.864  -8.075  14.442  1.00  0.00    -0.200 F 
ATOM     67  F   UNL     1       1.365  -6.630  13.827  1.00  0.00    -0.200 F 
ENDBRANCH  43  57
BRANCH  44  68
ATOM     68  C   UNL     1     -11.357  -2.583   9.119  1.00  0.00     0.064 A 
ATOM     69  C   UNL     1     -11.863  -1.292   9.326  1.00  0.00     0.173 A 
ATOM     70  C   UNL     1     -12.174  -3.501   8.441  1.00  0.00     0.173 A 
ATOM     71  F   UNL     1     -11.131  -0.384   9.989  1.00  0.00    -0.203 F 
ATOM     72  C   UNL     1     -13.141  -0.942   8.896  1.00  0.00     0.198 A 
ATOM     73  C   UNL     1     -13.437  -3.138   7.979  1.00  0.00     0.198 A 
ATOM     74  F   UNL     1     -11.739  -4.749   8.216  1.00  0.00    -0.203 F 
ATOM     75  F   UNL     1     -13.621   0.281   9.158  1.00  0.00    -0.200 F 
ATOM     76  C   UNL     1     -13.924  -1.863   8.217  1.00  0.00     0.200 A 
ATOM     77  F   UNL     1     -14.183  -4.027   7.308  1.00  0.00    -0.200 F 
ATOM     78  F   UNL     1     -15.152  -1.524   7.800  1.00  0.00    -0.200 F 
ENDBRANCH  44  68
BRANCH  56  79
ATOM     79  C   UNL     1      -8.589  -3.191  15.490  1.00  0.00     0.064 A 
ATOM     80  C   UNL     1      -9.591  -3.992  16.058  1.00  0.00     0.173 A 
ATOM     81  C   UNL     1      -8.084  -2.131  16.262  1.00  0.00     0.173 A 
ATOM     82  F   UNL     1     -10.120  -5.009  15.360  1.00  0.00    -0.203 F 
ATOM     83  C   UNL     1     -10.093  -3.719  17.328  1.00  0.00     0.198 A 
ATOM     84  C   UNL     1      -8.559  -1.887  17.547  1.00  0.00     0.198 A 
ATOM     85  F   UNL     1      -7.119  -1.338  15.773  1.00  0.00    -0.203 F 
ATOM     86  F   UNL     1     -11.097  -4.458  17.822  1.00  0.00    -0.200 F 
ATOM     87  C   UNL     1      -9.572  -2.673  18.074  1.00  0.00     0.200 A 
ATOM     88  F   UNL     1      -8.040  -0.888  18.273  1.00  0.00    -0.200 F 
ATOM     89  F   UNL     1     -10.052  -2.417  19.299  1.00  0.00    -0.200 F 
ENDBRANCH  56  79
ENDBRANCH  30  31
ENDBRANCH  23  25
ENDBRANCH  22  23
ENDBRANCH  21  22
ENDBRANCH   1  21
TORSDOF 16
