REMARK SMILES O=C(OCCOC(=O)[C@@H](NC(=O)[C@H]1CC[C@@H]2CCCC[C@H]2[NH2+]1)C1CC1)c1ccc(-c2c3nc(c(-c4c(F)c(F)c(F)c(F)c4F)c4ccc([nH]4)c(-c4c(F)c(F)c(F)c(F)c4F)c4nc(c(-c5c(F)c(F)c(F)c(F)c5F)c5ccc2[nH]5)C=C4)C=C3)cc1
REMARK SMILES IDX 4 1 3 2 2 3 1 4 26 5 27 6 88 7 28 8 87 9 29 10 30 11 31 12
REMARK SMILES IDX 81 13 32 14 86 15 80 16 82 17 33 18 85 19 79 20 78 21 34 23
REMARK SMILES IDX 66 24 46 25 65 26 47 27 50 28 64 29 83 30 48 31 49 32 63 34
REMARK SMILES IDX 84 35 51 36 35 37 36 38 44 39 37 40 38 41 42 42 45 43 39 44
REMARK SMILES IDX 40 45 43 46 41 47 67 48 68 49 76 50 69 51 70 52 74 53 77 54
REMARK SMILES IDX 71 55 72 56 75 57 73 58 52 59 53 60 61 61 54 62 55 63 59 64
REMARK SMILES IDX 62 65 56 66 57 67 60 68 58 69 5 70 6 71 7 72 8 73 9 74 10 75
REMARK SMILES IDX 11 76 12 78 13 79 14 80 22 81 15 82 21 83 16 86 20 87 17 88
REMARK SMILES IDX 19 89 18 90 23 91 24 92 25 93
REMARK H PARENT 82 22 50 33 10 77 22 84 22 85
REMARK Flexibility Score: inf
ROOT
ATOM      1  C   UNL     1       7.960   1.264  -0.002  1.00  0.00     0.275 C 
ENDROOT
BRANCH   1   2
ATOM      2  O   UNL     1       8.869   1.977  -0.856  1.00  0.00    -0.458 OA
BRANCH   2   3
ATOM      3  C   UNL     1       8.705   2.283  -2.160  1.00  0.00     0.338 C 
ATOM      4  O   UNL     1       9.169   3.352  -2.569  1.00  0.00    -0.246 OA
BRANCH   3   5
ATOM      5  C   UNL     1       8.077   1.377  -3.184  1.00  0.00     0.060 A 
ATOM      6  C   UNL     1       7.102   0.395  -2.978  1.00  0.00     0.016 A 
ATOM      7  C   UNL     1       8.438   1.647  -4.516  1.00  0.00     0.016 A 
ATOM      8  C   UNL     1       6.500  -0.283  -4.064  1.00  0.00     0.010 A 
ATOM      9  C   UNL     1       7.803   1.015  -5.591  1.00  0.00     0.010 A 
ATOM     10  C   UNL     1       6.816   0.041  -5.387  1.00  0.00    -0.014 A 
BRANCH  10  11
ATOM     11  C   UNL     1       6.192  -0.563  -6.602  1.00  0.00     0.031 A 
ATOM     12  C   UNL     1       6.934  -1.525  -7.441  1.00  0.00     0.074 A 
ATOM     13  C   UNL     1       4.914  -0.389  -6.980  1.00  0.00     0.049 A 
ATOM     14  N   UNL     1       6.447  -2.267  -8.398  1.00  0.00    -0.248 NA
ATOM     15  C   UNL     1       8.322  -1.805  -7.077  1.00  0.00     0.031 C 
ATOM     16  C   UNL     1       3.872  -0.160  -6.021  1.00  0.00     0.029 A 
ATOM     17  N   UNL     1       4.230  -0.543  -8.174  1.00  0.00    -0.354 N 
ATOM     18  C   UNL     1       7.435  -3.162  -8.707  1.00  0.00     0.074 A 
ATOM     19  C   UNL     1       8.589  -2.811  -7.896  1.00  0.00     0.031 C 
ATOM     20  C   UNL     1       2.709  -0.081  -6.670  1.00  0.00     0.029 A 
ATOM     21  C   UNL     1       2.917  -0.144  -8.084  1.00  0.00     0.049 A 
ATOM     22  H   UNL     1       4.638  -0.899  -8.997  1.00  0.00     0.167 HD
ATOM     23  C   UNL     1       7.348  -4.210  -9.556  1.00  0.00     0.037 A 
ATOM     24  C   UNL     1       1.886  -0.000  -8.935  1.00  0.00     0.037 A 
ATOM     25  C   UNL     1       6.207  -4.521 -10.379  1.00  0.00     0.049 A 
ATOM     26  C   UNL     1       1.892  -0.999 -10.028  1.00  0.00     0.074 A 
ATOM     27  C   UNL     1       6.099  -5.502 -11.348  1.00  0.00     0.029 A 
ATOM     28  N   UNL     1       4.985  -3.846 -10.360  1.00  0.00    -0.354 N 
ATOM     29  N   UNL     1       2.807  -1.901 -10.252  1.00  0.00    -0.248 NA
ATOM     30  C   UNL     1       0.670  -1.139 -10.824  1.00  0.00     0.031 C 
ATOM     31  C   UNL     1       4.845  -5.385 -11.959  1.00  0.00     0.029 A 
ATOM     32  C   UNL     1       4.146  -4.357 -11.350  1.00  0.00     0.049 A 
ATOM     33  H   UNL     1       4.751  -3.117  -9.741  1.00  0.00     0.167 HD
ATOM     34  C   UNL     1       2.244  -2.782 -11.138  1.00  0.00     0.074 A 
ATOM     35  C   UNL     1       0.898  -2.306 -11.411  1.00  0.00     0.031 C 
ATOM     36  C   UNL     1       2.814  -3.891 -11.654  1.00  0.00     0.037 A 
BRANCH  23  37
ATOM     37  C   UNL     1       8.616  -4.986  -9.670  1.00  0.00     0.064 A 
ATOM     38  C   UNL     1       9.064  -5.818  -8.631  1.00  0.00     0.173 A 
ATOM     39  C   UNL     1       9.494  -4.693 -10.721  1.00  0.00     0.173 A 
ATOM     40  F   UNL     1       8.271  -6.077  -7.580  1.00  0.00    -0.203 F 
ATOM     41  C   UNL     1      10.383  -6.261  -8.603  1.00  0.00     0.198 A 
ATOM     42  C   UNL     1      10.802  -5.157 -10.699  1.00  0.00     0.198 A 
ATOM     43  F   UNL     1       9.107  -3.884 -11.718  1.00  0.00    -0.203 F 
ATOM     44  F   UNL     1      10.836  -6.945  -7.543  1.00  0.00    -0.200 F 
ATOM     45  C   UNL     1      11.252  -5.918  -9.630  1.00  0.00     0.200 A 
ATOM     46  F   UNL     1      11.647  -4.812 -11.680  1.00  0.00    -0.200 F 
ATOM     47  F   UNL     1      12.540  -6.285  -9.566  1.00  0.00    -0.200 F 
ENDBRANCH  23  37
BRANCH  24  48
ATOM     48  C   UNL     1       0.649   0.764  -8.590  1.00  0.00     0.064 A 
ATOM     49  C   UNL     1      -0.524   0.137  -8.145  1.00  0.00     0.173 A 
ATOM     50  C   UNL     1       0.606   2.160  -8.750  1.00  0.00     0.173 A 
ATOM     51  F   UNL     1      -0.543  -1.191  -7.968  1.00  0.00    -0.203 F 
ATOM     52  C   UNL     1      -1.690   0.863  -7.896  1.00  0.00     0.198 A 
ATOM     53  C   UNL     1      -0.560   2.888  -8.493  1.00  0.00     0.198 A 
ATOM     54  F   UNL     1       1.690   2.822  -9.177  1.00  0.00    -0.203 F 
ATOM     55  F   UNL     1      -2.795   0.229  -7.480  1.00  0.00    -0.200 F 
ATOM     56  C   UNL     1      -1.709   2.238  -8.069  1.00  0.00     0.200 A 
ATOM     57  F   UNL     1      -0.572   4.219  -8.648  1.00  0.00    -0.200 F 
ATOM     58  F   UNL     1      -2.826   2.934  -7.815  1.00  0.00    -0.200 F 
ENDBRANCH  24  48
BRANCH  36  59
ATOM     59  C   UNL     1       1.992  -4.626 -12.660  1.00  0.00     0.064 A 
ATOM     60  C   UNL     1       1.695  -4.038 -13.900  1.00  0.00     0.173 A 
ATOM     61  C   UNL     1       1.502  -5.911 -12.400  1.00  0.00     0.173 A 
ATOM     62  F   UNL     1       2.113  -2.793 -14.176  1.00  0.00    -0.203 F 
ATOM     63  C   UNL     1       0.918  -4.704 -14.838  1.00  0.00     0.198 A 
ATOM     64  C   UNL     1       0.753  -6.589 -13.356  1.00  0.00     0.198 A 
ATOM     65  F   UNL     1       1.742  -6.504 -11.221  1.00  0.00    -0.203 F 
ATOM     66  F   UNL     1       0.600  -4.099 -15.990  1.00  0.00    -0.200 F 
ATOM     67  C   UNL     1       0.459  -5.984 -14.571  1.00  0.00     0.200 A 
ATOM     68  F   UNL     1       0.310  -7.828 -13.103  1.00  0.00    -0.200 F 
ATOM     69  F   UNL     1      -0.277  -6.633 -15.483  1.00  0.00    -0.200 F 
ENDBRANCH  36  59
ENDBRANCH  10  11
ENDBRANCH   3   5
ENDBRANCH   2   3
ENDBRANCH   1   2
BRANCH   1  70
ATOM     70  C   UNL     1       6.672   2.037   0.280  1.00  0.00     0.274 C 
BRANCH  70  71
ATOM     71  O   UNL     1       6.066   2.517  -0.932  1.00  0.00    -0.461 OA
BRANCH  71  72
ATOM     72  C   UNL     1       5.952   3.872  -1.051  1.00  0.00     0.329 C 
ATOM     73  O   UNL     1       6.304   4.679  -0.180  1.00  0.00    -0.250 OA
BRANCH  72  74
ATOM     74  C   UNL     1       5.111   4.277  -2.273  1.00  0.00     0.195 C 
BRANCH  74  75
ATOM     75  N   UNL     1       5.281   3.358  -3.414  1.00  0.00    -0.337 N 
ATOM     76  C   UNL     1       4.443   2.988  -4.428  1.00  0.00     0.278 C 
ATOM     77  H   UNL     1       6.166   2.929  -3.452  1.00  0.00     0.164 HD
ATOM     78  O   UNL     1       4.955   2.827  -5.538  1.00  0.00    -0.268 OA
BRANCH  76  79
ATOM     79  C   UNL     1       2.960   2.671  -4.147  1.00  0.00     0.272 C 
ATOM     80  C   UNL     1       2.061   3.079  -5.308  1.00  0.00     0.076 C 
ATOM     81  N   UNL     1       2.804   1.266  -3.729  1.00  0.00    -0.333 N 
ATOM     82  C   UNL     1       0.606   2.831  -4.895  1.00  0.00     0.016 C 
ATOM     83  C   UNL     1       1.420   0.847  -3.500  1.00  0.00     0.186 C 
ATOM     84  H   UNL     1       3.325   1.132  -2.862  1.00  0.00     0.347 HD
ATOM     85  H   UNL     1       3.155   0.695  -4.498  1.00  0.00     0.347 HD
ATOM     86  C   UNL     1       0.441   1.348  -4.586  1.00  0.00     0.048 C 
ATOM     87  C   UNL     1       1.377  -0.696  -3.386  1.00  0.00     0.065 C 
ATOM     88  C   UNL     1      -0.973   0.888  -4.259  1.00  0.00     0.010 C 
ATOM     89  C   UNL     1      -0.038  -1.272  -3.315  1.00  0.00     0.006 C 
ATOM     90  C   UNL     1      -1.009  -0.643  -4.312  1.00  0.00     0.001 C 
ENDBRANCH  76  79
ENDBRANCH  74  75
BRANCH  74  91
ATOM     91  C   UNL     1       3.686   4.449  -1.843  1.00  0.00     0.023 C 
ATOM     92  C   UNL     1       3.175   5.644  -1.084  1.00  0.00     0.007 C 
ATOM     93  C   UNL     1       2.837   5.500  -2.535  1.00  0.00     0.007 C 
ENDBRANCH  74  91
ENDBRANCH  72  74
ENDBRANCH  71  72
ENDBRANCH  70  71
ENDBRANCH   1  70
TORSDOF 14
