REMARK SMILES CC1(C)Cc2c(c(N3CCOCC3)nc3sc(C(=O)OCCOC(=O)c4ccc(-c5c6nc(c(-c7c(F)c(F)c(F)c(F)c7F)c7ccc([nH]7)c(-c7c(F)c(F)c(F)c(F)c7F)c7nc(c(-c8c(F)c(F)c(F)c(F)c8F)c8ccc5[nH]8)C=C7)C=C6)cc4)c(N)c23)CS1
REMARK SMILES IDX 22 1 21 2 20 3 18 4 19 5 17 6 1 7 2 8 3 9 4 10 93 11 5 12
REMARK SMILES IDX 92 13 6 14 91 15 7 16 15 17 89 18 14 19 16 20 8 21 9 22
REMARK SMILES IDX 13 23 10 24 12 25 11 26 90 27 23 30 24 31 25 32 26 33 27 34
REMARK SMILES IDX 88 35 28 36 87 37 29 38 30 39 31 40 81 41 32 42 86 43 80 44
REMARK SMILES IDX 82 45 33 46 85 47 79 48 78 49 34 51 66 52 46 53 65 54 47 55
REMARK SMILES IDX 50 56 64 57 83 58 48 59 49 60 63 62 84 63 51 64 35 65 36 66
REMARK SMILES IDX 44 67 37 68 38 69 42 70 45 71 39 72 40 73 43 74 41 75 67 76
REMARK SMILES IDX 68 77 76 78 69 79 70 80 74 81 77 82 71 83 72 84 75 85 73 86
REMARK SMILES IDX 52 87 53 88 61 89 54 90 55 91 59 92 62 93 56 94 57 95 60 96
REMARK SMILES IDX 58 97
REMARK H PARENT 90 28 90 29 82 50 50 61
REMARK Flexibility Score: inf
ROOT
ATOM      1  C   UNL     1      -1.045  -7.847   6.528  1.00  0.00     0.275 C 
ENDROOT
BRANCH   1   2
ATOM      2  C   UNL     1       0.274  -7.350   7.107  1.00  0.00     0.275 C 
BRANCH   2   3
ATOM      3  O   UNL     1       0.396  -5.925   6.970  1.00  0.00    -0.458 OA
BRANCH   3   4
ATOM      4  C   UNL     1       0.959  -5.481   5.807  1.00  0.00     0.350 C 
ATOM      5  O   UNL     1       1.490  -6.224   4.981  1.00  0.00    -0.245 OA
BRANCH   4   6
ATOM      6  C   UNL     1       0.774  -4.052   5.625  1.00  0.00     0.138 A 
ATOM      7  C   UNL     1       1.002  -0.124  -0.149  1.00  0.00     0.023 C 
ATOM      8  C   UNL     1       0.516   0.186   1.274  1.00  0.00     0.015 C 
ATOM      9  C   UNL     1      -0.990   0.493   1.225  1.00  0.00     0.023 C 
ATOM     10  C   UNL     1       0.839  -0.996   2.207  1.00  0.00     0.054 C 
ATOM     11  S   UNL     1       1.472   1.625   1.847  1.00  0.00    -0.150 SA
ATOM     12  C   UNL     1       0.651  -0.808   3.700  1.00  0.00    -0.027 A 
ATOM     13  C   UNL     1       0.766   1.759   3.495  1.00  0.00     0.109 C 
ATOM     14  C   UNL     1       0.552   0.484   4.280  1.00  0.00     0.009 A 
ATOM     15  C   UNL     1       0.647  -1.921   4.597  1.00  0.00     0.039 A 
ATOM     16  C   UNL     1       0.294   0.611   5.661  1.00  0.00     0.134 A 
ATOM     17  C   UNL     1       0.403  -1.641   5.937  1.00  0.00     0.128 A 
ATOM     18  C   UNL     1       0.889  -3.340   4.441  1.00  0.00     0.067 A 
ATOM     19  N   UNL     1       0.210  -0.434   6.492  1.00  0.00    -0.220 NA
ATOM     20  S   UNL     1       0.371  -3.024   6.925  1.00  0.00    -0.106 S 
BRANCH  16  21
ATOM     21  N   UNL     1       0.220   1.857   6.235  1.00  0.00    -0.352 N 
ATOM     22  C   UNL     1      -0.894   2.777   6.026  1.00  0.00     0.146 C 
ATOM     23  C   UNL     1       1.063   2.175   7.382  1.00  0.00     0.146 C 
ATOM     24  C   UNL     1      -0.310   4.196   5.871  1.00  0.00     0.181 C 
ATOM     25  C   UNL     1       1.606   3.597   7.152  1.00  0.00     0.181 C 
ATOM     26  O   UNL     1       0.537   4.552   6.982  1.00  0.00    -0.378 OA
ENDBRANCH  16  21
BRANCH  18  27
ATOM     27  N   UNL     1       1.225  -3.946   3.278  1.00  0.00    -0.397 N 
ATOM     28  H   UNL     1       1.373  -4.919   3.255  1.00  0.00     0.156 HD
ATOM     29  H   UNL     1       1.321  -3.413   2.455  1.00  0.00     0.156 HD
ENDBRANCH  18  27
ENDBRANCH   4   6
ENDBRANCH   3   4
ENDBRANCH   2   3
ENDBRANCH   1   2
BRANCH   1  30
ATOM     30  O   UNL     1      -1.043  -7.830   5.099  1.00  0.00    -0.458 OA
BRANCH  30  31
ATOM     31  C   UNL     1      -1.609  -6.740   4.531  1.00  0.00     0.338 C 
ATOM     32  O   UNL     1      -1.842  -5.671   5.067  1.00  0.00    -0.246 OA
BRANCH  31  33
ATOM     33  C   UNL     1      -2.107  -7.096   3.194  1.00  0.00     0.060 A 
ATOM     34  C   UNL     1      -2.697  -6.084   2.433  1.00  0.00     0.016 A 
ATOM     35  C   UNL     1      -2.192  -8.442   2.805  1.00  0.00     0.016 A 
ATOM     36  C   UNL     1      -3.487  -6.437   1.355  1.00  0.00     0.010 A 
ATOM     37  C   UNL     1      -2.985  -8.794   1.732  1.00  0.00     0.010 A 
ATOM     38  C   UNL     1      -3.674  -7.794   1.054  1.00  0.00    -0.014 A 
BRANCH  38  39
ATOM     39  C   UNL     1      -4.537  -8.126  -0.065  1.00  0.00     0.031 A 
ATOM     40  C   UNL     1      -4.000  -7.699  -1.379  1.00  0.00     0.074 A 
ATOM     41  C   UNL     1      -5.681  -8.825   0.057  1.00  0.00     0.049 A 
ATOM     42  N   UNL     1      -4.495  -6.819  -2.184  1.00  0.00    -0.248 NA
ATOM     43  C   UNL     1      -2.685  -8.217  -1.787  1.00  0.00     0.031 C 
ATOM     44  C   UNL     1      -6.197  -9.539   1.226  1.00  0.00     0.029 A 
ATOM     45  N   UNL     1      -6.605  -9.102  -0.904  1.00  0.00    -0.354 N 
ATOM     46  C   UNL     1      -3.641  -6.779  -3.281  1.00  0.00     0.074 A 
ATOM     47  C   UNL     1      -2.481  -7.554  -2.926  1.00  0.00     0.031 C 
ATOM     48  C   UNL     1      -7.223 -10.337   0.845  1.00  0.00     0.029 A 
ATOM     49  C   UNL     1      -7.521 -10.083  -0.555  1.00  0.00     0.049 A 
ATOM     50  H   UNL     1      -6.621  -8.645  -1.775  1.00  0.00     0.167 HD
ATOM     51  C   UNL     1      -4.057  -6.277  -4.475  1.00  0.00     0.037 A 
ATOM     52  C   UNL     1      -8.416 -10.675  -1.385  1.00  0.00     0.037 A 
ATOM     53  C   UNL     1      -5.214  -5.437  -4.311  1.00  0.00     0.049 A 
ATOM     54  C   UNL     1      -8.606  -9.772  -2.548  1.00  0.00     0.074 A 
ATOM     55  C   UNL     1      -5.467  -4.255  -3.643  1.00  0.00     0.029 A 
ATOM     56  N   UNL     1      -6.444  -5.971  -4.601  1.00  0.00    -0.354 N 
ATOM     57  N   UNL     1      -9.191  -8.609  -2.479  1.00  0.00    -0.248 NA
ATOM     58  C   UNL     1      -7.753  -9.976  -3.710  1.00  0.00     0.031 C 
ATOM     59  C   UNL     1      -6.798  -4.386  -3.151  1.00  0.00     0.029 A 
ATOM     60  C   UNL     1      -7.296  -5.613  -3.591  1.00  0.00     0.049 A 
ATOM     61  H   UNL     1      -6.673  -6.513  -5.391  1.00  0.00     0.167 HD
ATOM     62  C   UNL     1      -8.456  -7.797  -3.329  1.00  0.00     0.074 A 
ATOM     63  C   UNL     1      -7.645  -8.712  -4.127  1.00  0.00     0.031 C 
ATOM     64  C   UNL     1      -8.366  -6.453  -3.110  1.00  0.00     0.037 A 
BRANCH  51  65
ATOM     65  C   UNL     1      -3.655  -6.835  -5.817  1.00  0.00     0.064 A 
ATOM     66  C   UNL     1      -4.090  -6.178  -6.987  1.00  0.00     0.173 A 
ATOM     67  C   UNL     1      -3.149  -8.139  -6.004  1.00  0.00     0.173 A 
ATOM     68  F   UNL     1      -4.599  -4.938  -6.927  1.00  0.00    -0.203 F 
ATOM     69  C   UNL     1      -4.108  -6.818  -8.228  1.00  0.00     0.198 A 
ATOM     70  C   UNL     1      -3.119  -8.754  -7.254  1.00  0.00     0.198 A 
ATOM     71  F   UNL     1      -2.771  -8.913  -4.981  1.00  0.00    -0.203 F 
ATOM     72  F   UNL     1      -4.659  -6.204  -9.284  1.00  0.00    -0.200 F 
ATOM     73  C   UNL     1      -3.632  -8.109  -8.359  1.00  0.00     0.200 A 
ATOM     74  F   UNL     1      -2.669 -10.012  -7.356  1.00  0.00    -0.200 F 
ATOM     75  F   UNL     1      -3.712  -8.749  -9.532  1.00  0.00    -0.200 F 
ENDBRANCH  51  65
BRANCH  52  76
ATOM     76  C   UNL     1      -8.848 -12.095  -1.411  1.00  0.00     0.064 A 
ATOM     77  C   UNL     1      -9.965 -12.498  -2.163  1.00  0.00     0.173 A 
ATOM     78  C   UNL     1      -8.005 -13.123  -0.946  1.00  0.00     0.173 A 
ATOM     79  F   UNL     1     -10.795 -11.581  -2.683  1.00  0.00    -0.203 F 
ATOM     80  C   UNL     1     -10.205 -13.844  -2.459  1.00  0.00     0.198 A 
ATOM     81  C   UNL     1      -8.249 -14.466  -1.236  1.00  0.00     0.198 A 
ATOM     82  F   UNL     1      -6.874 -12.839  -0.286  1.00  0.00    -0.203 F 
ATOM     83  F   UNL     1     -11.242 -14.184  -3.238  1.00  0.00    -0.200 F 
ATOM     84  C   UNL     1      -9.339 -14.826  -2.006  1.00  0.00     0.200 A 
ATOM     85  F   UNL     1      -7.382 -15.402  -0.824  1.00  0.00    -0.200 F 
ATOM     86  F   UNL     1      -9.529 -16.108  -2.345  1.00  0.00    -0.200 F 
ENDBRANCH  52  76
BRANCH  64  87
ATOM     87  C   UNL     1      -9.294  -5.838  -2.102  1.00  0.00     0.064 A 
ATOM     88  C   UNL     1      -9.259  -6.124  -0.727  1.00  0.00     0.173 A 
ATOM     89  C   UNL     1     -10.122  -4.790  -2.525  1.00  0.00     0.173 A 
ATOM     90  F   UNL     1      -8.426  -7.050  -0.234  1.00  0.00    -0.203 F 
ATOM     91  C   UNL     1     -10.037  -5.404   0.179  1.00  0.00     0.198 A 
ATOM     92  C   UNL     1     -10.870  -4.049  -1.615  1.00  0.00     0.198 A 
ATOM     93  F   UNL     1     -10.156  -4.441  -3.821  1.00  0.00    -0.203 F 
ATOM     94  F   UNL     1      -9.985  -5.691   1.488  1.00  0.00    -0.200 F 
ATOM     95  C   UNL     1     -10.831  -4.359  -0.265  1.00  0.00     0.200 A 
ATOM     96  F   UNL     1     -11.598  -3.008  -2.042  1.00  0.00    -0.200 F 
ATOM     97  F   UNL     1     -11.536  -3.630   0.612  1.00  0.00    -0.200 F 
ENDBRANCH  64  87
ENDBRANCH  38  39
ENDBRANCH  31  33
ENDBRANCH  30  31
ENDBRANCH   1  30
TORSDOF 13
