REMARK SMILES CCS(=O)(=O)N1CCC[C@@H](C(=O)OCCOC(=O)c2ccc(-c3c4nc(c(-c5c(F)c(F)c(F)c(F)c5F)c5ccc([nH]5)c(-c5c(F)c(F)c(F)c(F)c5F)c5nc(c(-c6c(F)c(F)c(F)c(F)c6F)c6ccc3[nH]6)C=C5)C=C4)cc2)C1
REMARK SMILES IDX 14 1 13 2 11 3 12 4 10 5 6 6 7 7 82 8 8 9 9 10 3 11 4 12
REMARK SMILES IDX 5 13 2 14 1 15 15 16 16 17 17 18 18 19 19 20 20 21 81 22
REMARK SMILES IDX 21 23 80 24 22 25 23 26 24 27 74 28 25 29 79 30 73 31 75 32
REMARK SMILES IDX 26 33 78 34 72 35 71 36 27 38 59 39 39 40 58 41 40 42 43 43
REMARK SMILES IDX 57 44 76 45 41 46 42 47 56 49 77 50 44 51 28 52 29 53 37 54
REMARK SMILES IDX 30 55 31 56 35 57 38 58 32 59 33 60 36 61 34 62 60 63 61 64
REMARK SMILES IDX 69 65 62 66 63 67 67 68 70 69 64 70 65 71 68 72 66 73 45 74
REMARK SMILES IDX 46 75 54 76 47 77 48 78 52 79 55 80 49 81 50 82 53 83 51 84
REMARK H PARENT 75 37 43 48
REMARK Flexibility Score: inf
ROOT
ATOM      1  C   UNL     1       5.970   6.181  -4.092  1.00  0.00     0.274 C 
ENDROOT
BRANCH   1   2
ATOM      2  O   UNL     1       5.285   5.073  -3.469  1.00  0.00    -0.462 OA
BRANCH   2   3
ATOM      3  C   UNL     1       5.868   4.559  -2.356  1.00  0.00     0.310 C 
ATOM      4  O   UNL     1       6.930   4.948  -1.881  1.00  0.00    -0.252 OA
BRANCH   3   5
ATOM      5  C   UNL     1       5.109   3.386  -1.773  1.00  0.00     0.114 C 
ATOM      6  N   UNL     1       2.917   2.325  -1.241  1.00  0.00    -0.201 NA
ATOM      7  C   UNL     1       3.332   1.093  -1.977  1.00  0.00     0.102 C 
ATOM      8  C   UNL     1       3.588   3.538  -1.845  1.00  0.00     0.117 C 
ATOM      9  C   UNL     1       4.838   0.902  -1.836  1.00  0.00     0.018 C 
ATOM     10  C   UNL     1       5.585   2.092  -2.428  1.00  0.00     0.018 C 
BRANCH   6  11
ATOM     11  S   UNL     1       1.219   2.530  -1.084  1.00  0.00     0.213 S 
ATOM     12  O   UNL     1       0.598   2.006  -2.282  1.00  0.00    -0.212 OA
ATOM     13  O   UNL     1       0.981   3.896  -0.665  1.00  0.00    -0.212 OA
BRANCH  11  14
ATOM     14  C   UNL     1       0.768   1.510   0.318  1.00  0.00     0.151 C 
ATOM     15  C   UNL     1       0.893   0.017   0.120  1.00  0.00     0.022 C 
ENDBRANCH  11  14
ENDBRANCH   6  11
ENDBRANCH   3   5
ENDBRANCH   2   3
ENDBRANCH   1   2
BRANCH   1  16
ATOM     16  C   UNL     1       5.402   7.538  -3.659  1.00  0.00     0.275 C 
BRANCH  16  17
ATOM     17  O   UNL     1       5.653   7.811  -2.269  1.00  0.00    -0.458 OA
BRANCH  17  18
ATOM     18  C   UNL     1       4.685   7.379  -1.427  1.00  0.00     0.338 C 
ATOM     19  O   UNL     1       3.638   6.837  -1.731  1.00  0.00    -0.246 OA
BRANCH  18  20
ATOM     20  C   UNL     1       5.131   7.522  -0.033  1.00  0.00     0.060 A 
ATOM     21  C   UNL     1       5.177   6.376   0.768  1.00  0.00     0.016 A 
ATOM     22  C   UNL     1       5.421   8.776   0.504  1.00  0.00     0.016 A 
ATOM     23  C   UNL     1       5.512   6.475   2.115  1.00  0.00     0.010 A 
ATOM     24  C   UNL     1       5.746   8.878   1.858  1.00  0.00     0.010 A 
ATOM     25  C   UNL     1       5.780   7.730   2.671  1.00  0.00    -0.014 A 
BRANCH  25  26
ATOM     26  C   UNL     1       6.006   7.866   4.127  1.00  0.00     0.031 A 
ATOM     27  C   UNL     1       4.896   8.387   4.991  1.00  0.00     0.074 A 
ATOM     28  C   UNL     1       7.192   7.532   4.665  1.00  0.00     0.049 A 
ATOM     29  N   UNL     1       4.921   8.747   6.248  1.00  0.00    -0.248 NA
ATOM     30  C   UNL     1       3.579   8.521   4.349  1.00  0.00     0.031 C 
ATOM     31  C   UNL     1       8.315   6.946   3.936  1.00  0.00     0.029 A 
ATOM     32  N   UNL     1       7.652   7.655   5.952  1.00  0.00    -0.354 N 
ATOM     33  C   UNL     1       3.632   9.170   6.542  1.00  0.00     0.074 A 
ATOM     34  C   UNL     1       2.851   9.033   5.332  1.00  0.00     0.031 C 
ATOM     35  C   UNL     1       9.343   6.776   4.784  1.00  0.00     0.029 A 
ATOM     36  C   UNL     1       8.967   7.290   6.098  1.00  0.00     0.049 A 
ATOM     37  H   UNL     1       7.093   7.975   6.697  1.00  0.00     0.167 HD
ATOM     38  C   UNL     1       3.150   9.632   7.720  1.00  0.00     0.037 A 
ATOM     39  C   UNL     1       9.781   7.400   7.165  1.00  0.00     0.037 A 
ATOM     40  C   UNL     1       3.936   9.760   8.918  1.00  0.00     0.049 A 
ATOM     41  C   UNL     1       9.244   7.998   8.439  1.00  0.00     0.074 A 
ATOM     42  C   UNL     1       3.554  10.244  10.157  1.00  0.00     0.029 A 
ATOM     43  N   UNL     1       5.270   9.395   9.025  1.00  0.00    -0.354 N 
ATOM     44  N   UNL     1       8.035   8.431   8.705  1.00  0.00    -0.248 NA
ATOM     45  C   UNL     1      10.187   8.131   9.559  1.00  0.00     0.031 C 
ATOM     46  C   UNL     1       4.665  10.202  11.004  1.00  0.00     0.029 A 
ATOM     47  C   UNL     1       5.728   9.649  10.307  1.00  0.00     0.049 A 
ATOM     48  H   UNL     1       5.812   9.012   8.298  1.00  0.00     0.167 HD
ATOM     49  C   UNL     1       8.062   8.850  10.029  1.00  0.00     0.074 A 
ATOM     50  C   UNL     1       9.406   8.619  10.513  1.00  0.00     0.031 C 
ATOM     51  C   UNL     1       7.062   9.378  10.777  1.00  0.00     0.037 A 
BRANCH  38  52
ATOM     52  C   UNL     1       1.715  10.062   7.760  1.00  0.00     0.064 A 
ATOM     53  C   UNL     1       0.666   9.131   7.735  1.00  0.00     0.173 A 
ATOM     54  C   UNL     1       1.384  11.422   7.858  1.00  0.00     0.173 A 
ATOM     55  F   UNL     1       0.930   7.820   7.627  1.00  0.00    -0.203 F 
ATOM     56  C   UNL     1      -0.662   9.547   7.787  1.00  0.00     0.198 A 
ATOM     57  C   UNL     1       0.056  11.833   7.936  1.00  0.00     0.198 A 
ATOM     58  F   UNL     1       2.350  12.353   7.888  1.00  0.00    -0.203 F 
ATOM     59  F   UNL     1      -1.649   8.643   7.724  1.00  0.00    -0.200 F 
ATOM     60  C   UNL     1      -0.965  10.896   7.895  1.00  0.00     0.200 A 
ATOM     61  F   UNL     1      -0.235  13.136   8.051  1.00  0.00    -0.200 F 
ATOM     62  F   UNL     1      -2.244  11.295   7.953  1.00  0.00    -0.200 F 
ENDBRANCH  38  52
BRANCH  39  63
ATOM     63  C   UNL     1      11.198   6.962   7.071  1.00  0.00     0.064 A 
ATOM     64  C   UNL     1      11.660   5.856   7.798  1.00  0.00     0.173 A 
ATOM     65  C   UNL     1      12.125   7.653   6.276  1.00  0.00     0.173 A 
ATOM     66  F   UNL     1      10.818   5.180   8.594  1.00  0.00    -0.203 F 
ATOM     67  C   UNL     1      12.998   5.471   7.749  1.00  0.00     0.198 A 
ATOM     68  C   UNL     1      13.456   7.249   6.205  1.00  0.00     0.198 A 
ATOM     69  F   UNL     1      11.735   8.721   5.564  1.00  0.00    -0.203 F 
ATOM     70  F   UNL     1      13.423   4.441   8.493  1.00  0.00    -0.200 F 
ATOM     71  C   UNL     1      13.894   6.164   6.949  1.00  0.00     0.200 A 
ATOM     72  F   UNL     1      14.316   7.916   5.424  1.00  0.00    -0.200 F 
ATOM     73  F   UNL     1      15.181   5.793   6.904  1.00  0.00    -0.200 F 
ENDBRANCH  39  63
BRANCH  51  74
ATOM     74  C   UNL     1       7.359   9.675  12.216  1.00  0.00     0.064 A 
ATOM     75  C   UNL     1       8.137  10.776  12.598  1.00  0.00     0.173 A 
ATOM     76  C   UNL     1       6.806   8.875  13.227  1.00  0.00     0.173 A 
ATOM     77  F   UNL     1       8.700  11.561  11.667  1.00  0.00    -0.203 F 
ATOM     78  C   UNL     1       8.364  11.057  13.943  1.00  0.00     0.198 A 
ATOM     79  C   UNL     1       7.013   9.174  14.570  1.00  0.00     0.198 A 
ATOM     80  F   UNL     1       6.049   7.813  12.911  1.00  0.00    -0.203 F 
ATOM     81  F   UNL     1       9.139  12.094  14.287  1.00  0.00    -0.200 F 
ATOM     82  C   UNL     1       7.795  10.262  14.927  1.00  0.00     0.200 A 
ATOM     83  F   UNL     1       6.452   8.411  15.519  1.00  0.00    -0.200 F 
ATOM     84  F   UNL     1       8.005  10.541  16.221  1.00  0.00    -0.200 F 
ENDBRANCH  51  74
ENDBRANCH  25  26
ENDBRANCH  18  20
ENDBRANCH  17  18
ENDBRANCH  16  17
ENDBRANCH   1  16
TORSDOF 13
