REMARK SMILES CC(C)(Nc1cccc(F)c1C#N)C(C)(C)C(=O)OCCOC(=O)c1ccc(-c2c3nc(c(-c4c(F)c(F)c(F)c(F)c4F)c4ccc([nH]4)c(-c4c(F)c(F)c(F)c(F)c4F)c4nc(c(-c5c(F)c(F)c(F)c(F)c5F)c5ccc2[nH]5)C=C4)C=C3)cc1
REMARK SMILES IDX 20 1 19 2 17 3 18 4 14 5 15 6 16 7 2 8 1 9 3 10 4 11 5 13
REMARK SMILES IDX 6 14 11 15 7 16 9 17 8 18 10 19 12 20 13 21 21 22 22 23
REMARK SMILES IDX 23 24 24 25 25 26 26 27 87 28 27 29 86 30 28 31 29 32 30 33
REMARK SMILES IDX 80 34 31 35 85 36 79 37 81 38 32 39 84 40 78 41 77 42 33 44
REMARK SMILES IDX 65 45 45 46 64 47 46 48 49 49 63 50 82 51 47 52 48 53 62 55
REMARK SMILES IDX 83 56 50 57 34 58 35 59 43 60 36 61 37 62 41 63 44 64 38 65
REMARK SMILES IDX 39 66 42 67 40 68 66 69 67 70 75 71 68 72 69 73 73 74 76 75
REMARK SMILES IDX 70 76 71 77 74 78 72 79 51 80 52 81 60 82 53 83 54 84 58 85
REMARK SMILES IDX 61 86 55 87 56 88 59 89 57 90
REMARK H PARENT 4 12 81 43 49 54
REMARK Flexibility Score: inf
ROOT
ATOM      1  C   UNL     1       0.959  -5.268   3.221  1.00  0.00     0.274 C 
ENDROOT
BRANCH   1   2
ATOM      2  O   UNL     1       1.490  -4.637   2.009  1.00  0.00    -0.462 OA
BRANCH   2   3
ATOM      3  C   UNL     1       1.006  -3.394   1.825  1.00  0.00     0.313 C 
ATOM      4  O   UNL     1       0.373  -2.866   2.712  1.00  0.00    -0.252 OA
BRANCH   3   5
ATOM      5  C   UNL     1       1.273  -2.647   0.538  1.00  0.00     0.085 C 
ATOM      6  C   UNL     1       0.838  -3.450  -0.692  1.00  0.00     0.026 C 
ATOM      7  C   UNL     1       2.813  -2.497   0.477  1.00  0.00     0.026 C 
BRANCH   5   8
ATOM      8  C   UNL     1       0.515  -1.218   0.622  1.00  0.00     0.047 C 
ATOM      9  C   UNL     1       0.613  -0.421  -0.704  1.00  0.00     0.035 C 
ATOM     10  C   UNL     1       1.258  -0.288   1.640  1.00  0.00     0.035 C 
BRANCH   8  11
ATOM     11  N   UNL     1      -0.970  -1.234   1.009  1.00  0.00    -0.378 N 
ATOM     12  H   UNL     1      -1.293  -0.446   1.503  1.00  0.00     0.161 HD
BRANCH  11  13
ATOM     13  C   UNL     1      -1.923  -2.224   0.751  1.00  0.00     0.056 A 
ATOM     14  C   UNL     1      -2.689  -2.132  -0.421  1.00  0.00     0.027 A 
ATOM     15  C   UNL     1      -2.243  -3.316   1.596  1.00  0.00     0.111 A 
ATOM     16  C   UNL     1      -3.553  -3.165  -0.823  1.00  0.00     0.005 A 
ATOM     17  C   UNL     1      -2.940  -4.422   1.099  1.00  0.00     0.143 A 
ATOM     18  C   UNL     1      -3.602  -4.355  -0.109  1.00  0.00     0.041 A 
ATOM     19  F   UNL     1      -3.054  -5.539   1.836  1.00  0.00    -0.205 F 
BRANCH  15  20
ATOM     20  C   UNL     1      -2.236  -3.273   3.028  1.00  0.00     0.104 C 
ATOM     21  N   UNL     1      -2.413  -3.294   4.182  1.00  0.00    -0.192 NA
ENDBRANCH  15  20
ENDBRANCH  11  13
ENDBRANCH   8  11
ENDBRANCH   5   8
ENDBRANCH   3   5
ENDBRANCH   2   3
ENDBRANCH   1   2
BRANCH   1  22
ATOM     22  C   UNL     1       1.340  -4.636   4.603  1.00  0.00     0.275 C 
BRANCH  22  23
ATOM     23  O   UNL     1       0.512  -3.504   5.019  1.00  0.00    -0.458 OA
BRANCH  23  24
ATOM     24  C   UNL     1       1.148  -2.342   5.341  1.00  0.00     0.338 C 
ATOM     25  O   UNL     1       2.359  -2.218   5.478  1.00  0.00    -0.246 OA
BRANCH  24  26
ATOM     26  C   UNL     1       0.261  -1.133   5.443  1.00  0.00     0.060 A 
ATOM     27  C   UNL     1      -0.485  -0.716   4.350  1.00  0.00     0.016 A 
ATOM     28  C   UNL     1       0.407  -0.216   6.481  1.00  0.00     0.016 A 
ATOM     29  C   UNL     1      -0.925   0.593   4.188  1.00  0.00     0.010 A 
ATOM     30  C   UNL     1      -0.174   1.073   6.390  1.00  0.00     0.010 A 
ATOM     31  C   UNL     1      -0.806   1.517   5.212  1.00  0.00    -0.014 A 
BRANCH  31  32
ATOM     32  C   UNL     1      -1.265   2.925   4.988  1.00  0.00     0.031 A 
ATOM     33  C   UNL     1      -0.335   4.072   5.293  1.00  0.00     0.074 A 
ATOM     34  C   UNL     1      -2.477   3.204   4.453  1.00  0.00     0.049 A 
ATOM     35  N   UNL     1      -0.603   5.345   5.441  1.00  0.00    -0.248 NA
ATOM     36  C   UNL     1       1.087   3.738   5.463  1.00  0.00     0.031 C 
ATOM     37  C   UNL     1      -3.453   2.221   3.972  1.00  0.00     0.029 A 
ATOM     38  N   UNL     1      -3.102   4.411   4.224  1.00  0.00    -0.354 N 
ATOM     39  C   UNL     1       0.595   5.945   5.812  1.00  0.00     0.074 A 
ATOM     40  C   UNL     1       1.595   4.899   5.852  1.00  0.00     0.031 C 
ATOM     41  C   UNL     1      -4.526   2.856   3.483  1.00  0.00     0.029 A 
ATOM     42  C   UNL     1      -4.389   4.279   3.754  1.00  0.00     0.049 A 
ATOM     43  H   UNL     1      -2.671   5.282   4.381  1.00  0.00     0.167 HD
ATOM     44  C   UNL     1       0.828   7.247   6.108  1.00  0.00     0.037 A 
ATOM     45  C   UNL     1      -5.389   5.174   3.640  1.00  0.00     0.037 A 
ATOM     46  C   UNL     1      -0.168   8.285   6.007  1.00  0.00     0.049 A 
ATOM     47  C   UNL     1      -5.144   6.592   4.072  1.00  0.00     0.074 A 
ATOM     48  C   UNL     1      -0.039   9.636   6.281  1.00  0.00     0.029 A 
ATOM     49  N   UNL     1      -1.477   8.088   5.589  1.00  0.00    -0.354 N 
ATOM     50  N   UNL     1      -4.042   7.141   4.520  1.00  0.00    -0.248 NA
ATOM     51  C   UNL     1      -6.287   7.511   4.002  1.00  0.00     0.031 C 
ATOM     52  C   UNL     1      -1.286  10.241   6.098  1.00  0.00     0.029 A 
ATOM     53  C   UNL     1      -2.173   9.287   5.628  1.00  0.00     0.049 A 
ATOM     54  H   UNL     1      -1.856   7.224   5.307  1.00  0.00     0.167 HD
ATOM     55  C   UNL     1      -4.349   8.473   4.760  1.00  0.00     0.074 A 
ATOM     56  C   UNL     1      -5.737   8.653   4.389  1.00  0.00     0.031 C 
ATOM     57  C   UNL     1      -3.552   9.456   5.245  1.00  0.00     0.037 A 
BRANCH  44  58
ATOM     58  C   UNL     1       2.186   7.615   6.641  1.00  0.00     0.064 A 
ATOM     59  C   UNL     1       3.346   7.575   5.854  1.00  0.00     0.173 A 
ATOM     60  C   UNL     1       2.318   8.047   7.972  1.00  0.00     0.173 A 
ATOM     61  F   UNL     1       3.283   7.163   4.579  1.00  0.00    -0.203 F 
ATOM     62  C   UNL     1       4.588   7.917   6.387  1.00  0.00     0.198 A 
ATOM     63  C   UNL     1       3.553   8.426   8.490  1.00  0.00     0.198 A 
ATOM     64  F   UNL     1       1.242   8.116   8.771  1.00  0.00    -0.203 F 
ATOM     65  F   UNL     1       5.690   7.813   5.632  1.00  0.00    -0.200 F 
ATOM     66  C   UNL     1       4.689   8.350   7.701  1.00  0.00     0.200 A 
ATOM     67  F   UNL     1       3.643   8.864   9.754  1.00  0.00    -0.200 F 
ATOM     68  F   UNL     1       5.883   8.687   8.209  1.00  0.00    -0.200 F 
ENDBRANCH  44  58
BRANCH  45  69
ATOM     69  C   UNL     1      -6.738   4.736   3.182  1.00  0.00     0.064 A 
ATOM     70  C   UNL     1      -7.291   5.217   1.988  1.00  0.00     0.173 A 
ATOM     71  C   UNL     1      -7.507   3.830   3.933  1.00  0.00     0.173 A 
ATOM     72  F   UNL     1      -6.613   6.106   1.247  1.00  0.00    -0.203 F 
ATOM     73  C   UNL     1      -8.561   4.822   1.570  1.00  0.00     0.198 A 
ATOM     74  C   UNL     1      -8.758   3.402   3.492  1.00  0.00     0.198 A 
ATOM     75  F   UNL     1      -7.033   3.340   5.088  1.00  0.00    -0.203 F 
ATOM     76  F   UNL     1      -9.085   5.338   0.450  1.00  0.00    -0.200 F 
ATOM     77  C   UNL     1      -9.288   3.906   2.316  1.00  0.00     0.200 A 
ATOM     78  F   UNL     1      -9.446   2.501   4.206  1.00  0.00    -0.200 F 
ATOM     79  F   UNL     1     -10.502   3.516   1.905  1.00  0.00    -0.200 F 
ENDBRANCH  45  69
BRANCH  57  80
ATOM     80  C   UNL     1      -4.143  10.834   5.341  1.00  0.00     0.064 A 
ATOM     81  C   UNL     1      -5.144  11.153   6.270  1.00  0.00     0.173 A 
ATOM     82  C   UNL     1      -3.677  11.859   4.502  1.00  0.00     0.173 A 
ATOM     83  F   UNL     1      -5.637  10.206   7.083  1.00  0.00    -0.203 F 
ATOM     84  C   UNL     1      -5.680  12.436   6.332  1.00  0.00     0.198 A 
ATOM     85  C   UNL     1      -4.187  13.150   4.595  1.00  0.00     0.198 A 
ATOM     86  F   UNL     1      -2.717  11.611   3.598  1.00  0.00    -0.203 F 
ATOM     87  F   UNL     1      -6.681  12.702   7.184  1.00  0.00    -0.200 F 
ATOM     88  C   UNL     1      -5.195  13.436   5.502  1.00  0.00     0.200 A 
ATOM     89  F   UNL     1      -3.703  14.118   3.804  1.00  0.00    -0.200 F 
ATOM     90  F   UNL     1      -5.707  14.672   5.569  1.00  0.00    -0.200 F 
ENDBRANCH  57  80
ENDBRANCH  31  32
ENDBRANCH  24  26
ENDBRANCH  23  24
ENDBRANCH  22  23
ENDBRANCH   1  22
TORSDOF 15
