REMARK SMILES O=C(Nc1ccc(C(=O)OCCOC(=O)c2ccc(-c3c4nc(c(-c5c(F)c(F)c(F)c(F)c5F)c5ccc([nH]5)c(-c5c(F)c(F)c(F)c(F)c5F)c5nc(c(-c6c(F)c(F)c(F)c(F)c6F)c6ccc3[nH]6)C=C5)C=C4)cc2)cc1)c1cc(F)cc(Br)c1
REMARK SMILES IDX 11 1 10 2 8 3 9 4 7 5 4 6 5 7 80 8 6 9 79 10 3 11 1 12 2 13
REMARK SMILES IDX 81 15 82 16 88 17 83 18 86 19 84 20 85 21 87 22 12 23 13 24
REMARK SMILES IDX 14 25 15 26 16 27 17 28 78 29 18 30 77 31 19 32 20 33 21 34
REMARK SMILES IDX 71 35 22 36 76 37 70 38 72 39 23 40 75 41 69 42 68 43 24 45
REMARK SMILES IDX 56 46 36 47 55 48 37 49 40 50 54 51 73 52 38 53 39 54 53 56
REMARK SMILES IDX 74 57 41 58 25 59 26 60 34 61 27 62 28 63 32 64 35 65 29 66
REMARK SMILES IDX 30 67 33 68 31 69 57 70 58 71 66 72 59 73 60 74 64 75 67 76
REMARK SMILES IDX 61 77 62 78 65 79 63 80 42 81 43 82 51 83 44 84 45 85 49 86
REMARK SMILES IDX 52 87 46 88 47 89 50 90 48 91
REMARK H PARENT 3 14 72 44 40 55
REMARK Flexibility Score: inf
ROOT
ATOM      1  C   UNL     1      10.582   0.915  -0.741  1.00  0.00     0.275 C 
ENDROOT
BRANCH   1   2
ATOM      2  O   UNL     1       9.149   1.041  -0.861  1.00  0.00    -0.458 OA
BRANCH   2   3
ATOM      3  C   UNL     1       8.450   0.733   0.258  1.00  0.00     0.338 C 
ATOM      4  O   UNL     1       8.904   0.345   1.323  1.00  0.00    -0.246 OA
BRANCH   3   5
ATOM      5  C   UNL     1       7.004   0.986   0.067  1.00  0.00     0.060 A 
ATOM      6  C   UNL     1       4.223   1.106  -0.076  1.00  0.00     0.041 A 
ATOM      7  C   UNL     1       4.863   1.530   1.083  1.00  0.00     0.027 A 
ATOM      8  C   UNL     1       4.974   0.756  -1.207  1.00  0.00     0.027 A 
ATOM      9  C   UNL     1       6.248   1.415   1.169  1.00  0.00     0.018 A 
ATOM     10  C   UNL     1       6.369   0.704  -1.142  1.00  0.00     0.018 A 
BRANCH   6  11
ATOM     11  N   UNL     1       2.832   0.930  -0.015  1.00  0.00    -0.322 N 
ATOM     12  O   UNL     1       0.880  -0.122  -0.526  1.00  0.00    -0.269 OA
ATOM     13  C   UNL     1       2.106  -0.143  -0.494  1.00  0.00     0.255 C 
ATOM     14  H   UNL     1       2.318   1.650   0.416  1.00  0.00     0.170 HD
BRANCH  13  15
ATOM     15  C   UNL     1       2.816  -1.387  -0.879  1.00  0.00     0.044 A 
ATOM     16  C   UNL     1       3.751  -1.975  -0.017  1.00  0.00     0.053 A 
ATOM     17  C   UNL     1       2.561  -1.946  -2.134  1.00  0.00     0.029 A 
ATOM     18  C   UNL     1       4.484  -3.068  -0.456  1.00  0.00     0.125 A 
ATOM     19  C   UNL     1       3.305  -3.051  -2.548  1.00  0.00     0.021 A 
ATOM     20  F   UNL     1       5.422  -3.595   0.342  1.00  0.00    -0.207 F 
ATOM     21  C   UNL     1       4.279  -3.608  -1.720  1.00  0.00     0.055 A 
ATOM     22  Br  UNL     1       3.014  -3.780  -4.266  1.00  0.00    -0.051 Br
ENDBRANCH  13  15
ENDBRANCH   6  11
ENDBRANCH   3   5
ENDBRANCH   2   3
ENDBRANCH   1   2
BRANCH   1  23
ATOM     23  C   UNL     1      11.215   2.266  -0.407  1.00  0.00     0.275 C 
BRANCH  23  24
ATOM     24  O   UNL     1      10.748   2.708   0.880  1.00  0.00    -0.458 OA
BRANCH  24  25
ATOM     25  C   UNL     1      10.474   4.028   0.992  1.00  0.00     0.338 C 
ATOM     26  O   UNL     1      10.661   4.893   0.154  1.00  0.00    -0.246 OA
BRANCH  25  27
ATOM     27  C   UNL     1       9.870   4.307   2.314  1.00  0.00     0.060 A 
ATOM     28  C   UNL     1       8.873   3.476   2.820  1.00  0.00     0.016 A 
ATOM     29  C   UNL     1      10.211   5.468   3.005  1.00  0.00     0.016 A 
ATOM     30  C   UNL     1       8.144   3.848   3.950  1.00  0.00     0.010 A 
ATOM     31  C   UNL     1       9.547   5.791   4.197  1.00  0.00     0.010 A 
ATOM     32  C   UNL     1       8.471   5.012   4.660  1.00  0.00    -0.014 A 
BRANCH  32  33
ATOM     33  C   UNL     1       7.641   5.447   5.825  1.00  0.00     0.031 A 
ATOM     34  C   UNL     1       6.981   6.805   5.820  1.00  0.00     0.074 A 
ATOM     35  C   UNL     1       7.431   4.628   6.877  1.00  0.00     0.049 A 
ATOM     36  N   UNL     1       6.362   7.432   6.790  1.00  0.00    -0.248 NA
ATOM     37  C   UNL     1       7.040   7.566   4.563  1.00  0.00     0.031 C 
ATOM     38  C   UNL     1       7.967   3.275   7.021  1.00  0.00     0.029 A 
ATOM     39  N   UNL     1       6.689   4.811   8.021  1.00  0.00    -0.354 N 
ATOM     40  C   UNL     1       6.024   8.681   6.283  1.00  0.00     0.074 A 
ATOM     41  C   UNL     1       6.501   8.724   4.918  1.00  0.00     0.031 C 
ATOM     42  C   UNL     1       7.493   2.731   8.153  1.00  0.00     0.029 A 
ATOM     43  C   UNL     1       6.686   3.722   8.857  1.00  0.00     0.049 A 
ATOM     44  H   UNL     1       6.205   5.645   8.221  1.00  0.00     0.167 HD
ATOM     45  C   UNL     1       5.376   9.700   6.897  1.00  0.00     0.037 A 
ATOM     46  C   UNL     1       6.124   3.544  10.069  1.00  0.00     0.037 A 
ATOM     47  C   UNL     1       4.830   9.640   8.228  1.00  0.00     0.049 A 
ATOM     48  C   UNL     1       5.370   4.675  10.712  1.00  0.00     0.074 A 
ATOM     49  C   UNL     1       4.174  10.630   8.941  1.00  0.00     0.029 A 
ATOM     50  N   UNL     1       4.846   8.513   9.035  1.00  0.00    -0.354 N 
ATOM     51  N   UNL     1       5.146   5.882  10.258  1.00  0.00    -0.248 NA
ATOM     52  C   UNL     1       4.810   4.422  12.048  1.00  0.00     0.031 C 
ATOM     53  C   UNL     1       3.799  10.104  10.182  1.00  0.00     0.029 A 
ATOM     54  C   UNL     1       4.198   8.779  10.231  1.00  0.00     0.049 A 
ATOM     55  H   UNL     1       5.256   7.652   8.794  1.00  0.00     0.167 HD
ATOM     56  C   UNL     1       4.430   6.535  11.251  1.00  0.00     0.074 A 
ATOM     57  C   UNL     1       4.222   5.579  12.318  1.00  0.00     0.031 C 
ATOM     58  C   UNL     1       3.999   7.820  11.284  1.00  0.00     0.037 A 
BRANCH  45  59
ATOM     59  C   UNL     1       5.238  10.989   6.142  1.00  0.00     0.064 A 
ATOM     60  C   UNL     1       4.322  11.136   5.091  1.00  0.00     0.173 A 
ATOM     61  C   UNL     1       6.009  12.104   6.505  1.00  0.00     0.173 A 
ATOM     62  F   UNL     1       3.575  10.094   4.697  1.00  0.00    -0.203 F 
ATOM     63  C   UNL     1       4.195  12.349   4.419  1.00  0.00     0.198 A 
ATOM     64  C   UNL     1       5.862  13.322   5.847  1.00  0.00     0.198 A 
ATOM     65  F   UNL     1       6.896  12.016   7.507  1.00  0.00    -0.203 F 
ATOM     66  F   UNL     1       3.340  12.458   3.393  1.00  0.00    -0.200 F 
ATOM     67  C   UNL     1       4.959  13.443   4.802  1.00  0.00     0.200 A 
ATOM     68  F   UNL     1       6.593  14.380   6.226  1.00  0.00    -0.200 F 
ATOM     69  F   UNL     1       4.829  14.611   4.159  1.00  0.00    -0.200 F 
ENDBRANCH  45  59
BRANCH  46  70
ATOM     70  C   UNL     1       6.277   2.243  10.771  1.00  0.00     0.064 A 
ATOM     71  C   UNL     1       5.184   1.382  10.940  1.00  0.00     0.173 A 
ATOM     72  C   UNL     1       7.517   1.836  11.285  1.00  0.00     0.173 A 
ATOM     73  F   UNL     1       3.973   1.742  10.491  1.00  0.00    -0.203 F 
ATOM     74  C   UNL     1       5.324   0.166  11.605  1.00  0.00     0.198 A 
ATOM     75  C   UNL     1       7.662   0.607  11.924  1.00  0.00     0.198 A 
ATOM     76  F   UNL     1       8.592   2.627  11.151  1.00  0.00    -0.203 F 
ATOM     77  F   UNL     1       4.256  -0.622  11.789  1.00  0.00    -0.200 F 
ATOM     78  C   UNL     1       6.564  -0.224  12.089  1.00  0.00     0.200 A 
ATOM     79  F   UNL     1       8.864   0.229  12.379  1.00  0.00    -0.200 F 
ATOM     80  F   UNL     1       6.700  -1.398  12.720  1.00  0.00    -0.200 F 
ENDBRANCH  46  70
BRANCH  58  81
ATOM     81  C   UNL     1       3.257   8.258  12.509  1.00  0.00     0.064 A 
ATOM     82  C   UNL     1       3.929   8.513  13.714  1.00  0.00     0.173 A 
ATOM     83  C   UNL     1       1.868   8.442  12.475  1.00  0.00     0.173 A 
ATOM     84  F   UNL     1       5.256   8.336  13.797  1.00  0.00    -0.203 F 
ATOM     85  C   UNL     1       3.230   8.912  14.850  1.00  0.00     0.198 A 
ATOM     86  C   UNL     1       1.175   8.861  13.608  1.00  0.00     0.198 A 
ATOM     87  F   UNL     1       1.183   8.214  11.345  1.00  0.00    -0.203 F 
ATOM     88  F   UNL     1       3.885   9.108  16.003  1.00  0.00    -0.200 F 
ATOM     89  C   UNL     1       1.855   9.088  14.796  1.00  0.00     0.200 A 
ATOM     90  F   UNL     1      -0.152   9.036  13.554  1.00  0.00    -0.200 F 
ATOM     91  F   UNL     1       1.184   9.468  15.891  1.00  0.00    -0.200 F 
ENDBRANCH  58  81
ENDBRANCH  32  33
ENDBRANCH  25  27
ENDBRANCH  24  25
ENDBRANCH  23  24
ENDBRANCH   1  23
TORSDOF 13
