REMARK SMILES Cc1ccc(-c2nc(C)cc(N3CCCC[C@H]3C(=O)OCCOC(=O)c3ccc(-c4c5nc(c(-c6c(F)c(F)c(F)c(F)c6F)c6ccc([nH]6)c(-c6c(F)c(F)c(F)c(F)c6F)c6nc(c(-c7c(F)c(F)c(F)c(F)c7F)c7ccc4[nH]7)C=C6)C=C5)cc3)n2)cc1
REMARK SMILES IDX 21 1 20 2 18 3 19 4 17 5 12 6 13 7 14 8 16 9 15 10 11 11
REMARK SMILES IDX 6 12 7 13 89 14 8 15 9 16 10 17 5 18 1 19 2 20 3 21 91 22
REMARK SMILES IDX 4 23 90 24 22 25 23 26 24 27 25 28 26 29 27 30 88 31 28 32
REMARK SMILES IDX 87 33 29 34 30 35 31 36 81 37 32 38 86 39 80 40 82 41 33 42
REMARK SMILES IDX 85 43 79 44 78 45 34 47 66 48 46 49 65 50 47 51 50 52 64 53
REMARK SMILES IDX 83 54 48 55 49 56 63 58 84 59 51 60 35 61 36 62 44 63 37 64
REMARK SMILES IDX 38 65 42 66 45 67 39 68 40 69 43 70 41 71 67 72 68 73 76 74
REMARK SMILES IDX 69 75 70 76 74 77 77 78 71 79 72 80 75 81 73 82 52 83 53 84
REMARK SMILES IDX 61 85 54 86 55 87 59 88 62 89 56 90 57 91 60 92 58 93
REMARK H PARENT 82 46 50 57
REMARK Flexibility Score: inf
ROOT
ATOM      1  C   UNL     1     -11.232   1.612  -4.306  1.00  0.00     0.274 C 
ENDROOT
BRANCH   1   2
ATOM      2  O   UNL     1     -10.219   2.469  -3.748  1.00  0.00    -0.461 OA
BRANCH   2   3
ATOM      3  C   UNL     1      -9.287   1.866  -2.794  1.00  0.00     0.328 C 
ATOM      4  O   UNL     1     -10.002   0.990  -2.220  1.00  0.00    -0.250 OA
BRANCH   3   5
ATOM      5  C   UNL     1      -7.171   2.444  -2.570  1.00  0.00     0.193 C 
ATOM      6  N   UNL     1      -5.793   1.371  -2.347  1.00  0.00    -0.343 N 
ATOM      7  C   UNL     1      -5.034   0.976  -3.560  1.00  0.00     0.119 C 
ATOM      8  C   UNL     1      -4.518   2.112  -4.425  1.00  0.00     0.022 C 
ATOM      9  C   UNL     1      -6.169   3.686  -3.344  1.00  0.00     0.037 C 
ATOM     10  C   UNL     1      -5.439   3.293  -4.622  1.00  0.00     0.005 C 
BRANCH   6  11
ATOM     11  C   UNL     1      -5.098   1.015  -1.155  1.00  0.00     0.133 A 
ATOM     12  C   UNL     1      -3.088   0.284  -0.216  1.00  0.00     0.161 A 
ATOM     13  N   UNL     1      -3.655  -0.400   0.780  1.00  0.00    -0.233 NA
ATOM     14  N   UNL     1      -3.743   0.993  -1.172  1.00  0.00    -0.211 NA
ATOM     15  C   UNL     1      -4.977  -0.328   0.853  1.00  0.00     0.043 A 
ATOM     16  C   UNL     1      -5.585  -1.146   1.951  1.00  0.00     0.067 C 
ATOM     17  C   UNL     1      -5.721   0.418  -0.058  1.00  0.00     0.070 A 
BRANCH  12  18
ATOM     18  C   UNL     1      -1.628   0.207  -0.224  1.00  0.00     0.019 A 
ATOM     19  C   UNL     1       2.683  -0.029   0.008  1.00  0.00     0.044 C 
ATOM     20  C   UNL     1       1.188   0.055  -0.048  1.00  0.00    -0.051 A 
ATOM     21  C   UNL     1       0.422  -1.114  -0.049  1.00  0.00     0.004 A 
ATOM     22  C   UNL     1       0.541   1.294  -0.114  1.00  0.00     0.004 A 
ATOM     23  C   UNL     1      -0.970  -1.037  -0.126  1.00  0.00     0.012 A 
ATOM     24  C   UNL     1      -0.851   1.368  -0.208  1.00  0.00     0.012 A 
ENDBRANCH  12  18
ENDBRANCH   6  11
ENDBRANCH   3   5
ENDBRANCH   2   3
ENDBRANCH   1   2
BRANCH   1  25
ATOM     25  C   UNL     1     -10.576   0.629  -5.285  1.00  0.00     0.275 C 
BRANCH  25  26
ATOM     26  O   UNL     1      -9.721  -0.372  -4.669  1.00  0.00    -0.458 OA
BRANCH  26  27
ATOM     27  C   UNL     1      -8.361  -0.263  -4.699  1.00  0.00     0.338 C 
ATOM     28  O   UNL     1      -7.601  -1.124  -5.101  1.00  0.00    -0.246 OA
BRANCH  27  29
ATOM     29  C   UNL     1      -7.883   0.848  -3.851  1.00  0.00     0.060 A 
ATOM     30  C   UNL     1      -7.929   0.509  -2.079  1.00  0.00     0.016 A 
ATOM     31  C   UNL     1      -8.153   2.506  -4.443  1.00  0.00     0.016 A 
ATOM     32  C   UNL     1      -8.389   1.831  -0.918  1.00  0.00     0.010 A 
ATOM     33  C   UNL     1      -8.631   3.809  -3.283  1.00  0.00     0.010 A 
ATOM     34  C   UNL     1      -8.821   3.443  -1.546  1.00  0.00    -0.014 A 
BRANCH  34  35
ATOM     35  C   UNL     1      -9.852   4.265  -0.935  1.00  0.00     0.031 A 
ATOM     36  C   UNL     1      -9.570   5.702  -0.873  1.00  0.00     0.074 A 
ATOM     37  C   UNL     1     -11.081   3.706  -0.778  1.00  0.00     0.049 A 
ATOM     38  N   UNL     1     -10.293   6.520  -0.212  1.00  0.00    -0.248 NA
ATOM     39  C   UNL     1      -8.406   6.357  -1.476  1.00  0.00     0.031 C 
ATOM     40  C   UNL     1     -12.406   4.321  -0.725  1.00  0.00     0.029 A 
ATOM     41  N   UNL     1     -11.362   2.360  -0.531  1.00  0.00    -0.354 N 
ATOM     42  C   UNL     1      -9.947   7.788  -0.612  1.00  0.00     0.074 A 
ATOM     43  C   UNL     1      -8.671   7.648  -1.250  1.00  0.00     0.031 C 
ATOM     44  C   UNL     1     -13.299   3.437  -0.233  1.00  0.00     0.029 A 
ATOM     45  C   UNL     1     -12.577   2.239   0.152  1.00  0.00     0.049 A 
ATOM     46  H   UNL     1     -10.789   1.606  -0.799  1.00  0.00     0.167 HD
ATOM     47  C   UNL     1     -10.899   8.748  -0.478  1.00  0.00     0.037 A 
ATOM     48  C   UNL     1     -12.566   1.698   1.405  1.00  0.00     0.037 A 
ATOM     49  C   UNL     1     -12.013   8.203   0.304  1.00  0.00     0.049 A 
ATOM     50  C   UNL     1     -12.647   2.796   2.452  1.00  0.00     0.074 A 
ATOM     51  C   UNL     1     -13.264   7.720  -0.030  1.00  0.00     0.029 A 
ATOM     52  N   UNL     1     -11.727   7.697   1.571  1.00  0.00    -0.354 N 
ATOM     53  N   UNL     1     -12.467   4.064   2.192  1.00  0.00    -0.248 NA
ATOM     54  C   UNL     1     -12.983   2.559   3.850  1.00  0.00     0.031 C 
ATOM     55  C   UNL     1     -13.682   6.846   1.022  1.00  0.00     0.029 A 
ATOM     56  C   UNL     1     -12.706   6.830   2.009  1.00  0.00     0.049 A 
ATOM     57  H   UNL     1     -10.923   7.931   2.090  1.00  0.00     0.167 HD
ATOM     58  C   UNL     1     -12.685   4.811   3.315  1.00  0.00     0.074 A 
ATOM     59  C   UNL     1     -13.022   3.818   4.321  1.00  0.00     0.031 C 
ATOM     60  C   UNL     1     -12.578   6.178   3.316  1.00  0.00     0.037 A 
BRANCH  47  61
ATOM     61  C   UNL     1     -10.941  10.079  -1.186  1.00  0.00     0.064 A 
ATOM     62  C   UNL     1     -11.991  10.977  -0.896  1.00  0.00     0.173 A 
ATOM     63  C   UNL     1     -10.070  10.502  -2.214  1.00  0.00     0.173 A 
ATOM     64  F   UNL     1     -12.898  10.697   0.050  1.00  0.00    -0.203 F 
ATOM     65  C   UNL     1     -12.157  12.186  -1.578  1.00  0.00     0.198 A 
ATOM     66  C   UNL     1     -10.214  11.732  -2.867  1.00  0.00     0.198 A 
ATOM     67  F   UNL     1      -9.076   9.735  -2.672  1.00  0.00    -0.203 F 
ATOM     68  F   UNL     1     -13.201  12.973  -1.287  1.00  0.00    -0.200 F 
ATOM     69  C   UNL     1     -11.263  12.569  -2.556  1.00  0.00     0.200 A 
ATOM     70  F   UNL     1      -9.338  12.083  -3.820  1.00  0.00    -0.200 F 
ATOM     71  F   UNL     1     -11.418  13.731  -3.205  1.00  0.00    -0.200 F 
ENDBRANCH  47  61
BRANCH  48  72
ATOM     72  C   UNL     1     -11.690   0.488   1.457  1.00  0.00     0.064 A 
ATOM     73  C   UNL     1     -11.980  -0.581   0.574  1.00  0.00     0.173 A 
ATOM     74  C   UNL     1     -10.399   0.556   1.970  1.00  0.00     0.173 A 
ATOM     75  F   UNL     1     -13.222  -0.719   0.082  1.00  0.00    -0.203 F 
ATOM     76  C   UNL     1     -10.978  -1.416   0.079  1.00  0.00     0.198 A 
ATOM     77  C   UNL     1      -9.413  -0.312   1.507  1.00  0.00     0.198 A 
ATOM     78  F   UNL     1     -10.027   1.559   2.777  1.00  0.00    -0.203 F 
ATOM     79  F   UNL     1     -11.252  -2.294  -0.897  1.00  0.00    -0.200 F 
ATOM     80  C   UNL     1      -9.682  -1.260   0.528  1.00  0.00     0.200 A 
ATOM     81  F   UNL     1      -8.156  -0.085   1.897  1.00  0.00    -0.200 F 
ATOM     82  F   UNL     1      -8.683  -1.964  -0.025  1.00  0.00    -0.200 F 
ENDBRANCH  48  72
BRANCH  60  83
ATOM     83  C   UNL     1     -12.438   7.048   4.556  1.00  0.00     0.064 A 
ATOM     84  C   UNL     1     -12.143   6.559   5.839  1.00  0.00     0.173 A 
ATOM     85  C   UNL     1     -12.489   8.465   4.470  1.00  0.00     0.173 A 
ATOM     86  F   UNL     1     -11.840   5.275   6.057  1.00  0.00    -0.203 F 
ATOM     87  C   UNL     1     -12.069   7.393   6.957  1.00  0.00     0.198 A 
ATOM     88  C   UNL     1     -12.296   9.300   5.567  1.00  0.00     0.198 A 
ATOM     89  F   UNL     1     -12.702   9.111   3.316  1.00  0.00    -0.203 F 
ATOM     90  F   UNL     1     -11.903   6.851   8.172  1.00  0.00    -0.200 F 
ATOM     91  C   UNL     1     -12.136   8.763   6.821  1.00  0.00     0.200 A 
ATOM     92  F   UNL     1     -12.257  10.628   5.389  1.00  0.00    -0.200 F 
ATOM     93  F   UNL     1     -12.018   9.562   7.888  1.00  0.00    -0.200 F 
ENDBRANCH  60  83
ENDBRANCH  34  35
ENDBRANCH  27  29
ENDBRANCH  26  27
ENDBRANCH  25  26
ENDBRANCH   1  25
TORSDOF 13
