REMARK SMILES Cn1c(SCC(=O)Nc2cccc(C(=O)OCCOC(=O)c3ccc(-c4c5nc(c(-c6c(F)c(F)c(F)c(F)c6F)c6ccc([nH]6)c(-c6c(F)c(F)c(F)c(F)c6F)c6nc(c(-c7c(F)c(F)c(F)c(F)c7F)c7ccc4[nH]7)C=C6)C=C5)cc3)c2)nnc1[C@@H]1CCCN1C(=O)c1ccccc1Cl
REMARK SMILES IDX 14 1 15 2 13 3 9 4 10 5 85 6 11 7 12 8 8 9 6 10 7 11 5 13
REMARK SMILES IDX 4 14 3 15 1 16 2 17 88 18 86 19 87 20 89 21 90 22 93 23
REMARK SMILES IDX 91 24 92 25 94 26 95 27 96 28 97 29 101 30 98 31 100 32
REMARK SMILES IDX 102 33 99 34 16 35 17 36 18 37 19 38 20 39 21 40 22 41 23 42
REMARK SMILES IDX 84 43 24 44 83 45 25 46 26 47 27 48 77 49 28 50 82 51 76 52
REMARK SMILES IDX 78 53 29 54 81 55 75 56 74 57 30 59 62 60 42 61 61 62 43 63
REMARK SMILES IDX 46 64 60 65 79 66 44 67 45 68 59 70 80 71 47 72 31 73 32 74
REMARK SMILES IDX 40 75 33 76 34 77 38 78 41 79 35 80 36 81 39 82 37 83 63 84
REMARK SMILES IDX 64 85 72 86 65 87 66 88 70 89 73 90 67 91 68 92 71 93 69 94
REMARK SMILES IDX 48 95 49 96 57 97 50 98 51 99 55 100 58 101 52 102 53 103
REMARK SMILES IDX 56 104 54 105
REMARK H PARENT 8 12 78 58 46 69
REMARK Flexibility Score: inf
ROOT
ATOM      1  C   UNL     1      -1.139   5.274   1.089  1.00  0.00     0.338 C 
ATOM      2  O   UNL     1      -1.376   6.320   0.501  1.00  0.00    -0.246 OA
ENDROOT
BRANCH   1   3
ATOM      3  C   UNL     1      -0.069   5.168   2.117  1.00  0.00     0.062 A 
ATOM      4  C   UNL     1       1.687   3.897   3.131  1.00  0.00     0.042 A 
ATOM      5  C   UNL     1       2.136   5.010   3.835  1.00  0.00     0.026 A 
ATOM      6  C   UNL     1       0.499   3.940   2.417  1.00  0.00     0.041 A 
ATOM      7  C   UNL     1       1.503   6.232   3.635  1.00  0.00     0.003 A 
ATOM      8  C   UNL     1       0.454   6.324   2.716  1.00  0.00     0.016 A 
BRANCH   4   9
ATOM      9  N   UNL     1       2.537   2.800   3.010  1.00  0.00    -0.325 N 
ATOM     10  C   UNL     1       3.075   2.346   1.832  1.00  0.00     0.234 C 
ATOM     11  O   UNL     1       3.977   1.503   1.919  1.00  0.00    -0.274 OA
ATOM     12  H   UNL     1       2.771   2.313   3.833  1.00  0.00     0.169 HD
BRANCH  10  13
ATOM     13  C   UNL     1       2.764   2.981   0.486  1.00  0.00     0.178 C 
BRANCH  13  14
ATOM     14  S   UNL     1       1.259   2.586  -0.384  1.00  0.00    -0.076 SA
BRANCH  14  15
ATOM     15  C   UNL     1       0.584   1.088   0.137  1.00  0.00     0.191 A 
ATOM     16  C   UNL     1       2.589  -0.429   0.337  1.00  0.00     0.154 C 
ATOM     17  N   UNL     1       1.196  -0.134   0.164  1.00  0.00    -0.307 N 
ATOM     18  C   UNL     1       0.180  -1.055   0.032  1.00  0.00     0.156 A 
ATOM     19  N   UNL     1      -0.717   0.916   0.237  1.00  0.00    -0.123 NA
ATOM     20  N   UNL     1      -0.972  -0.429   0.186  1.00  0.00    -0.132 NA
BRANCH  18  21
ATOM     21  C   UNL     1       0.318  -2.501  -0.284  1.00  0.00     0.154 C 
ATOM     22  C   UNL     1       0.960  -3.300   0.858  1.00  0.00     0.035 C 
ATOM     23  N   UNL     1       1.137  -2.817  -1.463  1.00  0.00    -0.328 N 
ATOM     24  C   UNL     1       1.568  -4.507   0.160  1.00  0.00     0.024 C 
ATOM     25  C   UNL     1       1.947  -4.000  -1.222  1.00  0.00     0.120 C 
BRANCH  23  26
ATOM     26  C   UNL     1       1.040  -2.358  -2.772  1.00  0.00     0.255 C 
ATOM     27  O   UNL     1       1.485  -2.986  -3.732  1.00  0.00    -0.269 OA
BRANCH  26  28
ATOM     28  C   UNL     1       0.499  -1.020  -3.064  1.00  0.00     0.058 A 
ATOM     29  C   UNL     1      -0.866  -0.856  -3.319  1.00  0.00     0.015 A 
ATOM     30  C   UNL     1       1.376   0.062  -3.223  1.00  0.00     0.053 A 
ATOM     31  C   UNL     1      -1.359   0.410  -3.656  1.00  0.00     0.001 A 
ATOM     32  C   UNL     1       0.874   1.324  -3.550  1.00  0.00     0.021 A 
ATOM     33  Cl  UNL     1       3.087  -0.085  -3.021  1.00  0.00    -0.083 Cl
ATOM     34  C   UNL     1      -0.494   1.502  -3.750  1.00  0.00     0.002 A 
ENDBRANCH  26  28
ENDBRANCH  23  26
ENDBRANCH  18  21
ENDBRANCH  14  15
ENDBRANCH  13  14
ENDBRANCH  10  13
ENDBRANCH   4   9
ENDBRANCH   1   3
BRANCH   1  35
ATOM     35  O   UNL     1      -1.813   4.109   0.972  1.00  0.00    -0.458 OA
BRANCH  35  36
ATOM     36  C   UNL     1      -2.915   4.077   0.045  1.00  0.00     0.275 C 
BRANCH  36  37
ATOM     37  C   UNL     1      -4.241   3.958   0.797  1.00  0.00     0.275 C 
BRANCH  37  38
ATOM     38  O   UNL     1      -4.435   5.116   1.632  1.00  0.00    -0.458 OA
BRANCH  38  39
ATOM     39  C   UNL     1      -4.185   4.923   2.946  1.00  0.00     0.338 C 
ATOM     40  O   UNL     1      -3.932   3.880   3.522  1.00  0.00    -0.246 OA
BRANCH  39  41
ATOM     41  C   UNL     1      -4.117   6.223   3.624  1.00  0.00     0.060 A 
ATOM     42  C   UNL     1      -2.919   6.923   3.544  1.00  0.00     0.016 A 
ATOM     43  C   UNL     1      -5.128   6.670   4.465  1.00  0.00     0.016 A 
ATOM     44  C   UNL     1      -2.670   8.015   4.357  1.00  0.00     0.010 A 
ATOM     45  C   UNL     1      -4.920   7.835   5.216  1.00  0.00     0.010 A 
ATOM     46  C   UNL     1      -3.675   8.497   5.195  1.00  0.00    -0.014 A 
BRANCH  46  47
ATOM     47  C   UNL     1      -3.386   9.649   6.086  1.00  0.00     0.031 A 
ATOM     48  C   UNL     1      -3.490   9.485   7.574  1.00  0.00     0.074 A 
ATOM     49  C   UNL     1      -2.992  10.828   5.566  1.00  0.00     0.049 A 
ATOM     50  N   UNL     1      -3.448  10.393   8.515  1.00  0.00    -0.248 NA
ATOM     51  C   UNL     1      -3.682   8.114   8.069  1.00  0.00     0.031 C 
ATOM     52  C   UNL     1      -2.784  11.099   4.142  1.00  0.00     0.029 A 
ATOM     53  N   UNL     1      -2.695  12.021   6.177  1.00  0.00    -0.354 N 
ATOM     54  C   UNL     1      -3.672   9.713   9.705  1.00  0.00     0.074 A 
ATOM     55  C   UNL     1      -3.860   8.319   9.365  1.00  0.00     0.031 C 
ATOM     56  C   UNL     1      -2.377  12.367   3.990  1.00  0.00     0.029 A 
ATOM     57  C   UNL     1      -2.389  13.024   5.292  1.00  0.00     0.049 A 
ATOM     58  H   UNL     1      -2.702  12.145   7.154  1.00  0.00     0.167 HD
ATOM     59  C   UNL     1      -3.718  10.212  10.964  1.00  0.00     0.037 A 
ATOM     60  C   UNL     1      -2.196  14.341   5.494  1.00  0.00     0.037 A 
ATOM     61  C   UNL     1      -3.490  11.597  11.288  1.00  0.00     0.049 A 
ATOM     62  C   UNL     1      -2.301  14.885   6.889  1.00  0.00     0.074 A 
ATOM     63  C   UNL     1      -3.492  12.207  12.530  1.00  0.00     0.029 A 
ATOM     64  N   UNL     1      -3.216  12.591  10.357  1.00  0.00    -0.354 N 
ATOM     65  N   UNL     1      -2.555  14.248   8.007  1.00  0.00    -0.248 NA
ATOM     66  C   UNL     1      -2.107  16.330   7.051  1.00  0.00     0.031 C 
ATOM     67  C   UNL     1      -3.275  13.577  12.345  1.00  0.00     0.029 A 
ATOM     68  C   UNL     1      -3.075  13.815  10.994  1.00  0.00     0.049 A 
ATOM     69  H   UNL     1      -3.135  12.448   9.386  1.00  0.00     0.167 HD
ATOM     70  C   UNL     1      -2.545  15.210   9.006  1.00  0.00     0.074 A 
ATOM     71  C   UNL     1      -2.232  16.471   8.363  1.00  0.00     0.031 C 
ATOM     72  C   UNL     1      -2.777  15.063  10.335  1.00  0.00     0.037 A 
BRANCH  59  73
ATOM     73  C   UNL     1      -4.086   9.260  12.068  1.00  0.00     0.064 A 
ATOM     74  C   UNL     1      -3.244   8.211  12.467  1.00  0.00     0.173 A 
ATOM     75  C   UNL     1      -5.320   9.390  12.724  1.00  0.00     0.173 A 
ATOM     76  F   UNL     1      -2.058   8.030  11.864  1.00  0.00    -0.203 F 
ATOM     77  C   UNL     1      -3.644   7.300  13.443  1.00  0.00     0.198 A 
ATOM     78  C   UNL     1      -5.701   8.501  13.726  1.00  0.00     0.198 A 
ATOM     79  F   UNL     1      -6.164  10.378  12.390  1.00  0.00    -0.203 F 
ATOM     80  F   UNL     1      -2.854   6.262  13.752  1.00  0.00    -0.200 F 
ATOM     81  C   UNL     1      -4.870   7.448  14.074  1.00  0.00     0.200 A 
ATOM     82  F   UNL     1      -6.880   8.655  14.344  1.00  0.00    -0.200 F 
ATOM     83  F   UNL     1      -5.255   6.567  15.008  1.00  0.00    -0.200 F 
ENDBRANCH  59  73
BRANCH  60  84
ATOM     84  C   UNL     1      -1.939  15.227   4.329  1.00  0.00     0.064 A 
ATOM     85  C   UNL     1      -0.688  15.825   4.134  1.00  0.00     0.173 A 
ATOM     86  C   UNL     1      -2.930  15.455   3.360  1.00  0.00     0.173 A 
ATOM     87  F   UNL     1       0.283  15.656   5.043  1.00  0.00    -0.203 F 
ATOM     88  C   UNL     1      -0.436  16.615   3.014  1.00  0.00     0.198 A 
ATOM     89  C   UNL     1      -2.667  16.218   2.225  1.00  0.00     0.198 A 
ATOM     90  F   UNL     1      -4.145  14.904   3.499  1.00  0.00    -0.203 F 
ATOM     91  F   UNL     1       0.761  17.198   2.865  1.00  0.00    -0.200 F 
ATOM     92  C   UNL     1      -1.421  16.801   2.055  1.00  0.00     0.200 A 
ATOM     93  F   UNL     1      -3.615  16.378   1.293  1.00  0.00    -0.200 F 
ATOM     94  F   UNL     1      -1.169  17.543   0.968  1.00  0.00    -0.200 F 
ENDBRANCH  60  84
BRANCH  72  95
ATOM     95  C   UNL     1      -2.682  16.300  11.182  1.00  0.00     0.064 A 
ATOM     96  C   UNL     1      -3.646  17.317  11.111  1.00  0.00     0.173 A 
ATOM     97  C   UNL     1      -1.626  16.458  12.091  1.00  0.00     0.173 A 
ATOM     98  F   UNL     1      -4.666  17.222  10.245  1.00  0.00    -0.203 F 
ATOM     99  C   UNL     1      -3.538  18.461  11.899  1.00  0.00     0.198 A 
ATOM    100  C   UNL     1      -1.540  17.587  12.901  1.00  0.00     0.198 A 
ATOM    101  F   UNL     1      -0.680  15.513  12.202  1.00  0.00    -0.203 F 
ATOM    102  F   UNL     1      -4.439  19.445  11.774  1.00  0.00    -0.200 F 
ATOM    103  C   UNL     1      -2.490  18.591  12.797  1.00  0.00     0.200 A 
ATOM    104  F   UNL     1      -0.534  17.705  13.779  1.00  0.00    -0.200 F 
ATOM    105  F   UNL     1      -2.390  19.690  13.557  1.00  0.00    -0.200 F 
ENDBRANCH  72  95
ENDBRANCH  46  47
ENDBRANCH  39  41
ENDBRANCH  38  39
ENDBRANCH  37  38
ENDBRANCH  36  37
ENDBRANCH  35  36
ENDBRANCH   1  35
TORSDOF 18
