REMARK SMILES C[C@H](C(=O)OCCOC(=O)c1ccc(-c2c3nc(c(-c4c(F)c(F)c(F)c(F)c4F)c4ccc([nH]4)c(-c4c(F)c(F)c(F)c(F)c4F)c4nc(c(-c5c(F)c(F)c(F)c(F)c5F)c5ccc2[nH]5)C=C4)C=C3)cc1)c1ccc(C[C@H]2CCC[C@@H]2O)cc1
REMARK SMILES IDX 6 1 5 2 3 3 4 4 2 5 1 6 74 7 75 8 86 9 76 10 85 11 77 12
REMARK SMILES IDX 78 13 79 14 80 15 83 16 81 17 82 18 84 19 7 21 8 22 9 23
REMARK SMILES IDX 10 24 11 25 12 26 73 27 13 28 72 29 14 30 15 31 16 32 66 33
REMARK SMILES IDX 17 34 71 35 65 36 67 37 18 38 70 39 64 40 63 41 19 43 51 44
REMARK SMILES IDX 31 45 50 46 32 47 35 48 49 49 68 50 33 51 34 52 48 54 69 55
REMARK SMILES IDX 36 56 20 57 21 58 29 59 22 60 23 61 27 62 30 63 24 64 25 65
REMARK SMILES IDX 28 66 26 67 52 68 53 69 61 70 54 71 55 72 59 73 62 74 56 75
REMARK SMILES IDX 57 76 60 77 58 78 37 79 38 80 46 81 39 82 40 83 44 84 47 85
REMARK SMILES IDX 41 86 42 87 45 88 43 89
REMARK H PARENT 84 20 67 42 35 53
REMARK Flexibility Score: inf
ROOT
ATOM      1  C   UNL     1       0.809   1.938   0.355  1.00  0.00     0.274 C 
ENDROOT
BRANCH   1   2
ATOM      2  O   UNL     1       0.193   0.644   0.173  1.00  0.00    -0.462 OA
BRANCH   2   3
ATOM      3  C   UNL     1       0.613  -0.107  -0.886  1.00  0.00     0.313 C 
ATOM      4  O   UNL     1       1.512   0.214  -1.656  1.00  0.00    -0.252 OA
BRANCH   3   5
ATOM      5  C   UNL     1      -0.124  -1.444  -0.980  1.00  0.00     0.126 C 
ATOM      6  C   UNL     1       0.419  -2.348   0.139  1.00  0.00     0.025 C 
BRANCH   5   7
ATOM      7  C   UNL     1      -1.645  -1.348  -0.992  1.00  0.00    -0.034 A 
ATOM      8  C   UNL     1      -2.318  -0.144  -1.242  1.00  0.00     0.005 A 
ATOM      9  C   UNL     1      -2.422  -2.500  -0.794  1.00  0.00     0.005 A 
ATOM     10  C   UNL     1      -3.704  -0.064  -1.115  1.00  0.00     0.004 A 
ATOM     11  C   UNL     1      -3.804  -2.419  -0.648  1.00  0.00     0.004 A 
ATOM     12  C   UNL     1      -4.447  -1.184  -0.736  1.00  0.00    -0.048 A 
BRANCH  12  13
ATOM     13  C   UNL     1      -5.896  -1.053  -0.344  1.00  0.00     0.041 C 
BRANCH  13  14
ATOM     14  C   UNL     1      -6.129  -0.540   1.090  1.00  0.00     0.022 C 
ATOM     15  C   UNL     1      -5.465  -1.339   2.224  1.00  0.00     0.007 C 
ATOM     16  C   UNL     1      -5.683   0.898   1.361  1.00  0.00     0.117 C 
ATOM     17  C   UNL     1      -5.199  -0.330   3.349  1.00  0.00     0.003 C 
ATOM     18  C   UNL     1      -5.786   0.992   2.876  1.00  0.00     0.032 C 
BRANCH  16  19
ATOM     19  O   UNL     1      -6.529   1.829   0.715  1.00  0.00    -0.393 OA
ATOM     20  H   UNL     1      -7.445   1.687   1.002  1.00  0.00     0.210 HD
ENDBRANCH  16  19
ENDBRANCH  13  14
ENDBRANCH  12  13
ENDBRANCH   5   7
ENDBRANCH   3   5
ENDBRANCH   2   3
ENDBRANCH   1   2
BRANCH   1  21
ATOM     21  C   UNL     1       1.642   1.935   1.633  1.00  0.00     0.275 C 
BRANCH  21  22
ATOM     22  O   UNL     1       2.685   0.962   1.476  1.00  0.00    -0.458 OA
BRANCH  22  23
ATOM     23  C   UNL     1       2.913   0.158   2.538  1.00  0.00     0.338 C 
ATOM     24  O   UNL     1       2.453   0.262   3.660  1.00  0.00    -0.246 OA
BRANCH  23  25
ATOM     25  C   UNL     1       3.811  -0.939   2.121  1.00  0.00     0.060 A 
ATOM     26  C   UNL     1       3.664  -1.533   0.867  1.00  0.00     0.016 A 
ATOM     27  C   UNL     1       4.742  -1.449   3.024  1.00  0.00     0.016 A 
ATOM     28  C   UNL     1       4.363  -2.695   0.552  1.00  0.00     0.010 A 
ATOM     29  C   UNL     1       5.529  -2.546   2.659  1.00  0.00     0.010 A 
ATOM     30  C   UNL     1       5.325  -3.204   1.433  1.00  0.00    -0.014 A 
BRANCH  30  31
ATOM     31  C   UNL     1       6.098  -4.432   1.097  1.00  0.00     0.031 A 
ATOM     32  C   UNL     1       6.078  -5.612   2.031  1.00  0.00     0.074 A 
ATOM     33  C   UNL     1       6.830  -4.496  -0.033  1.00  0.00     0.049 A 
ATOM     34  N   UNL     1       6.862  -6.661   2.062  1.00  0.00    -0.248 NA
ATOM     35  C   UNL     1       5.050  -5.603   3.084  1.00  0.00     0.031 C 
ATOM     36  C   UNL     1       6.904  -3.456  -1.060  1.00  0.00     0.029 A 
ATOM     37  N   UNL     1       7.658  -5.484  -0.507  1.00  0.00    -0.354 N 
ATOM     38  C   UNL     1       6.472  -7.392   3.177  1.00  0.00     0.074 A 
ATOM     39  C   UNL     1       5.372  -6.678   3.789  1.00  0.00     0.031 C 
ATOM     40  C   UNL     1       7.697  -3.874  -2.057  1.00  0.00     0.029 A 
ATOM     41  C   UNL     1       8.268  -5.166  -1.696  1.00  0.00     0.049 A 
ATOM     42  H   UNL     1       7.800  -6.339  -0.040  1.00  0.00     0.167 HD
ATOM     43  C   UNL     1       6.995  -8.549   3.649  1.00  0.00     0.037 A 
ATOM     44  C   UNL     1       9.220  -5.812  -2.394  1.00  0.00     0.037 A 
ATOM     45  C   UNL     1       8.040  -9.293   2.994  1.00  0.00     0.049 A 
ATOM     46  C   UNL     1       9.792  -7.088  -1.846  1.00  0.00     0.074 A 
ATOM     47  C   UNL     1       8.622 -10.488   3.380  1.00  0.00     0.029 A 
ATOM     48  N   UNL     1       8.641  -8.922   1.801  1.00  0.00    -0.354 N 
ATOM     49  N   UNL     1       9.477  -7.730  -0.749  1.00  0.00    -0.248 NA
ATOM     50  C   UNL     1      10.874  -7.712  -2.620  1.00  0.00     0.031 C 
ATOM     51  C   UNL     1       9.594 -10.828   2.432  1.00  0.00     0.029 A 
ATOM     52  C   UNL     1       9.593  -9.862   1.439  1.00  0.00     0.049 A 
ATOM     53  H   UNL     1       8.424  -8.111   1.287  1.00  0.00     0.167 HD
ATOM     54  C   UNL     1      10.315  -8.835  -0.701  1.00  0.00     0.074 A 
ATOM     55  C   UNL     1      11.139  -8.788  -1.891  1.00  0.00     0.031 C 
ATOM     56  C   UNL     1      10.400  -9.797   0.249  1.00  0.00     0.037 A 
BRANCH  43  57
ATOM     57  C   UNL     1       6.475  -9.066   4.957  1.00  0.00     0.064 A 
ATOM     58  C   UNL     1       5.216  -9.670   5.072  1.00  0.00     0.173 A 
ATOM     59  C   UNL     1       7.275  -8.989   6.108  1.00  0.00     0.173 A 
ATOM     60  F   UNL     1       4.408  -9.754   4.005  1.00  0.00    -0.203 F 
ATOM     61  C   UNL     1       4.767 -10.160   6.297  1.00  0.00     0.198 A 
ATOM     62  C   UNL     1       6.834  -9.502   7.325  1.00  0.00     0.198 A 
ATOM     63  F   UNL     1       8.491  -8.424   6.050  1.00  0.00    -0.203 F 
ATOM     64  F   UNL     1       3.544 -10.699   6.393  1.00  0.00    -0.200 F 
ATOM     65  C   UNL     1       5.579 -10.082   7.420  1.00  0.00     0.200 A 
ATOM     66  F   UNL     1       7.624  -9.434   8.406  1.00  0.00    -0.200 F 
ATOM     67  F   UNL     1       5.148 -10.561   8.595  1.00  0.00    -0.200 F 
ENDBRANCH  43  57
BRANCH  44  68
ATOM     68  C   UNL     1       9.723  -5.232  -3.666  1.00  0.00     0.064 A 
ATOM     69  C   UNL     1       9.431  -5.838  -4.895  1.00  0.00     0.173 A 
ATOM     70  C   UNL     1      10.487  -4.056  -3.681  1.00  0.00     0.173 A 
ATOM     71  F   UNL     1       8.727  -6.979  -4.928  1.00  0.00    -0.203 F 
ATOM     72  C   UNL     1       9.887  -5.290  -6.092  1.00  0.00     0.198 A 
ATOM     73  C   UNL     1      10.918  -3.494  -4.880  1.00  0.00     0.198 A 
ATOM     74  F   UNL     1      10.795  -3.440  -2.530  1.00  0.00    -0.203 F 
ATOM     75  F   UNL     1       9.622  -5.906  -7.252  1.00  0.00    -0.200 F 
ATOM     76  C   UNL     1      10.622  -4.113  -6.084  1.00  0.00     0.200 A 
ATOM     77  F   UNL     1      11.616  -2.350  -4.868  1.00  0.00    -0.200 F 
ATOM     78  F   UNL     1      11.049  -3.580  -7.237  1.00  0.00    -0.200 F 
ENDBRANCH  44  68
BRANCH  56  79
ATOM     79  C   UNL     1      11.402 -10.887   0.023  1.00  0.00     0.064 A 
ATOM     80  C   UNL     1      12.774 -10.670   0.220  1.00  0.00     0.173 A 
ATOM     81  C   UNL     1      10.984 -12.167  -0.368  1.00  0.00     0.173 A 
ATOM     82  F   UNL     1      13.220  -9.456   0.577  1.00  0.00    -0.203 F 
ATOM     83  C   UNL     1      13.694 -11.693   0.013  1.00  0.00     0.198 A 
ATOM     84  C   UNL     1      11.905 -13.193  -0.553  1.00  0.00     0.198 A 
ATOM     85  F   UNL     1       9.682 -12.422  -0.565  1.00  0.00    -0.203 F 
ATOM     86  F   UNL     1      15.004 -11.455   0.167  1.00  0.00    -0.200 F 
ATOM     87  C   UNL     1      13.259 -12.954  -0.368  1.00  0.00     0.200 A 
ATOM     88  F   UNL     1      11.484 -14.413  -0.914  1.00  0.00    -0.200 F 
ATOM     89  F   UNL     1      14.147 -13.938  -0.566  1.00  0.00    -0.200 F 
ENDBRANCH  56  79
ENDBRANCH  30  31
ENDBRANCH  23  25
ENDBRANCH  22  23
ENDBRANCH  21  22
ENDBRANCH   1  21
TORSDOF 15
