REMARK SMILES Cc1cscc1C(=O)N[C@H](C(=O)OCCOC(=O)c1ccc(-c2c3nc(c(-c4c(F)c(F)c(F)c(F)c4F)c4ccc([nH]4)c(-c4c(F)c(F)c(F)c(F)c4F)c4nc(c(-c5c(F)c(F)c(F)c(F)c5F)c5ccc2[nH]5)C=C4)C=C3)cc1)c1ccccc1
REMARK SMILES IDX 14 1 13 2 11 3 12 4 10 5 9 6 7 7 8 8 6 10 1 11 2 12 3 13
REMARK SMILES IDX 4 14 5 15 82 16 83 17 87 18 84 19 86 20 85 21 15 22 16 23
REMARK SMILES IDX 17 24 18 25 19 26 20 27 81 28 21 29 80 30 22 31 23 32 24 33
REMARK SMILES IDX 74 34 25 35 79 36 73 37 75 38 26 39 78 40 72 41 71 42 27 44
REMARK SMILES IDX 59 45 39 46 58 47 40 48 43 49 57 50 76 51 41 52 42 53 56 55
REMARK SMILES IDX 77 56 44 57 28 58 29 59 37 60 30 61 31 62 35 63 38 64 32 65
REMARK SMILES IDX 33 66 36 67 34 68 60 69 61 70 69 71 62 72 63 73 67 74 70 75
REMARK SMILES IDX 64 76 65 77 68 78 66 79 45 80 46 81 54 82 47 83 48 84 52 85
REMARK SMILES IDX 55 86 49 87 50 88 53 89 51 90
REMARK H PARENT 9 9 75 43 43 54
REMARK Flexibility Score: inf
ROOT
ATOM      1  C   UNL     1       0.405   1.778   0.218  1.00  0.00     0.274 C 
ENDROOT
BRANCH   1   2
ATOM      2  O   UNL     1       1.705   1.160   0.260  1.00  0.00    -0.460 OA
BRANCH   2   3
ATOM      3  C   UNL     1       2.316   1.018  -0.951  1.00  0.00     0.333 C 
ATOM      4  O   UNL     1       1.739   1.180  -2.023  1.00  0.00    -0.249 OA
BRANCH   3   5
ATOM      5  C   UNL     1       3.794   0.608  -0.840  1.00  0.00     0.223 C 
BRANCH   5   6
ATOM      6  N   UNL     1       4.667   1.130  -1.901  1.00  0.00    -0.335 N 
ATOM      7  C   UNL     1       5.245   2.257  -2.393  1.00  0.00     0.253 C 
ATOM      8  O   UNL     1       6.015   1.996  -3.329  1.00  0.00    -0.269 OA
ATOM      9  H   UNL     1       4.935   0.375  -2.473  1.00  0.00     0.165 HD
BRANCH   7  10
ATOM     10  C   UNL     1       5.112   3.664  -1.959  1.00  0.00     0.053 A 
ATOM     11  C   UNL     1       2.940   3.971  -0.501  1.00  0.00     0.046 C 
ATOM     12  C   UNL     1       4.171   4.434  -1.166  1.00  0.00    -0.028 A 
ATOM     13  C   UNL     1       4.504   5.780  -1.107  1.00  0.00     0.069 A 
ATOM     14  S   UNL     1       5.896   6.168  -1.987  1.00  0.00    -0.151 S 
ATOM     15  C   UNL     1       6.070   4.548  -2.464  1.00  0.00     0.079 A 
ENDBRANCH   7  10
ENDBRANCH   5   6
BRANCH   5  16
ATOM     16  C   UNL     1       4.428   0.481   0.541  1.00  0.00    -0.014 A 
ATOM     17  C   UNL     1       4.018  -0.575   1.384  1.00  0.00     0.006 A 
ATOM     18  C   UNL     1       5.439   1.329   1.009  1.00  0.00     0.006 A 
ATOM     19  C   UNL     1       4.580  -0.760   2.649  1.00  0.00     0.000 A 
ATOM     20  C   UNL     1       5.999   1.147   2.280  1.00  0.00     0.000 A 
ATOM     21  C   UNL     1       5.567   0.108   3.101  1.00  0.00     0.000 A 
ENDBRANCH   5  16
ENDBRANCH   3   5
ENDBRANCH   2   3
ENDBRANCH   1   2
BRANCH   1  22
ATOM     22  C   UNL     1       0.105   2.407   1.577  1.00  0.00     0.275 C 
BRANCH  22  23
ATOM     23  O   UNL     1       1.198   3.263   1.970  1.00  0.00    -0.458 OA
BRANCH  23  24
ATOM     24  C   UNL     1       1.471   3.278   3.294  1.00  0.00     0.338 C 
ATOM     25  O   UNL     1       0.853   2.697   4.179  1.00  0.00    -0.246 OA
BRANCH  24  26
ATOM     26  C   UNL     1       2.623   4.155   3.579  1.00  0.00     0.060 A 
ATOM     27  C   UNL     1       3.844   3.968   2.929  1.00  0.00     0.016 A 
ATOM     28  C   UNL     1       2.520   5.104   4.597  1.00  0.00     0.016 A 
ATOM     29  C   UNL     1       4.973   4.696   3.314  1.00  0.00     0.010 A 
ATOM     30  C   UNL     1       3.642   5.852   4.970  1.00  0.00     0.010 A 
ATOM     31  C   UNL     1       4.887   5.629   4.356  1.00  0.00    -0.014 A 
BRANCH  31  32
ATOM     32  C   UNL     1       6.112   6.269   4.903  1.00  0.00     0.031 A 
ATOM     33  C   UNL     1       6.628   5.830   6.247  1.00  0.00     0.074 A 
ATOM     34  C   UNL     1       6.782   7.204   4.207  1.00  0.00     0.049 A 
ATOM     35  N   UNL     1       7.576   6.347   6.987  1.00  0.00    -0.248 NA
ATOM     36  C   UNL     1       5.990   4.640   6.832  1.00  0.00     0.031 C 
ATOM     37  C   UNL     1       6.452   7.650   2.856  1.00  0.00     0.029 A 
ATOM     38  N   UNL     1       7.888   7.946   4.545  1.00  0.00    -0.354 N 
ATOM     39  C   UNL     1       7.624   5.569   8.137  1.00  0.00     0.074 A 
ATOM     40  C   UNL     1       6.613   4.543   7.998  1.00  0.00     0.031 C 
ATOM     41  C   UNL     1       7.340   8.584   2.475  1.00  0.00     0.029 A 
ATOM     42  C   UNL     1       8.261   8.848   3.579  1.00  0.00     0.049 A 
ATOM     43  H   UNL     1       8.367   7.842   5.399  1.00  0.00     0.167 HD
ATOM     44  C   UNL     1       8.433   5.705   9.216  1.00  0.00     0.037 A 
ATOM     45  C   UNL     1       9.211   9.804   3.599  1.00  0.00     0.037 A 
ATOM     46  C   UNL     1       9.449   6.717   9.345  1.00  0.00     0.049 A 
ATOM     47  C   UNL     1      10.047   9.988   4.840  1.00  0.00     0.074 A 
ATOM     48  C   UNL     1      10.294   6.964  10.413  1.00  0.00     0.029 A 
ATOM     49  N   UNL     1       9.763   7.646   8.364  1.00  0.00    -0.354 N 
ATOM     50  N   UNL     1      10.037   9.300   5.955  1.00  0.00    -0.248 NA
ATOM     51  C   UNL     1      11.012  11.098   4.832  1.00  0.00     0.031 C 
ATOM     52  C   UNL     1      11.095   8.066  10.092  1.00  0.00     0.029 A 
ATOM     53  C   UNL     1      10.778   8.478   8.807  1.00  0.00     0.049 A 
ATOM     54  H   UNL     1       9.328   7.705   7.483  1.00  0.00     0.167 HD
ATOM     55  C   UNL     1      10.997   9.881   6.774  1.00  0.00     0.074 A 
ATOM     56  C   UNL     1      11.586  10.968   6.020  1.00  0.00     0.031 C 
ATOM     57  C   UNL     1      11.354   9.551   8.040  1.00  0.00     0.037 A 
BRANCH  44  58
ATOM     58  C   UNL     1       8.209   4.769  10.365  1.00  0.00     0.064 A 
ATOM     59  C   UNL     1       8.595   3.422  10.312  1.00  0.00     0.173 A 
ATOM     60  C   UNL     1       7.604   5.233  11.543  1.00  0.00     0.173 A 
ATOM     61  F   UNL     1       9.160   2.925   9.201  1.00  0.00    -0.203 F 
ATOM     62  C   UNL     1       8.359   2.567  11.387  1.00  0.00     0.198 A 
ATOM     63  C   UNL     1       7.392   4.383  12.625  1.00  0.00     0.198 A 
ATOM     64  F   UNL     1       7.219   6.514  11.646  1.00  0.00    -0.203 F 
ATOM     65  F   UNL     1       8.691   1.272  11.297  1.00  0.00    -0.200 F 
ATOM     66  C   UNL     1       7.762   3.049  12.543  1.00  0.00     0.200 A 
ATOM     67  F   UNL     1       6.823   4.852  13.744  1.00  0.00    -0.200 F 
ATOM     68  F   UNL     1       7.534   2.225  13.575  1.00  0.00    -0.200 F 
ENDBRANCH  44  58
BRANCH  45  69
ATOM     69  C   UNL     1       9.395  10.695   2.422  1.00  0.00     0.064 A 
ATOM     70  C   UNL     1      10.567  10.650   1.655  1.00  0.00     0.173 A 
ATOM     71  C   UNL     1       8.410  11.623   2.051  1.00  0.00     0.173 A 
ATOM     72  F   UNL     1      11.554   9.806   1.989  1.00  0.00    -0.203 F 
ATOM     73  C   UNL     1      10.750  11.505   0.568  1.00  0.00     0.198 A 
ATOM     74  C   UNL     1       8.580  12.455   0.947  1.00  0.00     0.198 A 
ATOM     75  F   UNL     1       7.274  11.716   2.758  1.00  0.00    -0.203 F 
ATOM     76  F   UNL     1      11.899  11.473  -0.120  1.00  0.00    -0.200 F 
ATOM     77  C   UNL     1       9.753  12.400   0.210  1.00  0.00     0.200 A 
ATOM     78  F   UNL     1       7.611  13.312   0.601  1.00  0.00    -0.200 F 
ATOM     79  F   UNL     1       9.928  13.217  -0.837  1.00  0.00    -0.200 F 
ENDBRANCH  45  69
BRANCH  57  80
ATOM     80  C   UNL     1      12.444  10.359   8.680  1.00  0.00     0.064 A 
ATOM     81  C   UNL     1      12.214  11.664   9.140  1.00  0.00     0.173 A 
ATOM     82  C   UNL     1      13.719   9.807   8.872  1.00  0.00     0.173 A 
ATOM     83  F   UNL     1      11.015  12.240   8.966  1.00  0.00    -0.203 F 
ATOM     84  C   UNL     1      13.228  12.394   9.754  1.00  0.00     0.198 A 
ATOM     85  C   UNL     1      14.724  10.532   9.507  1.00  0.00     0.198 A 
ATOM     86  F   UNL     1      13.986   8.561   8.455  1.00  0.00    -0.203 F 
ATOM     87  F   UNL     1      12.998  13.653  10.152  1.00  0.00    -0.200 F 
ATOM     88  C   UNL     1      14.479  11.826   9.942  1.00  0.00     0.200 A 
ATOM     89  F   UNL     1      15.929   9.978   9.698  1.00  0.00    -0.200 F 
ATOM     90  F   UNL     1      15.453  12.529  10.538  1.00  0.00    -0.200 F 
ENDBRANCH  57  80
ENDBRANCH  31  32
ENDBRANCH  24  26
ENDBRANCH  23  24
ENDBRANCH  22  23
ENDBRANCH   1  22
TORSDOF 14
