REMARK SMILES CC[C@@H](NC(=O)c1ccc(CNC(=O)[C@H]2CCCO2)cc1)C(=O)OCCOC(=O)c1ccc(-c2c3nc(c(-c4c(F)c(F)c(F)c(F)c4F)c4ccc([nH]4)c(-c4c(F)c(F)c(F)c(F)c4F)c4nc(c(-c5c(F)c(F)c(F)c(F)c5F)c5ccc2[nH]5)C=C4)C=C3)cc1
REMARK SMILES IDX 24 1 22 2 23 3 3 4 2 5 1 6 4 7 5 8 6 10 7 11 8 12 21 13 9 14
REMARK SMILES IDX 20 15 10 16 11 17 12 18 13 19 14 21 15 22 16 23 19 24 17 25
REMARK SMILES IDX 18 26 25 27 26 28 27 29 28 30 29 31 30 32 31 33 92 34 32 35
REMARK SMILES IDX 91 36 33 37 34 38 35 39 85 40 36 41 90 42 84 43 86 44 37 45
REMARK SMILES IDX 89 46 83 47 82 48 38 50 70 51 50 52 69 53 51 54 54 55 68 56
REMARK SMILES IDX 87 57 52 58 53 59 67 61 88 62 55 63 39 64 40 65 48 66 41 67
REMARK SMILES IDX 42 68 46 69 49 70 43 71 44 72 47 73 45 74 71 75 72 76 80 77
REMARK SMILES IDX 73 78 74 79 78 80 81 81 75 82 76 83 79 84 77 85 56 86 57 87
REMARK SMILES IDX 65 88 58 89 59 90 63 91 66 92 60 93 61 94 64 95 62 96
REMARK H PARENT 4 9 12 20 86 49 54 60
REMARK Flexibility Score: inf
ROOT
ATOM      1  O   UNL     1      -9.100   2.794  -4.409  1.00  0.00    -0.461 OA
ENDROOT
BRANCH   1   2
ATOM      2  C   UNL     1      -9.006   2.204  -3.188  1.00  0.00     0.328 C 
ATOM      3  O   UNL     1      -8.834   2.815  -2.138  1.00  0.00    -0.250 OA
BRANCH   2   4
ATOM      4  C   UNL     1      -9.095   0.670  -3.226  1.00  0.00     0.192 C 
BRANCH   4   5
ATOM      5  C   UNL     1     -10.295   0.238  -4.091  1.00  0.00     0.033 C 
ATOM      6  C   UNL     1     -10.881  -1.103  -3.666  1.00  0.00     0.007 C 
ENDBRANCH   4   5
BRANCH   4   7
ATOM      7  N   UNL     1      -7.885  -0.086  -3.596  1.00  0.00    -0.339 N 
ATOM      8  C   UNL     1      -6.609   0.059  -3.101  1.00  0.00     0.251 C 
ATOM      9  H   UNL     1      -8.004  -0.781  -4.283  1.00  0.00     0.164 HD
ATOM     10  O   UNL     1      -5.873  -0.910  -2.958  1.00  0.00    -0.269 OA
BRANCH   8  11
ATOM     11  C   UNL     1      -6.074   1.418  -2.932  1.00  0.00     0.039 A 
ATOM     12  C   UNL     1      -5.587   2.064  -4.069  1.00  0.00     0.014 A 
ATOM     13  C   UNL     1      -6.106   2.070  -1.702  1.00  0.00     0.014 A 
ATOM     14  C   UNL     1      -5.225   3.408  -3.996  1.00  0.00     0.006 A 
ATOM     15  C   UNL     1      -5.782   3.433  -1.645  1.00  0.00     0.006 A 
ATOM     16  C   UNL     1      -5.374   4.127  -2.798  1.00  0.00    -0.029 A 
BRANCH  16  17
ATOM     17  C   UNL     1      -5.200   5.631  -2.772  1.00  0.00     0.151 C 
BRANCH  17  18
ATOM     18  N   UNL     1      -3.926   6.021  -3.322  1.00  0.00    -0.350 N 
ATOM     19  C   UNL     1      -3.565   6.726  -4.420  1.00  0.00     0.249 C 
ATOM     20  H   UNL     1      -3.159   5.708  -2.789  1.00  0.00     0.163 HD
ATOM     21  O   UNL     1      -2.345   6.826  -4.614  1.00  0.00    -0.272 OA
BRANCH  19  22
ATOM     22  C   UNL     1      -4.542   7.436  -5.381  1.00  0.00     0.207 C 
ATOM     23  C   UNL     1      -5.811   6.736  -5.859  1.00  0.00     0.044 C 
ATOM     24  O   UNL     1      -4.945   8.724  -4.888  1.00  0.00    -0.368 OA
ATOM     25  C   UNL     1      -6.926   7.697  -5.492  1.00  0.00     0.032 C 
ATOM     26  C   UNL     1      -6.210   9.024  -5.481  1.00  0.00     0.161 C 
ENDBRANCH  19  22
ENDBRANCH  17  18
ENDBRANCH  16  17
ENDBRANCH   8  11
ENDBRANCH   4   7
ENDBRANCH   2   4
ENDBRANCH   1   2
BRANCH   1  27
ATOM     27  C   UNL     1      -8.874   4.218  -4.423  1.00  0.00     0.274 C 
BRANCH  27  28
ATOM     28  C   UNL     1     -10.132   5.061  -4.172  1.00  0.00     0.275 C 
BRANCH  28  29
ATOM     29  O   UNL     1     -10.569   5.002  -2.801  1.00  0.00    -0.458 OA
BRANCH  29  30
ATOM     30  C   UNL     1     -11.471   4.027  -2.536  1.00  0.00     0.338 C 
ATOM     31  O   UNL     1     -11.991   3.279  -3.348  1.00  0.00    -0.246 OA
BRANCH  30  32
ATOM     32  C   UNL     1     -11.648   3.849  -1.081  1.00  0.00     0.060 A 
ATOM     33  C   UNL     1     -11.610   2.539  -0.584  1.00  0.00     0.016 A 
ATOM     34  C   UNL     1     -11.925   4.920  -0.229  1.00  0.00     0.016 A 
ATOM     35  C   UNL     1     -11.878   2.288   0.757  1.00  0.00     0.010 A 
ATOM     36  C   UNL     1     -12.213   4.665   1.117  1.00  0.00     0.010 A 
ATOM     37  C   UNL     1     -12.218   3.346   1.607  1.00  0.00    -0.014 A 
BRANCH  37  38
ATOM     38  C   UNL     1     -12.725   3.047   2.966  1.00  0.00     0.031 A 
ATOM     39  C   UNL     1     -14.209   3.011   3.193  1.00  0.00     0.074 A 
ATOM     40  C   UNL     1     -11.877   2.768   3.971  1.00  0.00     0.049 A 
ATOM     41  N   UNL     1     -14.877   2.829   4.304  1.00  0.00    -0.248 NA
ATOM     42  C   UNL     1     -15.055   3.201   2.005  1.00  0.00     0.031 C 
ATOM     43  C   UNL     1     -10.422   2.709   3.854  1.00  0.00     0.029 A 
ATOM     44  N   UNL     1     -12.124   2.485   5.290  1.00  0.00    -0.354 N 
ATOM     45  C   UNL     1     -16.218   2.895   3.950  1.00  0.00     0.074 A 
ATOM     46  C   UNL     1     -16.271   3.150   2.527  1.00  0.00     0.031 C 
ATOM     47  C   UNL     1      -9.901   2.421   5.060  1.00  0.00     0.029 A 
ATOM     48  C   UNL     1     -10.985   2.312   6.035  1.00  0.00     0.049 A 
ATOM     49  H   UNL     1     -13.031   2.413   5.667  1.00  0.00     0.167 HD
ATOM     50  C   UNL     1     -17.306   2.752   4.743  1.00  0.00     0.037 A 
ATOM     51  C   UNL     1     -10.837   2.116   7.360  1.00  0.00     0.037 A 
ATOM     52  C   UNL     1     -17.248   2.498   6.158  1.00  0.00     0.049 A 
ATOM     53  C   UNL     1     -12.061   2.035   8.234  1.00  0.00     0.074 A 
ATOM     54  C   UNL     1     -18.293   2.341   7.052  1.00  0.00     0.029 A 
ATOM     55  N   UNL     1     -16.075   2.366   6.886  1.00  0.00    -0.354 N 
ATOM     56  N   UNL     1     -13.326   2.108   7.897  1.00  0.00    -0.248 NA
ATOM     57  C   UNL     1     -11.836   1.850   9.675  1.00  0.00     0.031 C 
ATOM     58  C   UNL     1     -17.751   2.154   8.328  1.00  0.00     0.029 A 
ATOM     59  C   UNL     1     -16.369   2.150   8.222  1.00  0.00     0.049 A 
ATOM     60  H   UNL     1     -15.167   2.418   6.508  1.00  0.00     0.167 HD
ATOM     61  C   UNL     1     -14.046   1.956   9.074  1.00  0.00     0.074 A 
ATOM     62  C   UNL     1     -13.077   1.774  10.135  1.00  0.00     0.031 C 
ATOM     63  C   UNL     1     -15.389   1.967   9.261  1.00  0.00     0.037 A 
BRANCH  50  64
ATOM     64  C   UNL     1     -18.651   2.906   4.099  1.00  0.00     0.064 A 
ATOM     65  C   UNL     1     -19.180   1.922   3.251  1.00  0.00     0.173 A 
ATOM     66  C   UNL     1     -19.428   4.048   4.346  1.00  0.00     0.173 A 
ATOM     67  F   UNL     1     -18.467   0.821   2.968  1.00  0.00    -0.203 F 
ATOM     68  C   UNL     1     -20.427   2.087   2.654  1.00  0.00     0.198 A 
ATOM     69  C   UNL     1     -20.685   4.198   3.768  1.00  0.00     0.198 A 
ATOM     70  F   UNL     1     -18.968   5.018   5.150  1.00  0.00    -0.203 F 
ATOM     71  F   UNL     1     -20.892   1.156   1.809  1.00  0.00    -0.200 F 
ATOM     72  C   UNL     1     -21.180   3.221   2.917  1.00  0.00     0.200 A 
ATOM     73  F   UNL     1     -21.415   5.291   4.029  1.00  0.00    -0.200 F 
ATOM     74  F   UNL     1     -22.381   3.378   2.342  1.00  0.00    -0.200 F 
ENDBRANCH  50  64
BRANCH  51  75
ATOM     75  C   UNL     1      -9.475   2.009   7.944  1.00  0.00     0.064 A 
ATOM     76  C   UNL     1      -9.004   0.797   8.466  1.00  0.00     0.173 A 
ATOM     77  C   UNL     1      -8.623   3.121   8.002  1.00  0.00     0.173 A 
ATOM     78  F   UNL     1      -9.793  -0.287   8.459  1.00  0.00    -0.203 F 
ATOM     79  C   UNL     1      -7.734   0.705   9.033  1.00  0.00     0.198 A 
ATOM     80  C   UNL     1      -7.344   3.021   8.546  1.00  0.00     0.198 A 
ATOM     81  F   UNL     1      -9.030   4.305   7.521  1.00  0.00    -0.203 F 
ATOM     82  F   UNL     1      -7.322  -0.456   9.562  1.00  0.00    -0.200 F 
ATOM     83  C   UNL     1      -6.903   1.815   9.067  1.00  0.00     0.200 A 
ATOM     84  F   UNL     1      -6.542   4.094   8.568  1.00  0.00    -0.200 F 
ATOM     85  F   UNL     1      -5.681   1.724   9.609  1.00  0.00    -0.200 F 
ENDBRANCH  51  75
BRANCH  63  86
ATOM     86  C   UNL     1     -15.890   1.748  10.659  1.00  0.00     0.064 A 
ATOM     87  C   UNL     1     -15.792   2.747  11.638  1.00  0.00     0.173 A 
ATOM     88  C   UNL     1     -16.516   0.542  11.007  1.00  0.00     0.173 A 
ATOM     89  F   UNL     1     -15.189   3.912  11.356  1.00  0.00    -0.203 F 
ATOM     90  C   UNL     1     -16.285   2.538  12.923  1.00  0.00     0.198 A 
ATOM     91  C   UNL     1     -17.031   0.346  12.285  1.00  0.00     0.198 A 
ATOM     92  F   UNL     1     -16.640  -0.441  10.103  1.00  0.00    -0.203 F 
ATOM     93  F   UNL     1     -16.146   3.490  13.855  1.00  0.00    -0.200 F 
ATOM     94  C   UNL     1     -16.910   1.341  13.243  1.00  0.00     0.200 A 
ATOM     95  F   UNL     1     -17.644  -0.806  12.590  1.00  0.00    -0.200 F 
ATOM     96  F   UNL     1     -17.390   1.145  14.479  1.00  0.00    -0.200 F 
ENDBRANCH  63  86
ENDBRANCH  37  38
ENDBRANCH  30  32
ENDBRANCH  29  30
ENDBRANCH  28  29
ENDBRANCH  27  28
ENDBRANCH   1  27
TORSDOF 17
