REMARK SMILES COc1cccc(-c2ccc(Nc3cccc(C(=O)OCCOC(=O)c4ccc(-c5c6nc(c(-c7c(F)c(F)c(F)c(F)c7F)c7ccc([nH]7)c(-c7c(F)c(F)c(F)c(F)c7F)c7nc(c(-c8c(F)c(F)c(F)c(F)c8F)c8ccc5[nH]8)C=C7)C=C6)cc4)c3)nn2)c1
REMARK SMILES IDX 21 1 20 2 18 3 19 4 17 5 13 6 14 7 89 8 15 9 16 10 12 11
REMARK SMILES IDX 11 13 8 14 9 15 91 16 10 17 90 18 7 19 3 20 4 21 92 22 5 23
REMARK SMILES IDX 6 24 2 25 1 26 22 27 23 28 24 29 25 30 26 31 27 32 88 33
REMARK SMILES IDX 28 34 87 35 29 36 30 37 31 38 81 39 32 40 86 41 80 42 82 43
REMARK SMILES IDX 33 44 85 45 79 46 78 47 34 49 66 50 46 51 65 52 47 53 50 54
REMARK SMILES IDX 64 55 83 56 48 57 49 58 63 60 84 61 51 62 35 63 36 64 44 65
REMARK SMILES IDX 37 66 38 67 42 68 45 69 39 70 40 71 43 72 41 73 67 74 68 75
REMARK SMILES IDX 76 76 69 77 70 78 74 79 77 80 71 81 72 82 75 83 73 84 52 85
REMARK SMILES IDX 53 86 61 87 54 88 55 89 59 90 62 91 56 92 57 93 60 94 58 95
REMARK H PARENT 12 12 82 48 50 59
REMARK Flexibility Score: inf
ROOT
ATOM      1  C   UNL     1       7.142   6.399   3.504  1.00  0.00     0.275 C 
ENDROOT
BRANCH   1   2
ATOM      2  O   UNL     1       7.518   6.097   2.145  1.00  0.00    -0.458 OA
BRANCH   2   3
ATOM      3  C   UNL     1       7.708   7.158   1.321  1.00  0.00     0.338 C 
ATOM      4  O   UNL     1       7.567   8.335   1.608  1.00  0.00    -0.246 OA
BRANCH   3   5
ATOM      5  C   UNL     1       8.259   6.705   0.019  1.00  0.00     0.062 A 
ATOM      6  C   UNL     1       8.514   5.029  -1.724  1.00  0.00     0.040 A 
ATOM      7  C   UNL     1       9.366   5.894  -2.418  1.00  0.00     0.026 A 
ATOM      8  C   UNL     1       7.993   5.432  -0.484  1.00  0.00     0.041 A 
ATOM      9  C   UNL     1       9.628   7.173  -1.926  1.00  0.00     0.003 A 
ATOM     10  C   UNL     1       9.045   7.589  -0.731  1.00  0.00     0.016 A 
BRANCH   6  11
ATOM     11  N   UNL     1       8.049   3.854  -2.347  1.00  0.00    -0.339 N 
ATOM     12  H   UNL     1       8.716   3.231  -2.715  1.00  0.00     0.168 HD
BRANCH  11  13
ATOM     13  C   UNL     1       6.688   3.519  -2.475  1.00  0.00     0.153 A 
ATOM     14  C   UNL     1       4.021   2.862  -2.595  1.00  0.00     0.093 A 
ATOM     15  C   UNL     1       4.971   1.909  -2.939  1.00  0.00     0.035 A 
ATOM     16  N   UNL     1       4.398   4.100  -2.226  1.00  0.00    -0.148 NA
ATOM     17  C   UNL     1       6.324   2.244  -2.878  1.00  0.00     0.051 A 
ATOM     18  N   UNL     1       5.730   4.418  -2.159  1.00  0.00    -0.132 NA
BRANCH  14  19
ATOM     19  C   UNL     1       2.581   2.601  -2.565  1.00  0.00     0.006 A 
ATOM     20  C   UNL     1       0.686   1.263  -1.816  1.00  0.00     0.119 A 
ATOM     21  C   UNL     1      -0.186   2.118  -2.487  1.00  0.00     0.046 A 
ATOM     22  C   UNL     1       2.063   1.490  -1.875  1.00  0.00     0.056 A 
ATOM     23  C   UNL     1       0.305   3.231  -3.165  1.00  0.00     0.005 A 
ATOM     24  C   UNL     1       1.679   3.477  -3.193  1.00  0.00     0.011 A 
BRANCH  20  25
ATOM     25  O   UNL     1       0.108   0.210  -1.161  1.00  0.00    -0.497 OA
ATOM     26  C   UNL     1       0.742  -0.142   0.066  1.00  0.00     0.278 C 
ENDBRANCH  20  25
ENDBRANCH  14  19
ENDBRANCH  11  13
ENDBRANCH   6  11
ENDBRANCH   3   5
ENDBRANCH   2   3
ENDBRANCH   1   2
BRANCH   1  27
ATOM     27  C   UNL     1       8.356   6.289   4.424  1.00  0.00     0.275 C 
BRANCH  27  28
ATOM     28  O   UNL     1       9.294   7.329   4.094  1.00  0.00    -0.458 OA
BRANCH  28  29
ATOM     29  C   UNL     1      10.561   6.938   3.844  1.00  0.00     0.338 C 
ATOM     30  O   UNL     1      11.039   5.819   3.949  1.00  0.00    -0.246 OA
BRANCH  29  31
ATOM     31  C   UNL     1      11.333   8.104   3.392  1.00  0.00     0.060 A 
ATOM     32  C   UNL     1      11.015   8.697   2.172  1.00  0.00     0.016 A 
ATOM     33  C   UNL     1      12.430   8.551   4.124  1.00  0.00     0.016 A 
ATOM     34  C   UNL     1      11.816   9.706   1.645  1.00  0.00     0.010 A 
ATOM     35  C   UNL     1      13.199   9.609   3.628  1.00  0.00     0.010 A 
ATOM     36  C   UNL     1      12.918  10.177   2.370  1.00  0.00    -0.014 A 
BRANCH  36  37
ATOM     37  C   UNL     1      13.820  11.206   1.788  1.00  0.00     0.031 A 
ATOM     38  C   UNL     1      15.254  10.857   1.500  1.00  0.00     0.074 A 
ATOM     39  C   UNL     1      13.368  12.441   1.500  1.00  0.00     0.049 A 
ATOM     40  N   UNL     1      16.253  11.640   1.180  1.00  0.00    -0.248 NA
ATOM     41  C   UNL     1      15.615   9.433   1.595  1.00  0.00     0.031 C 
ATOM     42  C   UNL     1      11.989  12.900   1.667  1.00  0.00     0.029 A 
ATOM     43  N   UNL     1      14.027  13.540   1.004  1.00  0.00    -0.354 N 
ATOM     44  C   UNL     1      17.368  10.816   1.098  1.00  0.00     0.074 A 
ATOM     45  C   UNL     1      16.924   9.471   1.391  1.00  0.00     0.031 C 
ATOM     46  C   UNL     1      11.899  14.177   1.259  1.00  0.00     0.029 A 
ATOM     47  C   UNL     1      13.226  14.648   0.873  1.00  0.00     0.049 A 
ATOM     48  H   UNL     1      14.982  13.534   0.765  1.00  0.00     0.167 HD
ATOM     49  C   UNL     1      18.647  11.156   0.811  1.00  0.00     0.037 A 
ATOM     50  C   UNL     1      13.533  15.911   0.521  1.00  0.00     0.037 A 
ATOM     51  C   UNL     1      19.077  12.483   0.459  1.00  0.00     0.049 A 
ATOM     52  C   UNL     1      14.962  16.267   0.217  1.00  0.00     0.074 A 
ATOM     53  C   UNL     1      20.351  12.926   0.148  1.00  0.00     0.029 A 
ATOM     54  N   UNL     1      18.235  13.580   0.352  1.00  0.00    -0.354 N 
ATOM     55  N   UNL     1      16.023  15.498   0.214  1.00  0.00    -0.248 NA
ATOM     56  C   UNL     1      15.240  17.673  -0.112  1.00  0.00     0.031 C 
ATOM     57  C   UNL     1      20.284  14.296  -0.128  1.00  0.00     0.029 A 
ATOM     58  C   UNL     1      18.963  14.699  -0.019  1.00  0.00     0.049 A 
ATOM     59  H   UNL     1      17.264  13.566   0.516  1.00  0.00     0.167 HD
ATOM     60  C   UNL     1      17.090  16.320  -0.122  1.00  0.00     0.074 A 
ATOM     61  C   UNL     1      16.546  17.645  -0.337  1.00  0.00     0.031 C 
ATOM     62  C   UNL     1      18.403  16.007  -0.235  1.00  0.00     0.037 A 
BRANCH  49  63
ATOM     63  C   UNL     1      19.685  10.078   0.901  1.00  0.00     0.064 A 
ATOM     64  C   UNL     1      19.807   9.082  -0.077  1.00  0.00     0.173 A 
ATOM     65  C   UNL     1      20.591  10.066   1.972  1.00  0.00     0.173 A 
ATOM     66  F   UNL     1      18.953   9.043  -1.111  1.00  0.00    -0.203 F 
ATOM     67  C   UNL     1      20.788   8.098   0.025  1.00  0.00     0.198 A 
ATOM     68  C   UNL     1      21.585   9.095   2.058  1.00  0.00     0.198 A 
ATOM     69  F   UNL     1      20.517  11.000   2.932  1.00  0.00    -0.203 F 
ATOM     70  F   UNL     1      20.863   7.131  -0.900  1.00  0.00    -0.200 F 
ATOM     71  C   UNL     1      21.679   8.109   1.088  1.00  0.00     0.200 A 
ATOM     72  F   UNL     1      22.451   9.113   3.081  1.00  0.00    -0.200 F 
ATOM     73  F   UNL     1      22.626   7.165   1.181  1.00  0.00    -0.200 F 
ENDBRANCH  49  63
BRANCH  50  74
ATOM     74  C   UNL     1      12.467  16.944   0.472  1.00  0.00     0.064 A 
ATOM     75  C   UNL     1      12.036  17.476  -0.750  1.00  0.00     0.173 A 
ATOM     76  C   UNL     1      11.857  17.417   1.643  1.00  0.00     0.173 A 
ATOM     77  F   UNL     1      12.610  17.077  -1.894  1.00  0.00    -0.203 F 
ATOM     78  C   UNL     1      11.038  18.448  -0.798  1.00  0.00     0.198 A 
ATOM     79  C   UNL     1      10.842  18.369   1.592  1.00  0.00     0.198 A 
ATOM     80  F   UNL     1      12.239  16.942   2.838  1.00  0.00    -0.203 F 
ATOM     81  F   UNL     1      10.670  18.969  -1.977  1.00  0.00    -0.200 F 
ATOM     82  C   UNL     1      10.437  18.888   0.372  1.00  0.00     0.200 A 
ATOM     83  F   UNL     1      10.258  18.784   2.724  1.00  0.00    -0.200 F 
ATOM     84  F   UNL     1       9.473  19.818   0.324  1.00  0.00    -0.200 F 
ENDBRANCH  50  74
BRANCH  62  85
ATOM     85  C   UNL     1      19.338  17.109  -0.632  1.00  0.00     0.064 A 
ATOM     86  C   UNL     1      19.735  18.094   0.282  1.00  0.00     0.173 A 
ATOM     87  C   UNL     1      19.873  17.154  -1.928  1.00  0.00     0.173 A 
ATOM     88  F   UNL     1      19.238  18.099   1.528  1.00  0.00    -0.203 F 
ATOM     89  C   UNL     1      20.623  19.098  -0.092  1.00  0.00     0.198 A 
ATOM     90  C   UNL     1      20.776  18.148  -2.293  1.00  0.00     0.198 A 
ATOM     91  F   UNL     1      19.525  16.230  -2.836  1.00  0.00    -0.203 F 
ATOM     92  F   UNL     1      20.964  20.052   0.786  1.00  0.00    -0.200 F 
ATOM     93  C   UNL     1      21.147  19.121  -1.377  1.00  0.00     0.200 A 
ATOM     94  F   UNL     1      21.288  18.165  -3.531  1.00  0.00    -0.200 F 
ATOM     95  F   UNL     1      22.005  20.086  -1.735  1.00  0.00    -0.200 F 
ENDBRANCH  62  85
ENDBRANCH  36  37
ENDBRANCH  29  31
ENDBRANCH  28  29
ENDBRANCH  27  28
ENDBRANCH   1  27
TORSDOF 15
