REMARK SMILES O=C(OCCOC(=O)c1ccc(-c2cccc(O)c2)cc1Cl)c1ccc(-c2c3nc(c(-c4c(F)c(F)c(F)c(F)c4F)c4ccc([nH]4)c(-c4c(F)c(F)c(F)c(F)c4F)c4nc(c(-c5c(F)c(F)c(F)c(F)c5F)c5ccc2[nH]5)C=C4)C=C3)cc1
REMARK SMILES IDX 4 1 3 2 2 3 1 4 23 5 24 6 85 7 25 8 84 9 26 10 27 11 28 12
REMARK SMILES IDX 78 13 29 14 83 15 77 16 79 17 30 18 82 19 76 20 75 21 31 23
REMARK SMILES IDX 63 24 43 25 62 26 44 27 47 28 61 29 80 30 45 31 46 32 60 34
REMARK SMILES IDX 81 35 48 36 32 37 33 38 41 39 34 40 35 41 39 42 42 43 36 44
REMARK SMILES IDX 37 45 40 46 38 47 64 48 65 49 73 50 66 51 67 52 71 53 74 54
REMARK SMILES IDX 68 55 69 56 72 57 70 58 49 59 50 60 58 61 51 62 52 63 56 64
REMARK SMILES IDX 59 65 53 66 54 67 57 68 55 69 5 70 6 71 7 72 8 73 9 74 10 75
REMARK SMILES IDX 21 76 11 77 20 78 22 79 12 80 13 81 14 82 19 83 15 84 17 85
REMARK SMILES IDX 16 86 18 87
REMARK H PARENT 79 22 47 33 18 88
REMARK Flexibility Score: inf
ROOT
ATOM      1  C   UNL     1       3.916   1.115  -1.101  1.00  0.00     0.275 C 
ENDROOT
BRANCH   1   2
ATOM      2  O   UNL     1       2.824   0.178  -1.165  1.00  0.00    -0.458 OA
BRANCH   2   3
ATOM      3  C   UNL     1       2.621  -0.992  -0.518  1.00  0.00     0.338 C 
ATOM      4  O   UNL     1       1.641  -1.670  -0.827  1.00  0.00    -0.246 OA
BRANCH   3   5
ATOM      5  C   UNL     1       3.447  -1.476   0.634  1.00  0.00     0.060 A 
ATOM      6  C   UNL     1       4.766  -1.115   0.908  1.00  0.00     0.016 A 
ATOM      7  C   UNL     1       2.818  -2.374   1.522  1.00  0.00     0.016 A 
ATOM      8  C   UNL     1       5.409  -1.559   2.062  1.00  0.00     0.010 A 
ATOM      9  C   UNL     1       3.452  -2.815   2.688  1.00  0.00     0.010 A 
ATOM     10  C   UNL     1       4.757  -2.402   2.963  1.00  0.00    -0.014 A 
BRANCH  10  11
ATOM     11  C   UNL     1       5.521  -2.925   4.113  1.00  0.00     0.031 A 
ATOM     12  C   UNL     1       6.088  -4.306   4.024  1.00  0.00     0.074 A 
ATOM     13  C   UNL     1       5.810  -2.122   5.153  1.00  0.00     0.049 A 
ATOM     14  N   UNL     1       6.911  -4.912   4.837  1.00  0.00    -0.248 NA
ATOM     15  C   UNL     1       5.713  -5.096   2.840  1.00  0.00     0.031 C 
ATOM     16  C   UNL     1       5.377  -0.734   5.275  1.00  0.00     0.029 A 
ATOM     17  N   UNL     1       6.543  -2.339   6.289  1.00  0.00    -0.354 N 
ATOM     18  C   UNL     1       7.195  -6.128   4.237  1.00  0.00     0.074 A 
ATOM     19  C   UNL     1       6.401  -6.210   3.031  1.00  0.00     0.031 C 
ATOM     20  C   UNL     1       5.813  -0.229   6.440  1.00  0.00     0.029 A 
ATOM     21  C   UNL     1       6.570  -1.260   7.140  1.00  0.00     0.049 A 
ATOM     22  H   UNL     1       7.006  -3.187   6.478  1.00  0.00     0.167 HD
ATOM     23  C   UNL     1       8.073  -7.072   4.642  1.00  0.00     0.037 A 
ATOM     24  C   UNL     1       7.150  -1.125   8.347  1.00  0.00     0.037 A 
ATOM     25  C   UNL     1       8.815  -6.994   5.870  1.00  0.00     0.049 A 
ATOM     26  C   UNL     1       8.008  -2.256   8.846  1.00  0.00     0.074 A 
ATOM     27  C   UNL     1       9.681  -7.920   6.420  1.00  0.00     0.029 A 
ATOM     28  N   UNL     1       8.761  -5.920   6.751  1.00  0.00    -0.354 N 
ATOM     29  N   UNL     1       8.291  -3.397   8.261  1.00  0.00    -0.248 NA
ATOM     30  C   UNL     1       8.657  -2.073  10.149  1.00  0.00     0.031 C 
ATOM     31  C   UNL     1      10.112  -7.428   7.657  1.00  0.00     0.029 A 
ATOM     32  C   UNL     1       9.561  -6.170   7.853  1.00  0.00     0.049 A 
ATOM     33  H   UNL     1       8.231  -5.102   6.612  1.00  0.00     0.167 HD
ATOM     34  C   UNL     1       9.176  -4.051   9.104  1.00  0.00     0.074 A 
ATOM     35  C   UNL     1       9.398  -3.169  10.233  1.00  0.00     0.031 C 
ATOM     36  C   UNL     1       9.758  -5.268   8.960  1.00  0.00     0.037 A 
BRANCH  23  37
ATOM     37  C   UNL     1       8.242  -8.264   3.748  1.00  0.00     0.064 A 
ATOM     38  C   UNL     1       8.886  -8.158   2.505  1.00  0.00     0.173 A 
ATOM     39  C   UNL     1       7.732  -9.515   4.120  1.00  0.00     0.173 A 
ATOM     40  F   UNL     1       9.368  -6.976   2.091  1.00  0.00    -0.203 F 
ATOM     41  C   UNL     1       8.987  -9.256   1.654  1.00  0.00     0.198 A 
ATOM     42  C   UNL     1       7.858 -10.617   3.278  1.00  0.00     0.198 A 
ATOM     43  F   UNL     1       7.101  -9.667   5.293  1.00  0.00    -0.203 F 
ATOM     44  F   UNL     1       9.554  -9.118   0.448  1.00  0.00    -0.200 F 
ATOM     45  C   UNL     1       8.477 -10.485   2.043  1.00  0.00     0.200 A 
ATOM     46  F   UNL     1       7.367 -11.805   3.656  1.00  0.00    -0.200 F 
ATOM     47  F   UNL     1       8.569 -11.540   1.222  1.00  0.00    -0.200 F 
ENDBRANCH  23  37
BRANCH  24  48
ATOM     48  C   UNL     1       6.944   0.111   9.152  1.00  0.00     0.064 A 
ATOM     49  C   UNL     1       8.001   0.979   9.457  1.00  0.00     0.173 A 
ATOM     50  C   UNL     1       5.677   0.427   9.668  1.00  0.00     0.173 A 
ATOM     51  F   UNL     1       9.235   0.719   9.001  1.00  0.00    -0.203 F 
ATOM     52  C   UNL     1       7.809   2.091  10.277  1.00  0.00     0.198 A 
ATOM     53  C   UNL     1       5.479   1.555  10.462  1.00  0.00     0.198 A 
ATOM     54  F   UNL     1       4.626  -0.363   9.403  1.00  0.00    -0.203 F 
ATOM     55  F   UNL     1       8.850   2.869  10.603  1.00  0.00    -0.200 F 
ATOM     56  C   UNL     1       6.548   2.379  10.778  1.00  0.00     0.200 A 
ATOM     57  F   UNL     1       4.256   1.835  10.932  1.00  0.00    -0.200 F 
ATOM     58  F   UNL     1       6.366   3.442  11.573  1.00  0.00    -0.200 F 
ENDBRANCH  24  48
BRANCH  36  59
ATOM     59  C   UNL     1      10.707  -5.694  10.041  1.00  0.00     0.064 A 
ATOM     60  C   UNL     1      10.256  -6.030  11.326  1.00  0.00     0.173 A 
ATOM     61  C   UNL     1      12.082  -5.790   9.779  1.00  0.00     0.173 A 
ATOM     62  F   UNL     1       8.952  -5.939  11.630  1.00  0.00    -0.203 F 
ATOM     63  C   UNL     1      11.152  -6.412  12.320  1.00  0.00     0.198 A 
ATOM     64  C   UNL     1      12.970  -6.207  10.764  1.00  0.00     0.198 A 
ATOM     65  F   UNL     1      12.562  -5.487   8.563  1.00  0.00    -0.203 F 
ATOM     66  F   UNL     1      10.706  -6.668  13.557  1.00  0.00    -0.200 F 
ATOM     67  C   UNL     1      12.506  -6.507  12.036  1.00  0.00     0.200 A 
ATOM     68  F   UNL     1      14.276  -6.314  10.485  1.00  0.00    -0.200 F 
ATOM     69  F   UNL     1      13.367  -6.879  12.993  1.00  0.00    -0.200 F 
ENDBRANCH  36  59
ENDBRANCH  10  11
ENDBRANCH   3   5
ENDBRANCH   2   3
ENDBRANCH   1   2
BRANCH   1  70
ATOM     70  C   UNL     1       3.831   2.122   0.048  1.00  0.00     0.275 C 
BRANCH  70  71
ATOM     71  O   UNL     1       3.434   1.536   1.297  1.00  0.00    -0.458 OA
BRANCH  71  72
ATOM     72  C   UNL     1       2.121   1.678   1.616  1.00  0.00     0.339 C 
ATOM     73  O   UNL     1       1.258   2.216   0.943  1.00  0.00    -0.246 OA
BRANCH  72  74
ATOM     74  C   UNL     1       1.829   0.950   2.862  1.00  0.00     0.078 A 
ATOM     75  C   UNL     1       0.878  -0.077   2.804  1.00  0.00     0.018 A 
ATOM     76  C   UNL     1       2.440   1.254   4.077  1.00  0.00     0.056 A 
ATOM     77  C   UNL     1       0.592  -0.842   3.942  1.00  0.00     0.010 A 
ATOM     78  C   UNL     1       2.133   0.497   5.216  1.00  0.00     0.030 A 
ATOM     79  Cl  UNL     1       3.556   2.561   4.257  1.00  0.00    -0.083 Cl
ATOM     80  C   UNL     1       1.218  -0.571   5.167  1.00  0.00    -0.017 A 
BRANCH  80  81
ATOM     81  C   UNL     1       0.904  -1.345   6.381  1.00  0.00    -0.015 A 
ATOM     82  C   UNL     1       0.483  -0.687   7.550  1.00  0.00     0.009 A 
ATOM     83  C   UNL     1       1.008  -2.745   6.418  1.00  0.00     0.054 A 
ATOM     84  C   UNL     1       0.178  -1.398   8.715  1.00  0.00     0.004 A 
ATOM     85  C   UNL     1       0.703  -3.448   7.584  1.00  0.00     0.116 A 
ATOM     86  C   UNL     1       0.288  -2.785   8.733  1.00  0.00     0.046 A 
BRANCH  85  87
ATOM     87  O   UNL     1       0.824  -4.807   7.559  1.00  0.00    -0.508 OA
ATOM     88  H   UNL     1       0.627  -5.309   8.325  1.00  0.00     0.293 HD
ENDBRANCH  85  87
ENDBRANCH  80  81
ENDBRANCH  72  74
ENDBRANCH  71  72
ENDBRANCH  70  71
ENDBRANCH   1  70
TORSDOF 13
