REMARK SMILES O=C(CN(CC(=O)OCCOC(=O)c1ccc(-c2c3nc(c(-c4c(F)c(F)c(F)c(F)c4F)c4ccc([nH]4)c(-c4c(F)c(F)c(F)c(F)c4F)c4nc(c(-c5c(F)c(F)c(F)c(F)c5F)c5ccc2[nH]5)C=C4)C=C3)cc1)c1ccccc1)NCc1ccccc1
REMARK SMILES IDX 8 1 6 2 7 3 5 4 4 5 3 6 2 7 1 8 83 9 84 11 85 12 86 13 90 14
REMARK SMILES IDX 87 15 89 16 88 17 77 18 78 19 82 20 79 21 81 22 80 23 9 24
REMARK SMILES IDX 10 25 11 26 12 27 13 28 14 29 15 30 76 31 16 32 75 33 17 34
REMARK SMILES IDX 18 35 19 36 69 37 20 38 74 39 68 40 70 41 21 42 73 43 67 44
REMARK SMILES IDX 66 45 22 47 54 48 34 49 53 50 35 51 38 52 52 53 71 54 36 55
REMARK SMILES IDX 37 56 51 58 72 59 39 60 23 61 24 62 32 63 25 64 26 65 30 66
REMARK SMILES IDX 33 67 27 68 28 69 31 70 29 71 55 72 56 73 64 74 57 75 58 76
REMARK SMILES IDX 62 77 65 78 59 79 60 80 63 81 61 82 40 83 41 84 49 85 42 86
REMARK SMILES IDX 43 87 47 88 50 89 44 90 45 91 48 92 46 93
REMARK H PARENT 83 10 70 46 38 57
REMARK Flexibility Score: inf
ROOT
ATOM      1  O   UNL     1       4.922   4.050  -0.769  1.00  0.00    -0.461 OA
ENDROOT
BRANCH   1   2
ATOM      2  C   UNL     1       5.556   2.860  -0.606  1.00  0.00     0.325 C 
ATOM      3  O   UNL     1       6.755   2.682  -0.819  1.00  0.00    -0.250 OA
BRANCH   2   4
ATOM      4  C   UNL     1       4.686   1.715  -0.099  1.00  0.00     0.239 C 
BRANCH   4   5
ATOM      5  N   UNL     1       3.245   1.953   0.028  1.00  0.00    -0.351 N 
BRANCH   5   6
ATOM      6  C   UNL     1       2.308   1.270  -0.888  1.00  0.00     0.217 C 
BRANCH   6   7
ATOM      7  C   UNL     1       1.766  -0.075  -0.363  1.00  0.00     0.239 C 
ATOM      8  O   UNL     1       0.591  -0.403  -0.518  1.00  0.00    -0.273 OA
ATOM      9  N   UNL     1       2.692  -0.898   0.248  1.00  0.00    -0.350 N 
ATOM     10  H   UNL     1       3.651  -0.698   0.143  1.00  0.00     0.163 HD
BRANCH   9  11
ATOM     11  C   UNL     1       2.298  -2.043   1.038  1.00  0.00     0.151 C 
BRANCH  11  12
ATOM     12  C   UNL     1       2.682  -3.386   0.473  1.00  0.00    -0.029 A 
ATOM     13  C   UNL     1       1.946  -4.511   0.881  1.00  0.00     0.005 A 
ATOM     14  C   UNL     1       3.791  -3.580  -0.360  1.00  0.00     0.005 A 
ATOM     15  C   UNL     1       2.293  -5.792   0.452  1.00  0.00     0.000 A 
ATOM     16  C   UNL     1       4.137  -4.865  -0.792  1.00  0.00     0.000 A 
ATOM     17  C   UNL     1       3.388  -5.968  -0.388  1.00  0.00     0.000 A 
ENDBRANCH  11  12
ENDBRANCH   9  11
ENDBRANCH   6   7
ENDBRANCH   5   6
BRANCH   5  18
ATOM     18  C   UNL     1       2.759   2.472   1.221  1.00  0.00     0.038 A 
ATOM     19  C   UNL     1       2.521   3.843   1.354  1.00  0.00     0.026 A 
ATOM     20  C   UNL     1       2.503   1.662   2.336  1.00  0.00     0.026 A 
ATOM     21  C   UNL     1       2.058   4.386   2.559  1.00  0.00     0.002 A 
ATOM     22  C   UNL     1       2.019   2.194   3.535  1.00  0.00     0.002 A 
ATOM     23  C   UNL     1       1.803   3.561   3.649  1.00  0.00     0.000 A 
ENDBRANCH   5  18
ENDBRANCH   4   5
ENDBRANCH   2   4
ENDBRANCH   1   2
BRANCH   1  24
ATOM     24  C   UNL     1       5.762   5.159  -1.150  1.00  0.00     0.274 C 
BRANCH  24  25
ATOM     25  C   UNL     1       6.111   6.022   0.060  1.00  0.00     0.275 C 
BRANCH  25  26
ATOM     26  O   UNL     1       6.711   5.208   1.084  1.00  0.00    -0.458 OA
BRANCH  26  27
ATOM     27  C   UNL     1       6.075   5.235   2.278  1.00  0.00     0.338 C 
ATOM     28  O   UNL     1       5.118   5.920   2.594  1.00  0.00    -0.246 OA
BRANCH  27  29
ATOM     29  C   UNL     1       6.739   4.330   3.230  1.00  0.00     0.060 A 
ATOM     30  C   UNL     1       6.854   2.965   2.966  1.00  0.00     0.016 A 
ATOM     31  C   UNL     1       7.133   4.847   4.465  1.00  0.00     0.016 A 
ATOM     32  C   UNL     1       7.292   2.102   3.970  1.00  0.00     0.010 A 
ATOM     33  C   UNL     1       7.631   3.991   5.449  1.00  0.00     0.010 A 
ATOM     34  C   UNL     1       7.679   2.608   5.222  1.00  0.00    -0.014 A 
BRANCH  34  35
ATOM     35  C   UNL     1       8.152   1.689   6.285  1.00  0.00     0.031 A 
ATOM     36  C   UNL     1       7.328   1.450   7.519  1.00  0.00     0.074 A 
ATOM     37  C   UNL     1       9.333   1.065   6.127  1.00  0.00     0.049 A 
ATOM     38  N   UNL     1       7.604   0.712   8.566  1.00  0.00    -0.248 NA
ATOM     39  C   UNL     1       6.027   2.132   7.593  1.00  0.00     0.031 C 
ATOM     40  C   UNL     1      10.217   1.224   4.972  1.00  0.00     0.029 A 
ATOM     41  N   UNL     1       9.989   0.169   6.931  1.00  0.00    -0.354 N 
ATOM     42  C   UNL     1       6.528   0.859   9.431  1.00  0.00     0.074 A 
ATOM     43  C   UNL     1       5.595   1.763   8.792  1.00  0.00     0.031 C 
ATOM     44  C   UNL     1      11.283   0.424   5.124  1.00  0.00     0.029 A 
ATOM     45  C   UNL     1      11.179  -0.265   6.406  1.00  0.00     0.049 A 
ATOM     46  H   UNL     1       9.639  -0.133   7.801  1.00  0.00     0.167 HD
ATOM     47  C   UNL     1       6.341   0.291  10.647  1.00  0.00     0.037 A 
ATOM     48  C   UNL     1      12.092  -1.118   6.906  1.00  0.00     0.037 A 
ATOM     49  C   UNL     1       7.266  -0.620  11.273  1.00  0.00     0.049 A 
ATOM     50  C   UNL     1      11.850  -1.745   8.247  1.00  0.00     0.074 A 
ATOM     51  C   UNL     1       7.164  -1.252  12.501  1.00  0.00     0.029 A 
ATOM     52  N   UNL     1       8.465  -1.034  10.711  1.00  0.00    -0.354 N 
ATOM     53  N   UNL     1      10.834  -1.588   9.060  1.00  0.00    -0.248 NA
ATOM     54  C   UNL     1      12.884  -2.663   8.742  1.00  0.00     0.031 C 
ATOM     55  C   UNL     1       8.314  -2.027  12.694  1.00  0.00     0.029 A 
ATOM     56  C   UNL     1       9.116  -1.906  11.571  1.00  0.00     0.049 A 
ATOM     57  H   UNL     1       8.805  -0.751   9.831  1.00  0.00     0.167 HD
ATOM     58  C   UNL     1      11.104  -2.383  10.163  1.00  0.00     0.074 A 
ATOM     59  C   UNL     1      12.366  -3.046   9.901  1.00  0.00     0.031 C 
ATOM     60  C   UNL     1      10.379  -2.541  11.297  1.00  0.00     0.037 A 
BRANCH  47  61
ATOM     61  C   UNL     1       5.095   0.654  11.400  1.00  0.00     0.064 A 
ATOM     62  C   UNL     1       3.843   0.129  11.048  1.00  0.00     0.173 A 
ATOM     63  C   UNL     1       5.163   1.496  12.521  1.00  0.00     0.173 A 
ATOM     64  F   UNL     1       3.723  -0.670   9.978  1.00  0.00    -0.203 F 
ATOM     65  C   UNL     1       2.702   0.445  11.783  1.00  0.00     0.198 A 
ATOM     66  C   UNL     1       4.024   1.794  13.265  1.00  0.00     0.198 A 
ATOM     67  F   UNL     1       6.337   2.020  12.902  1.00  0.00    -0.203 F 
ATOM     68  F   UNL     1       1.511  -0.044  11.412  1.00  0.00    -0.200 F 
ATOM     69  C   UNL     1       2.794   1.271  12.894  1.00  0.00     0.200 A 
ATOM     70  F   UNL     1       4.117   2.584  14.344  1.00  0.00    -0.200 F 
ATOM     71  F   UNL     1       1.697   1.567  13.605  1.00  0.00    -0.200 F 
ENDBRANCH  47  61
BRANCH  48  72
ATOM     72  C   UNL     1      13.308  -1.427   6.116  1.00  0.00     0.064 A 
ATOM     73  C   UNL     1      13.462  -2.673   5.495  1.00  0.00     0.173 A 
ATOM     74  C   UNL     1      14.315  -0.470   5.927  1.00  0.00     0.173 A 
ATOM     75  F   UNL     1      12.533  -3.625   5.664  1.00  0.00    -0.203 F 
ATOM     76  C   UNL     1      14.581  -2.951   4.713  1.00  0.00     0.198 A 
ATOM     77  C   UNL     1      15.421  -0.740   5.126  1.00  0.00     0.198 A 
ATOM     78  F   UNL     1      14.207   0.739   6.498  1.00  0.00    -0.203 F 
ATOM     79  F   UNL     1      14.717  -4.158   4.148  1.00  0.00    -0.200 F 
ATOM     80  C   UNL     1      15.554  -1.981   4.522  1.00  0.00     0.200 A 
ATOM     81  F   UNL     1      16.351   0.205   4.930  1.00  0.00    -0.200 F 
ATOM     82  F   UNL     1      16.621  -2.243   3.755  1.00  0.00    -0.200 F 
ENDBRANCH  48  72
BRANCH  60  83
ATOM     83  C   UNL     1      10.947  -3.465  12.331  1.00  0.00     0.064 A 
ATOM     84  C   UNL     1      12.037  -3.082  13.128  1.00  0.00     0.173 A 
ATOM     85  C   UNL     1      10.405  -4.743  12.522  1.00  0.00     0.173 A 
ATOM     86  F   UNL     1      12.599  -1.875  12.967  1.00  0.00    -0.203 F 
ATOM     87  C   UNL     1      12.585  -3.961  14.057  1.00  0.00     0.198 A 
ATOM     88  C   UNL     1      10.942  -5.612  13.467  1.00  0.00     0.198 A 
ATOM     89  F   UNL     1       9.362  -5.152  11.785  1.00  0.00    -0.203 F 
ATOM     90  F   UNL     1      13.658  -3.595  14.771  1.00  0.00    -0.200 F 
ATOM     91  C   UNL     1      12.036  -5.224  14.227  1.00  0.00     0.200 A 
ATOM     92  F   UNL     1      10.411  -6.831  13.634  1.00  0.00    -0.200 F 
ATOM     93  F   UNL     1      12.572  -6.073  15.115  1.00  0.00    -0.200 F 
ENDBRANCH  60  83
ENDBRANCH  34  35
ENDBRANCH  27  29
ENDBRANCH  26  27
ENDBRANCH  25  26
ENDBRANCH  24  25
ENDBRANCH   1  24
TORSDOF 17
