REMARK SMILES Cn1c(=O)c(=O)n(C)c2cc(S(=O)(=O)N3CCC[C@H]3C(=O)OCCOC(=O)c3ccc(-c4c5nc(c(-c6c(F)c(F)c(F)c(F)c6F)c6ccc([nH]6)c(-c6c(F)c(F)c(F)c(F)c6F)c6nc(c(-c7c(F)c(F)c(F)c(F)c7F)c7ccc4[nH]7)C=C6)C=C5)cc3)ccc21
REMARK SMILES IDX 23 1 22 2 20 3 21 4 19 5 15 6 16 7 17 8 18 9 12 10 13 11
REMARK SMILES IDX 14 12 11 13 1 14 2 15 3 16 93 17 4 18 5 19 9 20 92 21 6 22
REMARK SMILES IDX 7 23 10 24 91 25 8 26 24 27 25 28 26 29 27 30 28 31 29 32
REMARK SMILES IDX 90 33 30 34 89 35 31 36 32 37 33 38 83 39 34 40 88 41 82 42
REMARK SMILES IDX 84 43 35 44 87 45 81 46 80 47 36 49 68 50 48 51 67 52 49 53
REMARK SMILES IDX 52 54 66 55 85 56 50 57 51 58 65 60 86 61 53 62 37 63 38 64
REMARK SMILES IDX 46 65 39 66 40 67 44 68 47 69 41 70 42 71 45 72 43 73 69 74
REMARK SMILES IDX 70 75 78 76 71 77 72 78 76 79 79 80 73 81 74 82 77 83 75 84
REMARK SMILES IDX 54 85 55 86 63 87 56 88 57 89 61 90 64 91 58 92 59 93 62 94
REMARK SMILES IDX 60 95
REMARK H PARENT 84 48 52 59
REMARK Flexibility Score: inf
ROOT
ATOM      1  C   UNL     1       1.795   6.293   6.801  1.00  0.00     0.274 C 
ENDROOT
BRANCH   1   2
ATOM      2  O   UNL     1       1.305   5.393   5.787  1.00  0.00    -0.461 OA
BRANCH   2   3
ATOM      3  C   UNL     1       0.058   4.874   5.994  1.00  0.00     0.324 C 
ATOM      4  O   UNL     1      -0.654   5.121   6.958  1.00  0.00    -0.250 OA
BRANCH   3   5
ATOM      5  C   UNL     1      -0.341   4.007   4.804  1.00  0.00     0.183 C 
ATOM      6  N   UNL     1      -1.559   3.220   5.088  1.00  0.00    -0.184 NA
ATOM      7  C   UNL     1      -2.714   3.680   4.321  1.00  0.00     0.103 C 
ATOM      8  C   UNL     1      -2.141   4.529   3.198  1.00  0.00     0.019 C 
ATOM      9  C   UNL     1      -0.690   4.836   3.564  1.00  0.00     0.034 C 
BRANCH   6  10
ATOM     10  S   UNL     1      -1.419   1.639   5.611  1.00  0.00     0.243 S 
ATOM     11  O   UNL     1      -2.740   1.157   5.951  1.00  0.00    -0.207 OA
ATOM     12  O   UNL     1      -0.312   1.585   6.540  1.00  0.00    -0.207 OA
BRANCH  10  13
ATOM     13  C   UNL     1      -0.895   0.706   4.184  1.00  0.00     0.084 A 
ATOM     14  C   UNL     1       1.002  -0.847  -0.295  1.00  0.00     0.154 C 
ATOM     15  N   UNL     1       0.644  -1.527   0.943  1.00  0.00    -0.305 N 
ATOM     16  C   UNL     1       0.905  -2.890   1.039  1.00  0.00     0.316 A 
ATOM     17  C   UNL     1       0.102  -0.798   2.030  1.00  0.00     0.068 A 
ATOM     18  O   UNL     1       1.421  -3.544   0.137  1.00  0.00    -0.263 OA
ATOM     19  C   UNL     1       0.526  -3.602   2.346  1.00  0.00     0.316 A 
ATOM     20  C   UNL     1      -0.176  -1.429   3.259  1.00  0.00     0.069 A 
ATOM     21  C   UNL     1      -0.155   0.569   1.895  1.00  0.00     0.030 A 
ATOM     22  O   UNL     1       0.677  -4.819   2.413  1.00  0.00    -0.263 OA
ATOM     23  N   UNL     1       0.035  -2.826   3.396  1.00  0.00    -0.305 N 
ATOM     24  C   UNL     1      -0.662  -0.661   4.336  1.00  0.00     0.050 A 
ATOM     25  C   UNL     1      -0.662   1.305   2.956  1.00  0.00     0.024 A 
ATOM     26  C   UNL     1      -0.289  -3.498   4.646  1.00  0.00     0.154 C 
ENDBRANCH  10  13
ENDBRANCH   6  10
ENDBRANCH   3   5
ENDBRANCH   2   3
ENDBRANCH   1   2
BRANCH   1  27
ATOM     27  C   UNL     1       1.644   7.741   6.340  1.00  0.00     0.275 C 
BRANCH  27  28
ATOM     28  O   UNL     1       0.246   8.055   6.198  1.00  0.00    -0.458 OA
BRANCH  28  29
ATOM     29  C   UNL     1      -0.148   8.471   4.976  1.00  0.00     0.338 C 
ATOM     30  O   UNL     1       0.542   8.668   3.991  1.00  0.00    -0.246 OA
BRANCH  29  31
ATOM     31  C   UNL     1      -1.614   8.594   4.956  1.00  0.00     0.060 A 
ATOM     32  C   UNL     1      -2.214   9.814   4.666  1.00  0.00     0.016 A 
ATOM     33  C   UNL     1      -2.395   7.448   5.088  1.00  0.00     0.016 A 
ATOM     34  C   UNL     1      -3.606   9.877   4.544  1.00  0.00     0.010 A 
ATOM     35  C   UNL     1      -3.759   7.490   4.828  1.00  0.00     0.010 A 
ATOM     36  C   UNL     1      -4.395   8.710   4.599  1.00  0.00    -0.014 A 
BRANCH  36  37
ATOM     37  C   UNL     1      -5.871   8.770   4.427  1.00  0.00     0.031 A 
ATOM     38  C   UNL     1      -6.803   8.265   5.503  1.00  0.00     0.074 A 
ATOM     39  C   UNL     1      -6.382   9.274   3.286  1.00  0.00     0.049 A 
ATOM     40  N   UNL     1      -8.105   8.390   5.584  1.00  0.00    -0.248 NA
ATOM     41  C   UNL     1      -6.218   7.487   6.608  1.00  0.00     0.031 C 
ATOM     42  C   UNL     1      -5.602   9.663   2.109  1.00  0.00     0.029 A 
ATOM     43  N   UNL     1      -7.675   9.580   2.941  1.00  0.00    -0.354 N 
ATOM     44  C   UNL     1      -8.479   7.717   6.740  1.00  0.00     0.074 A 
ATOM     45  C   UNL     1      -7.292   7.099   7.277  1.00  0.00     0.031 C 
ATOM     46  C   UNL     1      -6.417  10.240   1.212  1.00  0.00     0.029 A 
ATOM     47  C   UNL     1      -7.775  10.252   1.746  1.00  0.00     0.049 A 
ATOM     48  H   UNL     1      -8.454   9.341   3.494  1.00  0.00     0.167 HD
ATOM     49  C   UNL     1      -9.692   7.670   7.339  1.00  0.00     0.037 A 
ATOM     50  C   UNL     1      -8.833  10.857   1.173  1.00  0.00     0.037 A 
ATOM     51  C   UNL     1     -10.860   8.338   6.839  1.00  0.00     0.049 A 
ATOM     52  C   UNL     1     -10.157  10.853   1.887  1.00  0.00     0.074 A 
ATOM     53  C   UNL     1     -12.109   8.448   7.423  1.00  0.00     0.029 A 
ATOM     54  N   UNL     1     -10.916   9.021   5.634  1.00  0.00    -0.354 N 
ATOM     55  N   UNL     1     -10.465  10.337   3.051  1.00  0.00    -0.248 NA
ATOM     56  C   UNL     1     -11.276  11.527   1.212  1.00  0.00     0.031 C 
ATOM     57  C   UNL     1     -12.930   9.175   6.558  1.00  0.00     0.029 A 
ATOM     58  C   UNL     1     -12.184   9.541   5.449  1.00  0.00     0.049 A 
ATOM     59  H   UNL     1     -10.166   9.120   5.004  1.00  0.00     0.167 HD
ATOM     60  C   UNL     1     -11.805  10.637   3.257  1.00  0.00     0.074 A 
ATOM     61  C   UNL     1     -12.246  11.398   2.107  1.00  0.00     0.031 C 
ATOM     62  C   UNL     1     -12.599  10.303   4.302  1.00  0.00     0.037 A 
BRANCH  49  63
ATOM     63  C   UNL     1      -9.803   6.939   8.645  1.00  0.00     0.064 A 
ATOM     64  C   UNL     1      -9.229   7.460   9.815  1.00  0.00     0.173 A 
ATOM     65  C   UNL     1     -10.551   5.757   8.750  1.00  0.00     0.173 A 
ATOM     66  F   UNL     1      -8.499   8.585   9.765  1.00  0.00    -0.203 F 
ATOM     67  C   UNL     1      -9.384   6.816  11.039  1.00  0.00     0.198 A 
ATOM     68  C   UNL     1     -10.726   5.130   9.981  1.00  0.00     0.198 A 
ATOM     69  F   UNL     1     -11.128   5.223   7.663  1.00  0.00    -0.203 F 
ATOM     70  F   UNL     1      -8.801   7.318  12.136  1.00  0.00    -0.200 F 
ATOM     71  C   UNL     1     -10.141   5.657  11.123  1.00  0.00     0.200 A 
ATOM     72  F   UNL     1     -11.470   4.018  10.065  1.00  0.00    -0.200 F 
ATOM     73  F   UNL     1     -10.307   5.050  12.306  1.00  0.00    -0.200 F 
ENDBRANCH  49  63
BRANCH  50  74
ATOM     74  C   UNL     1      -8.655  11.611  -0.095  1.00  0.00     0.064 A 
ATOM     75  C   UNL     1      -8.679  13.013  -0.097  1.00  0.00     0.173 A 
ATOM     76  C   UNL     1      -8.443  10.958  -1.316  1.00  0.00     0.173 A 
ATOM     77  F   UNL     1      -8.891  13.680   1.047  1.00  0.00    -0.203 F 
ATOM     78  C   UNL     1      -8.513  13.734  -1.277  1.00  0.00     0.198 A 
ATOM     79  C   UNL     1      -8.256  11.681  -2.493  1.00  0.00     0.198 A 
ATOM     80  F   UNL     1      -8.402   9.619  -1.364  1.00  0.00    -0.203 F 
ATOM     81  F   UNL     1      -8.573  15.072  -1.256  1.00  0.00    -0.200 F 
ATOM     82  C   UNL     1      -8.297  13.068  -2.474  1.00  0.00     0.200 A 
ATOM     83  F   UNL     1      -8.034  11.035  -3.646  1.00  0.00    -0.200 F 
ATOM     84  F   UNL     1      -8.133  13.761  -3.608  1.00  0.00    -0.200 F 
ENDBRANCH  50  74
BRANCH  62  85
ATOM     85  C   UNL     1     -14.028  10.749   4.259  1.00  0.00     0.064 A 
ATOM     86  C   UNL     1     -14.961  10.101   3.438  1.00  0.00     0.173 A 
ATOM     87  C   UNL     1     -14.486  11.761   5.114  1.00  0.00     0.173 A 
ATOM     88  F   UNL     1     -14.564   9.134   2.597  1.00  0.00    -0.203 F 
ATOM     89  C   UNL     1     -16.306  10.455   3.473  1.00  0.00     0.198 A 
ATOM     90  C   UNL     1     -15.835  12.096   5.163  1.00  0.00     0.198 A 
ATOM     91  F   UNL     1     -13.629  12.402   5.924  1.00  0.00    -0.203 F 
ATOM     92  F   UNL     1     -17.180   9.837   2.667  1.00  0.00    -0.200 F 
ATOM     93  C   UNL     1     -16.744  11.444   4.342  1.00  0.00     0.200 A 
ATOM     94  F   UNL     1     -16.260  13.042   6.013  1.00  0.00    -0.200 F 
ATOM     95  F   UNL     1     -18.043  11.768   4.389  1.00  0.00    -0.200 F 
ENDBRANCH  62  85
ENDBRANCH  36  37
ENDBRANCH  29  31
ENDBRANCH  28  29
ENDBRANCH  27  28
ENDBRANCH   1  27
TORSDOF 13
