REMARK SMILES COc1c[nH]c(C[N@H+]2CCC[C@@H](c3ccc(C(=O)OCCOC(=O)c4ccc(-c5c6nc(c(-c7c(F)c(F)c(F)c(F)c7F)c7ccc([nH]7)c(-c7c(F)c(F)c(F)c(F)c7F)c7nc(c(-c8c(F)c(F)c(F)c(F)c8F)c8ccc5[nH]8)C=C7)C=C6)cc4)cc3)C2)cc1=O
REMARK SMILES IDX 20 1 19 2 17 3 18 4 16 5 13 6 14 7 89 8 15 9 88 10 12 11
REMARK SMILES IDX 8 12 9 13 90 14 10 16 11 17 7 18 6 19 3 20 4 21 92 22 5 23
REMARK SMILES IDX 91 24 93 25 2 27 1 28 21 29 22 30 23 31 24 32 25 33 26 34
REMARK SMILES IDX 87 35 27 36 86 37 28 38 29 39 30 40 80 41 31 42 85 43 79 44
REMARK SMILES IDX 81 45 32 46 84 47 78 48 77 49 33 51 65 52 45 53 64 54 46 55
REMARK SMILES IDX 49 56 63 57 82 58 47 59 48 60 62 62 83 63 50 64 34 65 35 66
REMARK SMILES IDX 43 67 36 68 37 69 41 70 44 71 38 72 39 73 42 74 40 75 66 76
REMARK SMILES IDX 67 77 75 78 68 79 69 80 73 81 76 82 70 83 71 84 74 85 72 86
REMARK SMILES IDX 51 87 52 88 60 89 53 90 54 91 58 92 61 93 55 94 56 95 59 96
REMARK SMILES IDX 57 97
REMARK H PARENT 8 15 5 26 81 50 49 61
REMARK Flexibility Score: inf
ROOT
ATOM      1  C   UNL     1      -8.697  -7.576   1.196  1.00  0.00     0.275 C 
ENDROOT
BRANCH   1   2
ATOM      2  O   UNL     1      -7.352  -8.036   0.954  1.00  0.00    -0.458 OA
BRANCH   2   3
ATOM      3  C   UNL     1      -6.448  -7.058   0.716  1.00  0.00     0.338 C 
ATOM      4  O   UNL     1      -6.674  -5.858   0.650  1.00  0.00    -0.246 OA
BRANCH   3   5
ATOM      5  C   UNL     1      -5.074  -7.601   0.640  1.00  0.00     0.060 A 
ATOM      6  C   UNL     1      -2.382  -8.373   0.374  1.00  0.00    -0.039 A 
ATOM      7  C   UNL     1      -2.729  -7.222   1.093  1.00  0.00     0.005 A 
ATOM      8  C   UNL     1      -3.410  -9.170  -0.156  1.00  0.00     0.005 A 
ATOM      9  C   UNL     1      -4.053  -6.821   1.182  1.00  0.00     0.016 A 
ATOM     10  C   UNL     1      -4.756  -8.796  -0.010  1.00  0.00     0.016 A 
BRANCH   6  11
ATOM     11  C   UNL     1      -0.914  -8.641   0.060  1.00  0.00     0.074 C 
ATOM     12  N   UNL     1       1.063  -7.470  -1.027  1.00  0.00    -0.329 N 
ATOM     13  C   UNL     1       1.828  -7.590   0.220  1.00  0.00     0.262 C 
ATOM     14  C   UNL     1      -0.377  -7.447  -0.769  1.00  0.00     0.270 C 
ATOM     15  H   UNL     1       1.254  -8.307  -1.578  1.00  0.00     0.348 HD
ATOM     16  C   UNL     1       1.420  -8.848   0.995  1.00  0.00     0.062 C 
ATOM     17  C   UNL     1      -0.070  -8.844   1.328  1.00  0.00     0.020 C 
BRANCH  12  18
ATOM     18  C   UNL     1       1.510  -6.331  -1.858  1.00  0.00     0.317 C 
BRANCH  18  19
ATOM     19  C   UNL     1       1.383  -4.923  -1.272  1.00  0.00     0.074 A 
ATOM     20  C   UNL     1       0.906  -2.349  -0.110  1.00  0.00     0.182 A 
ATOM     21  C   UNL     1      -0.080  -3.150  -0.534  1.00  0.00     0.133 A 
ATOM     22  C   UNL     1       2.309  -2.852  -0.328  1.00  0.00     0.223 A 
ATOM     23  N   UNL     1       0.125  -4.358  -1.144  1.00  0.00    -0.357 N 
ATOM     24  C   UNL     1       2.471  -4.217  -0.913  1.00  0.00     0.083 A 
ATOM     25  O   UNL     1       3.307  -2.199  -0.038  1.00  0.00    -0.286 OA
ATOM     26  H   UNL     1      -0.651  -4.843  -1.506  1.00  0.00     0.166 HD
BRANCH  20  27
ATOM     27  O   UNL     1       0.623  -1.172   0.556  1.00  0.00    -0.491 OA
ATOM     28  C   UNL     1       1.223  -0.035  -0.056  1.00  0.00     0.278 C 
ENDBRANCH  20  27
ENDBRANCH  18  19
ENDBRANCH  12  18
ENDBRANCH   6  11
ENDBRANCH   3   5
ENDBRANCH   2   3
ENDBRANCH   1   2
BRANCH   1  29
ATOM     29  C   UNL     1      -8.990  -7.471   2.693  1.00  0.00     0.275 C 
BRANCH  29  30
ATOM     30  O   UNL     1      -8.224  -6.410   3.296  1.00  0.00    -0.458 OA
BRANCH  30  31
ATOM     31  C   UNL     1      -7.240  -6.809   4.132  1.00  0.00     0.338 C 
ATOM     32  O   UNL     1      -6.933  -7.950   4.432  1.00  0.00    -0.246 OA
BRANCH  31  33
ATOM     33  C   UNL     1      -6.533  -5.641   4.681  1.00  0.00     0.060 A 
ATOM     34  C   UNL     1      -5.686  -4.905   3.859  1.00  0.00     0.016 A 
ATOM     35  C   UNL     1      -6.575  -5.386   6.049  1.00  0.00     0.016 A 
ATOM     36  C   UNL     1      -4.778  -4.003   4.415  1.00  0.00     0.010 A 
ATOM     37  C   UNL     1      -5.753  -4.391   6.588  1.00  0.00     0.010 A 
ATOM     38  C   UNL     1      -4.809  -3.719   5.787  1.00  0.00    -0.014 A 
BRANCH  38  39
ATOM     39  C   UNL     1      -3.857  -2.754   6.412  1.00  0.00     0.031 A 
ATOM     40  C   UNL     1      -3.008  -3.191   7.578  1.00  0.00     0.074 A 
ATOM     41  C   UNL     1      -3.765  -1.482   5.975  1.00  0.00     0.049 A 
ATOM     42  N   UNL     1      -2.365  -2.465   8.459  1.00  0.00    -0.248 NA
ATOM     43  C   UNL     1      -2.883  -4.641   7.792  1.00  0.00     0.031 C 
ATOM     44  C   UNL     1      -4.463  -0.925   4.816  1.00  0.00     0.029 A 
ATOM     45  N   UNL     1      -3.052  -0.416   6.473  1.00  0.00    -0.354 N 
ATOM     46  C   UNL     1      -1.827  -3.365   9.371  1.00  0.00     0.074 A 
ATOM     47  C   UNL     1      -2.204  -4.691   8.930  1.00  0.00     0.031 C 
ATOM     48  C   UNL     1      -4.132   0.367   4.679  1.00  0.00     0.029 A 
ATOM     49  C   UNL     1      -3.286   0.759   5.800  1.00  0.00     0.049 A 
ATOM     50  H   UNL     1      -2.435  -0.488   7.236  1.00  0.00     0.167 HD
ATOM     51  C   UNL     1      -1.095  -3.102  10.480  1.00  0.00     0.037 A 
ATOM     52  C   UNL     1      -2.921   2.024   6.085  1.00  0.00     0.037 A 
ATOM     53  C   UNL     1      -0.665  -1.785  10.872  1.00  0.00     0.049 A 
ATOM     54  C   UNL     1      -2.138   2.300   7.337  1.00  0.00     0.074 A 
ATOM     55  C   UNL     1       0.088  -1.412  11.973  1.00  0.00     0.029 A 
ATOM     56  N   UNL     1      -0.931  -0.625  10.159  1.00  0.00    -0.354 N 
ATOM     57  N   UNL     1      -1.709   1.459   8.245  1.00  0.00    -0.248 NA
ATOM     58  C   UNL     1      -1.812   3.706   7.620  1.00  0.00     0.031 C 
ATOM     59  C   UNL     1       0.252  -0.023  11.942  1.00  0.00     0.029 A 
ATOM     60  C   UNL     1      -0.363   0.463  10.800  1.00  0.00     0.049 A 
ATOM     61  H   UNL     1      -1.447  -0.583   9.322  1.00  0.00     0.167 HD
ATOM     62  C   UNL     1      -1.046   2.225   9.192  1.00  0.00     0.074 A 
ATOM     63  C   UNL     1      -1.123   3.601   8.749  1.00  0.00     0.031 C 
ATOM     64  C   UNL     1      -0.431   1.822  10.330  1.00  0.00     0.037 A 
BRANCH  51  65
ATOM     65  C   UNL     1      -0.743  -4.252  11.378  1.00  0.00     0.064 A 
ATOM     66  C   UNL     1       0.228  -5.201  11.031  1.00  0.00     0.173 A 
ATOM     67  C   UNL     1      -1.361  -4.376  12.633  1.00  0.00     0.173 A 
ATOM     68  F   UNL     1       0.840  -5.135   9.839  1.00  0.00    -0.203 F 
ATOM     69  C   UNL     1       0.553  -6.243  11.897  1.00  0.00     0.198 A 
ATOM     70  C   UNL     1      -1.015  -5.402  13.508  1.00  0.00     0.198 A 
ATOM     71  F   UNL     1      -2.292  -3.490  13.019  1.00  0.00    -0.203 F 
ATOM     72  F   UNL     1       1.456  -7.162  11.528  1.00  0.00    -0.200 F 
ATOM     73  C   UNL     1      -0.063  -6.339  13.136  1.00  0.00     0.200 A 
ATOM     74  F   UNL     1      -1.602  -5.484  14.710  1.00  0.00    -0.200 F 
ATOM     75  F   UNL     1       0.257  -7.337  13.971  1.00  0.00    -0.200 F 
ENDBRANCH  51  65
BRANCH  52  76
ATOM     76  C   UNL     1      -3.349   3.132   5.190  1.00  0.00     0.064 A 
ATOM     77  C   UNL     1      -2.418   3.822   4.403  1.00  0.00     0.173 A 
ATOM     78  C   UNL     1      -4.697   3.508   5.088  1.00  0.00     0.173 A 
ATOM     79  F   UNL     1      -1.115   3.518   4.486  1.00  0.00    -0.203 F 
ATOM     80  C   UNL     1      -2.820   4.848   3.549  1.00  0.00     0.198 A 
ATOM     81  C   UNL     1      -5.101   4.512   4.213  1.00  0.00     0.198 A 
ATOM     82  F   UNL     1      -5.627   2.879   5.822  1.00  0.00    -0.203 F 
ATOM     83  F   UNL     1      -1.906   5.515   2.831  1.00  0.00    -0.200 F 
ATOM     84  C   UNL     1      -4.161   5.185   3.447  1.00  0.00     0.200 A 
ATOM     85  F   UNL     1      -6.400   4.824   4.106  1.00  0.00    -0.200 F 
ATOM     86  F   UNL     1      -4.548   6.162   2.615  1.00  0.00    -0.200 F 
ENDBRANCH  52  76
BRANCH  64  87
ATOM     87  C   UNL     1       0.256   2.871  11.150  1.00  0.00     0.064 A 
ATOM     88  C   UNL     1      -0.463   3.749  11.972  1.00  0.00     0.173 A 
ATOM     89  C   UNL     1       1.657   2.951  11.162  1.00  0.00     0.173 A 
ATOM     90  F   UNL     1      -1.804   3.718  11.981  1.00  0.00    -0.203 F 
ATOM     91  C   UNL     1       0.196   4.678  12.771  1.00  0.00     0.198 A 
ATOM     92  C   UNL     1       2.313   3.867  11.978  1.00  0.00     0.198 A 
ATOM     93  F   UNL     1       2.387   2.128  10.394  1.00  0.00    -0.203 F 
ATOM     94  F   UNL     1      -0.510   5.527  13.530  1.00  0.00    -0.200 F 
ATOM     95  C   UNL     1       1.583   4.731  12.780  1.00  0.00     0.200 A 
ATOM     96  F   UNL     1       3.653   3.911  11.992  1.00  0.00    -0.200 F 
ATOM     97  F   UNL     1       2.216   5.618  13.560  1.00  0.00    -0.200 F 
ENDBRANCH  64  87
ENDBRANCH  38  39
ENDBRANCH  31  33
ENDBRANCH  30  31
ENDBRANCH  29  30
ENDBRANCH   1  29
TORSDOF 15
