REMARK SMILES O=C(CCC(=O)N1N=C(c2ccc(F)cc2)C[C@@H]1c1ccc2nccnc2c1)OCCOC(=O)c1ccc(-c2c3nc(c(-c4c(F)c(F)c(F)c(F)c4F)c4ccc([nH]4)c(-c4c(F)c(F)c(F)c(F)c4F)c4nc(c(-c5c(F)c(F)c(F)c(F)c5F)c5ccc2[nH]5)C=C4)C=C3)cc1
REMARK SMILES IDX 30 1 29 2 2 3 1 4 3 5 4 6 5 7 6 8 7 9 8 10 18 11 9 12 17 13
REMARK SMILES IDX 19 14 20 15 28 16 21 17 27 18 22 19 26 20 23 21 25 22 24 23
REMARK SMILES IDX 10 24 11 25 16 26 12 27 15 28 13 29 14 30 31 31 32 32 33 33
REMARK SMILES IDX 34 34 35 35 36 36 97 37 37 38 96 39 38 40 39 41 40 42 90 43
REMARK SMILES IDX 41 44 95 45 89 46 91 47 42 48 94 49 88 50 87 51 43 53 75 54
REMARK SMILES IDX 55 55 74 56 56 57 59 58 73 59 92 60 57 61 58 62 72 64 93 65
REMARK SMILES IDX 60 66 44 67 45 68 53 69 46 70 47 71 51 72 54 73 48 74 49 75
REMARK SMILES IDX 52 76 50 77 76 78 77 79 85 80 78 81 79 82 83 83 86 84 80 85
REMARK SMILES IDX 81 86 84 87 82 88 61 89 62 90 70 91 63 92 64 93 68 94 71 95
REMARK SMILES IDX 65 96 66 97 69 98 67 99
REMARK H PARENT 91 52 59 63
REMARK Flexibility Score: inf
ROOT
ATOM      1  C   UNL     1       5.466  -0.850  -0.021  1.00  0.00     0.274 C 
ENDROOT
BRANCH   1   2
ATOM      2  O   UNL     1       4.085  -0.503   0.268  1.00  0.00    -0.462 OA
BRANCH   2   3
ATOM      3  C   UNL     1       2.971  -0.799  -0.419  1.00  0.00     0.306 C 
ATOM      4  O   UNL     1       1.849  -0.478  -0.037  1.00  0.00    -0.252 OA
BRANCH   3   5
ATOM      5  C   UNL     1       3.169  -1.344  -1.766  1.00  0.00     0.132 C 
BRANCH   5   6
ATOM      6  C   UNL     1       3.443  -0.157  -2.656  1.00  0.00     0.114 C 
BRANCH   6   7
ATOM      7  C   UNL     1       4.436   0.920  -2.189  1.00  0.00     0.243 C 
ATOM      8  O   UNL     1       5.520   0.886  -2.806  1.00  0.00    -0.273 OA
BRANCH   7   9
ATOM      9  N   UNL     1       4.194   1.942  -1.256  1.00  0.00    -0.225 N 
ATOM     10  N   UNL     1       4.884   3.073  -1.646  1.00  0.00    -0.174 NA
ATOM     11  C   UNL     1       3.147   2.342  -0.194  1.00  0.00     0.147 C 
ATOM     12  C   UNL     1       4.281   4.107  -1.177  1.00  0.00     0.071 C 
ATOM     13  C   UNL     1       3.161   3.878  -0.232  1.00  0.00     0.091 C 
BRANCH  11  14
ATOM     14  C   UNL     1       3.300   1.994   1.317  1.00  0.00    -0.021 A 
ATOM     15  C   UNL     1       2.151   2.087   2.128  1.00  0.00     0.008 A 
ATOM     16  C   UNL     1       4.481   1.616   1.981  1.00  0.00     0.036 A 
ATOM     17  C   UNL     1       2.154   1.670   3.468  1.00  0.00     0.031 A 
ATOM     18  C   UNL     1       4.478   1.084   3.293  1.00  0.00     0.089 A 
ATOM     19  C   UNL     1       3.270   1.086   4.035  1.00  0.00     0.089 A 
ATOM     20  N   UNL     1       5.575   0.469   3.802  1.00  0.00    -0.253 NA
ATOM     21  N   UNL     1       3.150   0.474   5.237  1.00  0.00    -0.253 NA
ATOM     22  C   UNL     1       5.394  -0.261   4.933  1.00  0.00     0.132 A 
ATOM     23  C   UNL     1       4.208  -0.259   5.635  1.00  0.00     0.132 A 
ENDBRANCH  11  14
BRANCH  12  24
ATOM     24  C   UNL     1       4.612   5.438  -1.665  1.00  0.00    -0.002 A 
ATOM     25  C   UNL     1       5.143   6.400  -0.812  1.00  0.00     0.013 A 
ATOM     26  C   UNL     1       4.438   5.678  -3.034  1.00  0.00     0.013 A 
ATOM     27  C   UNL     1       5.510   7.632  -1.349  1.00  0.00     0.040 A 
ATOM     28  C   UNL     1       4.791   6.916  -3.558  1.00  0.00     0.040 A 
ATOM     29  C   UNL     1       5.326   7.880  -2.710  1.00  0.00     0.123 A 
ATOM     30  F   UNL     1       5.684   9.067  -3.215  1.00  0.00    -0.207 F 
ENDBRANCH  12  24
ENDBRANCH   7   9
ENDBRANCH   6   7
ENDBRANCH   5   6
ENDBRANCH   3   5
ENDBRANCH   2   3
ENDBRANCH   1   2
BRANCH   1  31
ATOM     31  C   UNL     1       5.995  -1.643   1.157  1.00  0.00     0.275 C 
BRANCH  31  32
ATOM     32  O   UNL     1       5.138  -2.761   1.390  1.00  0.00    -0.458 OA
BRANCH  32  33
ATOM     33  C   UNL     1       3.973  -2.542   2.051  1.00  0.00     0.338 C 
ATOM     34  O   UNL     1       3.585  -1.576   2.675  1.00  0.00    -0.246 OA
BRANCH  33  35
ATOM     35  C   UNL     1       3.115  -3.654   1.689  1.00  0.00     0.060 A 
ATOM     36  C   UNL     1       1.830  -3.427   1.175  1.00  0.00     0.016 A 
ATOM     37  C   UNL     1       3.678  -4.921   1.773  1.00  0.00     0.016 A 
ATOM     38  C   UNL     1       1.114  -4.494   0.666  1.00  0.00     0.010 A 
ATOM     39  C   UNL     1       2.966  -5.982   1.280  1.00  0.00     0.010 A 
ATOM     40  C   UNL     1       1.690  -5.763   0.737  1.00  0.00    -0.014 A 
BRANCH  40  41
ATOM     41  C   UNL     1       0.928  -6.965   0.423  1.00  0.00     0.031 A 
ATOM     42  C   UNL     1       0.393  -7.728   1.584  1.00  0.00     0.074 A 
ATOM     43  C   UNL     1       0.920  -7.409  -0.840  1.00  0.00     0.049 A 
ATOM     44  N   UNL     1      -0.029  -8.957   1.632  1.00  0.00    -0.248 NA
ATOM     45  C   UNL     1       0.384  -7.023   2.881  1.00  0.00     0.031 C 
ATOM     46  C   UNL     1       1.443  -6.681  -1.996  1.00  0.00     0.029 A 
ATOM     47  N   UNL     1       0.505  -8.606  -1.344  1.00  0.00    -0.354 N 
ATOM     48  C   UNL     1      -0.341  -9.179   2.964  1.00  0.00     0.074 A 
ATOM     49  C   UNL     1      -0.019  -7.980   3.701  1.00  0.00     0.031 C 
ATOM     50  C   UNL     1       1.336  -7.464  -3.082  1.00  0.00     0.029 A 
ATOM     51  C   UNL     1       0.788  -8.755  -2.677  1.00  0.00     0.049 A 
ATOM     52  H   UNL     1       0.049  -9.293  -0.806  1.00  0.00     0.167 HD
ATOM     53  C   UNL     1      -0.860 -10.301   3.502  1.00  0.00     0.037 A 
ATOM     54  C   UNL     1       0.644  -9.841  -3.455  1.00  0.00     0.037 A 
ATOM     55  C   UNL     1      -1.149 -11.471   2.721  1.00  0.00     0.049 A 
ATOM     56  C   UNL     1       0.099 -11.092  -2.821  1.00  0.00     0.074 A 
ATOM     57  C   UNL     1      -1.700 -12.666   3.132  1.00  0.00     0.029 A 
ATOM     58  N   UNL     1      -0.898 -11.583   1.358  1.00  0.00    -0.354 N 
ATOM     59  N   UNL     1      -0.234 -11.305  -1.568  1.00  0.00    -0.248 NA
ATOM     60  C   UNL     1      -0.094 -12.251  -3.699  1.00  0.00     0.031 C 
ATOM     61  C   UNL     1      -1.733 -13.523   2.029  1.00  0.00     0.029 A 
ATOM     62  C   UNL     1      -1.266 -12.838   0.914  1.00  0.00     0.049 A 
ATOM     63  H   UNL     1      -0.514 -10.873   0.794  1.00  0.00     0.167 HD
ATOM     64  C   UNL     1      -0.706 -12.608  -1.511  1.00  0.00     0.074 A 
ATOM     65  C   UNL     1      -0.620 -13.134  -2.860  1.00  0.00     0.031 C 
ATOM     66  C   UNL     1      -1.172 -13.309  -0.447  1.00  0.00     0.037 A 
BRANCH  53  67
ATOM     67  C   UNL     1      -1.133 -10.309   4.974  1.00  0.00     0.064 A 
ATOM     68  C   UNL     1      -0.404 -11.148   5.828  1.00  0.00     0.173 A 
ATOM     69  C   UNL     1      -2.140  -9.511   5.539  1.00  0.00     0.173 A 
ATOM     70  F   UNL     1       0.580 -11.919   5.342  1.00  0.00    -0.203 F 
ATOM     71  C   UNL     1      -0.689 -11.206   7.189  1.00  0.00     0.198 A 
ATOM     72  C   UNL     1      -2.401  -9.548   6.906  1.00  0.00     0.198 A 
ATOM     73  F   UNL     1      -2.848  -8.670   4.770  1.00  0.00    -0.203 F 
ATOM     74  F   UNL     1      -0.001 -12.040   7.981  1.00  0.00    -0.200 F 
ATOM     75  C   UNL     1      -1.685 -10.405   7.727  1.00  0.00     0.200 A 
ATOM     76  F   UNL     1      -3.341  -8.748   7.428  1.00  0.00    -0.200 F 
ATOM     77  F   UNL     1      -1.951 -10.454   9.040  1.00  0.00    -0.200 F 
ENDBRANCH  53  67
BRANCH  54  78
ATOM     78  C   UNL     1       0.985  -9.761  -4.896  1.00  0.00     0.064 A 
ATOM     79  C   UNL     1       2.308  -9.601  -5.335  1.00  0.00     0.173 A 
ATOM     80  C   UNL     1      -0.026  -9.776  -5.865  1.00  0.00     0.173 A 
ATOM     81  F   UNL     1       3.312  -9.563  -4.447  1.00  0.00    -0.203 F 
ATOM     82  C   UNL     1       2.602  -9.440  -6.688  1.00  0.00     0.198 A 
ATOM     83  C   UNL     1       0.271  -9.642  -7.219  1.00  0.00     0.198 A 
ATOM     84  F   UNL     1      -1.305  -9.933  -5.493  1.00  0.00    -0.203 F 
ATOM     85  F   UNL     1       3.869  -9.247  -7.079  1.00  0.00    -0.200 F 
ATOM     86  C   UNL     1       1.584  -9.466  -7.629  1.00  0.00     0.200 A 
ATOM     87  F   UNL     1      -0.715  -9.684  -8.125  1.00  0.00    -0.200 F 
ATOM     88  F   UNL     1       1.867  -9.317  -8.931  1.00  0.00    -0.200 F 
ENDBRANCH  54  78
BRANCH  66  89
ATOM     89  C   UNL     1      -1.660 -14.703  -0.701  1.00  0.00     0.064 A 
ATOM     90  C   UNL     1      -3.025 -15.004  -0.573  1.00  0.00     0.173 A 
ATOM     91  C   UNL     1      -0.771 -15.756  -0.956  1.00  0.00     0.173 A 
ATOM     92  F   UNL     1      -3.911 -14.030  -0.315  1.00  0.00    -0.203 F 
ATOM     93  C   UNL     1      -3.478 -16.314  -0.663  1.00  0.00     0.198 A 
ATOM     94  C   UNL     1      -1.234 -17.061  -1.083  1.00  0.00     0.198 A 
ATOM     95  F   UNL     1       0.541 -15.514  -1.097  1.00  0.00    -0.203 F 
ATOM     96  F   UNL     1      -4.778 -16.586  -0.482  1.00  0.00    -0.200 F 
ATOM     97  C   UNL     1      -2.583 -17.341  -0.921  1.00  0.00     0.200 A 
ATOM     98  F   UNL     1      -0.372 -18.051  -1.356  1.00  0.00    -0.200 F 
ATOM     99  F   UNL     1      -3.022 -18.604  -1.013  1.00  0.00    -0.200 F 
ENDBRANCH  66  89
ENDBRANCH  40  41
ENDBRANCH  33  35
ENDBRANCH  32  33
ENDBRANCH  31  32
ENDBRANCH   1  31
TORSDOF 16
