REMARK SMILES CC(C)(C)c1cc2c(cc1Cl)C=C(C(=O)OCCOC(=O)c1ccc(-c3c4nc(c(-c5c(F)c(F)c(F)c(F)c5F)c5ccc([nH]5)c(-c5c(F)c(F)c(F)c(F)c5F)c5nc(c(-c6c(F)c(F)c(F)c(F)c6F)c6ccc3[nH]6)C=C5)C=C4)cc1)[C@H](C(F)(F)F)O2
REMARK SMILES IDX 18 1 17 2 16 3 14 4 15 5 13 6 5 7 6 8 10 9 7 10 9 11 11 12
REMARK SMILES IDX 8 13 90 14 12 15 85 16 2 17 1 18 3 19 4 20 86 21 87 22 88 23
REMARK SMILES IDX 89 24 19 25 20 26 21 27 22 28 23 29 84 30 24 31 83 32 25 33
REMARK SMILES IDX 26 34 27 35 77 36 28 37 82 38 76 39 78 40 29 41 81 42 75 43
REMARK SMILES IDX 74 44 30 46 62 47 42 48 61 49 43 50 46 51 60 52 79 53 44 54
REMARK SMILES IDX 45 55 59 57 80 58 47 59 31 60 32 61 40 62 33 63 34 64 38 65
REMARK SMILES IDX 41 66 35 67 36 68 39 69 37 70 63 71 64 72 72 73 65 74 66 75
REMARK SMILES IDX 70 76 73 77 67 78 68 79 71 80 69 81 48 82 49 83 57 84 50 85
REMARK SMILES IDX 51 86 55 87 58 88 52 89 53 90 56 91 54 92
REMARK H PARENT 78 45 46 56
REMARK Flexibility Score: inf
ROOT
ATOM      1  C   UNL     1       1.171   9.181   6.372  1.00  0.00     0.275 C 
ENDROOT
BRANCH   1   2
ATOM      2  C   UNL     1       1.766   9.599   5.028  1.00  0.00     0.275 C 
BRANCH   2   3
ATOM      3  O   UNL     1       1.403   8.647   4.003  1.00  0.00    -0.459 OA
BRANCH   3   4
ATOM      4  C   UNL     1       2.352   7.751   3.658  1.00  0.00     0.338 C 
ATOM      5  O   UNL     1       3.501   7.724   4.067  1.00  0.00    -0.246 OA
BRANCH   4   6
ATOM      6  C   UNL     1       1.778   6.702   2.789  1.00  0.00     0.087 C 
ATOM      7  C   UNL     1       0.796   2.268   0.514  1.00  0.00    -0.020 A 
ATOM      8  C   UNL     1       0.461   3.635   0.281  1.00  0.00     0.053 A 
ATOM      9  C   UNL     1       1.545   2.008   1.680  1.00  0.00     0.045 A 
ATOM     10  C   UNL     1       0.897   4.676   1.105  1.00  0.00     0.128 A 
ATOM     11  C   UNL     1       2.010   3.062   2.486  1.00  0.00     0.032 A 
ATOM     12  Cl  UNL     1       1.978   0.447   2.279  1.00  0.00    -0.084 Cl
ATOM     13  C   UNL     1       1.717   4.389   2.180  1.00  0.00     0.019 A 
ATOM     14  O   UNL     1       0.536   5.949   0.763  1.00  0.00    -0.475 OA
ATOM     15  C   UNL     1       2.289   5.473   2.949  1.00  0.00     0.027 C 
ATOM     16  C   UNL     1       0.718   7.007   1.760  1.00  0.00     0.316 C 
BRANCH   7  17
ATOM     17  C   UNL     1       0.328   1.243  -0.550  1.00  0.00    -0.012 C 
ATOM     18  C   UNL     1       0.769  -0.226  -0.383  1.00  0.00     0.016 C 
ATOM     19  C   UNL     1       0.879   1.675  -1.935  1.00  0.00     0.016 C 
ATOM     20  C   UNL     1      -1.217   1.230  -0.599  1.00  0.00     0.016 C 
ENDBRANCH   7  17
BRANCH  16  21
ATOM     21  C   UNL     1      -0.649   7.430   2.333  1.00  0.00     0.430 C 
ATOM     22  F   UNL     1      -1.666   7.107   1.497  1.00  0.00    -0.167 F 
ATOM     23  F   UNL     1      -0.914   6.850   3.525  1.00  0.00    -0.167 F 
ATOM     24  F   UNL     1      -0.714   8.774   2.503  1.00  0.00    -0.167 F 
ENDBRANCH  16  21
ENDBRANCH   4   6
ENDBRANCH   3   4
ENDBRANCH   2   3
ENDBRANCH   1   2
BRANCH   1  25
ATOM     25  O   UNL     1       1.779   7.946   6.795  1.00  0.00    -0.458 OA
BRANCH  25  26
ATOM     26  C   UNL     1       0.939   6.997   7.260  1.00  0.00     0.338 C 
ATOM     27  O   UNL     1      -0.273   7.080   7.413  1.00  0.00    -0.246 OA
BRANCH  26  28
ATOM     28  C   UNL     1       1.706   5.781   7.571  1.00  0.00     0.060 A 
ATOM     29  C   UNL     1       1.635   5.205   8.835  1.00  0.00     0.016 A 
ATOM     30  C   UNL     1       2.425   5.148   6.559  1.00  0.00     0.016 A 
ATOM     31  C   UNL     1       2.311   4.005   9.081  1.00  0.00     0.010 A 
ATOM     32  C   UNL     1       3.014   3.902   6.776  1.00  0.00     0.010 A 
ATOM     33  C   UNL     1       2.982   3.317   8.048  1.00  0.00    -0.014 A 
BRANCH  33  34
ATOM     34  C   UNL     1       3.602   1.983   8.299  1.00  0.00     0.031 A 
ATOM     35  C   UNL     1       5.072   1.734   8.065  1.00  0.00     0.074 A 
ATOM     36  C   UNL     1       2.826   0.964   8.725  1.00  0.00     0.049 A 
ATOM     37  N   UNL     1       5.775   0.652   8.306  1.00  0.00    -0.248 NA
ATOM     38  C   UNL     1       5.850   2.818   7.447  1.00  0.00     0.031 C 
ATOM     39  C   UNL     1       1.372   1.024   8.885  1.00  0.00     0.029 A 
ATOM     40  N   UNL     1       3.150  -0.310   9.124  1.00  0.00    -0.354 N 
ATOM     41  C   UNL     1       7.061   0.922   7.854  1.00  0.00     0.074 A 
ATOM     42  C   UNL     1       7.030   2.242   7.265  1.00  0.00     0.031 C 
ATOM     43  C   UNL     1       0.942  -0.124   9.429  1.00  0.00     0.029 A 
ATOM     44  C   UNL     1       2.082  -1.014   9.628  1.00  0.00     0.049 A 
ATOM     45  H   UNL     1       4.058  -0.683   9.056  1.00  0.00     0.167 HD
ATOM     46  C   UNL     1       8.176   0.159   7.955  1.00  0.00     0.037 A 
ATOM     47  C   UNL     1       2.027  -2.225  10.216  1.00  0.00     0.037 A 
ATOM     48  C   UNL     1       8.225  -1.131   8.592  1.00  0.00     0.049 A 
ATOM     49  C   UNL     1       3.290  -3.021  10.393  1.00  0.00     0.074 A 
ATOM     50  C   UNL     1       9.325  -1.941   8.817  1.00  0.00     0.029 A 
ATOM     51  N   UNL     1       7.126  -1.792   9.119  1.00  0.00    -0.354 N 
ATOM     52  N   UNL     1       4.514  -2.713  10.046  1.00  0.00    -0.248 NA
ATOM     53  C   UNL     1       3.164  -4.330  11.051  1.00  0.00     0.031 C 
ATOM     54  C   UNL     1       8.888  -3.104   9.458  1.00  0.00     0.029 A 
ATOM     55  C   UNL     1       7.522  -3.002   9.665  1.00  0.00     0.049 A 
ATOM     56  H   UNL     1       6.202  -1.453   9.106  1.00  0.00     0.167 HD
ATOM     57  C   UNL     1       5.307  -3.775  10.458  1.00  0.00     0.074 A 
ATOM     58  C   UNL     1       4.428  -4.732  11.096  1.00  0.00     0.031 C 
ATOM     59  C   UNL     1       6.643  -3.939  10.313  1.00  0.00     0.037 A 
BRANCH  46  60
ATOM     60  C   UNL     1       9.459   0.715   7.404  1.00  0.00     0.064 A 
ATOM     61  C   UNL     1      10.113   1.789   8.028  1.00  0.00     0.173 A 
ATOM     62  C   UNL     1      10.078   0.130   6.289  1.00  0.00     0.173 A 
ATOM     63  F   UNL     1       9.562   2.386   9.095  1.00  0.00    -0.203 F 
ATOM     64  C   UNL     1      11.323   2.274   7.539  1.00  0.00     0.198 A 
ATOM     65  C   UNL     1      11.303   0.598   5.822  1.00  0.00     0.198 A 
ATOM     66  F   UNL     1       9.504  -0.909   5.664  1.00  0.00    -0.203 F 
ATOM     67  F   UNL     1      11.906   3.327   8.127  1.00  0.00    -0.200 F 
ATOM     68  C   UNL     1      11.921   1.673   6.442  1.00  0.00     0.200 A 
ATOM     69  F   UNL     1      11.890   0.006   4.772  1.00  0.00    -0.200 F 
ATOM     70  F   UNL     1      13.093   2.133   5.982  1.00  0.00    -0.200 F 
ENDBRANCH  46  60
BRANCH  47  71
ATOM     71  C   UNL     1       0.737  -2.710  10.769  1.00  0.00     0.064 A 
ATOM     72  C   UNL     1       0.520  -2.728  12.155  1.00  0.00     0.173 A 
ATOM     73  C   UNL     1      -0.314  -3.120   9.938  1.00  0.00     0.173 A 
ATOM     74  F   UNL     1       1.503  -2.360  12.990  1.00  0.00    -0.203 F 
ATOM     75  C   UNL     1      -0.697  -3.144  12.688  1.00  0.00     0.198 A 
ATOM     76  C   UNL     1      -1.540  -3.514  10.472  1.00  0.00     0.198 A 
ATOM     77  F   UNL     1      -0.159  -3.114   8.606  1.00  0.00    -0.203 F 
ATOM     78  F   UNL     1      -0.868  -3.176  14.017  1.00  0.00    -0.200 F 
ATOM     79  C   UNL     1      -1.729  -3.529  11.846  1.00  0.00     0.200 A 
ATOM     80  F   UNL     1      -2.540  -3.873   9.655  1.00  0.00    -0.200 F 
ATOM     81  F   UNL     1      -2.905  -3.916  12.359  1.00  0.00    -0.200 F 
ENDBRANCH  47  71
BRANCH  59  82
ATOM     82  C   UNL     1       7.260  -5.187  10.870  1.00  0.00     0.064 A 
ATOM     83  C   UNL     1       7.122  -6.421  10.221  1.00  0.00     0.173 A 
ATOM     84  C   UNL     1       8.075  -5.127  12.010  1.00  0.00     0.173 A 
ATOM     85  F   UNL     1       6.343  -6.529   9.134  1.00  0.00    -0.203 F 
ATOM     86  C   UNL     1       7.776  -7.554  10.696  1.00  0.00     0.198 A 
ATOM     87  C   UNL     1       8.746  -6.257  12.469  1.00  0.00     0.198 A 
ATOM     88  F   UNL     1       8.244  -3.966  12.661  1.00  0.00    -0.203 F 
ATOM     89  F   UNL     1       7.617  -8.729  10.072  1.00  0.00    -0.200 F 
ATOM     90  C   UNL     1       8.596  -7.469  11.812  1.00  0.00     0.200 A 
ATOM     91  F   UNL     1       9.548  -6.170  13.540  1.00  0.00    -0.200 F 
ATOM     92  F   UNL     1       9.242  -8.557  12.255  1.00  0.00    -0.200 F 
ENDBRANCH  59  82
ENDBRANCH  33  34
ENDBRANCH  26  28
ENDBRANCH  25  26
ENDBRANCH   1  25
TORSDOF 13
