REMARK SMILES Cc1cc(C(=O)N[C@@H]2C(=O)N3C(C(=O)OCCOC(=O)c4ccc(-c5c6nc(c(-c7c(F)c(F)c(F)c(F)c7F)c7ccc([nH]7)c(-c7c(F)c(F)c(F)c(F)c7F)c7nc(c(-c8c(F)c(F)c(F)c(F)c8F)c8ccc5[nH]8)C=C7)C=C6)cc4)=C(CSc4nnc(C)s4)CS[C@H]23)n(C)n1
REMARK SMILES IDX 16 1 15 2 13 3 14 4 12 5 8 6 9 7 95 8 10 9 11 10 94 11 93 12
REMARK SMILES IDX 84 13 7 14 5 15 6 16 4 18 1 19 2 20 3 21 98 22 96 23 97 24
REMARK SMILES IDX 85 25 86 26 87 27 88 28 92 29 89 30 90 31 91 32 17 33 18 34
REMARK SMILES IDX 19 35 20 36 21 37 22 38 83 39 23 40 82 41 24 42 25 43 26 44
REMARK SMILES IDX 76 45 27 46 81 47 75 48 77 49 28 50 80 51 74 52 73 53 29 55
REMARK SMILES IDX 61 56 41 57 60 58 42 59 45 60 59 61 78 62 43 63 44 64 58 66
REMARK SMILES IDX 79 67 46 68 30 69 31 70 39 71 32 72 33 73 37 74 40 75 34 76
REMARK SMILES IDX 35 77 38 78 36 79 62 80 63 81 71 82 64 83 65 84 69 85 72 86
REMARK SMILES IDX 66 87 67 88 70 89 68 90 47 91 48 92 56 93 49 94 50 95 54 96
REMARK SMILES IDX 57 97 51 98 52 99 55 100 53 101
REMARK H PARENT 7 17 77 54 45 65
REMARK Flexibility Score: inf
ROOT
ATOM      1  C   UNL     1      -3.846   0.705  -3.378  1.00  0.00     0.275 C 
ENDROOT
BRANCH   1   2
ATOM      2  O   UNL     1      -3.963  -0.669  -2.952  1.00  0.00    -0.457 OA
BRANCH   2   3
ATOM      3  C   UNL     1      -2.825  -1.389  -2.906  1.00  0.00     0.355 C 
ATOM      4  O   UNL     1      -1.710  -0.984  -3.213  1.00  0.00    -0.244 OA
BRANCH   3   5
ATOM      5  C   UNL     1      -3.037  -2.809  -2.467  1.00  0.00     0.132 C 
ATOM      6  C   UNL     1      -0.827  -4.268  -0.326  1.00  0.00     0.206 C 
ATOM      7  C   UNL     1      -1.946  -3.179  -0.255  1.00  0.00     0.253 C 
ATOM      8  C   UNL     1      -1.579  -4.637  -1.649  1.00  0.00     0.181 C 
ATOM      9  O   UNL     1      -2.509  -2.543   0.614  1.00  0.00    -0.272 OA
ATOM     10  N   UNL     1      -2.092  -3.279  -1.600  1.00  0.00    -0.289 N 
ATOM     11  S   UNL     1      -2.984  -5.776  -1.504  1.00  0.00    -0.129 SA
ATOM     12  C   UNL     1      -3.802  -5.166  -2.994  1.00  0.00     0.106 C 
ATOM     13  C   UNL     1      -3.841  -3.653  -3.157  1.00  0.00    -0.019 C 
BRANCH   6  14
ATOM     14  N   UNL     1      -0.714  -5.210   0.805  1.00  0.00    -0.336 N 
ATOM     15  C   UNL     1      -0.174  -6.477   0.842  1.00  0.00     0.270 C 
ATOM     16  O   UNL     1      -0.098  -7.030   1.937  1.00  0.00    -0.268 OA
ATOM     17  H   UNL     1      -1.078  -4.885   1.660  1.00  0.00     0.164 HD
BRANCH  15  18
ATOM     18  C   UNL     1       0.195  -7.111  -0.399  1.00  0.00     0.126 A 
ATOM     19  C   UNL     1       0.458  -7.357  -4.027  1.00  0.00     0.069 C 
ATOM     20  C   UNL     1       0.454  -7.546  -2.557  1.00  0.00     0.060 A 
ATOM     21  C   UNL     1       0.760  -6.600  -1.557  1.00  0.00     0.059 A 
ATOM     22  N   UNL     1       0.042  -8.695  -2.021  1.00  0.00    -0.178 NA
ATOM     23  N   UNL     1      -0.003  -8.441  -0.694  1.00  0.00    -0.263 N 
ATOM     24  C   UNL     1      -0.320  -9.538   0.190  1.00  0.00     0.174 C 
ENDBRANCH  15  18
ENDBRANCH   6  14
BRANCH  13  25
ATOM     25  C   UNL     1      -4.776  -3.231  -4.269  1.00  0.00     0.111 C 
BRANCH  25  26
ATOM     26  S   UNL     1      -6.311  -2.406  -3.792  1.00  0.00    -0.089 SA
BRANCH  26  27
ATOM     27  C   UNL     1      -6.675  -2.980  -2.189  1.00  0.00     0.174 A 
ATOM     28  N   UNL     1      -6.587  -4.243  -1.839  1.00  0.00    -0.132 NA
ATOM     29  S   UNL     1      -7.298  -1.952  -0.967  1.00  0.00    -0.091 S 
ATOM     30  N   UNL     1      -7.022  -4.456  -0.544  1.00  0.00    -0.143 NA
ATOM     31  C   UNL     1      -7.454  -3.347   0.021  1.00  0.00     0.115 A 
ATOM     32  C   UNL     1      -8.077  -3.273   1.368  1.00  0.00     0.081 C 
ENDBRANCH  26  27
ENDBRANCH  25  26
ENDBRANCH  13  25
ENDBRANCH   3   5
ENDBRANCH   2   3
ENDBRANCH   1   2
BRANCH   1  33
ATOM     33  C   UNL     1      -4.032   1.636  -2.186  1.00  0.00     0.275 C 
BRANCH  33  34
ATOM     34  O   UNL     1      -2.896   1.517  -1.310  1.00  0.00    -0.458 OA
BRANCH  34  35
ATOM     35  C   UNL     1      -3.092   0.708  -0.244  1.00  0.00     0.338 C 
ATOM     36  O   UNL     1      -4.132   0.164   0.086  1.00  0.00    -0.246 OA
BRANCH  35  37
ATOM     37  C   UNL     1      -1.825   0.536   0.483  1.00  0.00     0.060 A 
ATOM     38  C   UNL     1      -0.819  -0.250  -0.072  1.00  0.00     0.016 A 
ATOM     39  C   UNL     1      -1.720   0.985   1.796  1.00  0.00     0.016 A 
ATOM     40  C   UNL     1       0.206  -0.727   0.739  1.00  0.00     0.010 A 
ATOM     41  C   UNL     1      -0.605   0.622   2.561  1.00  0.00     0.010 A 
ATOM     42  C   UNL     1       0.347  -0.285   2.062  1.00  0.00    -0.014 A 
BRANCH  42  43
ATOM     43  C   UNL     1       1.468  -0.785   2.913  1.00  0.00     0.031 A 
ATOM     44  C   UNL     1       1.200  -1.375   4.276  1.00  0.00     0.074 A 
ATOM     45  C   UNL     1       2.738  -0.722   2.462  1.00  0.00     0.049 A 
ATOM     46  N   UNL     1       2.046  -1.659   5.237  1.00  0.00    -0.248 NA
ATOM     47  C   UNL     1      -0.201  -1.667   4.613  1.00  0.00     0.031 C 
ATOM     48  C   UNL     1       3.149  -0.222   1.149  1.00  0.00     0.029 A 
ATOM     49  N   UNL     1       3.923  -1.085   3.057  1.00  0.00    -0.354 N 
ATOM     50  C   UNL     1       1.276  -2.093   6.311  1.00  0.00     0.074 A 
ATOM     51  C   UNL     1      -0.106  -2.035   5.883  1.00  0.00     0.031 C 
ATOM     52  C   UNL     1       4.474  -0.362   1.014  1.00  0.00     0.029 A 
ATOM     53  C   UNL     1       5.026  -0.832   2.277  1.00  0.00     0.049 A 
ATOM     54  H   UNL     1       3.977  -1.487   3.954  1.00  0.00     0.167 HD
ATOM     55  C   UNL     1       1.688  -2.495   7.539  1.00  0.00     0.037 A 
ATOM     56  C   UNL     1       6.340  -0.899   2.556  1.00  0.00     0.037 A 
ATOM     57  C   UNL     1       3.072  -2.608   7.932  1.00  0.00     0.049 A 
ATOM     58  C   UNL     1       6.771  -1.305   3.934  1.00  0.00     0.074 A 
ATOM     59  C   UNL     1       3.595  -3.034   9.141  1.00  0.00     0.029 A 
ATOM     60  N   UNL     1       4.155  -2.305   7.118  1.00  0.00    -0.354 N 
ATOM     61  N   UNL     1       6.036  -1.652   4.961  1.00  0.00    -0.248 NA
ATOM     62  C   UNL     1       8.215  -1.306   4.199  1.00  0.00     0.031 C 
ATOM     63  C   UNL     1       4.989  -2.934   9.079  1.00  0.00     0.029 A 
ATOM     64  C   UNL     1       5.341  -2.510   7.808  1.00  0.00     0.049 A 
ATOM     65  H   UNL     1       4.091  -1.990   6.187  1.00  0.00     0.167 HD
ATOM     66  C   UNL     1       6.925  -1.929   5.989  1.00  0.00     0.074 A 
ATOM     67  C   UNL     1       8.256  -1.731   5.453  1.00  0.00     0.031 C 
ATOM     68  C   UNL     1       6.660  -2.308   7.264  1.00  0.00     0.037 A 
BRANCH  55  69
ATOM     69  C   UNL     1       0.637  -2.800   8.572  1.00  0.00     0.064 A 
ATOM     70  C   UNL     1      -0.202  -3.921   8.486  1.00  0.00     0.173 A 
ATOM     71  C   UNL     1       0.501  -1.971   9.699  1.00  0.00     0.173 A 
ATOM     72  F   UNL     1      -0.122  -4.744   7.430  1.00  0.00    -0.203 F 
ATOM     73  C   UNL     1      -1.156  -4.182   9.468  1.00  0.00     0.198 A 
ATOM     74  C   UNL     1      -0.429  -2.255  10.697  1.00  0.00     0.198 A 
ATOM     75  F   UNL     1       1.283  -0.891   9.843  1.00  0.00    -0.203 F 
ATOM     76  F   UNL     1      -1.981  -5.230   9.338  1.00  0.00    -0.200 F 
ATOM     77  C   UNL     1      -1.264  -3.354  10.576  1.00  0.00     0.200 A 
ATOM     78  F   UNL     1      -0.516  -1.463  11.775  1.00  0.00    -0.200 F 
ATOM     79  F   UNL     1      -2.175  -3.613  11.524  1.00  0.00    -0.200 F 
ENDBRANCH  55  69
BRANCH  56  80
ATOM     80  C   UNL     1       7.333  -0.512   1.518  1.00  0.00     0.064 A 
ATOM     81  C   UNL     1       8.197  -1.460   0.955  1.00  0.00     0.173 A 
ATOM     82  C   UNL     1       7.419   0.808   1.047  1.00  0.00     0.173 A 
ATOM     83  F   UNL     1       8.171  -2.729   1.388  1.00  0.00    -0.203 F 
ATOM     84  C   UNL     1       9.111  -1.102  -0.034  1.00  0.00     0.198 A 
ATOM     85  C   UNL     1       8.304   1.156   0.030  1.00  0.00     0.198 A 
ATOM     86  F   UNL     1       6.612   1.756   1.549  1.00  0.00    -0.203 F 
ATOM     87  F   UNL     1       9.952  -2.021  -0.529  1.00  0.00    -0.200 F 
ATOM     88  C   UNL     1       9.155   0.202  -0.505  1.00  0.00     0.200 A 
ATOM     89  F   UNL     1       8.324   2.411  -0.438  1.00  0.00    -0.200 F 
ATOM     90  F   UNL     1      10.018   0.539  -1.472  1.00  0.00    -0.200 F 
ENDBRANCH  56  80
BRANCH  68  91
ATOM     91  C   UNL     1       7.841  -2.572   8.153  1.00  0.00     0.064 A 
ATOM     92  C   UNL     1       8.665  -1.535   8.616  1.00  0.00     0.173 A 
ATOM     93  C   UNL     1       8.144  -3.882   8.557  1.00  0.00     0.173 A 
ATOM     94  F   UNL     1       8.430  -0.268   8.243  1.00  0.00    -0.203 F 
ATOM     95  C   UNL     1       9.768  -1.804   9.421  1.00  0.00     0.198 A 
ATOM     96  C   UNL     1       9.227  -4.142   9.391  1.00  0.00     0.198 A 
ATOM     97  F   UNL     1       7.385  -4.909   8.146  1.00  0.00    -0.203 F 
ATOM     98  F   UNL     1      10.578  -0.805   9.800  1.00  0.00    -0.200 F 
ATOM     99  C   UNL     1      10.044  -3.106   9.813  1.00  0.00     0.200 A 
ATOM    100  F   UNL     1       9.485  -5.399   9.779  1.00  0.00    -0.200 F 
ATOM    101  F   UNL     1      11.106  -3.362  10.590  1.00  0.00    -0.200 F 
ENDBRANCH  68  91
ENDBRANCH  42  43
ENDBRANCH  35  37
ENDBRANCH  34  35
ENDBRANCH  33  34
ENDBRANCH   1  33
TORSDOF 16
