REMARK SMILES O=C(OCCOC(=O)c1cccc2c(=O)oc(=O)[nH]c12)c1ccc(-c2c3nc(c(-c4c(F)c(F)c(F)c(F)c4F)c4ccc([nH]4)c(-c4c(F)c(F)c(F)c(F)c4F)c4nc(c(-c5c(F)c(F)c(F)c(F)c5F)c5ccc2[nH]5)C=C4)C=C3)cc1
REMARK SMILES IDX 4 1 3 2 2 3 1 4 21 5 22 6 83 7 23 8 82 9 24 10 25 11 26 12
REMARK SMILES IDX 76 13 27 14 81 15 75 16 77 17 28 18 80 19 74 20 73 21 29 23
REMARK SMILES IDX 61 24 41 25 60 26 42 27 45 28 59 29 78 30 43 31 44 32 58 34
REMARK SMILES IDX 79 35 46 36 30 37 31 38 39 39 32 40 33 41 37 42 40 43 34 44
REMARK SMILES IDX 35 45 38 46 36 47 62 48 63 49 71 50 64 51 65 52 69 53 72 54
REMARK SMILES IDX 66 55 67 56 70 57 68 58 47 59 48 60 56 61 49 62 50 63 54 64
REMARK SMILES IDX 57 65 51 66 52 67 55 68 53 69 5 70 6 71 7 72 8 73 9 74 10 75
REMARK SMILES IDX 20 76 11 77 13 78 19 79 12 80 14 81 17 82 15 84 16 85 18 86
REMARK H PARENT 77 22 45 33 19 83
REMARK Flexibility Score: inf
ROOT
ATOM      1  C   UNL     1       4.465  -1.478   0.088  1.00  0.00     0.275 C 
ENDROOT
BRANCH   1   2
ATOM      2  O   UNL     1       3.594  -0.794   1.006  1.00  0.00    -0.458 OA
BRANCH   2   3
ATOM      3  C   UNL     1       3.427   0.529   1.235  1.00  0.00     0.338 C 
ATOM      4  O   UNL     1       2.694   0.887   2.155  1.00  0.00    -0.246 OA
BRANCH   3   5
ATOM      5  C   UNL     1       3.937   1.584   0.310  1.00  0.00     0.060 A 
ATOM      6  C   UNL     1       3.136   2.730   0.178  1.00  0.00     0.016 A 
ATOM      7  C   UNL     1       5.117   1.522  -0.431  1.00  0.00     0.016 A 
ATOM      8  C   UNL     1       3.415   3.698  -0.788  1.00  0.00     0.010 A 
ATOM      9  C   UNL     1       5.418   2.503  -1.381  1.00  0.00     0.010 A 
ATOM     10  C   UNL     1       4.554   3.580  -1.592  1.00  0.00    -0.014 A 
BRANCH  10  11
ATOM     11  C   UNL     1       4.951   4.674  -2.503  1.00  0.00     0.031 A 
ATOM     12  C   UNL     1       4.957   4.524  -3.995  1.00  0.00     0.074 A 
ATOM     13  C   UNL     1       5.369   5.820  -1.940  1.00  0.00     0.049 A 
ATOM     14  N   UNL     1       5.123   5.445  -4.911  1.00  0.00    -0.248 NA
ATOM     15  C   UNL     1       4.720   3.182  -4.539  1.00  0.00     0.031 C 
ATOM     16  C   UNL     1       5.437   6.069  -0.499  1.00  0.00     0.029 A 
ATOM     17  N   UNL     1       5.842   6.971  -2.506  1.00  0.00    -0.354 N 
ATOM     18  C   UNL     1       4.885   4.820  -6.126  1.00  0.00     0.074 A 
ATOM     19  C   UNL     1       4.650   3.421  -5.843  1.00  0.00     0.031 C 
ATOM     20  C   UNL     1       5.937   7.294  -0.292  1.00  0.00     0.029 A 
ATOM     21  C   UNL     1       6.264   7.889  -1.582  1.00  0.00     0.049 A 
ATOM     22  H   UNL     1       5.875   7.123  -3.478  1.00  0.00     0.167 HD
ATOM     23  C   UNL     1       4.860   5.371  -7.363  1.00  0.00     0.037 A 
ATOM     24  C   UNL     1       6.882   9.069  -1.755  1.00  0.00     0.037 A 
ATOM     25  C   UNL     1       5.350   6.695  -7.652  1.00  0.00     0.049 A 
ATOM     26  C   UNL     1       7.125   9.553  -3.151  1.00  0.00     0.074 A 
ATOM     27  C   UNL     1       5.483   7.326  -8.876  1.00  0.00     0.029 A 
ATOM     28  N   UNL     1       5.877   7.558  -6.699  1.00  0.00    -0.354 N 
ATOM     29  N   UNL     1       6.764   9.009  -4.288  1.00  0.00    -0.248 NA
ATOM     30  C   UNL     1       7.860  10.814  -3.286  1.00  0.00     0.031 C 
ATOM     31  C   UNL     1       6.193   8.518  -8.674  1.00  0.00     0.029 A 
ATOM     32  C   UNL     1       6.426   8.672  -7.315  1.00  0.00     0.049 A 
ATOM     33  H   UNL     1       5.862   7.402  -5.728  1.00  0.00     0.167 HD
ATOM     34  C   UNL     1       7.215   9.865  -5.280  1.00  0.00     0.074 A 
ATOM     35  C   UNL     1       7.857  10.977  -4.602  1.00  0.00     0.031 C 
ATOM     36  C   UNL     1       7.105   9.744  -6.628  1.00  0.00     0.037 A 
BRANCH  23  37
ATOM     37  C   UNL     1       4.337   4.522  -8.486  1.00  0.00     0.064 A 
ATOM     38  C   UNL     1       2.965   4.234  -8.591  1.00  0.00     0.173 A 
ATOM     39  C   UNL     1       5.187   4.017  -9.479  1.00  0.00     0.173 A 
ATOM     40  F   UNL     1       2.109   4.673  -7.655  1.00  0.00    -0.203 F 
ATOM     41  C   UNL     1       2.469   3.465  -9.642  1.00  0.00     0.198 A 
ATOM     42  C   UNL     1       4.685   3.260 -10.537  1.00  0.00     0.198 A 
ATOM     43  F   UNL     1       6.505   4.252  -9.422  1.00  0.00    -0.203 F 
ATOM     44  F   UNL     1       1.161   3.178  -9.702  1.00  0.00    -0.200 F 
ATOM     45  C   UNL     1       3.329   2.982 -10.616  1.00  0.00     0.200 A 
ATOM     46  F   UNL     1       5.518   2.789 -11.475  1.00  0.00    -0.200 F 
ATOM     47  F   UNL     1       2.852   2.236 -11.623  1.00  0.00    -0.200 F 
ENDBRANCH  23  37
BRANCH  24  48
ATOM     48  C   UNL     1       7.288   9.837  -0.555  1.00  0.00     0.064 A 
ATOM     49  C   UNL     1       6.600  10.997  -0.184  1.00  0.00     0.173 A 
ATOM     50  C   UNL     1       8.288   9.359   0.307  1.00  0.00     0.173 A 
ATOM     51  F   UNL     1       5.645  11.493  -0.984  1.00  0.00    -0.203 F 
ATOM     52  C   UNL     1       6.885  11.643   1.016  1.00  0.00     0.198 A 
ATOM     53  C   UNL     1       8.553   9.991   1.518  1.00  0.00     0.198 A 
ATOM     54  F   UNL     1       8.965   8.243  -0.002  1.00  0.00    -0.203 F 
ATOM     55  F   UNL     1       6.214  12.753   1.351  1.00  0.00    -0.200 F 
ATOM     56  C   UNL     1       7.850  11.131   1.873  1.00  0.00     0.200 A 
ATOM     57  F   UNL     1       9.468   9.478   2.353  1.00  0.00    -0.200 F 
ATOM     58  F   UNL     1       8.096  11.734   3.044  1.00  0.00    -0.200 F 
ENDBRANCH  24  48
BRANCH  36  59
ATOM     59  C   UNL     1       7.724  10.835  -7.453  1.00  0.00     0.064 A 
ATOM     60  C   UNL     1       9.116  11.003  -7.518  1.00  0.00     0.173 A 
ATOM     61  C   UNL     1       6.921  11.717  -8.193  1.00  0.00     0.173 A 
ATOM     62  F   UNL     1       9.927  10.195  -6.818  1.00  0.00    -0.203 F 
ATOM     63  C   UNL     1       9.678  12.038  -8.259  1.00  0.00     0.198 A 
ATOM     64  C   UNL     1       7.490  12.727  -8.963  1.00  0.00     0.198 A 
ATOM     65  F   UNL     1       5.586  11.595  -8.173  1.00  0.00    -0.203 F 
ATOM     66  F   UNL     1      11.006  12.220  -8.251  1.00  0.00    -0.200 F 
ATOM     67  C   UNL     1       8.866  12.895  -8.986  1.00  0.00     0.200 A 
ATOM     68  F   UNL     1       6.704  13.542  -9.680  1.00  0.00    -0.200 F 
ATOM     69  F   UNL     1       9.409  13.890  -9.700  1.00  0.00    -0.200 F 
ENDBRANCH  36  59
ENDBRANCH  10  11
ENDBRANCH   3   5
ENDBRANCH   2   3
ENDBRANCH   1   2
BRANCH   1  70
ATOM     70  C   UNL     1       3.920  -1.652  -1.333  1.00  0.00     0.275 C 
BRANCH  70  71
ATOM     71  O   UNL     1       3.312  -0.479  -1.899  1.00  0.00    -0.458 OA
BRANCH  71  72
ATOM     72  C   UNL     1       1.969  -0.376  -1.711  1.00  0.00     0.340 C 
ATOM     73  O   UNL     1       1.262  -1.136  -1.073  1.00  0.00    -0.246 OA
BRANCH  72  74
ATOM     74  C   UNL     1       1.469   0.890  -2.291  1.00  0.00     0.084 A 
ATOM     75  C   UNL     1       1.895   1.289  -3.565  1.00  0.00     0.018 A 
ATOM     76  C   UNL     1       0.600   1.712  -1.555  1.00  0.00     0.073 A 
ATOM     77  C   UNL     1       1.476   2.514  -4.090  1.00  0.00     0.002 A 
ATOM     78  C   UNL     1       0.221   2.941  -2.069  1.00  0.00     0.085 A 
ATOM     79  N   UNL     1       0.143   1.383  -0.284  1.00  0.00    -0.289 N 
ATOM     80  C   UNL     1       0.659   3.351  -3.334  1.00  0.00     0.018 A 
ATOM     81  C   UNL     1      -0.598   3.833  -1.239  1.00  0.00     0.349 A 
ATOM     82  C   UNL     1      -0.623   2.209   0.486  1.00  0.00     0.419 A 
ATOM     83  H   UNL     1       0.386   0.502   0.083  1.00  0.00     0.173 HD
ATOM     84  O   UNL     1      -0.910   4.939  -1.668  1.00  0.00    -0.246 OA
ATOM     85  O   UNL     1      -0.965   3.425  -0.008  1.00  0.00    -0.372 OA
ATOM     86  O   UNL     1      -0.981   1.862   1.608  1.00  0.00    -0.224 OA
ENDBRANCH  72  74
ENDBRANCH  71  72
ENDBRANCH  70  71
ENDBRANCH   1  70
TORSDOF 11
