REMARK SMILES Cc1c(CC(=O)OCCOC(=O)c2ccc(-c3c4nc(c(-c5c(F)c(F)c(F)c(F)c5F)c5ccc([nH]5)c(-c5c(F)c(F)c(F)c(F)c5F)c5nc(c(-c6c(F)c(F)c(F)c(F)c6F)c6ccc3[nH]6)C=C5)C=C4)cc2)c(O)oc2cc(=O)cc(O)c1-2
REMARK SMILES IDX 8 1 7 2 5 3 6 4 4 5 3 6 1 7 2 8 86 9 76 10 79 11 84 12 78 13
REMARK SMILES IDX 80 14 83 15 81 16 82 17 77 18 85 20 9 22 10 23 11 24 12 25
REMARK SMILES IDX 13 26 14 27 75 28 15 29 74 30 16 31 17 32 18 33 68 34 19 35
REMARK SMILES IDX 73 36 67 37 69 38 20 39 72 40 66 41 65 42 21 44 53 45 33 46
REMARK SMILES IDX 52 47 34 48 37 49 51 50 70 51 35 52 36 53 50 55 71 56 38 57
REMARK SMILES IDX 22 58 23 59 31 60 24 61 25 62 29 63 32 64 26 65 27 66 30 67
REMARK SMILES IDX 28 68 54 69 55 70 63 71 56 72 57 73 61 74 64 75 58 76 59 77
REMARK SMILES IDX 62 78 60 79 39 80 40 81 48 82 41 83 42 84 46 85 49 86 43 87
REMARK SMILES IDX 44 88 47 89 45 90
REMARK H PARENT 77 19 85 21 69 43 37 54
REMARK Flexibility Score: inf
ROOT
ATOM      1  C   UNL     1       4.033   1.499   2.737  1.00  0.00     0.274 C 
ENDROOT
BRANCH   1   2
ATOM      2  O   UNL     1       3.117   1.987   1.735  1.00  0.00    -0.462 OA
BRANCH   2   3
ATOM      3  C   UNL     1       3.656   2.220   0.512  1.00  0.00     0.310 C 
ATOM      4  O   UNL     1       4.842   2.066   0.229  1.00  0.00    -0.252 OA
BRANCH   3   5
ATOM      5  C   UNL     1       2.657   2.668  -0.545  1.00  0.00     0.166 C 
BRANCH   5   6
ATOM      6  C   UNL     1       1.220   2.862  -0.106  1.00  0.00     0.048 A 
ATOM      7  C   UNL     1       0.587   0.549  -1.024  1.00  0.00     0.046 C 
ATOM      8  C   UNL     1       0.219   1.775  -0.223  1.00  0.00    -0.026 A 
ATOM      9  C   UNL     1      -1.007   1.922   0.354  1.00  0.00     0.063 A 
ATOM     10  C   UNL     1       0.840   4.036   0.443  1.00  0.00     0.286 A 
ATOM     11  C   UNL     1      -1.377   3.244   0.886  1.00  0.00     0.146 A 
ATOM     12  C   UNL     1      -2.013   0.846   0.478  1.00  0.00     0.130 A 
ATOM     13  O   UNL     1      -0.431   4.250   0.928  1.00  0.00    -0.425 OA
ATOM     14  C   UNL     1      -2.631   3.520   1.265  1.00  0.00     0.100 A 
ATOM     15  C   UNL     1      -3.271   1.109   0.858  1.00  0.00     0.099 A 
ATOM     16  C   UNL     1      -3.679   2.486   1.204  1.00  0.00     0.186 A 
ATOM     17  O   UNL     1      -4.847   2.746   1.468  1.00  0.00    -0.290 OA
BRANCH  10  18
ATOM     18  O   UNL     1       1.716   5.090   0.588  1.00  0.00    -0.480 OA
ATOM     19  H   UNL     1       2.598   5.012   0.280  1.00  0.00     0.297 HD
ENDBRANCH  10  18
BRANCH  12  20
ATOM     20  O   UNL     1      -1.588  -0.452   0.285  1.00  0.00    -0.507 OA
ATOM     21  H   UNL     1      -2.198  -1.160   0.356  1.00  0.00     0.293 HD
ENDBRANCH  12  20
ENDBRANCH   5   6
ENDBRANCH   3   5
ENDBRANCH   2   3
ENDBRANCH   1   2
BRANCH   1  22
ATOM     22  C   UNL     1       3.880  -0.010   2.905  1.00  0.00     0.275 C 
BRANCH  22  23
ATOM     23  O   UNL     1       4.013  -0.650   1.624  1.00  0.00    -0.458 OA
BRANCH  23  24
ATOM     24  C   UNL     1       3.078  -1.585   1.341  1.00  0.00     0.338 C 
ATOM     25  O   UNL     1       2.214  -2.010   2.088  1.00  0.00    -0.246 OA
BRANCH  24  26
ATOM     26  C   UNL     1       3.231  -2.060  -0.053  1.00  0.00     0.060 A 
ATOM     27  C   UNL     1       3.625  -1.203  -1.086  1.00  0.00     0.016 A 
ATOM     28  C   UNL     1       2.871  -3.377  -0.345  1.00  0.00     0.016 A 
ATOM     29  C   UNL     1       3.592  -1.643  -2.411  1.00  0.00     0.010 A 
ATOM     30  C   UNL     1       2.920  -3.840  -1.661  1.00  0.00     0.010 A 
ATOM     31  C   UNL     1       3.258  -2.972  -2.712  1.00  0.00    -0.014 A 
BRANCH  31  32
ATOM     32  C   UNL     1       3.266  -3.475  -4.112  1.00  0.00     0.031 A 
ATOM     33  C   UNL     1       2.007  -4.010  -4.739  1.00  0.00     0.074 A 
ATOM     34  C   UNL     1       4.414  -3.487  -4.817  1.00  0.00     0.049 A 
ATOM     35  N   UNL     1       1.854  -4.668  -5.861  1.00  0.00    -0.248 NA
ATOM     36  C   UNL     1       0.753  -3.783  -4.003  1.00  0.00     0.031 C 
ATOM     37  C   UNL     1       5.699  -2.968  -4.350  1.00  0.00     0.029 A 
ATOM     38  N   UNL     1       4.685  -3.960  -6.078  1.00  0.00    -0.354 N 
ATOM     39  C   UNL     1       0.501  -4.965  -5.948  1.00  0.00     0.074 A 
ATOM     40  C   UNL     1      -0.127  -4.423  -4.762  1.00  0.00     0.031 C 
ATOM     41  C   UNL     1       6.614  -3.123  -5.319  1.00  0.00     0.029 A 
ATOM     42  C   UNL     1       6.001  -3.822  -6.443  1.00  0.00     0.049 A 
ATOM     43  H   UNL     1       4.001  -4.359  -6.663  1.00  0.00     0.167 HD
ATOM     44  C   UNL     1      -0.156  -5.629  -6.929  1.00  0.00     0.037 A 
ATOM     45  C   UNL     1       6.655  -4.245  -7.542  1.00  0.00     0.037 A 
ATOM     46  C   UNL     1       0.462  -6.138  -8.127  1.00  0.00     0.049 A 
ATOM     47  C   UNL     1       5.916  -5.026  -8.589  1.00  0.00     0.074 A 
ATOM     48  C   UNL     1      -0.128  -6.815  -9.181  1.00  0.00     0.029 A 
ATOM     49  N   UNL     1       1.807  -6.013  -8.436  1.00  0.00    -0.354 N 
ATOM     50  N   UNL     1       4.648  -5.353  -8.633  1.00  0.00    -0.248 NA
ATOM     51  C   UNL     1       6.705  -5.519  -9.727  1.00  0.00     0.031 C 
ATOM     52  C   UNL     1       0.866  -7.126 -10.115  1.00  0.00     0.029 A 
ATOM     53  C   UNL     1       2.068  -6.611  -9.659  1.00  0.00     0.049 A 
ATOM     54  H   UNL     1       2.478  -5.566  -7.871  1.00  0.00     0.167 HD
ATOM     55  C   UNL     1       4.485  -6.084  -9.801  1.00  0.00     0.074 A 
ATOM     56  C   UNL     1       5.779  -6.137 -10.448  1.00  0.00     0.031 C 
ATOM     57  C   UNL     1       3.362  -6.663 -10.288  1.00  0.00     0.037 A 
BRANCH  44  58
ATOM     58  C   UNL     1      -1.627  -5.862  -6.754  1.00  0.00     0.064 A 
ATOM     59  C   UNL     1      -2.560  -4.833  -6.942  1.00  0.00     0.173 A 
ATOM     60  C   UNL     1      -2.111  -7.148  -6.469  1.00  0.00     0.173 A 
ATOM     61  F   UNL     1      -2.145  -3.585  -7.205  1.00  0.00    -0.203 F 
ATOM     62  C   UNL     1      -3.927  -5.082  -6.843  1.00  0.00     0.198 A 
ATOM     63  C   UNL     1      -3.479  -7.397  -6.391  1.00  0.00     0.198 A 
ATOM     64  F   UNL     1      -1.258  -8.166  -6.286  1.00  0.00    -0.203 F 
ATOM     65  F   UNL     1      -4.802  -4.079  -7.001  1.00  0.00    -0.200 F 
ATOM     66  C   UNL     1      -4.385  -6.364  -6.576  1.00  0.00     0.200 A 
ATOM     67  F   UNL     1      -3.920  -8.638  -6.144  1.00  0.00    -0.200 F 
ATOM     68  F   UNL     1      -5.701  -6.604  -6.495  1.00  0.00    -0.200 F 
ENDBRANCH  44  58
BRANCH  45  69
ATOM     69  C   UNL     1       8.102  -3.950  -7.688  1.00  0.00     0.064 A 
ATOM     70  C   UNL     1       8.546  -3.002  -8.619  1.00  0.00     0.173 A 
ATOM     71  C   UNL     1       9.062  -4.580  -6.883  1.00  0.00     0.173 A 
ATOM     72  F   UNL     1       7.666  -2.393  -9.426  1.00  0.00    -0.203 F 
ATOM     73  C   UNL     1       9.899  -2.693  -8.737  1.00  0.00     0.198 A 
ATOM     74  C   UNL     1      10.411  -4.252  -6.985  1.00  0.00     0.198 A 
ATOM     75  F   UNL     1       8.683  -5.495  -5.979  1.00  0.00    -0.203 F 
ATOM     76  F   UNL     1      10.302  -1.800  -9.651  1.00  0.00    -0.200 F 
ATOM     77  C   UNL     1      10.829  -3.311  -7.914  1.00  0.00     0.200 A 
ATOM     78  F   UNL     1      11.305  -4.842  -6.179  1.00  0.00    -0.200 F 
ATOM     79  F   UNL     1      12.129  -3.001  -8.017  1.00  0.00    -0.200 F 
ENDBRANCH  45  69
BRANCH  57  80
ATOM     80  C   UNL     1       3.477  -7.398 -11.589  1.00  0.00     0.064 A 
ATOM     81  C   UNL     1       4.067  -8.668 -11.658  1.00  0.00     0.173 A 
ATOM     82  C   UNL     1       2.950  -6.849 -12.767  1.00  0.00     0.173 A 
ATOM     83  F   UNL     1       4.598  -9.226 -10.560  1.00  0.00    -0.203 F 
ATOM     84  C   UNL     1       4.138  -9.357 -12.866  1.00  0.00     0.198 A 
ATOM     85  C   UNL     1       3.004  -7.550 -13.969  1.00  0.00     0.198 A 
ATOM     86  F   UNL     1       2.372  -5.638 -12.749  1.00  0.00    -0.203 F 
ATOM     87  F   UNL     1       4.734 -10.556 -12.917  1.00  0.00    -0.200 F 
ATOM     88  C   UNL     1       3.601  -8.801 -14.018  1.00  0.00     0.200 A 
ATOM     89  F   UNL     1       2.477  -7.015 -15.079  1.00  0.00    -0.200 F 
ATOM     90  F   UNL     1       3.664  -9.469 -15.178  1.00  0.00    -0.200 F 
ENDBRANCH  57  80
ENDBRANCH  31  32
ENDBRANCH  24  26
ENDBRANCH  23  24
ENDBRANCH  22  23
ENDBRANCH   1  22
TORSDOF 14
