REMARK SMILES CCc1ccc(NC(=O)c2cnn3c2N=C(C(=O)OCCOC(=O)c2ccc(-c4c5nc(c(-c6c(F)c(F)c(F)c(F)c6F)c6ccc([nH]6)c(-c6c(F)c(F)c(F)c(F)c6F)c6nc(c(-c7c(F)c(F)c(F)c(F)c7F)c7ccc4[nH]7)C=C6)C=C5)cc2)C[C@H]3c2ccccc2Cl)cc1
REMARK SMILES IDX 20 1 19 2 17 3 18 4 16 5 10 6 11 7 14 8 12 9 13 10 15 11
REMARK SMILES IDX 89 12 88 13 8 14 7 15 9 17 6 18 3 19 4 20 98 21 5 22 97 23
REMARK SMILES IDX 2 24 1 25 90 26 91 27 95 28 92 29 94 30 96 31 93 32 21 33
REMARK SMILES IDX 22 34 23 35 24 36 25 37 26 38 87 39 27 40 86 41 28 42 29 43
REMARK SMILES IDX 30 44 80 45 31 46 85 47 79 48 81 49 32 50 84 51 78 52 77 53
REMARK SMILES IDX 33 55 65 56 45 57 64 58 46 59 49 60 63 61 82 62 47 63 48 64
REMARK SMILES IDX 62 66 83 67 50 68 34 69 35 70 43 71 36 72 37 73 41 74 44 75
REMARK SMILES IDX 38 76 39 77 42 78 40 79 66 80 67 81 75 82 68 83 69 84 73 85
REMARK SMILES IDX 76 86 70 87 71 88 74 89 72 90 51 91 52 92 60 93 53 94 54 95
REMARK SMILES IDX 58 96 61 97 55 98 56 99 59 100 57 101
REMARK H PARENT 7 16 81 54 49 65
REMARK Flexibility Score: inf
ROOT
ATOM      1  C   UNL     1       6.086  -3.204  -1.729  1.00  0.00     0.275 C 
ENDROOT
BRANCH   1   2
ATOM      2  O   UNL     1       4.996  -4.125  -1.539  1.00  0.00    -0.458 OA
BRANCH   2   3
ATOM      3  C   UNL     1       5.013  -4.875  -0.413  1.00  0.00     0.352 C 
ATOM      4  O   UNL     1       5.936  -4.975   0.378  1.00  0.00    -0.245 OA
BRANCH   3   5
ATOM      5  C   UNL     1       3.653  -5.565  -0.210  1.00  0.00     0.130 C 
ATOM      6  C   UNL     1       1.285  -6.998   2.111  1.00  0.00     0.104 A 
ATOM      7  C   UNL     1       0.417  -7.986   1.593  1.00  0.00     0.151 A 
ATOM      8  C   UNL     1       2.180  -6.729   1.083  1.00  0.00     0.164 A 
ATOM      9  N   UNL     1       0.575  -8.157   0.279  1.00  0.00    -0.178 NA
ATOM     10  N   UNL     1       1.586  -7.314  -0.013  1.00  0.00    -0.239 N 
ATOM     11  N   UNL     1       3.339  -6.023   0.972  1.00  0.00    -0.225 NA
ATOM     12  C   UNL     1       1.758  -6.784  -1.362  1.00  0.00     0.147 C 
ATOM     13  C   UNL     1       2.720  -5.597  -1.401  1.00  0.00     0.096 C 
BRANCH   6  14
ATOM     14  C   UNL     1       1.172  -6.390   3.410  1.00  0.00     0.261 C 
ATOM     15  N   UNL     1       0.630  -5.119   3.527  1.00  0.00    -0.322 N 
ATOM     16  H   UNL     1       0.532  -4.814   4.458  1.00  0.00     0.170 HD
ATOM     17  O   UNL     1       1.478  -6.997   4.436  1.00  0.00    -0.269 OA
BRANCH  15  18
ATOM     18  C   UNL     1       0.190  -4.177   2.571  1.00  0.00     0.041 A 
ATOM     19  C   UNL     1      -0.001  -2.082   0.685  1.00  0.00    -0.048 A 
ATOM     20  C   UNL     1      -0.138  -3.414   0.293  1.00  0.00     0.006 A 
ATOM     21  C   UNL     1      -0.002  -1.808   2.054  1.00  0.00     0.006 A 
ATOM     22  C   UNL     1      -0.070  -4.445   1.233  1.00  0.00     0.026 A 
ATOM     23  C   UNL     1       0.075  -2.851   2.990  1.00  0.00     0.026 A 
BRANCH  19  24
ATOM     24  C   UNL     1       0.111  -1.019  -0.380  1.00  0.00     0.032 C 
ATOM     25  C   UNL     1       0.949   0.199  -0.008  1.00  0.00     0.009 C 
ENDBRANCH  19  24
ENDBRANCH  15  18
ENDBRANCH   6  14
BRANCH  12  26
ATOM     26  C   UNL     1       2.147  -7.862  -2.352  1.00  0.00    -0.004 A 
ATOM     27  C   UNL     1       3.315  -8.620  -2.140  1.00  0.00     0.007 A 
ATOM     28  C   UNL     1       1.389  -8.111  -3.511  1.00  0.00     0.046 A 
ATOM     29  C   UNL     1       3.707  -9.596  -3.055  1.00  0.00     0.000 A 
ATOM     30  C   UNL     1       1.785  -9.094  -4.420  1.00  0.00     0.021 A 
ATOM     31  Cl  UNL     1      -0.036  -7.213  -3.906  1.00  0.00    -0.084 Cl
ATOM     32  C   UNL     1       2.942  -9.835  -4.193  1.00  0.00     0.002 A 
ENDBRANCH  12  26
ENDBRANCH   3   5
ENDBRANCH   2   3
ENDBRANCH   1   2
BRANCH   1  33
ATOM     33  C   UNL     1       5.715  -1.808  -1.238  1.00  0.00     0.275 C 
BRANCH  33  34
ATOM     34  O   UNL     1       5.734  -1.737   0.189  1.00  0.00    -0.458 OA
BRANCH  34  35
ATOM     35  C   UNL     1       4.567  -2.083   0.772  1.00  0.00     0.338 C 
ATOM     36  O   UNL     1       3.609  -2.617   0.233  1.00  0.00    -0.246 OA
BRANCH  35  37
ATOM     37  C   UNL     1       4.489  -1.519   2.120  1.00  0.00     0.060 A 
ATOM     38  C   UNL     1       3.446  -1.979   2.917  1.00  0.00     0.016 A 
ATOM     39  C   UNL     1       5.170  -0.332   2.412  1.00  0.00     0.016 A 
ATOM     40  C   UNL     1       2.910  -1.113   3.842  1.00  0.00     0.010 A 
ATOM     41  C   UNL     1       4.649   0.513   3.370  1.00  0.00     0.010 A 
ATOM     42  C   UNL     1       3.438   0.175   3.972  1.00  0.00    -0.014 A 
BRANCH  42  43
ATOM     43  C   UNL     1       2.666   1.136   4.760  1.00  0.00     0.031 A 
ATOM     44  C   UNL     1       2.329   0.680   6.141  1.00  0.00     0.074 A 
ATOM     45  C   UNL     1       2.364   2.360   4.275  1.00  0.00     0.049 A 
ATOM     46  N   UNL     1       1.196   0.740   6.765  1.00  0.00    -0.248 NA
ATOM     47  C   UNL     1       3.379  -0.052   6.875  1.00  0.00     0.031 C 
ATOM     48  C   UNL     1       2.804   2.954   3.006  1.00  0.00     0.029 A 
ATOM     49  N   UNL     1       1.721   3.399   4.880  1.00  0.00    -0.354 N 
ATOM     50  C   UNL     1       1.438   0.206   8.030  1.00  0.00     0.074 A 
ATOM     51  C   UNL     1       2.740  -0.400   7.988  1.00  0.00     0.031 C 
ATOM     52  C   UNL     1       2.686   4.296   3.080  1.00  0.00     0.029 A 
ATOM     53  C   UNL     1       2.055   4.636   4.341  1.00  0.00     0.049 A 
ATOM     54  H   UNL     1       1.085   3.285   5.623  1.00  0.00     0.167 HD
ATOM     55  C   UNL     1       0.667   0.524   9.103  1.00  0.00     0.037 A 
ATOM     56  C   UNL     1       1.944   5.843   4.948  1.00  0.00     0.037 A 
ATOM     57  C   UNL     1      -0.664   0.895   8.714  1.00  0.00     0.049 A 
ATOM     58  C   UNL     1       1.007   5.693   6.088  1.00  0.00     0.074 A 
ATOM     59  C   UNL     1      -1.697   0.254   8.056  1.00  0.00     0.029 A 
ATOM     60  N   UNL     1      -1.017   2.220   8.743  1.00  0.00    -0.354 N 
ATOM     61  N   UNL     1      -0.273   5.482   5.962  1.00  0.00    -0.248 NA
ATOM     62  C   UNL     1       1.572   5.353   7.385  1.00  0.00     0.031 C 
ATOM     63  C   UNL     1      -2.361   1.274   7.316  1.00  0.00     0.029 A 
ATOM     64  C   UNL     1      -1.711   2.477   7.590  1.00  0.00     0.049 A 
ATOM     65  H   UNL     1      -0.811   2.865   9.457  1.00  0.00     0.167 HD
ATOM     66  C   UNL     1      -0.586   4.603   6.988  1.00  0.00     0.074 A 
ATOM     67  C   UNL     1       0.563   4.638   7.887  1.00  0.00     0.031 C 
ATOM     68  C   UNL     1      -1.616   3.718   6.864  1.00  0.00     0.037 A 
BRANCH  55  69
ATOM     69  C   UNL     1       1.262   0.874  10.449  1.00  0.00     0.064 A 
ATOM     70  C   UNL     1       0.403   1.111  11.539  1.00  0.00     0.173 A 
ATOM     71  C   UNL     1       2.600   1.294  10.629  1.00  0.00     0.173 A 
ATOM     72  F   UNL     1      -0.892   0.768  11.475  1.00  0.00    -0.203 F 
ATOM     73  C   UNL     1       0.831   1.801  12.677  1.00  0.00     0.198 A 
ATOM     74  C   UNL     1       3.035   1.933  11.787  1.00  0.00     0.198 A 
ATOM     75  F   UNL     1       3.517   1.213   9.657  1.00  0.00    -0.203 F 
ATOM     76  F   UNL     1      -0.056   2.127  13.627  1.00  0.00    -0.200 F 
ATOM     77  C   UNL     1       2.143   2.221  12.795  1.00  0.00     0.200 A 
ATOM     78  F   UNL     1       4.308   2.345  11.871  1.00  0.00    -0.200 F 
ATOM     79  F   UNL     1       2.536   2.947  13.849  1.00  0.00    -0.200 F 
ENDBRANCH  55  69
BRANCH  56  80
ATOM     80  C   UNL     1       2.866   6.999   4.816  1.00  0.00     0.064 A 
ATOM     81  C   UNL     1       2.481   8.286   5.222  1.00  0.00     0.173 A 
ATOM     82  C   UNL     1       4.233   6.824   4.516  1.00  0.00     0.173 A 
ATOM     83  F   UNL     1       1.211   8.527   5.580  1.00  0.00    -0.203 F 
ATOM     84  C   UNL     1       3.407   9.330   5.327  1.00  0.00     0.198 A 
ATOM     85  C   UNL     1       5.152   7.869   4.605  1.00  0.00     0.198 A 
ATOM     86  F   UNL     1       4.727   5.614   4.219  1.00  0.00    -0.203 F 
ATOM     87  F   UNL     1       3.013  10.531   5.773  1.00  0.00    -0.200 F 
ATOM     88  C   UNL     1       4.742   9.120   5.022  1.00  0.00     0.200 A 
ATOM     89  F   UNL     1       6.446   7.639   4.340  1.00  0.00    -0.200 F 
ATOM     90  F   UNL     1       5.637  10.106   5.168  1.00  0.00    -0.200 F 
ENDBRANCH  56  80
BRANCH  68  91
ATOM     91  C   UNL     1      -2.562   3.908   5.716  1.00  0.00     0.064 A 
ATOM     92  C   UNL     1      -2.181   3.792   4.368  1.00  0.00     0.173 A 
ATOM     93  C   UNL     1      -3.925   4.074   5.990  1.00  0.00     0.173 A 
ATOM     94  F   UNL     1      -0.913   3.522   4.031  1.00  0.00    -0.203 F 
ATOM     95  C   UNL     1      -3.117   3.894   3.341  1.00  0.00     0.198 A 
ATOM     96  C   UNL     1      -4.864   4.139   4.965  1.00  0.00     0.198 A 
ATOM     97  F   UNL     1      -4.353   4.128   7.262  1.00  0.00    -0.203 F 
ATOM     98  F   UNL     1      -2.726   3.796   2.062  1.00  0.00    -0.200 F 
ATOM     99  C   UNL     1      -4.459   4.061   3.641  1.00  0.00     0.200 A 
ATOM    100  F   UNL     1      -6.167   4.248   5.260  1.00  0.00    -0.200 F 
ATOM    101  F   UNL     1      -5.366   4.120   2.656  1.00  0.00    -0.200 F 
ENDBRANCH  68  91
ENDBRANCH  42  43
ENDBRANCH  35  37
ENDBRANCH  34  35
ENDBRANCH  33  34
ENDBRANCH   1  33
TORSDOF 15
