REMARK SMILES Cc1ccc(-c2c(C)sc(NC(=O)[C@H]3CC=CC[C@H]3C(=O)OCCOC(=O)c3ccc(-c4c5nc(c(-c6c(F)c(F)c(F)c(F)c6F)c6ccc([nH]6)c(-c6c(F)c(F)c(F)c(F)c6F)c6nc(c(-c7c(F)c(F)c(F)c(F)c7F)c7ccc4[nH]7)C=C6)C=C5)cc3)c2C(N)=O)cc1
REMARK SMILES IDX 23 1 22 2 20 3 21 4 19 5 14 6 15 7 16 8 18 9 17 10 12 11
REMARK SMILES IDX 11 12 13 14 10 15 6 16 7 17 91 18 8 19 9 20 5 21 1 22 2 23
REMARK SMILES IDX 3 24 96 25 4 26 95 27 92 28 93 29 94 30 24 33 25 34 26 35
REMARK SMILES IDX 27 36 28 37 29 38 90 39 30 40 89 41 31 42 32 43 33 44 83 45
REMARK SMILES IDX 34 46 88 47 82 48 84 49 35 50 87 51 81 52 80 53 36 55 68 56
REMARK SMILES IDX 48 57 67 58 49 59 52 60 66 61 85 62 50 63 51 64 65 66 86 67
REMARK SMILES IDX 53 68 37 69 38 70 46 71 39 72 40 73 44 74 47 75 41 76 42 77
REMARK SMILES IDX 45 78 43 79 69 80 70 81 78 82 71 83 72 84 76 85 79 86 73 87
REMARK SMILES IDX 74 88 77 89 75 90 54 91 55 92 63 93 56 94 57 95 61 96 64 97
REMARK SMILES IDX 58 98 59 99 62 100 60 101
REMARK H PARENT 11 13 93 31 93 32 84 54 52 65
REMARK Flexibility Score: inf
ROOT
ATOM      1  C   UNL     1     -10.769  -3.505   1.645  1.00  0.00     0.274 C 
ENDROOT
BRANCH   1   2
ATOM      2  O   UNL     1      -9.538  -2.823   1.535  1.00  0.00    -0.462 OA
BRANCH   2   3
ATOM      3  C   UNL     1      -8.801  -3.251   0.469  1.00  0.00     0.310 C 
ATOM      4  O   UNL     1      -8.442  -4.413   0.367  1.00  0.00    -0.252 OA
BRANCH   3   5
ATOM      5  C   UNL     1      -8.903  -2.017  -0.611  1.00  0.00     0.116 C 
ATOM      6  C   UNL     1      -8.171  -0.491   0.425  1.00  0.00     0.097 C 
ATOM      7  C   UNL     1      -7.636   0.971  -0.511  1.00  0.00     0.041 C 
ATOM      8  C   UNL     1      -7.184   0.906  -2.219  1.00  0.00    -0.030 C 
ATOM      9  C   UNL     1      -8.609  -1.687  -2.796  1.00  0.00     0.043 C 
ATOM     10  C   UNL     1      -7.573  -0.080  -3.189  1.00  0.00    -0.030 C 
BRANCH   6  11
ATOM     11  C   UNL     1      -7.451  -0.709   1.772  1.00  0.00     0.229 C 
ATOM     12  N   UNL     1      -6.124  -0.696   2.059  1.00  0.00    -0.317 N 
ATOM     13  H   UNL     1      -5.934  -0.998   2.977  1.00  0.00     0.170 HD
ATOM     14  O   UNL     1      -8.150  -0.958   2.770  1.00  0.00    -0.274 OA
BRANCH  12  15
ATOM     15  C   UNL     1      -4.984  -0.359   1.367  1.00  0.00     0.109 A 
ATOM     16  C   UNL     1      -2.858  -0.109   0.454  1.00  0.00     0.010 A 
ATOM     17  C   UNL     1      -3.634   0.717  -0.343  1.00  0.00     0.012 A 
ATOM     18  C   UNL     1      -3.650  -0.739   1.526  1.00  0.00     0.082 A 
ATOM     19  C   UNL     1      -3.402   1.404  -1.648  1.00  0.00     0.057 C 
ATOM     20  S   UNL     1      -4.921   1.174   0.642  1.00  0.00    -0.122 S 
BRANCH  16  21
ATOM     21  C   UNL     1      -1.424  -0.125   0.245  1.00  0.00    -0.016 A 
ATOM     22  C   UNL     1       2.847  -0.049  -0.088  1.00  0.00     0.044 C 
ATOM     23  C   UNL     1       1.352  -0.062  -0.031  1.00  0.00    -0.051 A 
ATOM     24  C   UNL     1       0.656  -1.278  -0.096  1.00  0.00     0.004 A 
ATOM     25  C   UNL     1       0.647   1.130   0.143  1.00  0.00     0.004 A 
ATOM     26  C   UNL     1      -0.732  -1.310   0.027  1.00  0.00     0.009 A 
ATOM     27  C   UNL     1      -0.731   1.096   0.297  1.00  0.00     0.009 A 
ENDBRANCH  16  21
BRANCH  18  28
ATOM     28  C   UNL     1      -3.104  -1.592   2.584  1.00  0.00     0.252 C 
ATOM     29  N   UNL     1      -3.971  -2.252   3.408  1.00  0.00    -0.365 N 
ATOM     30  O   UNL     1      -1.904  -1.741   2.788  1.00  0.00    -0.269 OA
ATOM     31  H   UNL     1      -4.943  -2.159   3.277  1.00  0.00     0.159 HD
ATOM     32  H   UNL     1      -3.625  -2.822   4.132  1.00  0.00     0.159 HD
ENDBRANCH  18  28
ENDBRANCH  12  15
ENDBRANCH   6  11
ENDBRANCH   3   5
ENDBRANCH   2   3
ENDBRANCH   1   2
BRANCH   1  33
ATOM     33  C   UNL     1     -11.966  -2.950   0.799  1.00  0.00     0.275 C 
BRANCH  33  34
ATOM     34  O   UNL     1     -12.056  -1.594   0.141  1.00  0.00    -0.458 OA
BRANCH  34  35
ATOM     35  C   UNL     1     -11.806  -0.920  -1.036  1.00  0.00     0.338 C 
ATOM     36  O   UNL     1     -12.443   0.066  -1.377  1.00  0.00    -0.246 OA
BRANCH  35  37
ATOM     37  C   UNL     1     -10.618  -1.279  -1.853  1.00  0.00     0.060 A 
ATOM     38  C   UNL     1      -9.095  -0.431  -1.551  1.00  0.00     0.016 A 
ATOM     39  C   UNL     1     -10.594  -2.829  -2.121  1.00  0.00     0.016 A 
ATOM     40  C   UNL     1      -7.385  -1.428  -1.438  1.00  0.00     0.010 A 
ATOM     41  C   UNL     1      -9.248  -3.679  -2.027  1.00  0.00     0.010 A 
ATOM     42  C   UNL     1      -7.587  -3.179  -1.773  1.00  0.00    -0.014 A 
BRANCH  42  43
ATOM     43  C   UNL     1      -6.749  -4.378  -2.039  1.00  0.00     0.031 A 
ATOM     44  C   UNL     1      -5.387  -4.471  -1.504  1.00  0.00     0.074 A 
ATOM     45  C   UNL     1      -7.297  -5.421  -2.763  1.00  0.00     0.049 A 
ATOM     46  N   UNL     1      -4.389  -4.946  -2.171  1.00  0.00    -0.248 NA
ATOM     47  C   UNL     1      -5.001  -3.954  -0.192  1.00  0.00     0.031 C 
ATOM     48  C   UNL     1      -6.950  -6.838  -2.817  1.00  0.00     0.029 A 
ATOM     49  N   UNL     1      -8.421  -5.397  -3.641  1.00  0.00    -0.354 N 
ATOM     50  C   UNL     1      -3.407  -5.194  -1.235  1.00  0.00     0.074 A 
ATOM     51  C   UNL     1      -3.714  -4.323  -0.126  1.00  0.00     0.031 C 
ATOM     52  C   UNL     1      -7.600  -7.435  -3.844  1.00  0.00     0.029 A 
ATOM     53  C   UNL     1      -8.353  -6.422  -4.562  1.00  0.00     0.049 A 
ATOM     54  H   UNL     1      -9.150  -4.736  -3.596  1.00  0.00     0.167 HD
ATOM     55  C   UNL     1      -2.682  -6.349  -1.319  1.00  0.00     0.037 A 
ATOM     56  C   UNL     1      -8.497  -6.149  -5.882  1.00  0.00     0.037 A 
ATOM     57  C   UNL     1      -3.221  -7.196  -2.388  1.00  0.00     0.049 A 
ATOM     58  C   UNL     1      -7.198  -6.511  -6.502  1.00  0.00     0.074 A 
ATOM     59  C   UNL     1      -4.016  -8.331  -2.350  1.00  0.00     0.029 A 
ATOM     60  N   UNL     1      -3.266  -6.743  -3.702  1.00  0.00    -0.354 N 
ATOM     61  N   UNL     1      -6.087  -6.509  -5.821  1.00  0.00    -0.248 NA
ATOM     62  C   UNL     1      -7.059  -7.037  -7.846  1.00  0.00     0.031 C 
ATOM     63  C   UNL     1      -4.447  -8.616  -3.671  1.00  0.00     0.029 A 
ATOM     64  C   UNL     1      -3.948  -7.631  -4.509  1.00  0.00     0.049 A 
ATOM     65  H   UNL     1      -2.864  -5.900  -4.015  1.00  0.00     0.167 HD
ATOM     66  C   UNL     1      -5.139  -7.180  -6.529  1.00  0.00     0.074 A 
ATOM     67  C   UNL     1      -5.780  -7.450  -7.806  1.00  0.00     0.031 C 
ATOM     68  C   UNL     1      -3.938  -7.490  -5.962  1.00  0.00     0.037 A 
BRANCH  55  69
ATOM     69  C   UNL     1      -1.762  -6.902  -0.236  1.00  0.00     0.064 A 
ATOM     70  C   UNL     1      -1.465  -8.285  -0.167  1.00  0.00     0.173 A 
ATOM     71  C   UNL     1      -1.114  -6.124   0.743  1.00  0.00     0.173 A 
ATOM     72  F   UNL     1      -1.903  -9.150  -1.090  1.00  0.00    -0.203 F 
ATOM     73  C   UNL     1      -0.681  -8.848   0.844  1.00  0.00     0.198 A 
ATOM     74  C   UNL     1      -0.353  -6.691   1.777  1.00  0.00     0.198 A 
ATOM     75  F   UNL     1      -1.141  -4.787   0.697  1.00  0.00    -0.203 F 
ATOM     76  F   UNL     1      -0.451 -10.169   0.847  1.00  0.00    -0.200 F 
ATOM     77  C   UNL     1      -0.142  -8.054   1.831  1.00  0.00     0.200 A 
ATOM     78  F   UNL     1       0.189  -5.903   2.717  1.00  0.00    -0.200 F 
ATOM     79  F   UNL     1       0.602  -8.595   2.805  1.00  0.00    -0.200 F 
ENDBRANCH  55  69
BRANCH  56  80
ATOM     80  C   UNL     1      -9.372  -4.966  -6.161  1.00  0.00     0.064 A 
ATOM     81  C   UNL     1     -10.755  -5.097  -5.892  1.00  0.00     0.173 A 
ATOM     82  C   UNL     1      -8.875  -3.660  -6.271  1.00  0.00     0.173 A 
ATOM     83  F   UNL     1     -11.298  -6.319  -5.769  1.00  0.00    -0.203 F 
ATOM     84  C   UNL     1     -11.563  -3.991  -5.620  1.00  0.00     0.198 A 
ATOM     85  C   UNL     1      -9.698  -2.550  -6.028  1.00  0.00     0.198 A 
ATOM     86  F   UNL     1      -7.571  -3.450  -6.491  1.00  0.00    -0.203 F 
ATOM     87  F   UNL     1     -12.831  -4.168  -5.218  1.00  0.00    -0.200 F 
ATOM     88  C   UNL     1     -11.027  -2.719  -5.662  1.00  0.00     0.200 A 
ATOM     89  F   UNL     1      -9.175  -1.315  -6.038  1.00  0.00    -0.200 F 
ATOM     90  F   UNL     1     -11.763  -1.667  -5.273  1.00  0.00    -0.200 F 
ENDBRANCH  56  80
BRANCH  68  91
ATOM     91  C   UNL     1      -2.656  -7.797  -6.693  1.00  0.00     0.064 A 
ATOM     92  C   UNL     1      -2.486  -7.682  -8.078  1.00  0.00     0.173 A 
ATOM     93  C   UNL     1      -1.467  -8.077  -5.967  1.00  0.00     0.173 A 
ATOM     94  F   UNL     1      -3.472  -7.294  -8.891  1.00  0.00    -0.203 F 
ATOM     95  C   UNL     1      -1.254  -7.895  -8.693  1.00  0.00     0.198 A 
ATOM     96  C   UNL     1      -0.226  -8.200  -6.575  1.00  0.00     0.198 A 
ATOM     97  F   UNL     1      -1.443  -8.204  -4.634  1.00  0.00    -0.203 F 
ATOM     98  F   UNL     1      -1.170  -7.829 -10.028  1.00  0.00    -0.200 F 
ATOM     99  C   UNL     1      -0.121  -8.133  -7.943  1.00  0.00     0.200 A 
ATOM    100  F   UNL     1       0.868  -8.360  -5.816  1.00  0.00    -0.200 F 
ATOM    101  F   UNL     1       1.069  -8.273  -8.536  1.00  0.00    -0.200 F 
ENDBRANCH  68  91
ENDBRANCH  42  43
ENDBRANCH  35  37
ENDBRANCH  34  35
ENDBRANCH  33  34
ENDBRANCH   1  33
TORSDOF 15
