REMARK SMILES CC(=O)NS(=O)(=O)c1cc(-c2ccn(C(F)F)c(=O)c2)ccc1C(=O)OCCOC(=O)c1ccc(-c2c3nc(c(-c4c(F)c(F)c(F)c(F)c4F)c4ccc([nH]4)c(-c4c(F)c(F)c(F)c(F)c4F)c4nc(c(-c5c(F)c(F)c(F)c(F)c5F)c5ccc2[nH]5)C=C4)C=C3)cc1
REMARK SMILES IDX 27 1 26 2 24 3 25 4 23 5 8 6 9 7 10 8 22 9 21 10 5 11 6 12
REMARK SMILES IDX 7 13 4 14 1 15 2 16 3 17 11 19 12 20 20 21 13 22 18 23 14 24
REMARK SMILES IDX 19 25 15 26 16 27 17 28 28 29 29 30 30 31 31 32 32 33 33 34
REMARK SMILES IDX 94 35 34 36 93 37 35 38 36 39 37 40 87 41 38 42 92 43 86 44
REMARK SMILES IDX 88 45 39 46 91 47 85 48 84 49 40 51 72 52 52 53 71 54 53 55
REMARK SMILES IDX 56 56 70 57 89 58 54 59 55 60 69 62 90 63 57 64 41 65 42 66
REMARK SMILES IDX 50 67 43 68 44 69 48 70 51 71 45 72 46 73 49 74 47 75 73 76
REMARK SMILES IDX 74 77 82 78 75 79 76 80 80 81 83 82 77 83 78 84 81 85 79 86
REMARK SMILES IDX 58 87 59 88 67 89 60 90 61 91 65 92 68 93 62 94 63 95 66 96
REMARK SMILES IDX 64 97
REMARK H PARENT 4 18 88 50 56 61
REMARK Flexibility Score: inf
ROOT
ATOM      1  C   UNL     1       2.374   1.918  -5.836  1.00  0.00     0.275 C 
ENDROOT
BRANCH   1   2
ATOM      2  O   UNL     1       2.294   1.619  -4.427  1.00  0.00    -0.458 OA
BRANCH   2   3
ATOM      3  C   UNL     1       3.177   2.231  -3.619  1.00  0.00     0.339 C 
ATOM      4  O   UNL     1       4.026   3.038  -3.968  1.00  0.00    -0.246 OA
BRANCH   3   5
ATOM      5  C   UNL     1       2.938   1.932  -2.178  1.00  0.00     0.080 A 
ATOM      6  C   UNL     1       2.407   0.756  -1.632  1.00  0.00     0.103 A 
ATOM      7  C   UNL     1       2.338   0.607  -0.234  1.00  0.00     0.032 A 
ATOM      8  C   UNL     1       2.657   1.664   0.622  1.00  0.00    -0.017 A 
ATOM      9  C   UNL     1       3.326   2.963  -1.293  1.00  0.00     0.018 A 
ATOM     10  C   UNL     1       3.149   2.849   0.087  1.00  0.00     0.010 A 
BRANCH   6  11
ATOM     11  S   UNL     1       1.736  -0.527  -2.653  1.00  0.00     0.264 S 
ATOM     12  O   UNL     1       2.831  -1.073  -3.425  1.00  0.00    -0.201 OA
ATOM     13  O   UNL     1       0.517  -0.037  -3.251  1.00  0.00    -0.201 OA
BRANCH  11  14
ATOM     14  N   UNL     1       1.295  -1.747  -1.596  1.00  0.00    -0.249 N 
ATOM     15  C   UNL     1      -0.694  -0.745  -0.442  1.00  0.00     0.115 C 
ATOM     16  C   UNL     1      -0.004  -1.925  -1.077  1.00  0.00     0.230 C 
ATOM     17  O   UNL     1      -0.446  -3.061  -0.973  1.00  0.00    -0.274 OA
ATOM     18  H   UNL     1       1.991  -2.385  -1.317  1.00  0.00     0.183 HD
ENDBRANCH  11  14
ENDBRANCH   6  11
BRANCH   8  19
ATOM     19  C   UNL     1       2.366   1.548   2.058  1.00  0.00    -0.011 A 
ATOM     20  C   UNL     1       1.132   2.055   2.627  1.00  0.00     0.027 A 
ATOM     21  C   UNL     1       3.251   0.924   2.853  1.00  0.00     0.080 A 
ATOM     22  C   UNL     1       0.877   1.911   3.932  1.00  0.00     0.095 A 
ATOM     23  C   UNL     1       2.980   0.758   4.309  1.00  0.00     0.255 A 
ATOM     24  N   UNL     1       1.779   1.278   4.766  1.00  0.00    -0.258 N 
ATOM     25  O   UNL     1       3.817   0.180   4.994  1.00  0.00    -0.269 OA
BRANCH  24  26
ATOM     26  C   UNL     1       1.499   1.141   6.173  1.00  0.00     0.451 C 
ATOM     27  F   UNL     1       1.469  -0.163   6.538  1.00  0.00    -0.185 F 
ATOM     28  F   UNL     1       2.442   1.767   6.917  1.00  0.00    -0.185 F 
ENDBRANCH  24  26
ENDBRANCH   8  19
ENDBRANCH   3   5
ENDBRANCH   2   3
ENDBRANCH   1   2
BRANCH   1  29
ATOM     29  C   UNL     1       1.180   2.774  -6.246  1.00  0.00     0.275 C 
BRANCH  29  30
ATOM     30  O   UNL     1       1.259   4.035  -5.557  1.00  0.00    -0.458 OA
BRANCH  30  31
ATOM     31  C   UNL     1       0.136   4.432  -4.920  1.00  0.00     0.338 C 
ATOM     32  O   UNL     1      -0.959   3.899  -4.919  1.00  0.00    -0.246 OA
BRANCH  31  33
ATOM     33  C   UNL     1       0.420   5.669  -4.175  1.00  0.00     0.060 A 
ATOM     34  C   UNL     1       1.385   5.666  -3.168  1.00  0.00     0.016 A 
ATOM     35  C   UNL     1      -0.355   6.805  -4.405  1.00  0.00     0.016 A 
ATOM     36  C   UNL     1       1.535   6.780  -2.344  1.00  0.00     0.010 A 
ATOM     37  C   UNL     1      -0.151   7.948  -3.625  1.00  0.00     0.010 A 
ATOM     38  C   UNL     1       0.771   7.938  -2.562  1.00  0.00    -0.014 A 
BRANCH  38  39
ATOM     39  C   UNL     1       0.885   9.110  -1.648  1.00  0.00     0.031 A 
ATOM     40  C   UNL     1      -0.317   9.580  -0.870  1.00  0.00     0.074 A 
ATOM     41  C   UNL     1       2.060   9.751  -1.490  1.00  0.00     0.049 A 
ATOM     42  N   UNL     1      -0.474  10.670  -0.161  1.00  0.00    -0.248 NA
ATOM     43  C   UNL     1      -1.505   8.713  -0.903  1.00  0.00     0.031 C 
ATOM     44  C   UNL     1       3.318   9.390  -2.142  1.00  0.00     0.029 A 
ATOM     45  N   UNL     1       2.387  10.841  -0.719  1.00  0.00    -0.354 N 
ATOM     46  C   UNL     1      -1.793  10.653   0.276  1.00  0.00     0.074 A 
ATOM     47  C   UNL     1      -2.391   9.438  -0.234  1.00  0.00     0.031 C 
ATOM     48  C   UNL     1       4.288  10.210  -1.711  1.00  0.00     0.029 A 
ATOM     49  C   UNL     1       3.708  11.207  -0.815  1.00  0.00     0.049 A 
ATOM     50  H   UNL     1       1.737  11.315  -0.152  1.00  0.00     0.167 HD
ATOM     51  C   UNL     1      -2.446  11.570   1.029  1.00  0.00     0.037 A 
ATOM     52  C   UNL     1       4.372  12.245  -0.273  1.00  0.00     0.037 A 
ATOM     53  C   UNL     1      -1.838  12.745   1.597  1.00  0.00     0.049 A 
ATOM     54  C   UNL     1       3.628  13.245   0.568  1.00  0.00     0.074 A 
ATOM     55  C   UNL     1      -2.420  13.725   2.384  1.00  0.00     0.029 A 
ATOM     56  N   UNL     1      -0.502  13.087   1.457  1.00  0.00    -0.354 N 
ATOM     57  N   UNL     1       2.364  13.258   0.910  1.00  0.00    -0.248 NA
ATOM     58  C   UNL     1       4.400  14.390   1.073  1.00  0.00     0.031 C 
ATOM     59  C   UNL     1      -1.439  14.670   2.704  1.00  0.00     0.029 A 
ATOM     60  C   UNL     1      -0.241  14.262   2.142  1.00  0.00     0.049 A 
ATOM     61  H   UNL     1       0.163  12.570   0.946  1.00  0.00     0.167 HD
ATOM     62  C   UNL     1       2.186  14.409   1.664  1.00  0.00     0.074 A 
ATOM     63  C   UNL     1       3.478  15.056   1.756  1.00  0.00     0.031 C 
ATOM     64  C   UNL     1       1.049  14.895   2.219  1.00  0.00     0.037 A 
BRANCH  51  65
ATOM     65  C   UNL     1      -3.913  11.360   1.260  1.00  0.00     0.064 A 
ATOM     66  C   UNL     1      -4.391  10.399   2.161  1.00  0.00     0.173 A 
ATOM     67  C   UNL     1      -4.851  12.165   0.595  1.00  0.00     0.173 A 
ATOM     68  F   UNL     1      -3.535   9.594   2.808  1.00  0.00    -0.203 F 
ATOM     69  C   UNL     1      -5.759  10.239   2.375  1.00  0.00     0.198 A 
ATOM     70  C   UNL     1      -6.215  12.018   0.829  1.00  0.00     0.198 A 
ATOM     71  F   UNL     1      -4.442  13.101  -0.274  1.00  0.00    -0.203 F 
ATOM     72  F   UNL     1      -6.197   9.289   3.213  1.00  0.00    -0.200 F 
ATOM     73  C   UNL     1      -6.668  11.053   1.715  1.00  0.00     0.200 A 
ATOM     74  F   UNL     1      -7.092  12.811   0.197  1.00  0.00    -0.200 F 
ATOM     75  F   UNL     1      -7.983  10.901   1.927  1.00  0.00    -0.200 F 
ENDBRANCH  51  65
BRANCH  52  76
ATOM     76  C   UNL     1       5.824  12.411  -0.540  1.00  0.00     0.064 A 
ATOM     77  C   UNL     1       6.769  12.202   0.473  1.00  0.00     0.173 A 
ATOM     78  C   UNL     1       6.295  12.770  -1.811  1.00  0.00     0.173 A 
ATOM     79  F   UNL     1       6.364  11.886   1.712  1.00  0.00    -0.203 F 
ATOM     80  C   UNL     1       8.132  12.349   0.225  1.00  0.00     0.198 A 
ATOM     81  C   UNL     1       7.659  12.890  -2.065  1.00  0.00     0.198 A 
ATOM     82  F   UNL     1       5.428  12.985  -2.812  1.00  0.00    -0.203 F 
ATOM     83  F   UNL     1       9.014  12.175   1.218  1.00  0.00    -0.200 F 
ATOM     84  C   UNL     1       8.576  12.683  -1.046  1.00  0.00     0.200 A 
ATOM     85  F   UNL     1       8.084  13.201  -3.297  1.00  0.00    -0.200 F 
ATOM     86  F   UNL     1       9.888  12.812  -1.288  1.00  0.00    -0.200 F 
ENDBRANCH  52  76
BRANCH  64  87
ATOM     87  C   UNL     1       1.156  16.182   2.978  1.00  0.00     0.064 A 
ATOM     88  C   UNL     1       1.266  17.412   2.313  1.00  0.00     0.173 A 
ATOM     89  C   UNL     1       1.120  16.190   4.380  1.00  0.00     0.173 A 
ATOM     90  F   UNL     1       1.320  17.451   0.973  1.00  0.00    -0.203 F 
ATOM     91  C   UNL     1       1.355  18.604   3.026  1.00  0.00     0.198 A 
ATOM     92  C   UNL     1       1.190  17.385   5.089  1.00  0.00     0.198 A 
ATOM     93  F   UNL     1       1.013  15.038   5.059  1.00  0.00    -0.203 F 
ATOM     94  F   UNL     1       1.496  19.765   2.373  1.00  0.00    -0.200 F 
ATOM     95  C   UNL     1       1.312  18.590   4.413  1.00  0.00     0.200 A 
ATOM     96  F   UNL     1       1.143  17.372   6.429  1.00  0.00    -0.200 F 
ATOM     97  F   UNL     1       1.398  19.738   5.098  1.00  0.00    -0.200 F 
ENDBRANCH  64  87
ENDBRANCH  38  39
ENDBRANCH  31  33
ENDBRANCH  30  31
ENDBRANCH  29  30
ENDBRANCH   1  29
TORSDOF 15
