REMARK SMILES O=C(NC[C@@H]1CCCO1)C(=O)N/N=C/c1ccc(C(=O)OCCOC(=O)c2ccc(-c3c4nc(c(-c5c(F)c(F)c(F)c(F)c5F)c5ccc([nH]5)c(-c5c(F)c(F)c(F)c(F)c5F)c5nc(c(-c6c(F)c(F)c(F)c(F)c6F)c6ccc3[nH]6)C=C5)C=C4)cc2)cc1
REMARK SMILES IDX 21 1 19 2 20 3 18 4 15 5 16 6 91 7 17 8 90 9 14 10 13 11
REMARK SMILES IDX 12 12 10 13 11 14 2 16 1 17 3 18 4 20 5 21 6 22 9 23 7 24
REMARK SMILES IDX 8 25 22 26 23 27 24 28 25 29 26 30 27 31 28 32 89 33 29 34
REMARK SMILES IDX 88 35 30 36 31 37 32 38 82 39 33 40 87 41 81 42 83 43 34 44
REMARK SMILES IDX 86 45 80 46 79 47 35 49 67 50 47 51 66 52 48 53 51 54 65 55
REMARK SMILES IDX 84 56 49 57 50 58 64 60 85 61 52 62 36 63 37 64 45 65 38 66
REMARK SMILES IDX 39 67 43 68 46 69 40 70 41 71 44 72 42 73 68 74 69 75 77 76
REMARK SMILES IDX 70 77 71 78 75 79 78 80 72 81 73 82 76 83 74 84 53 85 54 86
REMARK SMILES IDX 62 87 55 88 56 89 60 90 63 91 57 92 58 93 61 94 59 95
REMARK H PARENT 12 15 3 19 83 48 51 59
REMARK Flexibility Score: inf
ROOT
ATOM      1  O   UNL     1       8.422  -3.705   4.398  1.00  0.00    -0.458 OA
ENDROOT
BRANCH   1   2
ATOM      2  C   UNL     1       8.052  -4.361   3.273  1.00  0.00     0.338 C 
ATOM      3  O   UNL     1       8.177  -5.558   3.052  1.00  0.00    -0.246 OA
BRANCH   2   4
ATOM      4  C   UNL     1       7.408  -3.473   2.281  1.00  0.00     0.060 A 
ATOM      5  C   UNL     1       6.224  -2.076   0.167  1.00  0.00    -0.005 A 
ATOM      6  C   UNL     1       5.548  -3.141   0.747  1.00  0.00     0.010 A 
ATOM      7  C   UNL     1       7.488  -1.694   0.643  1.00  0.00     0.010 A 
ATOM      8  C   UNL     1       6.137  -3.820   1.805  1.00  0.00     0.016 A 
ATOM      9  C   UNL     1       8.091  -2.405   1.695  1.00  0.00     0.016 A 
BRANCH   5  10
ATOM     10  C   UNL     1       5.437  -1.257  -0.775  1.00  0.00     0.141 C 
ATOM     11  N   UNL     1       5.665   0.012  -0.863  1.00  0.00    -0.180 NA
BRANCH  11  12
ATOM     12  N   UNL     1       4.710   0.767  -1.478  1.00  0.00    -0.239 N 
ATOM     13  C   UNL     1       3.458   1.068  -0.949  1.00  0.00     0.329 C 
ATOM     14  O   UNL     1       2.905   2.135  -1.211  1.00  0.00    -0.262 OA
ATOM     15  H   UNL     1       4.924   1.128  -2.368  1.00  0.00     0.194 HD
BRANCH  13  16
ATOM     16  C   UNL     1       2.677   0.042  -0.119  1.00  0.00     0.311 C 
ATOM     17  O   UNL     1       1.912  -0.731  -0.685  1.00  0.00    -0.264 OA
ATOM     18  N   UNL     1       2.712   0.129   1.264  1.00  0.00    -0.345 N 
ATOM     19  H   UNL     1       1.930   0.471   1.755  1.00  0.00     0.164 HD
BRANCH  18  20
ATOM     20  C   UNL     1       3.893  -0.283   1.986  1.00  0.00     0.148 C 
BRANCH  20  21
ATOM     21  C   UNL     1       4.221   0.433   3.287  1.00  0.00     0.137 C 
ATOM     22  C   UNL     1       4.840   1.808   3.054  1.00  0.00     0.036 C 
ATOM     23  O   UNL     1       5.223  -0.365   3.966  1.00  0.00    -0.376 OA
ATOM     24  C   UNL     1       5.991   1.836   4.031  1.00  0.00     0.031 C 
ATOM     25  C   UNL     1       6.435   0.394   4.028  1.00  0.00     0.160 C 
ENDBRANCH  20  21
ENDBRANCH  18  20
ENDBRANCH  13  16
ENDBRANCH  11  12
ENDBRANCH   5  10
ENDBRANCH   2   4
ENDBRANCH   1   2
BRANCH   1  26
ATOM     26  C   UNL     1       9.118  -4.516   5.375  1.00  0.00     0.275 C 
BRANCH  26  27
ATOM     27  C   UNL     1       8.204  -5.037   6.488  1.00  0.00     0.275 C 
BRANCH  27  28
ATOM     28  O   UNL     1       7.208  -5.928   5.956  1.00  0.00    -0.458 OA
BRANCH  28  29
ATOM     29  C   UNL     1       5.926  -5.579   6.206  1.00  0.00     0.338 C 
ATOM     30  O   UNL     1       5.524  -4.632   6.859  1.00  0.00    -0.246 OA
BRANCH  29  31
ATOM     31  C   UNL     1       5.001  -6.475   5.493  1.00  0.00     0.060 A 
ATOM     32  C   UNL     1       4.990  -6.427   4.108  1.00  0.00     0.016 A 
ATOM     33  C   UNL     1       4.008  -7.178   6.167  1.00  0.00     0.016 A 
ATOM     34  C   UNL     1       3.901  -6.914   3.393  1.00  0.00     0.010 A 
ATOM     35  C   UNL     1       2.995  -7.813   5.434  1.00  0.00     0.010 A 
ATOM     36  C   UNL     1       2.890  -7.638   4.040  1.00  0.00    -0.014 A 
BRANCH  36  37
ATOM     37  C   UNL     1       1.726  -8.172   3.265  1.00  0.00     0.031 A 
ATOM     38  C   UNL     1       0.312  -7.852   3.688  1.00  0.00     0.074 A 
ATOM     39  C   UNL     1       1.923  -8.924   2.161  1.00  0.00     0.049 A 
ATOM     40  N   UNL     1      -0.819  -8.363   3.264  1.00  0.00    -0.248 NA
ATOM     41  C   UNL     1       0.145  -6.834   4.737  1.00  0.00     0.031 C 
ATOM     42  C   UNL     1       3.226  -9.280   1.596  1.00  0.00     0.029 A 
ATOM     43  N   UNL     1       1.026  -9.517   1.304  1.00  0.00    -0.354 N 
ATOM     44  C   UNL     1      -1.817  -7.779   4.036  1.00  0.00     0.074 A 
ATOM     45  C   UNL     1      -1.161  -6.878   4.959  1.00  0.00     0.031 C 
ATOM     46  C   UNL     1       3.047  -9.974   0.464  1.00  0.00     0.029 A 
ATOM     47  C   UNL     1       1.622 -10.217   0.281  1.00  0.00     0.049 A 
ATOM     48  H   UNL     1       0.050  -9.448   1.413  1.00  0.00     0.167 HD
ATOM     49  C   UNL     1      -3.158  -7.977   3.980  1.00  0.00     0.037 A 
ATOM     50  C   UNL     1       1.095 -11.012  -0.669  1.00  0.00     0.037 A 
ATOM     51  C   UNL     1      -3.814  -8.827   3.019  1.00  0.00     0.049 A 
ATOM     52  C   UNL     1      -0.389 -11.245  -0.687  1.00  0.00     0.074 A 
ATOM     53  C   UNL     1      -5.167  -9.085   2.874  1.00  0.00     0.029 A 
ATOM     54  N   UNL     1      -3.164  -9.542   2.023  1.00  0.00    -0.354 N 
ATOM     55  N   UNL     1      -1.314 -10.740   0.091  1.00  0.00    -0.248 NA
ATOM     56  C   UNL     1      -0.898 -12.177  -1.702  1.00  0.00     0.031 C 
ATOM     57  C   UNL     1      -5.332  -9.987   1.817  1.00  0.00     0.029 A 
ATOM     58  C   UNL     1      -4.087 -10.252   1.271  1.00  0.00     0.049 A 
ATOM     59  H   UNL     1      -2.192  -9.546   1.873  1.00  0.00     0.167 HD
ATOM     60  C   UNL     1      -2.515 -11.280  -0.347  1.00  0.00     0.074 A 
ATOM     61  C   UNL     1      -2.203 -12.134  -1.475  1.00  0.00     0.031 C 
ATOM     62  C   UNL     1      -3.763 -11.092   0.146  1.00  0.00     0.037 A 
BRANCH  49  63
ATOM     63  C   UNL     1      -4.011  -7.289   5.009  1.00  0.00     0.064 A 
ATOM     64  C   UNL     1      -4.238  -5.906   4.987  1.00  0.00     0.173 A 
ATOM     65  C   UNL     1      -4.643  -8.040   6.014  1.00  0.00     0.173 A 
ATOM     66  F   UNL     1      -3.649  -5.140   4.057  1.00  0.00    -0.203 F 
ATOM     67  C   UNL     1      -5.043  -5.296   5.948  1.00  0.00     0.198 A 
ATOM     68  C   UNL     1      -5.471  -7.431   6.954  1.00  0.00     0.198 A 
ATOM     69  F   UNL     1      -4.468  -9.368   6.078  1.00  0.00    -0.203 F 
ATOM     70  F   UNL     1      -5.207  -3.966   5.935  1.00  0.00    -0.200 F 
ATOM     71  C   UNL     1      -5.664  -6.059   6.925  1.00  0.00     0.200 A 
ATOM     72  F   UNL     1      -6.081  -8.173   7.889  1.00  0.00    -0.200 F 
ATOM     73  F   UNL     1      -6.443  -5.471   7.844  1.00  0.00    -0.200 F 
ENDBRANCH  49  63
BRANCH  50  74
ATOM     74  C   UNL     1       1.987 -11.690  -1.649  1.00  0.00     0.064 A 
ATOM     75  C   UNL     1       1.949 -11.358  -3.010  1.00  0.00     0.173 A 
ATOM     76  C   UNL     1       2.897 -12.679  -1.244  1.00  0.00     0.173 A 
ATOM     77  F   UNL     1       1.078 -10.439  -3.451  1.00  0.00    -0.203 F 
ATOM     78  C   UNL     1       2.779 -11.998  -3.929  1.00  0.00     0.198 A 
ATOM     79  C   UNL     1       3.750 -13.292  -2.158  1.00  0.00     0.198 A 
ATOM     80  F   UNL     1       2.973 -13.036   0.046  1.00  0.00    -0.203 F 
ATOM     81  F   UNL     1       2.691 -11.694  -5.231  1.00  0.00    -0.200 F 
ATOM     82  C   UNL     1       3.685 -12.957  -3.502  1.00  0.00     0.200 A 
ATOM     83  F   UNL     1       4.636 -14.204  -1.737  1.00  0.00    -0.200 F 
ATOM     84  F   UNL     1       4.490 -13.563  -4.385  1.00  0.00    -0.200 F 
ENDBRANCH  50  74
BRANCH  62  85
ATOM     85  C   UNL     1      -4.886 -11.793  -0.557  1.00  0.00     0.064 A 
ATOM     86  C   UNL     1      -5.072 -13.179  -0.447  1.00  0.00     0.173 A 
ATOM     87  C   UNL     1      -5.800 -11.066  -1.334  1.00  0.00     0.173 A 
ATOM     88  F   UNL     1      -4.213 -13.921   0.269  1.00  0.00    -0.203 F 
ATOM     89  C   UNL     1      -6.116 -13.815  -1.113  1.00  0.00     0.198 A 
ATOM     90  C   UNL     1      -6.860 -11.701  -1.974  1.00  0.00     0.198 A 
ATOM     91  F   UNL     1      -5.668  -9.738  -1.467  1.00  0.00    -0.203 F 
ATOM     92  F   UNL     1      -6.244 -15.147  -1.036  1.00  0.00    -0.200 F 
ATOM     93  C   UNL     1      -7.012 -13.075  -1.870  1.00  0.00     0.200 A 
ATOM     94  F   UNL     1      -7.731 -10.984  -2.697  1.00  0.00    -0.200 F 
ATOM     95  F   UNL     1      -8.018 -13.689  -2.508  1.00  0.00    -0.200 F 
ENDBRANCH  62  85
ENDBRANCH  36  37
ENDBRANCH  29  31
ENDBRANCH  28  29
ENDBRANCH  27  28
ENDBRANCH  26  27
ENDBRANCH   1  26
TORSDOF 16
