REMARK SMILES CC[C@@](C)(NC(=O)N(C)CCO)C(=O)OCCOC(=O)c1ccc(-c2c3nc(c(-c4c(F)c(F)c(F)c(F)c4F)c4ccc([nH]4)c(-c4c(F)c(F)c(F)c(F)c4F)c4nc(c(-c5c(F)c(F)c(F)c(F)c5F)c5ccc2[nH]5)C=C4)C=C3)cc1
REMARK SMILES IDX 15 1 13 2 14 3 3 4 4 5 2 6 1 7 5 8 6 9 7 11 8 12 9 13 10 14
REMARK SMILES IDX 11 15 12 16 16 18 17 19 18 20 19 21 20 22 21 23 22 24 83 25
REMARK SMILES IDX 23 26 82 27 24 28 25 29 26 30 76 31 27 32 81 33 75 34 77 35
REMARK SMILES IDX 28 36 80 37 74 38 73 39 29 41 61 42 41 43 60 44 42 45 45 46
REMARK SMILES IDX 59 47 78 48 43 49 44 50 58 52 79 53 46 54 30 55 31 56 39 57
REMARK SMILES IDX 32 58 33 59 37 60 40 61 34 62 35 63 38 64 36 65 62 66 63 67
REMARK SMILES IDX 71 68 64 69 65 70 69 71 72 72 66 73 67 74 70 75 68 76 47 77
REMARK SMILES IDX 48 78 56 79 49 80 50 81 54 82 57 83 51 84 52 85 55 86 53 87
REMARK H PARENT 5 10 12 17 77 40 45 51
REMARK Flexibility Score: inf
ROOT
ATOM      1  O   UNL     1       3.564   2.364  -1.627  1.00  0.00    -0.460 OA
ENDROOT
BRANCH   1   2
ATOM      2  C   UNL     1       2.566   1.599  -1.118  1.00  0.00     0.331 C 
ATOM      3  O   UNL     1       2.760   0.467  -0.694  1.00  0.00    -0.249 OA
BRANCH   2   4
ATOM      4  C   UNL     1       1.164   2.285  -1.214  1.00  0.00     0.136 C 
ATOM      5  C   UNL     1       0.760   2.467  -2.682  1.00  0.00     0.047 C 
BRANCH   4   6
ATOM      6  C   UNL     1       0.091   1.319  -0.552  1.00  0.00     0.037 C 
ATOM      7  C   UNL     1       0.010  -0.141  -0.986  1.00  0.00     0.007 C 
ENDBRANCH   4   6
BRANCH   4   8
ATOM      8  N   UNL     1       0.978   3.569  -0.433  1.00  0.00    -0.322 N 
ATOM      9  C   UNL     1       1.371   4.816  -0.182  1.00  0.00     0.318 C 
ATOM     10  H   UNL     1       0.213   3.406   0.166  1.00  0.00     0.166 HD
ATOM     11  O   UNL     1       0.610   5.407   0.596  1.00  0.00    -0.249 OA
BRANCH   9  12
ATOM     12  N   UNL     1       2.500   5.417  -0.621  1.00  0.00    -0.326 N 
ATOM     13  C   UNL     1       3.279   5.078  -1.787  1.00  0.00     0.148 C 
BRANCH  12  14
ATOM     14  C   UNL     1       3.047   6.519   0.205  1.00  0.00     0.149 C 
BRANCH  14  15
ATOM     15  C   UNL     1       3.168   7.866  -0.520  1.00  0.00     0.177 C 
BRANCH  15  16
ATOM     16  O   UNL     1       1.912   8.329  -1.005  1.00  0.00    -0.395 OA
ATOM     17  H   UNL     1       1.557   7.691  -1.645  1.00  0.00     0.210 HD
ENDBRANCH  15  16
ENDBRANCH  14  15
ENDBRANCH  12  14
ENDBRANCH   9  12
ENDBRANCH   4   8
ENDBRANCH   2   4
ENDBRANCH   1   2
BRANCH   1  18
ATOM     18  C   UNL     1       4.904   1.827  -1.556  1.00  0.00     0.274 C 
BRANCH  18  19
ATOM     19  C   UNL     1       5.587   2.252  -0.255  1.00  0.00     0.275 C 
BRANCH  19  20
ATOM     20  O   UNL     1       4.916   1.622   0.846  1.00  0.00    -0.458 OA
BRANCH  20  21
ATOM     21  C   UNL     1       4.670   2.382   1.934  1.00  0.00     0.338 C 
ATOM     22  O   UNL     1       5.048   3.521   2.157  1.00  0.00    -0.246 OA
BRANCH  21  23
ATOM     23  C   UNL     1       3.838   1.580   2.844  1.00  0.00     0.060 A 
ATOM     24  C   UNL     1       2.547   1.228   2.447  1.00  0.00     0.016 A 
ATOM     25  C   UNL     1       4.325   1.177   4.084  1.00  0.00     0.016 A 
ATOM     26  C   UNL     1       1.741   0.444   3.266  1.00  0.00     0.010 A 
ATOM     27  C   UNL     1       3.523   0.376   4.905  1.00  0.00     0.010 A 
ATOM     28  C   UNL     1       2.225   0.007   4.502  1.00  0.00    -0.014 A 
BRANCH  28  29
ATOM     29  C   UNL     1       1.337  -0.754   5.413  1.00  0.00     0.031 A 
ATOM     30  C   UNL     1       0.805  -0.080   6.643  1.00  0.00     0.074 A 
ATOM     31  C   UNL     1       0.982  -2.022   5.132  1.00  0.00     0.049 A 
ATOM     32  N   UNL     1       0.134  -0.585   7.646  1.00  0.00    -0.248 NA
ATOM     33  C   UNL     1       1.070   1.363   6.760  1.00  0.00     0.031 C 
ATOM     34  C   UNL     1       1.367  -2.762   3.931  1.00  0.00     0.029 A 
ATOM     35  N   UNL     1       0.211  -2.911   5.840  1.00  0.00    -0.354 N 
ATOM     36  C   UNL     1      -0.064   0.465   8.532  1.00  0.00     0.074 A 
ATOM     37  C   UNL     1       0.556   1.636   7.949  1.00  0.00     0.031 C 
ATOM     38  C   UNL     1       0.824  -3.991   3.982  1.00  0.00     0.029 A 
ATOM     39  C   UNL     1       0.102  -4.142   5.243  1.00  0.00     0.049 A 
ATOM     40  H   UNL     1      -0.221  -2.686   6.696  1.00  0.00     0.167 HD
ATOM     41  C   UNL     1      -0.700   0.448   9.727  1.00  0.00     0.037 A 
ATOM     42  C   UNL     1      -0.488  -5.271   5.681  1.00  0.00     0.037 A 
ATOM     43  C   UNL     1      -1.345  -0.711  10.285  1.00  0.00     0.049 A 
ATOM     44  C   UNL     1      -1.160  -5.273   7.029  1.00  0.00     0.074 A 
ATOM     45  C   UNL     1      -2.004  -0.837  11.495  1.00  0.00     0.029 A 
ATOM     46  N   UNL     1      -1.421  -1.946   9.657  1.00  0.00    -0.354 N 
ATOM     47  N   UNL     1      -1.296  -4.292   7.888  1.00  0.00    -0.248 NA
ATOM     48  C   UNL     1      -1.752  -6.543   7.472  1.00  0.00     0.031 C 
ATOM     49  C   UNL     1      -2.453  -2.158  11.613  1.00  0.00     0.029 A 
ATOM     50  C   UNL     1      -2.112  -2.842  10.457  1.00  0.00     0.049 A 
ATOM     51  H   UNL     1      -1.040  -2.156   8.774  1.00  0.00     0.167 HD
ATOM     52  C   UNL     1      -2.010  -4.816   8.957  1.00  0.00     0.074 A 
ATOM     53  C   UNL     1      -2.291  -6.200   8.633  1.00  0.00     0.031 C 
ATOM     54  C   UNL     1      -2.397  -4.209  10.106  1.00  0.00     0.037 A 
BRANCH  41  55
ATOM     55  C   UNL     1      -0.683   1.714  10.531  1.00  0.00     0.064 A 
ATOM     56  C   UNL     1      -1.448   2.833  10.172  1.00  0.00     0.173 A 
ATOM     57  C   UNL     1       0.113   1.804  11.683  1.00  0.00     0.173 A 
ATOM     58  F   UNL     1      -2.210   2.805   9.069  1.00  0.00    -0.203 F 
ATOM     59  C   UNL     1      -1.395   4.006  10.923  1.00  0.00     0.198 A 
ATOM     60  C   UNL     1       0.142   2.967  12.446  1.00  0.00     0.198 A 
ATOM     61  F   UNL     1       0.864   0.761  12.069  1.00  0.00    -0.203 F 
ATOM     62  F   UNL     1      -2.095   5.080  10.534  1.00  0.00    -0.200 F 
ATOM     63  C   UNL     1      -0.605   4.070  12.061  1.00  0.00     0.200 A 
ATOM     64  F   UNL     1       0.900   3.024  13.550  1.00  0.00    -0.200 F 
ATOM     65  F   UNL     1      -0.556   5.198  12.782  1.00  0.00    -0.200 F 
ENDBRANCH  41  55
BRANCH  42  66
ATOM     66  C   UNL     1      -0.456  -6.503   4.849  1.00  0.00     0.064 A 
ATOM     67  C   UNL     1      -1.628  -7.021   4.280  1.00  0.00     0.173 A 
ATOM     68  C   UNL     1       0.740  -7.201   4.623  1.00  0.00     0.173 A 
ATOM     69  F   UNL     1      -2.802  -6.408   4.491  1.00  0.00    -0.203 F 
ATOM     70  C   UNL     1      -1.607  -8.196   3.531  1.00  0.00     0.198 A 
ATOM     71  C   UNL     1       0.765  -8.359   3.850  1.00  0.00     0.198 A 
ATOM     72  F   UNL     1       1.889  -6.752   5.150  1.00  0.00    -0.203 F 
ATOM     73  F   UNL     1      -2.750  -8.694   3.039  1.00  0.00    -0.200 F 
ATOM     74  C   UNL     1      -0.410  -8.861   3.311  1.00  0.00     0.200 A 
ATOM     75  F   UNL     1       1.925  -8.993   3.632  1.00  0.00    -0.200 F 
ATOM     76  F   UNL     1      -0.391  -9.989   2.588  1.00  0.00    -0.200 F 
ENDBRANCH  42  66
BRANCH  54  77
ATOM     77  C   UNL     1      -3.211  -5.022  11.070  1.00  0.00     0.064 A 
ATOM     78  C   UNL     1      -2.639  -6.042  11.843  1.00  0.00     0.173 A 
ATOM     79  C   UNL     1      -4.578  -4.755  11.239  1.00  0.00     0.173 A 
ATOM     80  F   UNL     1      -1.339  -6.345  11.705  1.00  0.00    -0.203 F 
ATOM     81  C   UNL     1      -3.412  -6.785  12.730  1.00  0.00     0.198 A 
ATOM     82  C   UNL     1      -5.343  -5.482  12.147  1.00  0.00     0.198 A 
ATOM     83  F   UNL     1      -5.171  -3.784  10.528  1.00  0.00    -0.203 F 
ATOM     84  F   UNL     1      -2.856  -7.789  13.423  1.00  0.00    -0.200 F 
ATOM     85  C   UNL     1      -4.761  -6.502  12.886  1.00  0.00     0.200 A 
ATOM     86  F   UNL     1      -6.643  -5.199  12.304  1.00  0.00    -0.200 F 
ATOM     87  F   UNL     1      -5.504  -7.218  13.741  1.00  0.00    -0.200 F 
ENDBRANCH  54  77
ENDBRANCH  28  29
ENDBRANCH  21  23
ENDBRANCH  20  21
ENDBRANCH  19  20
ENDBRANCH  18  19
ENDBRANCH   1  18
TORSDOF 17
