REMARK SMILES O=C(OCCOC(=O)[C@@H]1CSCN1C(=O)CN1C(=O)CNC1=O)c1ccc(-c2c3nc(c(-c4c(F)c(F)c(F)c(F)c4F)c4ccc([nH]4)c(-c4c(F)c(F)c(F)c(F)c4F)c4nc(c(-c5c(F)c(F)c(F)c(F)c5F)c5ccc2[nH]5)C=C4)C=C3)cc1
REMARK SMILES IDX 5 1 4 2 3 3 2 4 1 5 24 6 25 7 86 8 26 9 85 10 27 11 28 12
REMARK SMILES IDX 29 13 79 14 30 15 84 16 78 17 80 18 31 19 83 20 77 21 76 22
REMARK SMILES IDX 32 24 64 25 44 26 63 27 45 28 48 29 62 30 81 31 46 32 47 33
REMARK SMILES IDX 61 35 82 36 49 37 33 38 34 39 42 40 35 41 36 42 40 43 43 44
REMARK SMILES IDX 37 45 38 46 41 47 39 48 65 49 66 50 74 51 67 52 68 53 72 54
REMARK SMILES IDX 75 55 69 56 70 57 73 58 71 59 50 60 51 61 59 62 52 63 53 64
REMARK SMILES IDX 57 65 60 66 54 67 55 68 58 69 56 70 6 71 7 72 8 73 9 74
REMARK SMILES IDX 10 75 13 76 11 77 12 78 14 79 15 80 16 81 17 82 18 83 22 84
REMARK SMILES IDX 19 85 20 86 21 87 23 88
REMARK H PARENT 80 23 48 34 21 89
REMARK Flexibility Score: inf
ROOT
ATOM      1  C   UNL     1      -1.033   1.036   1.085  1.00  0.00     0.274 C 
ENDROOT
BRANCH   1   2
ATOM      2  C   UNL     1      -1.699   0.950   2.457  1.00  0.00     0.275 C 
BRANCH   2   3
ATOM      3  O   UNL     1      -1.410   2.028   3.364  1.00  0.00    -0.458 OA
BRANCH   3   4
ATOM      4  C   UNL     1      -0.361   2.230   4.192  1.00  0.00     0.338 C 
ATOM      5  O   UNL     1      -0.318   3.252   4.873  1.00  0.00    -0.246 OA
BRANCH   4   6
ATOM      6  C   UNL     1       0.797   1.292   4.273  1.00  0.00     0.060 A 
ATOM      7  C   UNL     1       0.714  -0.098   4.179  1.00  0.00     0.016 A 
ATOM      8  C   UNL     1       2.052   1.859   4.547  1.00  0.00     0.016 A 
ATOM      9  C   UNL     1       1.864  -0.894   4.239  1.00  0.00     0.010 A 
ATOM     10  C   UNL     1       3.206   1.069   4.619  1.00  0.00     0.010 A 
ATOM     11  C   UNL     1       3.120  -0.317   4.451  1.00  0.00    -0.014 A 
BRANCH  11  12
ATOM     12  C   UNL     1       4.308  -1.188   4.609  1.00  0.00     0.031 A 
ATOM     13  C   UNL     1       4.831  -1.458   5.987  1.00  0.00     0.074 A 
ATOM     14  C   UNL     1       4.884  -1.768   3.539  1.00  0.00     0.049 A 
ATOM     15  N   UNL     1       5.746  -2.310   6.372  1.00  0.00    -0.248 NA
ATOM     16  C   UNL     1       4.231  -0.680   7.083  1.00  0.00     0.031 C 
ATOM     17  C   UNL     1       4.457  -1.595   2.153  1.00  0.00     0.029 A 
ATOM     18  N   UNL     1       5.954  -2.622   3.448  1.00  0.00    -0.354 N 
ATOM     19  C   UNL     1       5.791  -2.208   7.754  1.00  0.00     0.074 A 
ATOM     20  C   UNL     1       4.883  -1.148   8.135  1.00  0.00     0.031 C 
ATOM     21  C   UNL     1       5.277  -2.285   1.344  1.00  0.00     0.029 A 
ATOM     22  C   UNL     1       6.268  -2.979   2.158  1.00  0.00     0.049 A 
ATOM     23  H   UNL     1       6.452  -2.948   4.233  1.00  0.00     0.167 HD
ATOM     24  C   UNL     1       6.489  -2.966   8.632  1.00  0.00     0.037 A 
ATOM     25  C   UNL     1       7.230  -3.796   1.693  1.00  0.00     0.037 A 
ATOM     26  C   UNL     1       7.418  -3.990   8.243  1.00  0.00     0.049 A 
ATOM     27  C   UNL     1       8.078  -4.549   2.684  1.00  0.00     0.074 A 
ATOM     28  C   UNL     1       8.175  -4.825   9.043  1.00  0.00     0.029 A 
ATOM     29  N   UNL     1       7.733  -4.300   6.926  1.00  0.00    -0.354 N 
ATOM     30  N   UNL     1       8.025  -4.535   3.994  1.00  0.00    -0.248 NA
ATOM     31  C   UNL     1       9.086  -5.463   2.132  1.00  0.00     0.031 C 
ATOM     32  C   UNL     1       8.981  -5.611   8.209  1.00  0.00     0.029 A 
ATOM     33  C   UNL     1       8.694  -5.295   6.890  1.00  0.00     0.049 A 
ATOM     34  H   UNL     1       7.331  -3.873   6.135  1.00  0.00     0.167 HD
ATOM     35  C   UNL     1       8.949  -5.478   4.423  1.00  0.00     0.074 A 
ATOM     36  C   UNL     1       9.552  -6.040   3.231  1.00  0.00     0.031 C 
ATOM     37  C   UNL     1       9.259  -5.855   5.688  1.00  0.00     0.037 A 
BRANCH  24  38
ATOM     38  C   UNL     1       6.247  -2.694  10.086  1.00  0.00     0.064 A 
ATOM     39  C   UNL     1       5.022  -3.022  10.690  1.00  0.00     0.173 A 
ATOM     40  C   UNL     1       7.213  -2.047  10.868  1.00  0.00     0.173 A 
ATOM     41  F   UNL     1       4.058  -3.626   9.977  1.00  0.00    -0.203 F 
ATOM     42  C   UNL     1       4.754  -2.665  12.008  1.00  0.00     0.198 A 
ATOM     43  C   UNL     1       6.951  -1.714  12.195  1.00  0.00     0.198 A 
ATOM     44  F   UNL     1       8.399  -1.712  10.339  1.00  0.00    -0.203 F 
ATOM     45  F   UNL     1       3.550  -2.921  12.539  1.00  0.00    -0.200 F 
ATOM     46  C   UNL     1       5.718  -2.010  12.759  1.00  0.00     0.200 A 
ATOM     47  F   UNL     1       7.883  -1.084  12.922  1.00  0.00    -0.200 F 
ATOM     48  F   UNL     1       5.452  -1.646  14.021  1.00  0.00    -0.200 F 
ENDBRANCH  24  38
BRANCH  25  49
ATOM     49  C   UNL     1       7.398  -4.007   0.231  1.00  0.00     0.064 A 
ATOM     50  C   UNL     1       7.048  -5.224  -0.369  1.00  0.00     0.173 A 
ATOM     51  C   UNL     1       7.935  -3.006  -0.592  1.00  0.00     0.173 A 
ATOM     52  F   UNL     1       6.544  -6.218   0.378  1.00  0.00    -0.203 F 
ATOM     53  C   UNL     1       7.254  -5.443  -1.730  1.00  0.00     0.198 A 
ATOM     54  C   UNL     1       8.121  -3.218  -1.957  1.00  0.00     0.198 A 
ATOM     55  F   UNL     1       8.283  -1.822  -0.068  1.00  0.00    -0.203 F 
ATOM     56  F   UNL     1       6.953  -6.633  -2.268  1.00  0.00    -0.200 F 
ATOM     57  C   UNL     1       7.790  -4.440  -2.524  1.00  0.00     0.200 A 
ATOM     58  F   UNL     1       8.632  -2.244  -2.723  1.00  0.00    -0.200 F 
ATOM     59  F   UNL     1       7.994  -4.654  -3.831  1.00  0.00    -0.200 F 
ENDBRANCH  25  49
BRANCH  37  60
ATOM     60  C   UNL     1      10.254  -6.966   5.845  1.00  0.00     0.064 A 
ATOM     61  C   UNL     1      11.620  -6.774   5.597  1.00  0.00     0.173 A 
ATOM     62  C   UNL     1       9.836  -8.226   6.299  1.00  0.00     0.173 A 
ATOM     63  F   UNL     1      12.064  -5.592   5.144  1.00  0.00    -0.203 F 
ATOM     64  C   UNL     1      12.531  -7.810   5.780  1.00  0.00     0.198 A 
ATOM     65  C   UNL     1      10.753  -9.251   6.509  1.00  0.00     0.198 A 
ATOM     66  F   UNL     1       8.539  -8.458   6.553  1.00  0.00    -0.203 F 
ATOM     67  F   UNL     1      13.826  -7.618   5.496  1.00  0.00    -0.200 F 
ATOM     68  C   UNL     1      12.098  -9.044   6.245  1.00  0.00     0.200 A 
ATOM     69  F   UNL     1      10.335 -10.438   6.970  1.00  0.00    -0.200 F 
ATOM     70  F   UNL     1      12.979 -10.037   6.432  1.00  0.00    -0.200 F 
ENDBRANCH  37  60
ENDBRANCH  11  12
ENDBRANCH   4   6
ENDBRANCH   3   4
ENDBRANCH   2   3
ENDBRANCH   1   2
BRANCH   1  71
ATOM     71  O   UNL     1       0.380   1.301   1.092  1.00  0.00    -0.461 OA
BRANCH  71  72
ATOM     72  C   UNL     1       0.723   2.616   0.908  1.00  0.00     0.329 C 
ATOM     73  O   UNL     1      -0.095   3.526   0.955  1.00  0.00    -0.250 OA
BRANCH  72  74
ATOM     74  C   UNL     1       2.214   2.788   0.521  1.00  0.00     0.206 C 
ATOM     75  C   UNL     1       3.051   1.569   0.915  1.00  0.00     0.108 C 
ATOM     76  N   UNL     1       2.830   4.003   1.104  1.00  0.00    -0.317 N 
ATOM     77  S   UNL     1       4.670   2.206   1.383  1.00  0.00    -0.138 SA
ATOM     78  C   UNL     1       3.953   3.743   1.980  1.00  0.00     0.190 C 
BRANCH  76  79
ATOM     79  C   UNL     1       2.476   5.253   0.620  1.00  0.00     0.244 C 
ATOM     80  O   UNL     1       1.688   5.367  -0.323  1.00  0.00    -0.273 OA
BRANCH  79  81
ATOM     81  C   UNL     1       3.022   6.506   1.317  1.00  0.00     0.230 C 
BRANCH  81  82
ATOM     82  N   UNL     1       2.102   7.005   2.315  1.00  0.00    -0.253 N 
ATOM     83  C   UNL     1       1.489   8.226   2.273  1.00  0.00     0.250 C 
ATOM     84  C   UNL     1       1.877   6.410   3.517  1.00  0.00     0.325 C 
ATOM     85  O   UNL     1       1.595   9.069   1.394  1.00  0.00    -0.272 OA
ATOM     86  C   UNL     1       0.702   8.415   3.562  1.00  0.00     0.218 C 
ATOM     87  N   UNL     1       1.004   7.188   4.237  1.00  0.00    -0.329 N 
ATOM     88  O   UNL     1       2.393   5.392   3.942  1.00  0.00    -0.248 OA
ATOM     89  H   UNL     1       0.631   6.933   5.112  1.00  0.00     0.165 HD
ENDBRANCH  81  82
ENDBRANCH  79  81
ENDBRANCH  76  79
ENDBRANCH  72  74
ENDBRANCH  71  72
ENDBRANCH   1  71
TORSDOF 14
