REMARK SMILES COc1ccccc1C(=O)N1[C@@H](C(=O)OCCOC(=O)c2ccc(-c3c4nc(c(-c5c(F)c(F)c(F)c(F)c5F)c5ccc([nH]5)c(-c5c(F)c(F)c(F)c(F)c5F)c5nc(c(-c6c(F)c(F)c(F)c(F)c6F)c6ccc3[nH]6)C=C5)C=C4)cc2)COC12CC[NH+](Cc1ccccc1)CC2
REMARK SMILES IDX 16 1 15 2 13 3 14 4 12 5 11 6 86 7 84 8 85 9 87 10 98 11
REMARK SMILES IDX 88 12 97 13 89 14 9 16 10 17 8 18 3 19 4 20 5 21 7 22 6 23
REMARK SMILES IDX 2 24 1 25 90 26 91 27 92 28 96 29 93 30 95 31 94 32 17 33
REMARK SMILES IDX 18 34 19 35 20 36 21 37 22 38 83 39 23 40 82 41 24 42 25 43
REMARK SMILES IDX 26 44 76 45 27 46 81 47 75 48 77 49 28 50 80 51 74 52 73 53
REMARK SMILES IDX 29 55 61 56 41 57 60 58 42 59 45 60 59 61 78 62 43 63 44 64
REMARK SMILES IDX 58 66 79 67 46 68 30 69 31 70 39 71 32 72 33 73 37 74 40 75
REMARK SMILES IDX 34 76 35 77 38 78 36 79 62 80 63 81 71 82 64 83 65 84 69 85
REMARK SMILES IDX 72 86 66 87 67 88 70 89 68 90 47 91 48 92 56 93 49 94 50 95
REMARK SMILES IDX 54 96 57 97 51 98 52 99 55 100 53 101
REMARK H PARENT 89 15 77 54 45 65
REMARK Flexibility Score: inf
ROOT
ATOM      1  C   UNL     1      -0.391   3.148   0.222  1.00  0.00     0.274 C 
ENDROOT
BRANCH   1   2
ATOM      2  O   UNL     1       0.572   2.239   0.782  1.00  0.00    -0.460 OA
BRANCH   2   3
ATOM      3  C   UNL     1       1.534   1.777  -0.061  1.00  0.00     0.331 C 
ATOM      4  O   UNL     1       1.596   2.065  -1.253  1.00  0.00    -0.250 OA
BRANCH   3   5
ATOM      5  C   UNL     1       2.462   0.766   0.596  1.00  0.00     0.224 C 
ATOM      6  N   UNL     1       2.083  -0.568   0.162  1.00  0.00    -0.293 N 
ATOM      7  C   UNL     1       2.002  -1.429   1.347  1.00  0.00     0.155 C 
ATOM      8  C   UNL     1       2.455   0.718   2.105  1.00  0.00     0.200 C 
ATOM      9  O   UNL     1       1.763  -0.497   2.436  1.00  0.00    -0.352 OA
ATOM     10  C   UNL     1       0.805  -2.374   1.309  1.00  0.00     0.120 C 
ATOM     11  C   UNL     1       3.316  -2.173   1.655  1.00  0.00     0.120 C 
ATOM     12  C   UNL     1       0.773  -3.355   2.464  1.00  0.00     0.267 C 
ATOM     13  C   UNL     1       3.157  -3.224   2.761  1.00  0.00     0.267 C 
ATOM     14  N   UNL     1       2.010  -4.111   2.604  1.00  0.00    -0.331 N 
ATOM     15  H   UNL     1       1.956  -4.610   3.492  1.00  0.00     0.348 HD
BRANCH   6  16
ATOM     16  C   UNL     1       2.607  -0.988  -1.056  1.00  0.00     0.260 C 
ATOM     17  O   UNL     1       3.813  -0.846  -1.275  1.00  0.00    -0.269 OA
BRANCH  16  18
ATOM     18  C   UNL     1       1.713  -1.452  -2.179  1.00  0.00     0.082 A 
ATOM     19  C   UNL     1       0.333  -1.692  -2.143  1.00  0.00     0.131 A 
ATOM     20  C   UNL     1      -0.337  -2.233  -3.256  1.00  0.00     0.047 A 
ATOM     21  C   UNL     1       0.333  -2.454  -4.454  1.00  0.00     0.004 A 
ATOM     22  C   UNL     1       2.361  -1.654  -3.419  1.00  0.00     0.018 A 
ATOM     23  C   UNL     1       1.681  -2.140  -4.543  1.00  0.00     0.001 A 
BRANCH  19  24
ATOM     24  O   UNL     1      -0.441  -1.519  -1.034  1.00  0.00    -0.496 OA
ATOM     25  C   UNL     1      -1.157  -0.291  -1.075  1.00  0.00     0.278 C 
ENDBRANCH  19  24
ENDBRANCH  16  18
ENDBRANCH   6  16
BRANCH  14  26
ATOM     26  C   UNL     1       2.154  -5.291   1.739  1.00  0.00     0.299 C 
BRANCH  26  27
ATOM     27  C   UNL     1       2.786  -5.130   0.372  1.00  0.00     0.006 A 
ATOM     28  C   UNL     1       2.006  -5.048  -0.790  1.00  0.00     0.009 A 
ATOM     29  C   UNL     1       4.184  -5.069   0.240  1.00  0.00     0.009 A 
ATOM     30  C   UNL     1       2.607  -4.856  -2.037  1.00  0.00     0.001 A 
ATOM     31  C   UNL     1       4.779  -4.832  -1.000  1.00  0.00     0.001 A 
ATOM     32  C   UNL     1       3.989  -4.719  -2.138  1.00  0.00     0.000 A 
ENDBRANCH  26  27
ENDBRANCH  14  26
ENDBRANCH   3   5
ENDBRANCH   2   3
ENDBRANCH   1   2
BRANCH   1  33
ATOM     33  C   UNL     1      -0.070   4.594   0.598  1.00  0.00     0.275 C 
BRANCH  33  34
ATOM     34  O   UNL     1       1.126   5.058  -0.052  1.00  0.00    -0.458 OA
BRANCH  34  35
ATOM     35  C   UNL     1       2.278   4.753   0.583  1.00  0.00     0.338 C 
ATOM     36  O   UNL     1       2.409   4.189   1.663  1.00  0.00    -0.246 OA
BRANCH  35  37
ATOM     37  C   UNL     1       3.420   5.045  -0.289  1.00  0.00     0.060 A 
ATOM     38  C   UNL     1       4.351   4.022  -0.505  1.00  0.00     0.016 A 
ATOM     39  C   UNL     1       3.621   6.319  -0.818  1.00  0.00     0.016 A 
ATOM     40  C   UNL     1       5.505   4.270  -1.232  1.00  0.00     0.010 A 
ATOM     41  C   UNL     1       4.786   6.573  -1.540  1.00  0.00     0.010 A 
ATOM     42  C   UNL     1       5.739   5.556  -1.726  1.00  0.00    -0.014 A 
BRANCH  42  43
ATOM     43  C   UNL     1       7.050   5.876  -2.320  1.00  0.00     0.031 A 
ATOM     44  C   UNL     1       8.044   6.633  -1.496  1.00  0.00     0.074 A 
ATOM     45  C   UNL     1       7.337   5.485  -3.572  1.00  0.00     0.049 A 
ATOM     46  N   UNL     1       9.179   7.173  -1.851  1.00  0.00    -0.248 NA
ATOM     47  C   UNL     1       7.705   6.812  -0.075  1.00  0.00     0.031 C 
ATOM     48  C   UNL     1       6.464   4.678  -4.422  1.00  0.00     0.029 A 
ATOM     49  N   UNL     1       8.438   5.731  -4.347  1.00  0.00    -0.354 N 
ATOM     50  C   UNL     1       9.671   7.790  -0.709  1.00  0.00     0.074 A 
ATOM     51  C   UNL     1       8.712   7.560   0.350  1.00  0.00     0.031 C 
ATOM     52  C   UNL     1       7.054   4.515  -5.617  1.00  0.00     0.029 A 
ATOM     53  C   UNL     1       8.317   5.250  -5.626  1.00  0.00     0.049 A 
ATOM     54  H   UNL     1       9.236   6.206  -4.021  1.00  0.00     0.167 HD
ATOM     55  C   UNL     1      10.820   8.491  -0.569  1.00  0.00     0.037 A 
ATOM     56  C   UNL     1       9.118   5.428  -6.692  1.00  0.00     0.037 A 
ATOM     57  C   UNL     1      11.765   8.691  -1.635  1.00  0.00     0.049 A 
ATOM     58  C   UNL     1      10.366   6.250  -6.529  1.00  0.00     0.074 A 
ATOM     59  C   UNL     1      12.966   9.375  -1.613  1.00  0.00     0.029 A 
ATOM     60  N   UNL     1      11.608   8.196  -2.924  1.00  0.00    -0.354 N 
ATOM     61  N   UNL     1      10.818   6.863  -5.460  1.00  0.00    -0.248 NA
ATOM     62  C   UNL     1      11.211   6.413  -7.718  1.00  0.00     0.031 C 
ATOM     63  C   UNL     1      13.515   9.329  -2.900  1.00  0.00     0.029 A 
ATOM     64  C   UNL     1      12.680   8.577  -3.712  1.00  0.00     0.049 A 
ATOM     65  H   UNL     1      10.845   7.655  -3.231  1.00  0.00     0.167 HD
ATOM     66  C   UNL     1      12.005   7.472  -5.840  1.00  0.00     0.074 A 
ATOM     67  C   UNL     1      12.209   7.144  -7.238  1.00  0.00     0.031 C 
ATOM     68  C   UNL     1      12.850   8.234  -5.102  1.00  0.00     0.037 A 
BRANCH  55  69
ATOM     69  C   UNL     1      11.074   9.132   0.764  1.00  0.00     0.064 A 
ATOM     70  C   UNL     1      11.391   8.379   1.904  1.00  0.00     0.173 A 
ATOM     71  C   UNL     1      10.974  10.524   0.905  1.00  0.00     0.173 A 
ATOM     72  F   UNL     1      11.477   7.042   1.829  1.00  0.00    -0.203 F 
ATOM     73  C   UNL     1      11.562   8.992   3.143  1.00  0.00     0.198 A 
ATOM     74  C   UNL     1      11.173  11.137   2.139  1.00  0.00     0.198 A 
ATOM     75  F   UNL     1      10.670  11.291  -0.153  1.00  0.00    -0.203 F 
ATOM     76  F   UNL     1      11.802   8.247   4.231  1.00  0.00    -0.200 F 
ATOM     77  C   UNL     1      11.456  10.370   3.259  1.00  0.00     0.200 A 
ATOM     78  F   UNL     1      11.076  12.470   2.248  1.00  0.00    -0.200 F 
ATOM     79  F   UNL     1      11.613  10.959   4.453  1.00  0.00    -0.200 F 
ENDBRANCH  55  69
BRANCH  56  80
ATOM     80  C   UNL     1       8.732   4.840  -7.998  1.00  0.00     0.064 A 
ATOM     81  C   UNL     1       9.424   3.746  -8.533  1.00  0.00     0.173 A 
ATOM     82  C   UNL     1       7.629   5.330  -8.715  1.00  0.00     0.173 A 
ATOM     83  F   UNL     1      10.498   3.257  -7.895  1.00  0.00    -0.203 F 
ATOM     84  C   UNL     1       9.028   3.163  -9.735  1.00  0.00     0.198 A 
ATOM     85  C   UNL     1       7.219   4.731  -9.904  1.00  0.00     0.198 A 
ATOM     86  F   UNL     1       6.933   6.375  -8.245  1.00  0.00    -0.203 F 
ATOM     87  F   UNL     1       9.720   2.132 -10.237  1.00  0.00    -0.200 F 
ATOM     88  C   UNL     1       7.920   3.649 -10.414  1.00  0.00     0.200 A 
ATOM     89  F   UNL     1       6.140   5.195 -10.549  1.00  0.00    -0.200 F 
ATOM     90  F   UNL     1       7.529   3.076 -11.560  1.00  0.00    -0.200 F 
ENDBRANCH  56  80
BRANCH  68  91
ATOM     91  C   UNL     1      14.082   8.742  -5.789  1.00  0.00     0.064 A 
ATOM     92  C   UNL     1      14.025   9.797  -6.710  1.00  0.00     0.173 A 
ATOM     93  C   UNL     1      15.338   8.198  -5.483  1.00  0.00     0.173 A 
ATOM     94  F   UNL     1      12.844  10.338  -7.045  1.00  0.00    -0.203 F 
ATOM     95  C   UNL     1      15.182  10.279  -7.314  1.00  0.00     0.198 A 
ATOM     96  C   UNL     1      16.496   8.700  -6.070  1.00  0.00     0.198 A 
ATOM     97  F   UNL     1      15.443   7.191  -4.603  1.00  0.00    -0.203 F 
ATOM     98  F   UNL     1      15.102  11.264  -8.220  1.00  0.00    -0.200 F 
ATOM     99  C   UNL     1      16.416   9.736  -6.989  1.00  0.00     0.200 A 
ATOM    100  F   UNL     1      17.688   8.181  -5.746  1.00  0.00    -0.200 F 
ATOM    101  F   UNL     1      17.530  10.207  -7.566  1.00  0.00    -0.200 F 
ENDBRANCH  68  91
ENDBRANCH  42  43
ENDBRANCH  35  37
ENDBRANCH  34  35
ENDBRANCH  33  34
ENDBRANCH   1  33
TORSDOF 16
