REMARK SMILES CC(C)[C@H]([NH2+]Cc1ccc(N(C)C)cc1)C(=O)OCCOC(=O)c1ccc(-c2c3nc(c(-c4c(F)c(F)c(F)c(F)c4F)c4ccc([nH]4)c(-c4c(F)c(F)c(F)c(F)c4F)c4nc(c(-c5c(F)c(F)c(F)c(F)c5F)c5ccc2[nH]5)C=C4)C=C3)cc1
REMARK SMILES IDX 19 1 18 2 16 3 17 4 4 5 2 6 1 7 3 8 5 9 6 12 7 13 8 14 15 15
REMARK SMILES IDX 9 16 14 17 10 18 11 19 12 20 13 21 20 22 21 23 22 24 23 25
REMARK SMILES IDX 24 26 25 27 86 28 26 29 85 30 27 31 28 32 29 33 79 34 30 35
REMARK SMILES IDX 84 36 78 37 80 38 31 39 83 40 77 41 76 42 32 44 64 45 44 46
REMARK SMILES IDX 63 47 45 48 48 49 62 50 81 51 46 52 47 53 61 55 82 56 49 57
REMARK SMILES IDX 33 58 34 59 42 60 35 61 36 62 40 63 43 64 37 65 38 66 41 67
REMARK SMILES IDX 39 68 65 69 66 70 74 71 67 72 68 73 72 74 75 75 69 76 70 77
REMARK SMILES IDX 73 78 71 79 50 80 51 81 59 82 52 83 53 84 57 85 60 86 54 87
REMARK SMILES IDX 55 88 58 89 56 90
REMARK H PARENT 5 10 5 11 80 43 48 54
REMARK Flexibility Score: inf
ROOT
ATOM      1  C   UNL     1      -1.732  -1.581   4.625  1.00  0.00     0.274 C 
ENDROOT
BRANCH   1   2
ATOM      2  O   UNL     1      -1.055  -1.421   3.365  1.00  0.00    -0.458 OA
BRANCH   2   3
ATOM      3  C   UNL     1      -1.777  -0.877   2.345  1.00  0.00     0.365 C 
ATOM      4  O   UNL     1      -2.951  -0.530   2.427  1.00  0.00    -0.245 OA
BRANCH   3   5
ATOM      5  C   UNL     1      -0.987  -0.808   1.019  1.00  0.00     0.296 C 
BRANCH   5   6
ATOM      6  C   UNL     1      -1.448  -1.963   0.086  1.00  0.00     0.053 C 
ATOM      7  C   UNL     1      -0.559  -2.113  -1.155  1.00  0.00     0.014 C 
ATOM      8  C   UNL     1      -1.593  -3.317   0.783  1.00  0.00     0.014 C 
ENDBRANCH   5   6
BRANCH   5   9
ATOM      9  N   UNL     1       0.476  -0.734   1.248  1.00  0.00    -0.331 N 
ATOM     10  H   UNL     1       0.955  -1.161   0.455  1.00  0.00     0.347 HD
ATOM     11  H   UNL     1       0.686  -1.228   2.115  1.00  0.00     0.347 HD
BRANCH   9  12
ATOM     12  C   UNL     1       0.939   0.656   1.392  1.00  0.00     0.298 C 
BRANCH  12  13
ATOM     13  C   UNL     1       2.443   0.755   1.484  1.00  0.00     0.006 A 
ATOM     14  C   UNL     1       3.184  -0.164   2.223  1.00  0.00     0.012 A 
ATOM     15  C   UNL     1       3.131   1.813   0.885  1.00  0.00     0.012 A 
ATOM     16  C   UNL     1       4.581  -0.067   2.304  1.00  0.00     0.026 A 
ATOM     17  C   UNL     1       4.530   1.906   0.984  1.00  0.00     0.026 A 
ATOM     18  C   UNL     1       5.306   0.956   1.673  1.00  0.00     0.036 A 
BRANCH  18  19
ATOM     19  N   UNL     1       6.693   1.047   1.751  1.00  0.00    -0.378 N 
ATOM     20  C   UNL     1       7.526  -0.078   2.165  1.00  0.00     0.143 C 
ATOM     21  C   UNL     1       7.399   2.134   1.079  1.00  0.00     0.143 C 
ENDBRANCH  18  19
ENDBRANCH  12  13
ENDBRANCH   9  12
ENDBRANCH   5   9
ENDBRANCH   3   5
ENDBRANCH   2   3
ENDBRANCH   1   2
BRANCH   1  22
ATOM     22  C   UNL     1      -1.399  -0.426   5.565  1.00  0.00     0.275 C 
BRANCH  22  23
ATOM     23  O   UNL     1      -1.895   0.801   5.005  1.00  0.00    -0.458 OA
BRANCH  23  24
ATOM     24  C   UNL     1      -0.969   1.750   4.747  1.00  0.00     0.338 C 
ATOM     25  O   UNL     1       0.216   1.747   5.021  1.00  0.00    -0.246 OA
BRANCH  24  26
ATOM     26  C   UNL     1      -1.628   2.851   4.033  1.00  0.00     0.060 A 
ATOM     27  C   UNL     1      -1.949   2.705   2.682  1.00  0.00     0.016 A 
ATOM     28  C   UNL     1      -1.872   4.050   4.696  1.00  0.00     0.016 A 
ATOM     29  C   UNL     1      -2.512   3.763   1.979  1.00  0.00     0.010 A 
ATOM     30  C   UNL     1      -2.479   5.098   4.003  1.00  0.00     0.010 A 
ATOM     31  C   UNL     1      -2.799   4.962   2.641  1.00  0.00    -0.014 A 
BRANCH  31  32
ATOM     32  C   UNL     1      -3.440   6.079   1.913  1.00  0.00     0.031 A 
ATOM     33  C   UNL     1      -2.668   7.333   1.640  1.00  0.00     0.074 A 
ATOM     34  C   UNL     1      -4.722   5.965   1.521  1.00  0.00     0.049 A 
ATOM     35  N   UNL     1      -3.092   8.481   1.176  1.00  0.00    -0.248 NA
ATOM     36  C   UNL     1      -1.227   7.293   1.931  1.00  0.00     0.031 C 
ATOM     37  C   UNL     1      -5.554   4.772   1.687  1.00  0.00     0.029 A 
ATOM     38  N   UNL     1      -5.555   6.872   0.916  1.00  0.00    -0.354 N 
ATOM     39  C   UNL     1      -1.978   9.308   1.147  1.00  0.00     0.074 A 
ATOM     40  C   UNL     1      -0.860   8.534   1.645  1.00  0.00     0.031 C 
ATOM     41  C   UNL     1      -6.779   5.022   1.200  1.00  0.00     0.029 A 
ATOM     42  C   UNL     1      -6.836   6.409   0.751  1.00  0.00     0.049 A 
ATOM     43  H   UNL     1      -5.262   7.767   0.628  1.00  0.00     0.167 HD
ATOM     44  C   UNL     1      -1.905  10.598   0.743  1.00  0.00     0.037 A 
ATOM     45  C   UNL     1      -7.944   7.048   0.331  1.00  0.00     0.037 A 
ATOM     46  C   UNL     1      -3.022  11.351   0.235  1.00  0.00     0.049 A 
ATOM     47  C   UNL     1      -7.850   8.502  -0.039  1.00  0.00     0.074 A 
ATOM     48  C   UNL     1      -3.049  12.657  -0.222  1.00  0.00     0.029 A 
ATOM     49  N   UNL     1      -4.315  10.860   0.120  1.00  0.00    -0.354 N 
ATOM     50  N   UNL     1      -6.801   9.287  -0.047  1.00  0.00    -0.248 NA
ATOM     51  C   UNL     1      -9.099   9.163  -0.440  1.00  0.00     0.031 C 
ATOM     52  C   UNL     1      -4.367  12.970  -0.573  1.00  0.00     0.029 A 
ATOM     53  C   UNL     1      -5.153  11.846  -0.375  1.00  0.00     0.049 A 
ATOM     54  H   UNL     1      -4.596   9.947   0.356  1.00  0.00     0.167 HD
ATOM     55  C   UNL     1      -7.257  10.530  -0.460  1.00  0.00     0.074 A 
ATOM     56  C   UNL     1      -8.677  10.389  -0.715  1.00  0.00     0.031 C 
ATOM     57  C   UNL     1      -6.565  11.685  -0.611  1.00  0.00     0.037 A 
BRANCH  44  58
ATOM     58  C   UNL     1      -0.579  11.287   0.865  1.00  0.00     0.064 A 
ATOM     59  C   UNL     1       0.485  11.002  -0.002  1.00  0.00     0.173 A 
ATOM     60  C   UNL     1      -0.384  12.273   1.844  1.00  0.00     0.173 A 
ATOM     61  F   UNL     1       0.353  10.056  -0.945  1.00  0.00    -0.203 F 
ATOM     62  C   UNL     1       1.704  11.664   0.120  1.00  0.00     0.198 A 
ATOM     63  C   UNL     1       0.828  12.950   1.948  1.00  0.00     0.198 A 
ATOM     64  F   UNL     1      -1.372  12.584   2.697  1.00  0.00    -0.203 F 
ATOM     65  F   UNL     1       2.721  11.349  -0.695  1.00  0.00    -0.200 F 
ATOM     66  C   UNL     1       1.873  12.642   1.089  1.00  0.00     0.200 A 
ATOM     67  F   UNL     1       0.986  13.901   2.880  1.00  0.00    -0.200 F 
ATOM     68  F   UNL     1       3.044  13.283   1.201  1.00  0.00    -0.200 F 
ENDBRANCH  44  58
BRANCH  45  69
ATOM     69  C   UNL     1      -9.240   6.326   0.284  1.00  0.00     0.064 A 
ATOM     70  C   UNL     1      -9.849   6.016  -0.939  1.00  0.00     0.173 A 
ATOM     71  C   UNL     1      -9.893   5.926   1.460  1.00  0.00     0.173 A 
ATOM     72  F   UNL     1      -9.275   6.402  -2.088  1.00  0.00    -0.203 F 
ATOM     73  C   UNL     1     -11.067   5.341  -0.984  1.00  0.00     0.198 A 
ATOM     74  C   UNL     1     -11.096   5.226   1.413  1.00  0.00     0.198 A 
ATOM     75  F   UNL     1      -9.352   6.201   2.656  1.00  0.00    -0.203 F 
ATOM     76  F   UNL     1     -11.647   5.090  -2.166  1.00  0.00    -0.200 F 
ATOM     77  C   UNL     1     -11.685   4.939   0.191  1.00  0.00     0.200 A 
ATOM     78  F   UNL     1     -11.685   4.831   2.550  1.00  0.00    -0.200 F 
ATOM     79  F   UNL     1     -12.853   4.284   0.145  1.00  0.00    -0.200 F 
ENDBRANCH  45  69
BRANCH  57  80
ATOM     80  C   UNL     1      -7.336  12.882  -1.083  1.00  0.00     0.064 A 
ATOM     81  C   UNL     1      -8.215  13.566  -0.231  1.00  0.00     0.173 A 
ATOM     82  C   UNL     1      -7.173  13.365  -2.389  1.00  0.00     0.173 A 
ATOM     83  F   UNL     1      -8.418  13.129   1.022  1.00  0.00    -0.203 F 
ATOM     84  C   UNL     1      -8.919  14.681  -0.677  1.00  0.00     0.198 A 
ATOM     85  C   UNL     1      -7.859  14.495  -2.824  1.00  0.00     0.198 A 
ATOM     86  F   UNL     1      -6.341  12.746  -3.240  1.00  0.00    -0.203 F 
ATOM     87  F   UNL     1      -9.786  15.294   0.139  1.00  0.00    -0.200 F 
ATOM     88  C   UNL     1      -8.736  15.148  -1.971  1.00  0.00     0.200 A 
ATOM     89  F   UNL     1      -7.674  14.950  -4.071  1.00  0.00    -0.200 F 
ATOM     90  F   UNL     1      -9.411  16.223  -2.397  1.00  0.00    -0.200 F 
ENDBRANCH  57  80
ENDBRANCH  31  32
ENDBRANCH  24  26
ENDBRANCH  23  24
ENDBRANCH  22  23
ENDBRANCH   1  22
TORSDOF 16
