REMARK SMILES O=C(OCCOC(=O)[C@@]1([NH2+]C2CC2)CCC[C@H]1CCn1ccnc1)c1ccc(-c2c3nc(c(-c4c(F)c(F)c(F)c(F)c4F)c4ccc([nH]4)c(-c4c(F)c(F)c(F)c(F)c4F)c4nc(c(-c5c(F)c(F)c(F)c(F)c5F)c5ccc2[nH]5)C=C4)C=C3)cc1
REMARK SMILES IDX 5 1 4 2 3 3 2 4 1 5 25 6 26 7 87 8 27 9 86 10 28 11 29 12
REMARK SMILES IDX 30 13 80 14 31 15 85 16 79 17 81 18 32 19 84 20 78 21 77 22
REMARK SMILES IDX 33 24 65 25 45 26 64 27 46 28 49 29 63 30 82 31 47 32 48 33
REMARK SMILES IDX 62 35 83 36 50 37 34 38 35 39 43 40 36 41 37 42 41 43 44 44
REMARK SMILES IDX 38 45 39 46 42 47 40 48 66 49 67 50 75 51 68 52 69 53 73 54
REMARK SMILES IDX 76 55 70 56 71 57 74 58 72 59 51 60 52 61 60 62 53 63 54 64
REMARK SMILES IDX 58 65 61 66 55 67 56 68 59 69 57 70 6 71 7 72 8 73 9 74
REMARK SMILES IDX 14 75 17 76 15 77 16 78 10 79 11 82 12 83 13 84 18 85 19 86
REMARK SMILES IDX 20 87 21 88 24 89 22 90 23 91
REMARK H PARENT 81 23 49 34 10 80 10 81
REMARK Flexibility Score: inf
ROOT
ATOM      1  C   UNL     1       4.634   0.782  -1.509  1.00  0.00     0.274 C 
ENDROOT
BRANCH   1   2
ATOM      2  C   UNL     1       5.219  -0.622  -1.260  1.00  0.00     0.275 C 
BRANCH   2   3
ATOM      3  O   UNL     1       4.513  -1.483  -0.366  1.00  0.00    -0.458 OA
BRANCH   3   4
ATOM      4  C   UNL     1       3.217  -1.202  -0.152  1.00  0.00     0.338 C 
ATOM      5  O   UNL     1       2.417  -0.788  -0.963  1.00  0.00    -0.246 OA
BRANCH   4   6
ATOM      6  C   UNL     1       2.973  -1.328   1.296  1.00  0.00     0.060 A 
ATOM      7  C   UNL     1       3.876  -1.872   2.204  1.00  0.00     0.016 A 
ATOM      8  C   UNL     1       1.756  -0.842   1.740  1.00  0.00     0.016 A 
ATOM      9  C   UNL     1       3.457  -2.088   3.506  1.00  0.00     0.010 A 
ATOM     10  C   UNL     1       1.310  -1.067   3.015  1.00  0.00     0.010 A 
ATOM     11  C   UNL     1       2.144  -1.759   3.865  1.00  0.00    -0.014 A 
BRANCH  11  12
ATOM     12  C   UNL     1       1.661  -2.020   5.195  1.00  0.00     0.031 A 
ATOM     13  C   UNL     1       2.217  -1.092   6.200  1.00  0.00     0.074 A 
ATOM     14  C   UNL     1       0.698  -2.921   5.457  1.00  0.00     0.049 A 
ATOM     15  N   UNL     1       3.201  -1.324   7.000  1.00  0.00    -0.248 NA
ATOM     16  C   UNL     1       1.780   0.311   6.178  1.00  0.00     0.031 C 
ATOM     17  C   UNL     1      -0.171  -3.659   4.540  1.00  0.00     0.029 A 
ATOM     18  N   UNL     1       0.288  -3.346   6.679  1.00  0.00    -0.354 N 
ATOM     19  C   UNL     1       3.364  -0.165   7.748  1.00  0.00     0.074 A 
ATOM     20  C   UNL     1       2.623   0.857   7.058  1.00  0.00     0.031 C 
ATOM     21  C   UNL     1      -1.129  -4.305   5.250  1.00  0.00     0.029 A 
ATOM     22  C   UNL     1      -0.846  -4.148   6.665  1.00  0.00     0.049 A 
ATOM     23  H   UNL     1       0.758  -3.106   7.511  1.00  0.00     0.167 HD
ATOM     24  C   UNL     1       3.873  -0.238   9.010  1.00  0.00     0.037 A 
ATOM     25  C   UNL     1      -1.499  -4.593   7.770  1.00  0.00     0.037 A 
ATOM     26  C   UNL     1       4.512  -1.520   9.221  1.00  0.00     0.049 A 
ATOM     27  C   UNL     1      -0.528  -4.528   8.901  1.00  0.00     0.074 A 
ATOM     28  C   UNL     1       5.573  -2.183   8.633  1.00  0.00     0.029 A 
ATOM     29  N   UNL     1       3.791  -2.491   9.876  1.00  0.00    -0.354 N 
ATOM     30  N   UNL     1       0.541  -5.277   8.968  1.00  0.00    -0.248 NA
ATOM     31  C   UNL     1      -0.468  -3.286   9.661  1.00  0.00     0.031 C 
ATOM     32  C   UNL     1       5.152  -3.545   8.543  1.00  0.00     0.029 A 
ATOM     33  C   UNL     1       3.902  -3.652   9.155  1.00  0.00     0.049 A 
ATOM     34  H   UNL     1       3.285  -2.373  10.712  1.00  0.00     0.167 HD
ATOM     35  C   UNL     1       1.546  -4.426   9.410  1.00  0.00     0.074 A 
ATOM     36  C   UNL     1       0.852  -3.223   9.869  1.00  0.00     0.031 C 
ATOM     37  C   UNL     1       2.856  -4.646   9.084  1.00  0.00     0.037 A 
BRANCH  24  38
ATOM     38  C   UNL     1       3.426   0.626  10.170  1.00  0.00     0.064 A 
ATOM     39  C   UNL     1       4.027   0.409  11.428  1.00  0.00     0.173 A 
ATOM     40  C   UNL     1       2.246   1.399  10.192  1.00  0.00     0.173 A 
ATOM     41  F   UNL     1       5.170  -0.285  11.531  1.00  0.00    -0.203 F 
ATOM     42  C   UNL     1       3.414   0.806  12.619  1.00  0.00     0.198 A 
ATOM     43  C   UNL     1       1.660   1.832  11.380  1.00  0.00     0.198 A 
ATOM     44  F   UNL     1       1.548   1.688   9.090  1.00  0.00    -0.203 F 
ATOM     45  F   UNL     1       3.948   0.443  13.792  1.00  0.00    -0.200 F 
ATOM     46  C   UNL     1       2.219   1.498  12.594  1.00  0.00     0.200 A 
ATOM     47  F   UNL     1       0.500   2.502  11.334  1.00  0.00    -0.200 F 
ATOM     48  F   UNL     1       1.587   1.808  13.732  1.00  0.00    -0.200 F 
ENDBRANCH  24  38
BRANCH  25  49
ATOM     49  C   UNL     1      -2.965  -4.671   7.974  1.00  0.00     0.064 A 
ATOM     50  C   UNL     1      -3.521  -5.412   9.030  1.00  0.00     0.173 A 
ATOM     51  C   UNL     1      -3.837  -3.788   7.305  1.00  0.00     0.173 A 
ATOM     52  F   UNL     1      -2.749  -6.233   9.756  1.00  0.00    -0.203 F 
ATOM     53  C   UNL     1      -4.864  -5.268   9.401  1.00  0.00     0.198 A 
ATOM     54  C   UNL     1      -5.175  -3.646   7.674  1.00  0.00     0.198 A 
ATOM     55  F   UNL     1      -3.380  -2.972   6.345  1.00  0.00    -0.203 F 
ATOM     56  F   UNL     1      -5.347  -5.950  10.449  1.00  0.00    -0.200 F 
ATOM     57  C   UNL     1      -5.687  -4.378   8.729  1.00  0.00     0.200 A 
ATOM     58  F   UNL     1      -5.947  -2.747   7.046  1.00  0.00    -0.200 F 
ATOM     59  F   UNL     1      -6.955  -4.194   9.123  1.00  0.00    -0.200 F 
ENDBRANCH  25  49
BRANCH  37  60
ATOM     60  C   UNL     1       3.199  -5.946   8.406  1.00  0.00     0.064 A 
ATOM     61  C   UNL     1       2.747  -6.310   7.125  1.00  0.00     0.173 A 
ATOM     62  C   UNL     1       4.141  -6.785   9.013  1.00  0.00     0.173 A 
ATOM     63  F   UNL     1       1.928  -5.512   6.433  1.00  0.00    -0.203 F 
ATOM     64  C   UNL     1       3.184  -7.480   6.503  1.00  0.00     0.198 A 
ATOM     65  C   UNL     1       4.602  -7.935   8.378  1.00  0.00     0.198 A 
ATOM     66  F   UNL     1       4.656  -6.459  10.209  1.00  0.00    -0.203 F 
ATOM     67  F   UNL     1       2.732  -7.804   5.283  1.00  0.00    -0.200 F 
ATOM     68  C   UNL     1       4.116  -8.288   7.129  1.00  0.00     0.200 A 
ATOM     69  F   UNL     1       5.543  -8.686   8.965  1.00  0.00    -0.200 F 
ATOM     70  F   UNL     1       4.569  -9.392   6.518  1.00  0.00    -0.200 F 
ENDBRANCH  37  60
ENDBRANCH  11  12
ENDBRANCH   4   6
ENDBRANCH   3   4
ENDBRANCH   2   3
ENDBRANCH   1   2
BRANCH   1  71
ATOM     71  O   UNL     1       4.093   1.360  -0.302  1.00  0.00    -0.457 OA
BRANCH  71  72
ATOM     72  C   UNL     1       3.044   2.227  -0.437  1.00  0.00     0.368 C 
ATOM     73  O   UNL     1       2.579   2.560  -1.525  1.00  0.00    -0.245 OA
BRANCH  72  74
ATOM     74  C   UNL     1       2.537   2.829   0.906  1.00  0.00     0.197 C 
ATOM     75  C   UNL     1       2.538   4.369   0.815  1.00  0.00     0.081 C 
ATOM     76  C   UNL     1       0.998   2.568   1.235  1.00  0.00     0.064 C 
ATOM     77  C   UNL     1       1.702   4.839   1.993  1.00  0.00     0.008 C 
ATOM     78  C   UNL     1       0.644   3.758   2.191  1.00  0.00     0.011 C 
BRANCH  74  79
ATOM     79  N   UNL     1       3.307   2.366   2.103  1.00  0.00    -0.329 N 
ATOM     80  H   UNL     1       3.056   1.386   2.229  1.00  0.00     0.347 HD
ATOM     81  H   UNL     1       3.036   3.072   2.787  1.00  0.00     0.347 HD
BRANCH  79  82
ATOM     82  C   UNL     1       4.768   2.419   2.217  1.00  0.00     0.183 C 
ATOM     83  C   UNL     1       5.724   3.089   1.275  1.00  0.00     0.071 C 
ATOM     84  C   UNL     1       5.458   3.698   2.617  1.00  0.00     0.071 C 
ENDBRANCH  79  82
ENDBRANCH  74  79
BRANCH  76  85
ATOM     85  C   UNL     1      -0.085   2.545   0.108  1.00  0.00     0.032 C 
BRANCH  85  86
ATOM     86  C   UNL     1      -0.363   1.270  -0.725  1.00  0.00     0.123 C 
BRANCH  86  87
ATOM     87  N   UNL     1      -0.878   0.075  -0.076  1.00  0.00    -0.337 N 
ATOM     88  C   UNL     1      -0.651  -1.208  -0.521  1.00  0.00     0.107 A 
ATOM     89  C   UNL     1      -1.573  -0.035   1.095  1.00  0.00     0.199 A 
ATOM     90  C   UNL     1      -1.088  -2.030   0.490  1.00  0.00     0.130 A 
ATOM     91  N   UNL     1      -1.679  -1.290   1.482  1.00  0.00    -0.245 NA
ENDBRANCH  86  87
ENDBRANCH  85  86
ENDBRANCH  76  85
ENDBRANCH  72  74
ENDBRANCH  71  72
ENDBRANCH   1  71
TORSDOF 16
