REMARK SMILES C[C@H](NC(=O)c1ccncc1/C=C/C(=O)OCCOC(=O)c1ccc(-c2c3nc(c(-c4c(F)c(F)c(F)c(F)c4F)c4ccc([nH]4)c(-c4c(F)c(F)c(F)c(F)c4F)c4nc(c(-c5c(F)c(F)c(F)c(F)c5F)c5ccc2[nH]5)C=C4)C=C3)cc1)c1ccco1
REMARK SMILES IDX 17 1 16 2 14 3 15 4 13 5 12 6 11 7 6 8 7 9 8 10 10 11 9 12
REMARK SMILES IDX 4 13 3 14 5 16 2 17 1 18 85 19 86 20 89 21 87 22 88 23 18 24
REMARK SMILES IDX 19 25 20 26 21 27 22 28 23 29 84 30 24 31 83 32 25 33 26 34
REMARK SMILES IDX 27 35 77 36 28 37 82 38 76 39 78 40 29 41 81 42 75 43 74 44
REMARK SMILES IDX 30 46 62 47 42 48 61 49 43 50 46 51 60 52 79 53 44 54 45 55
REMARK SMILES IDX 59 57 80 58 47 59 31 60 32 61 40 62 33 63 34 64 38 65 41 66
REMARK SMILES IDX 35 67 36 68 39 69 37 70 63 71 64 72 72 73 65 74 66 75 70 76
REMARK SMILES IDX 73 77 67 78 68 79 71 80 69 81 48 82 49 83 57 84 50 85 51 86
REMARK SMILES IDX 55 87 58 88 52 89 53 90 56 91 54 92
REMARK H PARENT 3 15 78 45 46 56
REMARK Flexibility Score: inf
ROOT
ATOM      1  C   UNL     1      -1.573   1.564  -6.594  1.00  0.00     0.275 C 
ENDROOT
BRANCH   1   2
ATOM      2  O   UNL     1      -0.870   1.881  -5.379  1.00  0.00    -0.459 OA
BRANCH   2   3
ATOM      3  C   UNL     1      -0.065   2.964  -5.442  1.00  0.00     0.330 C 
ATOM      4  O   UNL     1       0.148   3.651  -6.432  1.00  0.00    -0.247 OA
BRANCH   3   5
ATOM      5  C   UNL     1       0.539   3.315  -4.144  1.00  0.00     0.094 C 
ATOM      6  C   UNL     1       0.222   2.821  -2.935  1.00  0.00     0.018 C 
BRANCH   6   7
ATOM      7  C   UNL     1       0.913   3.338  -1.740  1.00  0.00     0.006 A 
ATOM      8  C   UNL     1       1.612   2.544  -0.824  1.00  0.00     0.050 A 
ATOM      9  C   UNL     1       2.473   3.143   0.102  1.00  0.00     0.034 A 
ATOM     10  C   UNL     1       2.474   4.520   0.207  1.00  0.00     0.112 A 
ATOM     11  C   UNL     1       0.962   4.714  -1.511  1.00  0.00     0.119 A 
ATOM     12  N   UNL     1       1.708   5.319  -0.557  1.00  0.00    -0.264 NA
BRANCH   8  13
ATOM     13  C   UNL     1       1.611   1.076  -0.906  1.00  0.00     0.252 C 
ATOM     14  N   UNL     1       1.199   0.289   0.136  1.00  0.00    -0.342 N 
ATOM     15  H   UNL     1       1.468  -0.651   0.021  1.00  0.00     0.164 HD
ATOM     16  O   UNL     1       2.050   0.540  -1.922  1.00  0.00    -0.269 OA
BRANCH  14  17
ATOM     17  C   UNL     1       0.456   0.503   1.380  1.00  0.00     0.145 C 
ATOM     18  C   UNL     1       0.828   1.689   2.259  1.00  0.00     0.039 C 
BRANCH  17  19
ATOM     19  C   UNL     1      -1.013   0.418   1.127  1.00  0.00     0.125 A 
ATOM     20  C   UNL     1      -1.893  -0.647   1.099  1.00  0.00     0.048 A 
ATOM     21  O   UNL     1      -1.701   1.587   0.971  1.00  0.00    -0.467 OA
ATOM     22  C   UNL     1      -3.188  -0.095   0.951  1.00  0.00     0.042 A 
ATOM     23  C   UNL     1      -3.017   1.267   0.878  1.00  0.00     0.195 A 
ENDBRANCH  17  19
ENDBRANCH  14  17
ENDBRANCH   8  13
ENDBRANCH   6   7
ENDBRANCH   3   5
ENDBRANCH   2   3
ENDBRANCH   1   2
BRANCH   1  24
ATOM     24  C   UNL     1      -3.027   2.041  -6.534  1.00  0.00     0.275 C 
BRANCH  24  25
ATOM     25  O   UNL     1      -3.127   3.478  -6.514  1.00  0.00    -0.458 OA
BRANCH  25  26
ATOM     26  C   UNL     1      -3.126   4.037  -5.280  1.00  0.00     0.338 C 
ATOM     27  O   UNL     1      -3.084   3.460  -4.207  1.00  0.00    -0.246 OA
BRANCH  26  28
ATOM     28  C   UNL     1      -3.079   5.506  -5.391  1.00  0.00     0.060 A 
ATOM     29  C   UNL     1      -2.095   6.185  -4.665  1.00  0.00     0.016 A 
ATOM     30  C   UNL     1      -4.034   6.214  -6.124  1.00  0.00     0.016 A 
ATOM     31  C   UNL     1      -2.068   7.579  -4.661  1.00  0.00     0.010 A 
ATOM     32  C   UNL     1      -4.007   7.613  -6.117  1.00  0.00     0.010 A 
ATOM     33  C   UNL     1      -3.033   8.304  -5.375  1.00  0.00    -0.014 A 
BRANCH  33  34
ATOM     34  C   UNL     1      -3.042   9.785  -5.304  1.00  0.00     0.031 A 
ATOM     35  C   UNL     1      -4.047  10.490  -4.439  1.00  0.00     0.074 A 
ATOM     36  C   UNL     1      -2.136  10.495  -6.000  1.00  0.00     0.049 A 
ATOM     37  N   UNL     1      -4.246  11.774  -4.276  1.00  0.00    -0.248 NA
ATOM     38  C   UNL     1      -4.948   9.636  -3.650  1.00  0.00     0.031 C 
ATOM     39  C   UNL     1      -1.095   9.925  -6.854  1.00  0.00     0.029 A 
ATOM     40  N   UNL     1      -1.950  11.852  -6.102  1.00  0.00    -0.354 N 
ATOM     41  C   UNL     1      -5.290  11.883  -3.367  1.00  0.00     0.074 A 
ATOM     42  C   UNL     1      -5.705  10.536  -3.037  1.00  0.00     0.031 C 
ATOM     43  C   UNL     1      -0.384  10.925  -7.401  1.00  0.00     0.029 A 
ATOM     44  C   UNL     1      -0.939  12.203  -6.961  1.00  0.00     0.049 A 
ATOM     45  H   UNL     1      -2.490  12.509  -5.606  1.00  0.00     0.167 HD
ATOM     46  C   UNL     1      -5.843  13.005  -2.848  1.00  0.00     0.037 A 
ATOM     47  C   UNL     1      -0.523  13.418  -7.365  1.00  0.00     0.037 A 
ATOM     48  C   UNL     1      -5.433  14.346  -3.179  1.00  0.00     0.049 A 
ATOM     49  C   UNL     1      -1.192  14.650  -6.814  1.00  0.00     0.074 A 
ATOM     50  C   UNL     1      -5.942  15.546  -2.713  1.00  0.00     0.029 A 
ATOM     51  N   UNL     1      -4.412  14.662  -4.063  1.00  0.00    -0.354 N 
ATOM     52  N   UNL     1      -2.175  14.742  -5.952  1.00  0.00    -0.248 NA
ATOM     53  C   UNL     1      -0.690  15.947  -7.291  1.00  0.00     0.031 C 
ATOM     54  C   UNL     1      -5.252  16.589  -3.340  1.00  0.00     0.029 A 
ATOM     55  C   UNL     1      -4.285  16.039  -4.165  1.00  0.00     0.049 A 
ATOM     56  H   UNL     1      -3.860  14.006  -4.546  1.00  0.00     0.167 HD
ATOM     57  C   UNL     1      -2.395  16.101  -5.769  1.00  0.00     0.074 A 
ATOM     58  C   UNL     1      -1.432  16.797  -6.595  1.00  0.00     0.031 C 
ATOM     59  C   UNL     1      -3.316  16.716  -4.987  1.00  0.00     0.037 A 
BRANCH  46  60
ATOM     60  C   UNL     1      -6.966  12.834  -1.869  1.00  0.00     0.064 A 
ATOM     61  C   UNL     1      -6.732  12.390  -0.559  1.00  0.00     0.173 A 
ATOM     62  C   UNL     1      -8.281  13.163  -2.227  1.00  0.00     0.173 A 
ATOM     63  F   UNL     1      -5.493  12.053  -0.171  1.00  0.00    -0.203 F 
ATOM     64  C   UNL     1      -7.779  12.265   0.351  1.00  0.00     0.198 A 
ATOM     65  C   UNL     1      -9.322  13.059  -1.308  1.00  0.00     0.198 A 
ATOM     66  F   UNL     1      -8.556  13.597  -3.466  1.00  0.00    -0.203 F 
ATOM     67  F   UNL     1      -7.539  11.806   1.587  1.00  0.00    -0.200 F 
ATOM     68  C   UNL     1      -9.071  12.606  -0.021  1.00  0.00     0.200 A 
ATOM     69  F   UNL     1     -10.568  13.399  -1.665  1.00  0.00    -0.200 F 
ATOM     70  F   UNL     1     -10.075  12.492   0.859  1.00  0.00    -0.200 F 
ENDBRANCH  46  60
BRANCH  47  71
ATOM     71  C   UNL     1       0.571  13.531  -8.363  1.00  0.00     0.064 A 
ATOM     72  C   UNL     1       1.827  14.043  -8.009  1.00  0.00     0.173 A 
ATOM     73  C   UNL     1       0.374  13.146  -9.697  1.00  0.00     0.173 A 
ATOM     74  F   UNL     1       2.053  14.451  -6.752  1.00  0.00    -0.203 F 
ATOM     75  C   UNL     1       2.839  14.182  -8.957  1.00  0.00     0.198 A 
ATOM     76  C   UNL     1       1.396  13.259 -10.638  1.00  0.00     0.198 A 
ATOM     77  F   UNL     1      -0.811  12.653 -10.087  1.00  0.00    -0.203 F 
ATOM     78  F   UNL     1       4.014  14.721  -8.604  1.00  0.00    -0.200 F 
ATOM     79  C   UNL     1       2.624  13.785 -10.269  1.00  0.00     0.200 A 
ATOM     80  F   UNL     1       1.187  12.866 -11.901  1.00  0.00    -0.200 F 
ATOM     81  F   UNL     1       3.598  13.920 -11.180  1.00  0.00    -0.200 F 
ENDBRANCH  47  71
BRANCH  59  82
ATOM     82  C   UNL     1      -3.308  18.216  -4.968  1.00  0.00     0.064 A 
ATOM     83  C   UNL     1      -3.782  18.967  -6.053  1.00  0.00     0.173 A 
ATOM     84  C   UNL     1      -2.854  18.910  -3.835  1.00  0.00     0.173 A 
ATOM     85  F   UNL     1      -4.212  18.350  -7.164  1.00  0.00    -0.203 F 
ATOM     86  C   UNL     1      -3.781  20.359  -6.014  1.00  0.00     0.198 A 
ATOM     87  C   UNL     1      -2.878  20.301  -3.790  1.00  0.00     0.198 A 
ATOM     88  F   UNL     1      -2.396  18.237  -2.769  1.00  0.00    -0.203 F 
ATOM     89  F   UNL     1      -4.200  21.057  -7.079  1.00  0.00    -0.200 F 
ATOM     90  C   UNL     1      -3.336  21.024  -4.882  1.00  0.00     0.200 A 
ATOM     91  F   UNL     1      -2.458  20.942  -2.692  1.00  0.00    -0.200 F 
ATOM     92  F   UNL     1      -3.341  22.364  -4.845  1.00  0.00    -0.200 F 
ENDBRANCH  59  82
ENDBRANCH  33  34
ENDBRANCH  26  28
ENDBRANCH  25  26
ENDBRANCH  24  25
ENDBRANCH   1  24
TORSDOF 15
