REMARK SMILES Cc1cc(C[N@H+]2CC[C@](C)(C(=O)OCCOC(=O)c3ccc(-c4c5nc(c(-c6c(F)c(F)c(F)c(F)c6F)c6ccc([nH]6)c(-c6c(F)c(F)c(F)c(F)c6F)c6nc(c(-c7c(F)c(F)c(F)c(F)c7F)c7ccc4[nH]7)C=C6)C=C5)cc3)C2)c2ccccc2n1
REMARK SMILES IDX 14 1 13 2 11 3 12 4 9 5 6 6 7 7 82 8 8 10 10 11 5 12 4 13
REMARK SMILES IDX 1 14 2 15 3 16 89 17 88 18 83 19 87 20 84 21 86 22 85 23
REMARK SMILES IDX 15 24 16 25 17 26 18 27 19 28 20 29 81 30 21 31 80 32 22 33
REMARK SMILES IDX 23 34 24 35 74 36 25 37 79 38 73 39 75 40 26 41 78 42 72 43
REMARK SMILES IDX 71 44 27 46 59 47 39 48 58 49 40 50 43 51 57 52 76 53 41 54
REMARK SMILES IDX 42 55 56 57 77 58 44 59 28 60 29 61 37 62 30 63 31 64 35 65
REMARK SMILES IDX 38 66 32 67 33 68 36 69 34 70 60 71 61 72 69 73 62 74 63 75
REMARK SMILES IDX 67 76 70 77 64 78 65 79 68 80 66 81 45 82 46 83 54 84 47 85
REMARK SMILES IDX 48 86 52 87 55 88 49 89 50 90 53 91 51 92
REMARK H PARENT 6 9 75 45 43 56
REMARK Flexibility Score: inf
ROOT
ATOM      1  C   UNL     1       5.429   3.386   3.238  1.00  0.00     0.274 C 
ENDROOT
BRANCH   1   2
ATOM      2  O   UNL     1       4.221   2.894   2.620  1.00  0.00    -0.461 OA
BRANCH   2   3
ATOM      3  C   UNL     1       3.204   2.531   3.453  1.00  0.00     0.317 C 
ATOM      4  O   UNL     1       3.285   2.477   4.674  1.00  0.00    -0.251 OA
BRANCH   3   5
ATOM      5  C   UNL     1       1.965   2.119   2.675  1.00  0.00     0.119 C 
ATOM      6  N   UNL     1       0.405   3.068   1.097  1.00  0.00    -0.330 N 
ATOM      7  C   UNL     1      -0.358   2.569   2.237  1.00  0.00     0.263 C 
ATOM      8  C   UNL     1       1.833   2.885   1.353  1.00  0.00     0.281 C 
ATOM      9  H   UNL     1       0.232   4.072   1.040  1.00  0.00     0.348 HD
ATOM     10  C   UNL     1       0.659   2.517   3.369  1.00  0.00     0.086 C 
ATOM     11  C   UNL     1       2.038   0.598   2.505  1.00  0.00     0.030 C 
BRANCH   6  12
ATOM     12  C   UNL     1      -0.089   2.758  -0.248  1.00  0.00     0.299 C 
BRANCH  12  13
ATOM     13  C   UNL     1      -0.441   1.300  -0.491  1.00  0.00     0.017 A 
ATOM     14  C   UNL     1      -3.487  -0.891   0.058  1.00  0.00     0.067 C 
ATOM     15  C   UNL     1      -2.084  -0.438  -0.212  1.00  0.00     0.038 A 
ATOM     16  C   UNL     1      -1.771   0.910  -0.269  1.00  0.00     0.033 A 
ATOM     17  N   UNL     1      -1.145  -1.401  -0.326  1.00  0.00    -0.253 NA
ATOM     18  C   UNL     1       0.123  -1.042  -0.588  1.00  0.00     0.071 A 
ATOM     19  C   UNL     1       0.524   0.299  -0.761  1.00  0.00     0.009 A 
ATOM     20  C   UNL     1       1.087  -2.040  -0.652  1.00  0.00     0.029 A 
ATOM     21  C   UNL     1       1.860   0.558  -1.150  1.00  0.00     0.011 A 
ATOM     22  C   UNL     1       2.425  -1.762  -0.940  1.00  0.00     0.002 A 
ATOM     23  C   UNL     1       2.807  -0.461  -1.222  1.00  0.00     0.001 A 
ENDBRANCH  12  13
ENDBRANCH   6  12
ENDBRANCH   3   5
ENDBRANCH   2   3
ENDBRANCH   1   2
BRANCH   1  24
ATOM     24  C   UNL     1       5.434   4.914   3.212  1.00  0.00     0.275 C 
BRANCH  24  25
ATOM     25  O   UNL     1       4.361   5.383   4.045  1.00  0.00    -0.458 OA
BRANCH  25  26
ATOM     26  C   UNL     1       3.703   6.489   3.625  1.00  0.00     0.338 C 
ATOM     27  O   UNL     1       4.003   7.207   2.688  1.00  0.00    -0.246 OA
BRANCH  26  28
ATOM     28  C   UNL     1       2.498   6.693   4.466  1.00  0.00     0.060 A 
ATOM     29  C   UNL     1       1.817   5.601   4.998  1.00  0.00     0.016 A 
ATOM     30  C   UNL     1       1.978   7.972   4.653  1.00  0.00     0.016 A 
ATOM     31  C   UNL     1       0.576   5.762   5.611  1.00  0.00     0.010 A 
ATOM     32  C   UNL     1       0.790   8.145   5.380  1.00  0.00     0.010 A 
ATOM     33  C   UNL     1       0.051   7.038   5.840  1.00  0.00    -0.014 A 
BRANCH  33  34
ATOM     34  C   UNL     1      -1.274   7.212   6.511  1.00  0.00     0.031 A 
ATOM     35  C   UNL     1      -2.347   8.044   5.856  1.00  0.00     0.074 A 
ATOM     36  C   UNL     1      -1.549   6.617   7.692  1.00  0.00     0.049 A 
ATOM     37  N   UNL     1      -3.441   8.547   6.374  1.00  0.00    -0.248 NA
ATOM     38  C   UNL     1      -2.157   8.369   4.433  1.00  0.00     0.031 C 
ATOM     39  C   UNL     1      -0.653   5.725   8.430  1.00  0.00     0.029 A 
ATOM     40  N   UNL     1      -2.676   6.668   8.479  1.00  0.00    -0.354 N 
ATOM     41  C   UNL     1      -4.021   9.311   5.369  1.00  0.00     0.074 A 
ATOM     42  C   UNL     1      -3.171   9.193   4.204  1.00  0.00     0.031 C 
ATOM     43  C   UNL     1      -1.281   5.271   9.525  1.00  0.00     0.029 A 
ATOM     44  C   UNL     1      -2.578   5.928   9.633  1.00  0.00     0.049 A 
ATOM     45  H   UNL     1      -3.478   7.186   8.239  1.00  0.00     0.167 HD
ATOM     46  C   UNL     1      -5.155  10.050   5.420  1.00  0.00     0.037 A 
ATOM     47  C   UNL     1      -3.406   5.827  10.691  1.00  0.00     0.037 A 
ATOM     48  C   UNL     1      -6.042  10.103   6.553  1.00  0.00     0.049 A 
ATOM     49  C   UNL     1      -4.660   6.654  10.725  1.00  0.00     0.074 A 
ATOM     50  C   UNL     1      -7.196  10.851   6.717  1.00  0.00     0.029 A 
ATOM     51  N   UNL     1      -5.894   9.342   7.703  1.00  0.00    -0.354 N 
ATOM     52  N   UNL     1      -5.126   7.486   9.827  1.00  0.00    -0.248 NA
ATOM     53  C   UNL     1      -5.487   6.553  11.937  1.00  0.00     0.031 C 
ATOM     54  C   UNL     1      -7.742  10.548   7.969  1.00  0.00     0.029 A 
ATOM     55  C   UNL     1      -6.944   9.590   8.571  1.00  0.00     0.049 A 
ATOM     56  H   UNL     1      -5.152   8.718   7.876  1.00  0.00     0.167 HD
ATOM     57  C   UNL     1      -6.293   8.009  10.363  1.00  0.00     0.074 A 
ATOM     58  C   UNL     1      -6.485   7.377  11.651  1.00  0.00     0.031 C 
ATOM     59  C   UNL     1      -7.123   8.945   9.844  1.00  0.00     0.037 A 
BRANCH  46  60
ATOM     60  C   UNL     1      -5.496  10.892   4.227  1.00  0.00     0.064 A 
ATOM     61  C   UNL     1      -6.021  10.336   3.053  1.00  0.00     0.173 A 
ATOM     62  C   UNL     1      -5.351  12.288   4.287  1.00  0.00     0.173 A 
ATOM     63  F   UNL     1      -6.163   9.007   2.941  1.00  0.00    -0.203 F 
ATOM     64  C   UNL     1      -6.379  11.146   1.978  1.00  0.00     0.198 A 
ATOM     65  C   UNL     1      -5.733  13.095   3.220  1.00  0.00     0.198 A 
ATOM     66  F   UNL     1      -4.858  12.869   5.391  1.00  0.00    -0.203 F 
ATOM     67  F   UNL     1      -6.852  10.591   0.853  1.00  0.00    -0.200 F 
ATOM     68  C   UNL     1      -6.244  12.524   2.065  1.00  0.00     0.200 A 
ATOM     69  F   UNL     1      -5.613  14.427   3.312  1.00  0.00    -0.200 F 
ATOM     70  F   UNL     1      -6.604  13.301   1.034  1.00  0.00    -0.200 F 
ENDBRANCH  46  60
BRANCH  47  71
ATOM     71  C   UNL     1      -3.041   4.960  11.843  1.00  0.00     0.064 A 
ATOM     72  C   UNL     1      -3.778   3.805  12.139  1.00  0.00     0.173 A 
ATOM     73  C   UNL     1      -1.957   5.273  12.677  1.00  0.00     0.173 A 
ATOM     74  F   UNL     1      -4.843   3.481  11.391  1.00  0.00    -0.203 F 
ATOM     75  C   UNL     1      -3.452   3.003  13.230  1.00  0.00     0.198 A 
ATOM     76  C   UNL     1      -1.611   4.452  13.748  1.00  0.00     0.198 A 
ATOM     77  F   UNL     1      -1.223   6.370  12.441  1.00  0.00    -0.203 F 
ATOM     78  F   UNL     1      -4.201   1.931  13.519  1.00  0.00    -0.200 F 
ATOM     79  C   UNL     1      -2.363   3.322  14.029  1.00  0.00     0.200 A 
ATOM     80  F   UNL     1      -0.551   4.758  14.508  1.00  0.00    -0.200 F 
ATOM     81  F   UNL     1      -2.045   2.547  15.074  1.00  0.00    -0.200 F 
ENDBRANCH  47  71
BRANCH  59  82
ATOM     82  C   UNL     1      -8.324   9.316  10.659  1.00  0.00     0.064 A 
ATOM     83  C   UNL     1      -8.211  10.138  11.789  1.00  0.00     0.173 A 
ATOM     84  C   UNL     1      -9.599   8.859  10.297  1.00  0.00     0.173 A 
ATOM     85  F   UNL     1      -7.009  10.585  12.182  1.00  0.00    -0.203 F 
ATOM     86  C   UNL     1      -9.333  10.470  12.544  1.00  0.00     0.198 A 
ATOM     87  C   UNL     1     -10.720   9.210  11.042  1.00  0.00     0.198 A 
ATOM     88  F   UNL     1      -9.755   8.072   9.222  1.00  0.00    -0.203 F 
ATOM     89  F   UNL     1      -9.199  11.221  13.646  1.00  0.00    -0.200 F 
ATOM     90  C   UNL     1     -10.586  10.009  12.168  1.00  0.00     0.200 A 
ATOM     91  F   UNL     1     -11.931   8.768  10.675  1.00  0.00    -0.200 F 
ATOM     92  F   UNL     1     -11.664  10.327  12.897  1.00  0.00    -0.200 F 
ENDBRANCH  59  82
ENDBRANCH  33  34
ENDBRANCH  26  28
ENDBRANCH  25  26
ENDBRANCH  24  25
ENDBRANCH   1  24
TORSDOF 13
