REMARK SMILES CCC(=O)N1CCc2cc(C(=O)NC3(C(=O)OCCOC(=O)c4ccc(-c5c6nc(c(-c7c(F)c(F)c(F)c(F)c7F)c7ccc([nH]7)c(-c7c(F)c(F)c(F)c(F)c7F)c7nc(c(-c8c(F)c(F)c(F)c(F)c8F)c8ccc5[nH]8)C=C7)C=C6)cc4)CCCC3)ccc21
REMARK SMILES IDX 18 1 17 2 15 3 16 4 14 5 86 6 89 7 87 8 88 9 13 10 11 11
REMARK SMILES IDX 12 12 10 14 5 15 6 16 92 17 7 18 8 19 91 20 9 21 90 22 3 23
REMARK SMILES IDX 4 24 2 25 1 26 19 27 20 28 21 29 22 30 23 31 24 32 85 33
REMARK SMILES IDX 25 34 84 35 26 36 27 37 28 38 78 39 29 40 83 41 77 42 79 43
REMARK SMILES IDX 30 44 82 45 76 46 75 47 31 49 63 50 43 51 62 52 44 53 47 54
REMARK SMILES IDX 61 55 80 56 45 57 46 58 60 60 81 61 48 62 32 63 33 64 41 65
REMARK SMILES IDX 34 66 35 67 39 68 42 69 36 70 37 71 40 72 38 73 64 74 65 75
REMARK SMILES IDX 73 76 66 77 67 78 71 79 74 80 68 81 69 82 72 83 70 84 49 85
REMARK SMILES IDX 50 86 58 87 51 88 52 89 56 90 59 91 53 92 54 93 57 94 55 95
REMARK H PARENT 13 13 79 48 47 59
REMARK Flexibility Score: inf
ROOT
ATOM      1  C   UNL     1       4.831  -2.431   5.808  1.00  0.00     0.274 C 
ENDROOT
BRANCH   1   2
ATOM      2  O   UNL     1       4.456  -2.713   4.444  1.00  0.00    -0.460 OA
BRANCH   2   3
ATOM      3  C   UNL     1       5.073  -1.984   3.475  1.00  0.00     0.331 C 
ATOM      4  O   UNL     1       5.930  -1.135   3.703  1.00  0.00    -0.249 OA
BRANCH   3   5
ATOM      5  C   UNL     1       4.496  -2.246   2.045  1.00  0.00     0.138 C 
ATOM      6  C   UNL     1       3.435  -1.148   1.878  1.00  0.00     0.040 C 
ATOM      7  C   UNL     1       3.753  -3.589   1.929  1.00  0.00     0.040 C 
ATOM      8  C   UNL     1       2.147  -1.806   2.359  1.00  0.00     0.003 C 
ATOM      9  C   UNL     1       2.263  -3.262   1.938  1.00  0.00     0.003 C 
BRANCH   5  10
ATOM     10  N   UNL     1       5.649  -2.245   1.104  1.00  0.00    -0.336 N 
ATOM     11  C   UNL     1       5.903  -1.989  -0.215  1.00  0.00     0.252 C 
ATOM     12  O   UNL     1       7.046  -2.172  -0.632  1.00  0.00    -0.269 OA
ATOM     13  H   UNL     1       6.476  -2.507   1.570  1.00  0.00     0.165 HD
BRANCH  11  14
ATOM     14  C   UNL     1       4.902  -1.418  -1.130  1.00  0.00     0.040 A 
ATOM     15  N   UNL     1       2.133   0.897  -3.114  1.00  0.00    -0.312 N 
ATOM     16  C   UNL     1       2.963   1.774  -3.943  1.00  0.00     0.130 C 
ATOM     17  C   UNL     1       2.958  -0.051  -2.512  1.00  0.00     0.047 A 
ATOM     18  C   UNL     1       4.410   1.588  -3.453  1.00  0.00     0.059 C 
ATOM     19  C   UNL     1       4.283   0.368  -2.592  1.00  0.00    -0.022 A 
ATOM     20  C   UNL     1       2.622  -1.262  -1.938  1.00  0.00     0.027 A 
ATOM     21  C   UNL     1       5.269  -0.286  -1.874  1.00  0.00     0.019 A 
ATOM     22  C   UNL     1       3.620  -1.970  -1.265  1.00  0.00     0.016 A 
BRANCH  15  23
ATOM     23  C   UNL     1       0.778   1.085  -3.002  1.00  0.00     0.226 C 
ATOM     24  O   UNL     1       0.089   1.339  -3.994  1.00  0.00    -0.275 OA
BRANCH  23  25
ATOM     25  C   UNL     1       0.217   1.398  -1.611  1.00  0.00     0.097 C 
ATOM     26  C   UNL     1       0.493   0.483  -0.439  1.00  0.00     0.014 C 
ENDBRANCH  23  25
ENDBRANCH  15  23
ENDBRANCH  11  14
ENDBRANCH   5  10
ENDBRANCH   3   5
ENDBRANCH   2   3
ENDBRANCH   1   2
BRANCH   1  27
ATOM     27  C   UNL     1       5.816  -3.468   6.346  1.00  0.00     0.275 C 
BRANCH  27  28
ATOM     28  O   UNL     1       7.105  -3.318   5.724  1.00  0.00    -0.458 OA
BRANCH  28  29
ATOM     29  C   UNL     1       7.384  -4.215   4.753  1.00  0.00     0.338 C 
ATOM     30  O   UNL     1       6.689  -5.139   4.369  1.00  0.00    -0.246 OA
BRANCH  29  31
ATOM     31  C   UNL     1       8.652  -3.862   4.102  1.00  0.00     0.060 A 
ATOM     32  C   UNL     1       8.620  -2.910   3.088  1.00  0.00     0.016 A 
ATOM     33  C   UNL     1       9.821  -4.571   4.362  1.00  0.00     0.016 A 
ATOM     34  C   UNL     1       9.711  -2.735   2.250  1.00  0.00     0.010 A 
ATOM     35  C   UNL     1      10.959  -4.315   3.588  1.00  0.00     0.010 A 
ATOM     36  C   UNL     1      10.904  -3.420   2.502  1.00  0.00    -0.014 A 
BRANCH  36  37
ATOM     37  C   UNL     1      12.069  -3.223   1.601  1.00  0.00     0.031 A 
ATOM     38  C   UNL     1      12.631  -4.389   0.838  1.00  0.00     0.074 A 
ATOM     39  C   UNL     1      12.601  -1.997   1.433  1.00  0.00     0.049 A 
ATOM     40  N   UNL     1      13.753  -4.477   0.169  1.00  0.00    -0.248 NA
ATOM     41  C   UNL     1      11.834  -5.625   0.840  1.00  0.00     0.031 C 
ATOM     42  C   UNL     1      12.108  -0.766   2.053  1.00  0.00     0.029 A 
ATOM     43  N   UNL     1      13.667  -1.581   0.676  1.00  0.00    -0.354 N 
ATOM     44  C   UNL     1      13.828  -5.792  -0.269  1.00  0.00     0.074 A 
ATOM     45  C   UNL     1      12.632  -6.464   0.195  1.00  0.00     0.031 C 
ATOM     46  C   UNL     1      12.840   0.271   1.618  1.00  0.00     0.029 A 
ATOM     47  C   UNL     1      13.908  -0.232   0.761  1.00  0.00     0.049 A 
ATOM     48  H   UNL     1      14.208  -2.192   0.124  1.00  0.00     0.167 HD
ATOM     49  C   UNL     1      14.814  -6.382  -0.984  1.00  0.00     0.037 A 
ATOM     50  C   UNL     1      14.902   0.512   0.243  1.00  0.00     0.037 A 
ATOM     51  C   UNL     1      15.965  -5.690  -1.502  1.00  0.00     0.049 A 
ATOM     52  C   UNL     1      15.983  -0.164  -0.549  1.00  0.00     0.074 A 
ATOM     53  C   UNL     1      17.029  -6.198  -2.226  1.00  0.00     0.029 A 
ATOM     54  N   UNL     1      16.182  -4.326  -1.374  1.00  0.00    -0.354 N 
ATOM     55  N   UNL     1      16.108  -1.430  -0.862  1.00  0.00    -0.248 NA
ATOM     56  C   UNL     1      17.079   0.687  -1.032  1.00  0.00     0.031 C 
ATOM     57  C   UNL     1      17.899  -5.143  -2.523  1.00  0.00     0.029 A 
ATOM     58  C   UNL     1      17.363  -3.974  -2.007  1.00  0.00     0.049 A 
ATOM     59  H   UNL     1      15.586  -3.700  -0.903  1.00  0.00     0.167 HD
ATOM     60  C   UNL     1      17.294  -1.531  -1.573  1.00  0.00     0.074 A 
ATOM     61  C   UNL     1      17.840  -0.192  -1.669  1.00  0.00     0.031 C 
ATOM     62  C   UNL     1      17.886  -2.636  -2.087  1.00  0.00     0.037 A 
BRANCH  49  63
ATOM     63  C   UNL     1      14.716  -7.861  -1.208  1.00  0.00     0.064 A 
ATOM     64  C   UNL     1      13.834  -8.414  -2.146  1.00  0.00     0.173 A 
ATOM     65  C   UNL     1      15.542  -8.735  -0.484  1.00  0.00     0.173 A 
ATOM     66  F   UNL     1      13.011  -7.621  -2.848  1.00  0.00    -0.203 F 
ATOM     67  C   UNL     1      13.770  -9.792  -2.339  1.00  0.00     0.198 A 
ATOM     68  C   UNL     1      15.491 -10.109  -0.696  1.00  0.00     0.198 A 
ATOM     69  F   UNL     1      16.404  -8.253   0.424  1.00  0.00    -0.203 F 
ATOM     70  F   UNL     1      12.893 -10.304  -3.214  1.00  0.00    -0.200 F 
ATOM     71  C   UNL     1      14.601 -10.637  -1.619  1.00  0.00     0.200 A 
ATOM     72  F   UNL     1      16.301 -10.923  -0.004  1.00  0.00    -0.200 F 
ATOM     73  F   UNL     1      14.541 -11.962  -1.809  1.00  0.00    -0.200 F 
ENDBRANCH  49  63
BRANCH  50  74
ATOM     74  C   UNL     1      14.939   1.974   0.503  1.00  0.00     0.064 A 
ATOM     75  C   UNL     1      14.682   2.893  -0.521  1.00  0.00     0.173 A 
ATOM     76  C   UNL     1      15.209   2.478   1.784  1.00  0.00     0.173 A 
ATOM     77  F   UNL     1      14.446   2.459  -1.768  1.00  0.00    -0.203 F 
ATOM     78  C   UNL     1      14.695   4.265  -0.274  1.00  0.00     0.198 A 
ATOM     79  C   UNL     1      15.195   3.847   2.036  1.00  0.00     0.198 A 
ATOM     80  F   UNL     1      15.463   1.637   2.797  1.00  0.00    -0.203 F 
ATOM     81  F   UNL     1      14.475   5.126  -1.277  1.00  0.00    -0.200 F 
ATOM     82  C   UNL     1      14.942   4.740   1.006  1.00  0.00     0.200 A 
ATOM     83  F   UNL     1      15.422   4.301   3.276  1.00  0.00    -0.200 F 
ATOM     84  F   UNL     1      14.942   6.058   1.245  1.00  0.00    -0.200 F 
ENDBRANCH  50  74
BRANCH  62  85
ATOM     85  C   UNL     1      19.184  -2.436  -2.804  1.00  0.00     0.064 A 
ATOM     86  C   UNL     1      20.379  -2.237  -2.098  1.00  0.00     0.173 A 
ATOM     87  C   UNL     1      19.239  -2.473  -4.204  1.00  0.00     0.173 A 
ATOM     88  F   UNL     1      20.369  -2.178  -0.757  1.00  0.00    -0.203 F 
ATOM     89  C   UNL     1      21.584  -2.064  -2.772  1.00  0.00     0.198 A 
ATOM     90  C   UNL     1      20.449  -2.318  -4.874  1.00  0.00     0.198 A 
ATOM     91  F   UNL     1      18.120  -2.662  -4.919  1.00  0.00    -0.203 F 
ATOM     92  F   UNL     1      22.710  -1.840  -2.081  1.00  0.00    -0.200 F 
ATOM     93  C   UNL     1      21.619  -2.109  -4.158  1.00  0.00     0.200 A 
ATOM     94  F   UNL     1      20.483  -2.365  -6.212  1.00  0.00    -0.200 F 
ATOM     95  F   UNL     1      22.780  -1.943  -4.805  1.00  0.00    -0.200 F 
ENDBRANCH  62  85
ENDBRANCH  36  37
ENDBRANCH  29  31
ENDBRANCH  28  29
ENDBRANCH  27  28
ENDBRANCH   1  27
TORSDOF 15
