REMARK SMILES O=C(OCCOC(=O)[C@@H]1CN(c2ncccn2)CCN1C(=O)C1CCOCC1)c1ccc(-c2c3nc(c(-c4c(F)c(F)c(F)c(F)c4F)c4ccc([nH]4)c(-c4c(F)c(F)c(F)c(F)c4F)c4nc(c(-c5c(F)c(F)c(F)c(F)c5F)c5ccc2[nH]5)C=C4)C=C3)cc1
REMARK SMILES IDX 4 1 3 2 2 3 1 4 29 5 30 6 91 7 31 8 90 9 32 10 33 11 34 12
REMARK SMILES IDX 84 13 35 14 89 15 83 16 85 17 36 18 88 19 82 20 81 21 37 23
REMARK SMILES IDX 69 24 49 25 68 26 50 27 53 28 67 29 86 30 51 31 52 32 66 34
REMARK SMILES IDX 87 35 54 36 38 37 39 38 47 39 40 40 41 41 45 42 48 43 42 44
REMARK SMILES IDX 43 45 46 46 44 47 70 48 71 49 79 50 72 51 73 52 77 53 80 54
REMARK SMILES IDX 74 55 75 56 78 57 76 58 55 59 56 60 64 61 57 62 58 63 62 64
REMARK SMILES IDX 65 65 59 66 60 67 63 68 61 69 5 70 6 71 7 72 8 73 9 74 10 75
REMARK SMILES IDX 20 76 11 77 19 78 18 79 21 80 22 81 23 82 24 83 28 84 25 85
REMARK SMILES IDX 27 86 26 87 12 88 13 89 17 90 14 91 16 92 15 93
REMARK H PARENT 85 22 53 33
REMARK Flexibility Score: inf
ROOT
ATOM      1  C   UNL     1       3.789  -1.764  -0.312  1.00  0.00     0.275 C 
ENDROOT
BRANCH   1   2
ATOM      2  O   UNL     1       2.725  -1.894   0.639  1.00  0.00    -0.458 OA
BRANCH   2   3
ATOM      3  C   UNL     1       2.444  -1.159   1.736  1.00  0.00     0.338 C 
ATOM      4  O   UNL     1       1.376  -1.375   2.308  1.00  0.00    -0.246 OA
BRANCH   3   5
ATOM      5  C   UNL     1       3.309  -0.055   2.276  1.00  0.00     0.060 A 
ATOM      6  C   UNL     1       4.644   0.215   1.950  1.00  0.00     0.016 A 
ATOM      7  C   UNL     1       2.683   0.814   3.186  1.00  0.00     0.016 A 
ATOM      8  C   UNL     1       5.308   1.336   2.458  1.00  0.00     0.010 A 
ATOM      9  C   UNL     1       3.337   1.931   3.712  1.00  0.00     0.010 A 
ATOM     10  C   UNL     1       4.668   2.176   3.368  1.00  0.00    -0.014 A 
BRANCH  10  11
ATOM     11  C   UNL     1       5.496   3.060   4.209  1.00  0.00     0.031 A 
ATOM     12  C   UNL     1       5.975   2.474   5.503  1.00  0.00     0.074 A 
ATOM     13  C   UNL     1       5.882   4.281   3.805  1.00  0.00     0.049 A 
ATOM     14  N   UNL     1       6.780   2.977   6.397  1.00  0.00    -0.248 NA
ATOM     15  C   UNL     1       5.511   1.107   5.809  1.00  0.00     0.031 C 
ATOM     16  C   UNL     1       5.564   4.879   2.515  1.00  0.00     0.029 A 
ATOM     17  N   UNL     1       6.630   5.238   4.439  1.00  0.00    -0.354 N 
ATOM     18  C   UNL     1       6.941   1.978   7.346  1.00  0.00     0.074 A 
ATOM     19  C   UNL     1       6.112   0.864   6.958  1.00  0.00     0.031 C 
ATOM     20  C   UNL     1       6.065   6.125   2.466  1.00  0.00     0.029 A 
ATOM     21  C   UNL     1       6.755   6.403   3.720  1.00  0.00     0.049 A 
ATOM     22  H   UNL     1       7.040   5.103   5.324  1.00  0.00     0.167 HD
ATOM     23  C   UNL     1       7.737   1.985   8.436  1.00  0.00     0.037 A 
ATOM     24  C   UNL     1       7.367   7.554   4.056  1.00  0.00     0.037 A 
ATOM     25  C   UNL     1       8.512   3.125   8.830  1.00  0.00     0.049 A 
ATOM     26  C   UNL     1       8.123   7.595   5.361  1.00  0.00     0.074 A 
ATOM     27  C   UNL     1       9.313   3.285   9.942  1.00  0.00     0.029 A 
ATOM     28  N   UNL     1       8.556   4.319   8.119  1.00  0.00    -0.354 N 
ATOM     29  N   UNL     1       8.294   6.641   6.248  1.00  0.00    -0.248 NA
ATOM     30  C   UNL     1       8.797   8.854   5.698  1.00  0.00     0.031 C 
ATOM     31  C   UNL     1       9.792   4.600   9.938  1.00  0.00     0.029 A 
ATOM     32  C   UNL     1       9.349   5.234   8.786  1.00  0.00     0.049 A 
ATOM     33  H   UNL     1       8.092   4.487   7.267  1.00  0.00     0.167 HD
ATOM     34  C   UNL     1       9.141   7.163   7.215  1.00  0.00     0.074 A 
ATOM     35  C   UNL     1       9.444   8.521   6.806  1.00  0.00     0.031 C 
ATOM     36  C   UNL     1       9.637   6.573   8.332  1.00  0.00     0.037 A 
BRANCH  23  37
ATOM     37  C   UNL     1       7.728   0.747   9.279  1.00  0.00     0.064 A 
ATOM     38  C   UNL     1       8.282  -0.462   8.824  1.00  0.00     0.173 A 
ATOM     39  C   UNL     1       7.083   0.746  10.523  1.00  0.00     0.173 A 
ATOM     40  F   UNL     1       8.873  -0.523   7.620  1.00  0.00    -0.203 F 
ATOM     41  C   UNL     1       8.154  -1.633   9.567  1.00  0.00     0.198 A 
ATOM     42  C   UNL     1       6.984  -0.420  11.277  1.00  0.00     0.198 A 
ATOM     43  F   UNL     1       6.521   1.869  10.994  1.00  0.00    -0.203 F 
ATOM     44  F   UNL     1       8.619  -2.790   9.077  1.00  0.00    -0.200 F 
ATOM     45  C   UNL     1       7.508  -1.610  10.793  1.00  0.00     0.200 A 
ATOM     46  F   UNL     1       6.357  -0.397  12.461  1.00  0.00    -0.200 F 
ATOM     47  F   UNL     1       7.371  -2.740  11.501  1.00  0.00    -0.200 F 
ENDBRANCH  23  37
BRANCH  24  48
ATOM     48  C   UNL     1       7.319   8.736   3.151  1.00  0.00     0.064 A 
ATOM     49  C   UNL     1       8.474   9.223   2.523  1.00  0.00     0.173 A 
ATOM     50  C   UNL     1       6.120   9.431   2.929  1.00  0.00     0.173 A 
ATOM     51  F   UNL     1       9.651   8.610   2.720  1.00  0.00    -0.203 F 
ATOM     52  C   UNL     1       8.440  10.373   1.735  1.00  0.00     0.198 A 
ATOM     53  C   UNL     1       6.081  10.567   2.120  1.00  0.00     0.198 A 
ATOM     54  F   UNL     1       4.984   9.016   3.509  1.00  0.00    -0.203 F 
ATOM     55  F   UNL     1       9.571  10.848   1.197  1.00  0.00    -0.200 F 
ATOM     56  C   UNL     1       7.243  11.043   1.532  1.00  0.00     0.200 A 
ATOM     57  F   UNL     1       4.922  11.211   1.925  1.00  0.00    -0.200 F 
ATOM     58  F   UNL     1       7.213  12.156   0.786  1.00  0.00    -0.200 F 
ENDBRANCH  24  48
BRANCH  36  59
ATOM     59  C   UNL     1      10.607   7.372   9.151  1.00  0.00     0.064 A 
ATOM     60  C   UNL     1      10.203   8.479   9.909  1.00  0.00     0.173 A 
ATOM     61  C   UNL     1      11.954   6.982   9.216  1.00  0.00     0.173 A 
ATOM     62  F   UNL     1       8.928   8.896   9.870  1.00  0.00    -0.203 F 
ATOM     63  C   UNL     1      11.120   9.188  10.678  1.00  0.00     0.198 A 
ATOM     64  C   UNL     1      12.859   7.669  10.017  1.00  0.00     0.198 A 
ATOM     65  F   UNL     1      12.386   5.920   8.518  1.00  0.00    -0.203 F 
ATOM     66  F   UNL     1      10.725  10.277  11.351  1.00  0.00    -0.200 F 
ATOM     67  C   UNL     1      12.444   8.777  10.739  1.00  0.00     0.200 A 
ATOM     68  F   UNL     1      14.132   7.257  10.091  1.00  0.00    -0.200 F 
ATOM     69  F   UNL     1      13.322   9.454  11.490  1.00  0.00    -0.200 F 
ENDBRANCH  36  59
ENDBRANCH  10  11
ENDBRANCH   3   5
ENDBRANCH   2   3
ENDBRANCH   1   2
BRANCH   1  70
ATOM     70  C   UNL     1       3.639  -0.562  -1.238  1.00  0.00     0.274 C 
BRANCH  70  71
ATOM     71  O   UNL     1       3.439   0.673  -0.524  1.00  0.00    -0.460 OA
BRANCH  71  72
ATOM     72  C   UNL     1       2.299   1.389  -0.738  1.00  0.00     0.330 C 
ATOM     73  O   UNL     1       1.415   1.066  -1.530  1.00  0.00    -0.250 OA
BRANCH  72  74
ATOM     74  C   UNL     1       2.285   2.654   0.148  1.00  0.00     0.214 C 
ATOM     75  C   UNL     1       0.853   2.614   0.795  1.00  0.00     0.157 C 
ATOM     76  N   UNL     1       2.618   4.032  -0.373  1.00  0.00    -0.325 N 
ATOM     77  N   UNL     1       0.660   3.717   1.733  1.00  0.00    -0.336 N 
ATOM     78  C   UNL     1       2.249   5.113   0.580  1.00  0.00     0.142 C 
ATOM     79  C   UNL     1       0.842   5.043   1.179  1.00  0.00     0.141 C 
BRANCH  76  80
ATOM     80  C   UNL     1       3.798   4.340  -1.055  1.00  0.00     0.226 C 
ATOM     81  O   UNL     1       4.508   5.287  -0.685  1.00  0.00    -0.275 OA
BRANCH  80  82
ATOM     82  C   UNL     1       4.264   3.598  -2.307  1.00  0.00     0.083 C 
ATOM     83  C   UNL     1       3.184   3.049  -3.233  1.00  0.00     0.042 C 
ATOM     84  C   UNL     1       5.452   2.690  -1.995  1.00  0.00     0.042 C 
ATOM     85  C   UNL     1       3.554   1.802  -4.035  1.00  0.00     0.161 C 
ATOM     86  C   UNL     1       5.768   1.802  -3.179  1.00  0.00     0.161 C 
ATOM     87  O   UNL     1       4.618   1.034  -3.493  1.00  0.00    -0.381 OA
ENDBRANCH  80  82
ENDBRANCH  76  80
BRANCH  77  88
ATOM     88  C   UNL     1      -0.181   3.549   2.804  1.00  0.00     0.225 A 
ATOM     89  N   UNL     1      -1.161   4.436   3.034  1.00  0.00    -0.221 NA
ATOM     90  N   UNL     1       0.086   2.537   3.644  1.00  0.00    -0.221 NA
ATOM     91  C   UNL     1      -1.901   4.268   4.150  1.00  0.00     0.117 A 
ATOM     92  C   UNL     1      -0.638   2.441   4.774  1.00  0.00     0.117 A 
ATOM     93  C   UNL     1      -1.669   3.287   5.080  1.00  0.00     0.040 A 
ENDBRANCH  77  88
ENDBRANCH  72  74
ENDBRANCH  71  72
ENDBRANCH  70  71
ENDBRANCH   1  70
TORSDOF 14
