REMARK SMILES Cc1noc(C)c1[C@H](C)NC(=O)c1cccc(C(=O)OCCOC(=O)c2ccc(-c3c4nc(c(-c5c(F)c(F)c(F)c(F)c5F)c5ccc([nH]5)c(-c5c(F)c(F)c(F)c(F)c5F)c5nc(c(-c6c(F)c(F)c(F)c(F)c6F)c6ccc3[nH]6)C=C5)C=C4)cc2)n1
REMARK SMILES IDX 21 1 20 2 18 3 19 4 17 5 13 6 14 7 89 8 15 9 16 10 11 11
REMARK SMILES IDX 10 12 12 14 8 15 9 16 7 17 1 18 2 19 3 20 4 21 5 22 6 23
REMARK SMILES IDX 22 24 23 25 24 26 25 27 26 28 27 29 88 30 28 31 87 32 29 33
REMARK SMILES IDX 30 34 31 35 81 36 32 37 86 38 80 39 82 40 33 41 85 42 79 43
REMARK SMILES IDX 78 44 34 46 66 47 46 48 65 49 47 50 50 51 64 52 83 53 48 54
REMARK SMILES IDX 49 55 63 57 84 58 51 59 35 60 36 61 44 62 37 63 38 64 42 65
REMARK SMILES IDX 45 66 39 67 40 68 43 69 41 70 67 71 68 72 76 73 69 74 70 75
REMARK SMILES IDX 74 76 77 77 71 78 72 79 75 80 73 81 52 82 53 83 61 84 54 85
REMARK SMILES IDX 55 86 59 87 62 88 56 89 57 90 60 91 58 92
REMARK H PARENT 10 13 82 45 50 56
REMARK Flexibility Score: inf
ROOT
ATOM      1  C   UNL     1       6.766   4.557   4.797  1.00  0.00     0.275 C 
ENDROOT
BRANCH   1   2
ATOM      2  O   UNL     1       5.995   4.668   3.585  1.00  0.00    -0.457 OA
BRANCH   2   3
ATOM      3  C   UNL     1       5.023   3.736   3.394  1.00  0.00     0.357 C 
ATOM      4  O   UNL     1       4.819   2.762   4.101  1.00  0.00    -0.244 OA
BRANCH   3   5
ATOM      5  C   UNL     1       4.151   4.145   2.246  1.00  0.00     0.149 A 
ATOM      6  C   UNL     1       1.992   4.252   1.422  1.00  0.00     0.129 A 
ATOM      7  C   UNL     1       2.381   5.099   0.394  1.00  0.00     0.034 A 
ATOM      8  N   UNL     1       2.856   3.734   2.323  1.00  0.00    -0.236 NA
ATOM      9  C   UNL     1       3.726   5.431   0.275  1.00  0.00     0.005 A 
ATOM     10  C   UNL     1       4.628   4.962   1.226  1.00  0.00     0.036 A 
BRANCH   6  11
ATOM     11  C   UNL     1       0.540   4.034   1.695  1.00  0.00     0.270 C 
ATOM     12  N   UNL     1      -0.273   3.441   0.760  1.00  0.00    -0.344 N 
ATOM     13  H   UNL     1      -1.241   3.529   0.919  1.00  0.00     0.164 HD
ATOM     14  O   UNL     1       0.046   4.430   2.748  1.00  0.00    -0.267 OA
BRANCH  12  15
ATOM     15  C   UNL     1       0.105   2.702  -0.431  1.00  0.00     0.115 C 
ATOM     16  C   UNL     1       0.216   1.225  -0.059  1.00  0.00     0.036 C 
BRANCH  15  17
ATOM     17  C   UNL     1      -0.878   3.036  -1.519  1.00  0.00     0.040 A 
ATOM     18  C   UNL     1      -0.827   5.685  -1.518  1.00  0.00     0.071 C 
ATOM     19  C   UNL     1      -1.253   4.343  -1.985  1.00  0.00     0.086 A 
ATOM     20  N   UNL     1      -2.109   4.277  -3.009  1.00  0.00    -0.085 NA
ATOM     21  O   UNL     1      -2.337   2.943  -3.224  1.00  0.00    -0.361 OA
ATOM     22  C   UNL     1      -1.615   2.202  -2.345  1.00  0.00     0.139 A 
ATOM     23  C   UNL     1      -1.793   0.743  -2.493  1.00  0.00     0.091 C 
ENDBRANCH  15  17
ENDBRANCH  12  15
ENDBRANCH   6  11
ENDBRANCH   3   5
ENDBRANCH   2   3
ENDBRANCH   1   2
BRANCH   1  24
ATOM     24  C   UNL     1       6.309   5.583   5.841  1.00  0.00     0.275 C 
BRANCH  24  25
ATOM     25  O   UNL     1       5.029   5.238   6.407  1.00  0.00    -0.458 OA
BRANCH  25  26
ATOM     26  C   UNL     1       3.962   5.822   5.811  1.00  0.00     0.338 C 
ATOM     27  O   UNL     1       3.980   6.614   4.884  1.00  0.00    -0.246 OA
BRANCH  26  28
ATOM     28  C   UNL     1       2.716   5.262   6.361  1.00  0.00     0.060 A 
ATOM     29  C   UNL     1       1.938   4.488   5.508  1.00  0.00     0.016 A 
ATOM     30  C   UNL     1       2.256   5.564   7.643  1.00  0.00     0.016 A 
ATOM     31  C   UNL     1       0.684   4.039   5.900  1.00  0.00     0.010 A 
ATOM     32  C   UNL     1       1.000   5.086   8.053  1.00  0.00     0.010 A 
ATOM     33  C   UNL     1       0.196   4.334   7.176  1.00  0.00    -0.014 A 
BRANCH  33  34
ATOM     34  C   UNL     1      -1.175   3.891   7.539  1.00  0.00     0.031 A 
ATOM     35  C   UNL     1      -2.272   4.902   7.718  1.00  0.00     0.074 A 
ATOM     36  C   UNL     1      -1.456   2.577   7.639  1.00  0.00     0.049 A 
ATOM     37  N   UNL     1      -3.506   4.726   8.122  1.00  0.00    -0.248 NA
ATOM     38  C   UNL     1      -1.936   6.298   7.406  1.00  0.00     0.031 C 
ATOM     39  C   UNL     1      -0.500   1.492   7.417  1.00  0.00     0.029 A 
ATOM     40  N   UNL     1      -2.630   1.931   7.940  1.00  0.00    -0.354 N 
ATOM     41  C   UNL     1      -4.079   5.990   8.150  1.00  0.00     0.074 A 
ATOM     42  C   UNL     1      -3.058   6.926   7.729  1.00  0.00     0.031 C 
ATOM     43  C   UNL     1      -1.129   0.316   7.569  1.00  0.00     0.029 A 
ATOM     44  C   UNL     1      -2.514   0.563   7.960  1.00  0.00     0.049 A 
ATOM     45  H   UNL     1      -3.474   2.404   8.124  1.00  0.00     0.167 HD
ATOM     46  C   UNL     1      -5.343   6.335   8.495  1.00  0.00     0.037 A 
ATOM     47  C   UNL     1      -3.413  -0.385   8.287  1.00  0.00     0.037 A 
ATOM     48  C   UNL     1      -6.371   5.395   8.863  1.00  0.00     0.049 A 
ATOM     49  C   UNL     1      -4.799   0.026   8.700  1.00  0.00     0.074 A 
ATOM     50  C   UNL     1      -7.685   5.648   9.219  1.00  0.00     0.029 A 
ATOM     51  N   UNL     1      -6.203   4.019   8.909  1.00  0.00    -0.354 N 
ATOM     52  N   UNL     1      -5.319   1.227   8.770  1.00  0.00    -0.248 NA
ATOM     53  C   UNL     1      -5.720  -1.050   9.092  1.00  0.00     0.031 C 
ATOM     54  C   UNL     1      -8.302   4.428   9.516  1.00  0.00     0.029 A 
ATOM     55  C   UNL     1      -7.386   3.411   9.303  1.00  0.00     0.049 A 
ATOM     56  H   UNL     1      -5.368   3.544   8.694  1.00  0.00     0.167 HD
ATOM     57  C   UNL     1      -6.627   1.052   9.199  1.00  0.00     0.074 A 
ATOM     58  C   UNL     1      -6.829  -0.373   9.354  1.00  0.00     0.031 C 
ATOM     59  C   UNL     1      -7.572   1.991   9.449  1.00  0.00     0.037 A 
BRANCH  46  60
ATOM     60  C   UNL     1      -5.679   7.796   8.529  1.00  0.00     0.064 A 
ATOM     61  C   UNL     1      -5.850   8.548   7.358  1.00  0.00     0.173 A 
ATOM     62  C   UNL     1      -5.872   8.443   9.759  1.00  0.00     0.173 A 
ATOM     63  F   UNL     1      -5.666   7.979   6.157  1.00  0.00    -0.203 F 
ATOM     64  C   UNL     1      -6.179   9.900   7.418  1.00  0.00     0.198 A 
ATOM     65  C   UNL     1      -6.227   9.788   9.816  1.00  0.00     0.198 A 
ATOM     66  F   UNL     1      -5.728   7.767  10.909  1.00  0.00    -0.203 F 
ATOM     67  F   UNL     1      -6.299  10.611   6.288  1.00  0.00    -0.200 F 
ATOM     68  C   UNL     1      -6.374  10.517   8.646  1.00  0.00     0.200 A 
ATOM     69  F   UNL     1      -6.428  10.378  11.002  1.00  0.00    -0.200 F 
ATOM     70  F   UNL     1      -6.699  11.816   8.701  1.00  0.00    -0.200 F 
ENDBRANCH  46  60
BRANCH  47  71
ATOM     71  C   UNL     1      -3.015  -1.817   8.268  1.00  0.00     0.064 A 
ATOM     72  C   UNL     1      -3.546  -2.704   7.323  1.00  0.00     0.173 A 
ATOM     73  C   UNL     1      -2.093  -2.325   9.196  1.00  0.00     0.173 A 
ATOM     74  F   UNL     1      -4.453  -2.273   6.434  1.00  0.00    -0.203 F 
ATOM     75  C   UNL     1      -3.178  -4.048   7.313  1.00  0.00     0.198 A 
ATOM     76  C   UNL     1      -1.703  -3.661   9.166  1.00  0.00     0.198 A 
ATOM     77  F   UNL     1      -1.560  -1.517  10.124  1.00  0.00    -0.203 F 
ATOM     78  F   UNL     1      -3.732  -4.886   6.426  1.00  0.00    -0.200 F 
ATOM     79  C   UNL     1      -2.251  -4.524   8.229  1.00  0.00     0.200 A 
ATOM     80  F   UNL     1      -0.799  -4.113  10.046  1.00  0.00    -0.200 F 
ATOM     81  F   UNL     1      -1.892  -5.814   8.214  1.00  0.00    -0.200 F 
ENDBRANCH  47  71
BRANCH  59  82
ATOM     82  C   UNL     1      -8.920   1.503   9.891  1.00  0.00     0.064 A 
ATOM     83  C   UNL     1      -9.130   1.000  11.183  1.00  0.00     0.173 A 
ATOM     84  C   UNL     1     -10.021   1.571   9.024  1.00  0.00     0.173 A 
ATOM     85  F   UNL     1      -8.105   0.900  12.043  1.00  0.00    -0.203 F 
ATOM     86  C   UNL     1     -10.389   0.562  11.584  1.00  0.00     0.198 A 
ATOM     87  C   UNL     1     -11.284   1.156   9.436  1.00  0.00     0.198 A 
ATOM     88  F   UNL     1      -9.872   2.049   7.779  1.00  0.00    -0.203 F 
ATOM     89  F   UNL     1     -10.559   0.045  12.808  1.00  0.00    -0.200 F 
ATOM     90  C   UNL     1     -11.466   0.646  10.713  1.00  0.00     0.200 A 
ATOM     91  F   UNL     1     -12.325   1.247   8.597  1.00  0.00    -0.200 F 
ATOM     92  F   UNL     1     -12.678   0.228  11.101  1.00  0.00    -0.200 F 
ENDBRANCH  59  82
ENDBRANCH  33  34
ENDBRANCH  26  28
ENDBRANCH  25  26
ENDBRANCH  24  25
ENDBRANCH   1  24
TORSDOF 14
