REMARK SMILES Cc1ccc(NC(=O)c2ccccc2NC(=O)[C@H]2CCCC[C@H]2C(=O)OCCOC(=O)c2ccc(-c3c4nc(c(-c5c(F)c(F)c(F)c(F)c5F)c5ccc([nH]5)c(-c5c(F)c(F)c(F)c(F)c5F)c5nc(c(-c6c(F)c(F)c(F)c(F)c6F)c6ccc3[nH]6)C=C5)C=C4)cc2)cc1
REMARK SMILES IDX 27 1 26 2 24 3 25 4 23 5 18 6 19 7 20 8 22 9 21 10 16 11
REMARK SMILES IDX 15 12 17 14 14 15 9 16 10 17 11 18 13 19 12 20 7 21 6 22
REMARK SMILES IDX 8 24 5 25 1 26 2 27 3 28 96 29 4 30 95 31 28 32 29 33 30 34
REMARK SMILES IDX 31 35 32 36 33 37 94 38 34 39 93 40 35 41 36 42 37 43 87 44
REMARK SMILES IDX 38 45 92 46 86 47 88 48 39 49 91 50 85 51 84 52 40 54 72 55
REMARK SMILES IDX 52 56 71 57 53 58 56 59 70 60 89 61 54 62 55 63 69 65 90 66
REMARK SMILES IDX 57 67 41 68 42 69 50 70 43 71 44 72 48 73 51 74 45 75 46 76
REMARK SMILES IDX 49 77 47 78 73 79 74 80 82 81 75 82 76 83 80 84 83 85 77 86
REMARK SMILES IDX 78 87 81 88 79 89 58 90 59 91 67 92 60 93 61 94 65 95 68 96
REMARK SMILES IDX 62 97 63 98 66 99 64 100
REMARK H PARENT 15 13 6 23 88 53 56 64
REMARK Flexibility Score: inf
ROOT
ATOM      1  C   UNL     1      -0.843   2.348   7.078  1.00  0.00     0.274 C 
ENDROOT
BRANCH   1   2
ATOM      2  O   UNL     1      -0.732   0.914   7.006  1.00  0.00    -0.462 OA
BRANCH   2   3
ATOM      3  C   UNL     1      -1.757   0.194   6.257  1.00  0.00     0.309 C 
ATOM      4  O   UNL     1      -2.810   0.865   6.488  1.00  0.00    -0.252 OA
BRANCH   3   5
ATOM      5  C   UNL     1      -1.394  -1.634   5.076  1.00  0.00     0.111 C 
ATOM      6  C   UNL     1      -0.291  -1.968   3.720  1.00  0.00     0.093 C 
ATOM      7  C   UNL     1      -0.376  -3.324   2.986  1.00  0.00     0.014 C 
ATOM      8  C   UNL     1      -0.251  -4.525   3.890  1.00  0.00     0.001 C 
ATOM      9  C   UNL     1      -1.619  -3.365   5.630  1.00  0.00     0.016 C 
ATOM     10  C   UNL     1      -1.503  -4.571   4.707  1.00  0.00     0.001 C 
BRANCH   6  11
ATOM     11  C   UNL     1       1.195  -1.772   3.942  1.00  0.00     0.228 C 
ATOM     12  N   UNL     1       1.870  -0.775   3.303  1.00  0.00    -0.325 N 
ATOM     13  H   UNL     1       2.773  -0.668   3.679  1.00  0.00     0.169 HD
ATOM     14  O   UNL     1       1.791  -2.406   4.819  1.00  0.00    -0.274 OA
BRANCH  12  15
ATOM     15  C   UNL     1       1.649   0.151   2.259  1.00  0.00     0.054 A 
ATOM     16  C   UNL     1       2.528   1.255   2.125  1.00  0.00     0.063 A 
ATOM     17  C   UNL     1       2.181   2.304   1.244  1.00  0.00     0.016 A 
ATOM     18  C   UNL     1       1.024   2.252   0.471  1.00  0.00     0.001 A 
ATOM     19  C   UNL     1       0.569   0.061   1.369  1.00  0.00     0.027 A 
ATOM     20  C   UNL     1       0.232   1.117   0.517  1.00  0.00     0.002 A 
BRANCH  16  21
ATOM     21  C   UNL     1       3.732   1.537   2.973  1.00  0.00     0.257 C 
ATOM     22  N   UNL     1       4.595   0.596   3.498  1.00  0.00    -0.322 N 
ATOM     23  H   UNL     1       5.212   0.972   4.166  1.00  0.00     0.170 HD
ATOM     24  O   UNL     1       3.916   2.708   3.320  1.00  0.00    -0.269 OA
BRANCH  22  25
ATOM     25  C   UNL     1       4.787  -0.781   3.291  1.00  0.00     0.041 A 
ATOM     26  C   UNL     1       4.004  -4.998   3.395  1.00  0.00     0.044 C 
ATOM     27  C   UNL     1       4.435  -3.562   3.317  1.00  0.00    -0.051 A 
ATOM     28  C   UNL     1       4.239  -2.831   2.138  1.00  0.00     0.005 A 
ATOM     29  C   UNL     1       4.926  -2.905   4.449  1.00  0.00     0.005 A 
ATOM     30  C   UNL     1       4.433  -1.444   2.117  1.00  0.00     0.026 A 
ATOM     31  C   UNL     1       5.126  -1.523   4.430  1.00  0.00     0.026 A 
ENDBRANCH  22  25
ENDBRANCH  16  21
ENDBRANCH  12  15
ENDBRANCH   6  11
ENDBRANCH   3   5
ENDBRANCH   2   3
ENDBRANCH   1   2
BRANCH   1  32
ATOM     32  C   UNL     1      -0.478   2.967   5.721  1.00  0.00     0.275 C 
BRANCH  32  33
ATOM     33  O   UNL     1      -1.476   2.824   4.660  1.00  0.00    -0.458 OA
BRANCH  33  34
ATOM     34  C   UNL     1      -1.613   1.827   3.738  1.00  0.00     0.338 C 
ATOM     35  O   UNL     1      -2.058   2.012   2.615  1.00  0.00    -0.246 OA
BRANCH  34  36
ATOM     36  C   UNL     1      -1.521   0.438   4.243  1.00  0.00     0.060 A 
ATOM     37  C   UNL     1      -3.087  -0.303   4.709  1.00  0.00     0.016 A 
ATOM     38  C   UNL     1      -0.032   0.033   5.134  1.00  0.00     0.016 A 
ATOM     39  C   UNL     1      -3.159  -1.323   6.212  1.00  0.00     0.010 A 
ATOM     40  C   UNL     1      -0.068  -1.052   6.567  1.00  0.00     0.010 A 
ATOM     41  C   UNL     1      -1.655  -1.599   7.190  1.00  0.00    -0.014 A 
BRANCH  41  42
ATOM     42  C   UNL     1      -1.625  -1.793   8.625  1.00  0.00     0.031 A 
ATOM     43  C   UNL     1      -0.833  -2.904   9.178  1.00  0.00     0.074 A 
ATOM     44  C   UNL     1      -2.188  -0.821   9.374  1.00  0.00     0.049 A 
ATOM     45  N   UNL     1      -1.181  -3.551  10.235  1.00  0.00    -0.248 NA
ATOM     46  C   UNL     1       0.347  -3.487   8.533  1.00  0.00     0.031 C 
ATOM     47  C   UNL     1      -2.073  -0.583  10.804  1.00  0.00     0.029 A 
ATOM     48  N   UNL     1      -3.076   0.170   8.990  1.00  0.00    -0.354 N 
ATOM     49  C   UNL     1      -0.123  -4.368  10.572  1.00  0.00     0.074 A 
ATOM     50  C   UNL     1       0.660  -4.470   9.377  1.00  0.00     0.031 C 
ATOM     51  C   UNL     1      -3.067   0.246  11.186  1.00  0.00     0.029 A 
ATOM     52  C   UNL     1      -3.923   0.487  10.031  1.00  0.00     0.049 A 
ATOM     53  H   UNL     1      -3.099   0.589   8.100  1.00  0.00     0.167 HD
ATOM     54  C   UNL     1       0.080  -4.665  11.888  1.00  0.00     0.037 A 
ATOM     55  C   UNL     1      -5.258   0.207   9.942  1.00  0.00     0.037 A 
ATOM     56  C   UNL     1      -0.987  -4.049  12.686  1.00  0.00     0.049 A 
ATOM     57  C   UNL     1      -5.603  -0.954  10.857  1.00  0.00     0.074 A 
ATOM     58  C   UNL     1      -1.040  -2.867  13.409  1.00  0.00     0.029 A 
ATOM     59  N   UNL     1      -2.309  -4.425  12.460  1.00  0.00    -0.354 N 
ATOM     60  N   UNL     1      -4.724  -1.808  11.313  1.00  0.00    -0.248 NA
ATOM     61  C   UNL     1      -6.944  -1.216  11.364  1.00  0.00     0.031 C 
ATOM     62  C   UNL     1      -2.407  -2.503  13.554  1.00  0.00     0.029 A 
ATOM     63  C   UNL     1      -3.188  -3.470  12.941  1.00  0.00     0.049 A 
ATOM     64  H   UNL     1      -2.583  -5.260  12.016  1.00  0.00     0.167 HD
ATOM     65  C   UNL     1      -5.325  -2.678  12.179  1.00  0.00     0.074 A 
ATOM     66  C   UNL     1      -6.717  -2.263  12.177  1.00  0.00     0.031 C 
ATOM     67  C   UNL     1      -4.631  -3.662  12.832  1.00  0.00     0.037 A 
BRANCH  54  68
ATOM     68  C   UNL     1       1.379  -5.197  12.475  1.00  0.00     0.064 A 
ATOM     69  C   UNL     1       1.647  -5.046  13.854  1.00  0.00     0.173 A 
ATOM     70  C   UNL     1       2.418  -5.829  11.758  1.00  0.00     0.173 A 
ATOM     71  F   UNL     1       0.733  -4.537  14.691  1.00  0.00    -0.203 F 
ATOM     72  C   UNL     1       2.865  -5.418  14.438  1.00  0.00     0.198 A 
ATOM     73  C   UNL     1       3.650  -6.167  12.332  1.00  0.00     0.198 A 
ATOM     74  F   UNL     1       2.278  -6.210  10.487  1.00  0.00    -0.203 F 
ATOM     75  F   UNL     1       3.051  -5.242  15.753  1.00  0.00    -0.200 F 
ATOM     76  C   UNL     1       3.875  -5.959  13.672  1.00  0.00     0.200 A 
ATOM     77  F   UNL     1       4.609  -6.710  11.568  1.00  0.00    -0.200 F 
ATOM     78  F   UNL     1       5.045  -6.304  14.226  1.00  0.00    -0.200 F 
ENDBRANCH  54  68
BRANCH  55  79
ATOM     79  C   UNL     1      -5.868   0.508   8.606  1.00  0.00     0.064 A 
ATOM     80  C   UNL     1      -5.787   1.837   8.130  1.00  0.00     0.173 A 
ATOM     81  C   UNL     1      -6.225  -0.468   7.668  1.00  0.00     0.173 A 
ATOM     82  F   UNL     1      -5.499   2.832   8.984  1.00  0.00    -0.203 F 
ATOM     83  C   UNL     1      -5.906   2.150   6.774  1.00  0.00     0.198 A 
ATOM     84  C   UNL     1      -6.362  -0.148   6.307  1.00  0.00     0.198 A 
ATOM     85  F   UNL     1      -6.311  -1.757   8.027  1.00  0.00    -0.203 F 
ATOM     86  F   UNL     1      -5.700   3.407   6.355  1.00  0.00    -0.200 F 
ATOM     87  C   UNL     1      -6.164   1.150   5.858  1.00  0.00     0.200 A 
ATOM     88  F   UNL     1      -6.556  -1.127   5.408  1.00  0.00    -0.200 F 
ATOM     89  F   UNL     1      -6.165   1.418   4.543  1.00  0.00    -0.200 F 
ENDBRANCH  55  79
BRANCH  67  90
ATOM     90  C   UNL     1      -5.252  -4.860  13.516  1.00  0.00     0.064 A 
ATOM     91  C   UNL     1      -6.530  -5.358  13.215  1.00  0.00     0.173 A 
ATOM     92  C   UNL     1      -4.493  -5.658  14.411  1.00  0.00     0.173 A 
ATOM     93  F   UNL     1      -7.299  -4.798  12.272  1.00  0.00    -0.203 F 
ATOM     94  C   UNL     1      -7.044  -6.502  13.829  1.00  0.00     0.198 A 
ATOM     95  C   UNL     1      -4.975  -6.848  14.949  1.00  0.00     0.198 A 
ATOM     96  F   UNL     1      -3.243  -5.330  14.770  1.00  0.00    -0.203 F 
ATOM     97  F   UNL     1      -8.299  -6.888  13.559  1.00  0.00    -0.200 F 
ATOM     98  C   UNL     1      -6.263  -7.255  14.682  1.00  0.00     0.200 A 
ATOM     99  F   UNL     1      -4.172  -7.606  15.710  1.00  0.00    -0.200 F 
ATOM    100  F   UNL     1      -6.741  -8.381  15.226  1.00  0.00    -0.200 F 
ENDBRANCH  67  90
ENDBRANCH  41  42
ENDBRANCH  34  36
ENDBRANCH  33  34
ENDBRANCH  32  33
ENDBRANCH   1  32
TORSDOF 15
