REMARK SMILES CCN(C(=O)Cc1c(C(=O)OCCOC(=O)c2ccc(-c3c4nc(c(-c5c(F)c(F)c(F)c(F)c5F)c5ccc([nH]5)c(-c5c(F)c(F)c(F)c(F)c5F)c5nc(c(-c6c(F)c(F)c(F)c(F)c6F)c6ccc3[nH]6)C=C5)C=C4)cc2)[nH]c2ccccc12)c1cccc(C)c1
REMARK SMILES IDX 12 1 11 2 9 3 10 4 8 5 7 6 86 7 80 8 81 9 85 10 82 12 84 13
REMARK SMILES IDX 83 14 6 15 4 16 5 17 3 18 2 19 1 20 87 21 88 22 93 23 89 24
REMARK SMILES IDX 91 25 90 26 92 27 13 28 14 29 15 30 16 31 17 32 18 33 79 34
REMARK SMILES IDX 19 35 78 36 20 37 21 38 22 39 72 40 23 41 77 42 71 43 73 44
REMARK SMILES IDX 24 45 76 46 70 47 69 48 25 50 57 51 37 52 56 53 38 54 41 55
REMARK SMILES IDX 55 56 74 57 39 58 40 59 54 61 75 62 42 63 26 64 27 65 35 66
REMARK SMILES IDX 28 67 29 68 33 69 36 70 30 71 31 72 34 73 32 74 58 75 59 76
REMARK SMILES IDX 67 77 60 78 61 79 65 80 68 81 62 82 63 83 66 84 64 85 43 86
REMARK SMILES IDX 44 87 52 88 45 89 46 90 50 91 53 92 47 93 48 94 51 95 49 96
REMARK H PARENT 80 11 73 49 41 60
REMARK Flexibility Score: inf
ROOT
ATOM      1  C   UNL     1       0.060  -0.497   2.290  1.00  0.00     0.275 C 
ENDROOT
BRANCH   1   2
ATOM      2  O   UNL     1      -0.584  -0.693   1.002  1.00  0.00    -0.457 OA
BRANCH   2   3
ATOM      3  C   UNL     1      -1.547   0.225   0.665  1.00  0.00     0.355 C 
ATOM      4  O   UNL     1      -1.931   1.123   1.385  1.00  0.00    -0.244 OA
BRANCH   3   5
ATOM      5  C   UNL     1      -1.948   0.054  -0.727  1.00  0.00     0.129 A 
ATOM      6  C   UNL     1      -1.847   0.966  -1.787  1.00  0.00     0.002 A 
ATOM      7  C   UNL     1      -2.697   0.491  -2.825  1.00  0.00     0.004 A 
ATOM      8  N   UNL     1      -2.527  -1.079  -1.251  1.00  0.00    -0.349 N 
ATOM      9  C   UNL     1      -3.063  -0.811  -2.493  1.00  0.00     0.046 A 
ATOM     10  C   UNL     1      -3.201   1.064  -4.009  1.00  0.00     0.010 A 
ATOM     11  H   UNL     1      -2.555  -1.956  -0.804  1.00  0.00     0.167 HD
ATOM     12  C   UNL     1      -3.853  -1.602  -3.334  1.00  0.00     0.027 A 
ATOM     13  C   UNL     1      -4.048   0.311  -4.826  1.00  0.00     0.001 A 
ATOM     14  C   UNL     1      -4.348  -1.010  -4.503  1.00  0.00     0.002 A 
BRANCH   6  15
ATOM     15  C   UNL     1      -1.136   2.281  -1.784  1.00  0.00     0.139 C 
BRANCH  15  16
ATOM     16  C   UNL     1       0.196   2.441  -2.558  1.00  0.00     0.231 C 
ATOM     17  O   UNL     1       0.249   3.318  -3.430  1.00  0.00    -0.274 OA
BRANCH  16  18
ATOM     18  N   UNL     1       1.333   1.710  -2.157  1.00  0.00    -0.312 N 
BRANCH  18  19
ATOM     19  C   UNL     1       1.236   0.533  -1.300  1.00  0.00     0.122 C 
ATOM     20  C   UNL     1       0.985  -0.767  -2.043  1.00  0.00     0.028 C 
ENDBRANCH  18  19
BRANCH  18  21
ATOM     21  C   UNL     1       2.685   2.169  -2.376  1.00  0.00     0.044 A 
ATOM     22  C   UNL     1       3.004   3.525  -2.432  1.00  0.00     0.026 A 
ATOM     23  C   UNL     1       3.753   1.258  -2.301  1.00  0.00     0.029 A 
ATOM     24  C   UNL     1       4.331   3.954  -2.293  1.00  0.00     0.002 A 
ATOM     25  C   UNL     1       5.075   1.668  -2.107  1.00  0.00    -0.049 A 
ATOM     26  C   UNL     1       5.360   3.031  -2.105  1.00  0.00     0.003 A 
ATOM     27  C   UNL     1       6.143   0.639  -1.886  1.00  0.00     0.044 C 
ENDBRANCH  18  21
ENDBRANCH  16  18
ENDBRANCH  15  16
ENDBRANCH   6  15
ENDBRANCH   3   5
ENDBRANCH   2   3
ENDBRANCH   1   2
BRANCH   1  28
ATOM     28  C   UNL     1       1.348   0.350   2.213  1.00  0.00     0.275 C 
BRANCH  28  29
ATOM     29  O   UNL     1       1.027   1.683   1.785  1.00  0.00    -0.458 OA
BRANCH  29  30
ATOM     30  C   UNL     1       2.035   2.595   1.696  1.00  0.00     0.338 C 
ATOM     31  O   UNL     1       3.198   2.407   2.004  1.00  0.00    -0.246 OA
BRANCH  30  32
ATOM     32  C   UNL     1       1.498   3.850   1.079  1.00  0.00     0.060 A 
ATOM     33  C   UNL     1       0.135   3.957   0.821  1.00  0.00     0.016 A 
ATOM     34  C   UNL     1       2.327   4.909   0.688  1.00  0.00     0.016 A 
ATOM     35  C   UNL     1      -0.373   5.004   0.056  1.00  0.00     0.010 A 
ATOM     36  C   UNL     1       1.785   6.044   0.038  1.00  0.00     0.010 A 
ATOM     37  C   UNL     1       0.421   6.103  -0.286  1.00  0.00    -0.014 A 
BRANCH  37  38
ATOM     38  C   UNL     1      -0.252   7.331  -0.810  1.00  0.00     0.031 A 
ATOM     39  C   UNL     1       0.095   7.958  -2.132  1.00  0.00     0.074 A 
ATOM     40  C   UNL     1      -1.245   7.879  -0.076  1.00  0.00     0.049 A 
ATOM     41  N   UNL     1      -0.236   9.140  -2.596  1.00  0.00    -0.248 NA
ATOM     42  C   UNL     1       0.900   7.159  -3.062  1.00  0.00     0.031 C 
ATOM     43  C   UNL     1      -1.762   7.340   1.186  1.00  0.00     0.029 A 
ATOM     44  N   UNL     1      -2.009   9.002  -0.283  1.00  0.00    -0.354 N 
ATOM     45  C   UNL     1       0.359   9.244  -3.848  1.00  0.00     0.074 A 
ATOM     46  C   UNL     1       1.060   7.998  -4.079  1.00  0.00     0.031 C 
ATOM     47  C   UNL     1      -2.777   8.096   1.612  1.00  0.00     0.029 A 
ATOM     48  C   UNL     1      -2.881   9.259   0.746  1.00  0.00     0.049 A 
ATOM     49  H   UNL     1      -1.938   9.566  -1.088  1.00  0.00     0.167 HD
ATOM     50  C   UNL     1       0.321  10.288  -4.713  1.00  0.00     0.037 A 
ATOM     51  C   UNL     1      -3.616  10.347   1.037  1.00  0.00     0.037 A 
ATOM     52  C   UNL     1      -0.436  11.501  -4.500  1.00  0.00     0.049 A 
ATOM     53  C   UNL     1      -3.553  11.532   0.130  1.00  0.00     0.074 A 
ATOM     54  C   UNL     1      -0.545  12.609  -5.326  1.00  0.00     0.029 A 
ATOM     55  N   UNL     1      -1.225  11.758  -3.389  1.00  0.00    -0.354 N 
ATOM     56  N   UNL     1      -2.890  11.676  -0.989  1.00  0.00    -0.248 NA
ATOM     57  C   UNL     1      -4.315  12.716   0.542  1.00  0.00     0.031 C 
ATOM     58  C   UNL     1      -1.362  13.553  -4.694  1.00  0.00     0.029 A 
ATOM     59  C   UNL     1      -1.803  13.015  -3.497  1.00  0.00     0.049 A 
ATOM     60  H   UNL     1      -1.357  11.139  -2.635  1.00  0.00     0.167 HD
ATOM     61  C   UNL     1      -3.151  12.966  -1.419  1.00  0.00     0.074 A 
ATOM     62  C   UNL     1      -4.053  13.556  -0.450  1.00  0.00     0.031 C 
ATOM     63  C   UNL     1      -2.680  13.603  -2.518  1.00  0.00     0.037 A 
BRANCH  50  64
ATOM     64  C   UNL     1       1.151  10.211  -5.963  1.00  0.00     0.064 A 
ATOM     65  C   UNL     1       0.774   9.434  -7.067  1.00  0.00     0.173 A 
ATOM     66  C   UNL     1       2.291  11.023  -6.093  1.00  0.00     0.173 A 
ATOM     67  F   UNL     1      -0.306   8.643  -6.998  1.00  0.00    -0.203 F 
ATOM     68  C   UNL     1       1.511   9.466  -8.251  1.00  0.00     0.198 A 
ATOM     69  C   UNL     1       3.010  11.071  -7.285  1.00  0.00     0.198 A 
ATOM     70  F   UNL     1       2.687  11.799  -5.073  1.00  0.00    -0.203 F 
ATOM     71  F   UNL     1       1.142   8.705  -9.291  1.00  0.00    -0.200 F 
ATOM     72  C   UNL     1       2.621  10.292  -8.362  1.00  0.00     0.200 A 
ATOM     73  F   UNL     1       4.069  11.886  -7.395  1.00  0.00    -0.200 F 
ATOM     74  F   UNL     1       3.311  10.341  -9.510  1.00  0.00    -0.200 F 
ENDBRANCH  50  64
BRANCH  51  75
ATOM     75  C   UNL     1      -4.374  10.378   2.314  1.00  0.00     0.064 A 
ATOM     76  C   UNL     1      -5.772  10.332   2.330  1.00  0.00     0.173 A 
ATOM     77  C   UNL     1      -3.701  10.383   3.547  1.00  0.00     0.173 A 
ATOM     78  F   UNL     1      -6.457  10.352   1.178  1.00  0.00    -0.203 F 
ATOM     79  C   UNL     1      -6.470  10.276   3.535  1.00  0.00     0.198 A 
ATOM     80  C   UNL     1      -4.398  10.290   4.747  1.00  0.00     0.198 A 
ATOM     81  F   UNL     1      -2.361  10.425   3.582  1.00  0.00    -0.203 F 
ATOM     82  F   UNL     1      -7.809  10.253   3.529  1.00  0.00    -0.200 F 
ATOM     83  C   UNL     1      -5.782  10.239   4.740  1.00  0.00     0.200 A 
ATOM     84  F   UNL     1      -3.727  10.229   5.906  1.00  0.00    -0.200 F 
ATOM     85  F   UNL     1      -6.455  10.153   5.896  1.00  0.00    -0.200 F 
ENDBRANCH  51  75
BRANCH  63  86
ATOM     86  C   UNL     1      -3.155  15.008  -2.732  1.00  0.00     0.064 A 
ATOM     87  C   UNL     1      -2.682  16.066  -1.942  1.00  0.00     0.173 A 
ATOM     88  C   UNL     1      -4.105  15.296  -3.721  1.00  0.00     0.173 A 
ATOM     89  F   UNL     1      -1.790  15.835  -0.967  1.00  0.00    -0.203 F 
ATOM     90  C   UNL     1      -3.168  17.359  -2.116  1.00  0.00     0.198 A 
ATOM     91  C   UNL     1      -4.570  16.594  -3.910  1.00  0.00     0.198 A 
ATOM     92  F   UNL     1      -4.588  14.316  -4.500  1.00  0.00    -0.203 F 
ATOM     93  F   UNL     1      -2.747  18.345  -1.313  1.00  0.00    -0.200 F 
ATOM     94  C   UNL     1      -4.109  17.622  -3.101  1.00  0.00     0.200 A 
ATOM     95  F   UNL     1      -5.476  16.848  -4.864  1.00  0.00    -0.200 F 
ATOM     96  F   UNL     1      -4.583  18.865  -3.261  1.00  0.00    -0.200 F 
ENDBRANCH  63  86
ENDBRANCH  37  38
ENDBRANCH  30  32
ENDBRANCH  29  30
ENDBRANCH  28  29
ENDBRANCH   1  28
TORSDOF 16
