REMARK SMILES C[C@H](C1CCCC1)[N@H+](CC(=O)OCCOC(=O)c1ccc(-c2c3nc(c(-c4c(F)c(F)c(F)c(F)c4F)c4ccc([nH]4)c(-c4c(F)c(F)c(F)c(F)c4F)c4nc(c(-c5c(F)c(F)c(F)c(F)c5F)c5ccc2[nH]5)C=C4)C=C3)cc1)CC(F)(F)F
REMARK SMILES IDX 13 1 12 2 10 3 11 4 9 5 8 6 2 8 1 9 3 10 4 11 7 12 5 13 6 14
REMARK SMILES IDX 81 15 82 16 83 17 84 18 85 19 14 20 15 21 16 22 17 23 18 24
REMARK SMILES IDX 19 25 80 26 20 27 79 28 21 29 22 30 23 31 73 32 24 33 78 34
REMARK SMILES IDX 72 35 74 36 25 37 77 38 71 39 70 40 26 42 58 43 38 44 57 45
REMARK SMILES IDX 39 46 42 47 56 48 75 49 40 50 41 51 55 53 76 54 43 55 27 56
REMARK SMILES IDX 28 57 36 58 29 59 30 60 34 61 37 62 31 63 32 64 35 65 33 66
REMARK SMILES IDX 59 67 60 68 68 69 61 70 62 71 66 72 69 73 63 74 64 75 67 76
REMARK SMILES IDX 65 77 44 78 45 79 53 80 46 81 47 82 51 83 54 84 48 85 49 86
REMARK SMILES IDX 52 87 50 88
REMARK H PARENT 8 7 74 41 42 52
REMARK Flexibility Score: inf
ROOT
ATOM      1  C   UNL     1       0.172   5.115  -2.679  1.00  0.00     0.274 C 
ENDROOT
BRANCH   1   2
ATOM      2  O   UNL     1       0.179   4.026  -1.739  1.00  0.00    -0.458 OA
BRANCH   2   3
ATOM      3  C   UNL     1      -0.832   3.931  -0.843  1.00  0.00     0.361 C 
ATOM      4  O   UNL     1      -1.723   4.764  -0.716  1.00  0.00    -0.245 OA
BRANCH   3   5
ATOM      5  C   UNL     1      -0.737   2.687   0.049  1.00  0.00     0.387 C 
BRANCH   5   6
ATOM      6  N   UNL     1      -0.044   1.543  -0.560  1.00  0.00    -0.316 N 
ATOM      7  H   UNL     1       0.373   1.507  -1.491  1.00  0.00     0.349 HD
BRANCH   6   8
ATOM      8  C   UNL     1       1.395   1.439  -0.359  1.00  0.00     0.184 C 
ATOM      9  C   UNL     1       2.155   1.979  -1.588  1.00  0.00     0.075 C 
BRANCH   8  10
ATOM     10  C   UNL     1       1.971   0.064   0.044  1.00  0.00     0.047 C 
ATOM     11  C   UNL     1       3.373   0.202   0.661  1.00  0.00     0.010 C 
ATOM     12  C   UNL     1       1.243  -0.695   1.154  1.00  0.00     0.010 C 
ATOM     13  C   UNL     1       3.641  -1.168   1.261  1.00  0.00     0.001 C 
ATOM     14  C   UNL     1       2.270  -1.718   1.647  1.00  0.00     0.001 C 
ENDBRANCH   8  10
ENDBRANCH   6   8
BRANCH   6  15
ATOM     15  C   UNL     1      -0.891   0.511  -1.174  1.00  0.00     0.380 C 
BRANCH  15  16
ATOM     16  C   UNL     1      -0.407  -0.475  -2.265  1.00  0.00     0.438 C 
ATOM     17  F   UNL     1       0.192  -1.558  -1.714  1.00  0.00    -0.165 F 
ATOM     18  F   UNL     1      -1.471  -0.949  -2.965  1.00  0.00    -0.165 F 
ATOM     19  F   UNL     1       0.457   0.060  -3.147  1.00  0.00    -0.165 F 
ENDBRANCH  15  16
ENDBRANCH   6  15
ENDBRANCH   5   6
ENDBRANCH   3   5
ENDBRANCH   2   3
ENDBRANCH   1   2
BRANCH   1  20
ATOM     20  C   UNL     1      -0.249   4.620  -4.062  1.00  0.00     0.275 C 
BRANCH  20  21
ATOM     21  O   UNL     1      -1.668   4.373  -4.088  1.00  0.00    -0.458 OA
BRANCH  21  22
ATOM     22  C   UNL     1      -2.033   3.090  -3.894  1.00  0.00     0.338 C 
ATOM     23  O   UNL     1      -1.318   2.110  -3.777  1.00  0.00    -0.246 OA
BRANCH  22  24
ATOM     24  C   UNL     1      -3.485   3.027  -3.732  1.00  0.00     0.060 A 
ATOM     25  C   UNL     1      -4.015   2.950  -2.440  1.00  0.00     0.016 A 
ATOM     26  C   UNL     1      -4.312   2.975  -4.854  1.00  0.00     0.016 A 
ATOM     27  C   UNL     1      -5.387   2.832  -2.263  1.00  0.00     0.010 A 
ATOM     28  C   UNL     1      -5.690   2.873  -4.674  1.00  0.00     0.010 A 
ATOM     29  C   UNL     1      -6.233   2.805  -3.380  1.00  0.00    -0.014 A 
BRANCH  29  30
ATOM     30  C   UNL     1      -7.697   2.759  -3.192  1.00  0.00     0.031 A 
ATOM     31  C   UNL     1      -8.454   1.497  -3.458  1.00  0.00     0.074 A 
ATOM     32  C   UNL     1      -8.329   3.879  -2.799  1.00  0.00     0.049 A 
ATOM     33  N   UNL     1      -9.746   1.296  -3.461  1.00  0.00    -0.248 NA
ATOM     34  C   UNL     1      -7.654   0.301  -3.762  1.00  0.00     0.031 C 
ATOM     35  C   UNL     1      -7.670   5.148  -2.485  1.00  0.00     0.029 A 
ATOM     36  N   UNL     1      -9.661   4.135  -2.607  1.00  0.00    -0.354 N 
ATOM     37  C   UNL     1      -9.918  -0.041  -3.789  1.00  0.00     0.074 A 
ATOM     38  C   UNL     1      -8.598  -0.605  -3.981  1.00  0.00     0.031 C 
ATOM     39  C   UNL     1      -8.601   6.051  -2.140  1.00  0.00     0.029 A 
ATOM     40  C   UNL     1      -9.919   5.438  -2.260  1.00  0.00     0.049 A 
ATOM     41  H   UNL     1     -10.363   3.453  -2.708  1.00  0.00     0.167 HD
ATOM     42  C   UNL     1     -11.079  -0.726  -3.920  1.00  0.00     0.037 A 
ATOM     43  C   UNL     1     -11.094   6.071  -2.091  1.00  0.00     0.037 A 
ATOM     44  C   UNL     1     -12.383  -0.146  -3.721  1.00  0.00     0.049 A 
ATOM     45  C   UNL     1     -12.366   5.297  -2.284  1.00  0.00     0.074 A 
ATOM     46  C   UNL     1     -13.624  -0.751  -3.821  1.00  0.00     0.029 A 
ATOM     47  N   UNL     1     -12.611   1.181  -3.382  1.00  0.00    -0.354 N 
ATOM     48  N   UNL     1     -12.523   4.035  -2.602  1.00  0.00    -0.248 NA
ATOM     49  C   UNL     1     -13.622   6.035  -2.103  1.00  0.00     0.031 C 
ATOM     50  C   UNL     1     -14.603   0.219  -3.577  1.00  0.00     0.029 A 
ATOM     51  C   UNL     1     -13.972   1.419  -3.287  1.00  0.00     0.049 A 
ATOM     52  H   UNL     1     -11.908   1.854  -3.232  1.00  0.00     0.167 HD
ATOM     53  C   UNL     1     -13.892   3.822  -2.650  1.00  0.00     0.074 A 
ATOM     54  C   UNL     1     -14.522   5.083  -2.310  1.00  0.00     0.031 C 
ATOM     55  C   UNL     1     -14.569   2.686  -2.950  1.00  0.00     0.037 A 
BRANCH  42  56
ATOM     56  C   UNL     1     -10.993  -2.165  -4.331  1.00  0.00     0.064 A 
ATOM     57  C   UNL     1     -10.570  -3.163  -3.441  1.00  0.00     0.173 A 
ATOM     58  C   UNL     1     -11.370  -2.556  -5.625  1.00  0.00     0.173 A 
ATOM     59  F   UNL     1     -10.185  -2.838  -2.197  1.00  0.00    -0.203 F 
ATOM     60  C   UNL     1     -10.511  -4.497  -3.837  1.00  0.00     0.198 A 
ATOM     61  C   UNL     1     -11.331  -3.893  -6.011  1.00  0.00     0.198 A 
ATOM     62  F   UNL     1     -11.783  -1.640  -6.514  1.00  0.00    -0.203 F 
ATOM     63  F   UNL     1     -10.071  -5.430  -2.981  1.00  0.00    -0.200 F 
ATOM     64  C   UNL     1     -10.897  -4.862  -5.119  1.00  0.00     0.200 A 
ATOM     65  F   UNL     1     -11.711  -4.244  -7.247  1.00  0.00    -0.200 F 
ATOM     66  F   UNL     1     -10.845  -6.147  -5.496  1.00  0.00    -0.200 F 
ENDBRANCH  42  56
BRANCH  43  67
ATOM     67  C   UNL     1     -11.106   7.512  -1.737  1.00  0.00     0.064 A 
ATOM     68  C   UNL     1     -11.495   7.937  -0.461  1.00  0.00     0.173 A 
ATOM     69  C   UNL     1     -10.697   8.490  -2.656  1.00  0.00     0.173 A 
ATOM     70  F   UNL     1     -11.913   7.040   0.444  1.00  0.00    -0.203 F 
ATOM     71  C   UNL     1     -11.478   9.287  -0.117  1.00  0.00     0.198 A 
ATOM     72  C   UNL     1     -10.656   9.837  -2.303  1.00  0.00     0.198 A 
ATOM     73  F   UNL     1     -10.313   8.133  -3.891  1.00  0.00    -0.203 F 
ATOM     74  F   UNL     1     -11.882   9.670   1.102  1.00  0.00    -0.200 F 
ATOM     75  C   UNL     1     -11.051  10.235  -1.035  1.00  0.00     0.200 A 
ATOM     76  F   UNL     1     -10.229  10.747  -3.189  1.00  0.00    -0.200 F 
ATOM     77  F   UNL     1     -11.023  11.531  -0.699  1.00  0.00    -0.200 F 
ENDBRANCH  43  67
BRANCH  55  78
ATOM     78  C   UNL     1     -16.064   2.762  -2.906  1.00  0.00     0.064 A 
ATOM     79  C   UNL     1     -16.793   3.397  -3.921  1.00  0.00     0.173 A 
ATOM     80  C   UNL     1     -16.773   2.175  -1.848  1.00  0.00     0.173 A 
ATOM     81  F   UNL     1     -16.155   3.989  -4.942  1.00  0.00    -0.203 F 
ATOM     82  C   UNL     1     -18.183   3.460  -3.868  1.00  0.00     0.198 A 
ATOM     83  C   UNL     1     -18.163   2.220  -1.810  1.00  0.00     0.198 A 
ATOM     84  F   UNL     1     -16.118   1.555  -0.856  1.00  0.00    -0.203 F 
ATOM     85  F   UNL     1     -18.859   4.108  -4.825  1.00  0.00    -0.200 F 
ATOM     86  C   UNL     1     -18.866   2.867  -2.816  1.00  0.00     0.200 A 
ATOM     87  F   UNL     1     -18.823   1.642  -0.797  1.00  0.00    -0.200 F 
ATOM     88  F   UNL     1     -20.204   2.929  -2.766  1.00  0.00    -0.200 F 
ENDBRANCH  55  78
ENDBRANCH  29  30
ENDBRANCH  22  24
ENDBRANCH  21  22
ENDBRANCH  20  21
ENDBRANCH   1  20
TORSDOF 16
