REMARK SMILES COc1cc(S(=O)(=O)Nc2cccc(C(=O)OCCOC(=O)c3ccc(-c4c5nc(c(-c6c(F)c(F)c(F)c(F)c6F)c6ccc([nH]6)c(-c6c(F)c(F)c(F)c(F)c6F)c6nc(c(-c7c(F)c(F)c(F)c(F)c7F)c7ccc4[nH]7)C=C6)C=C5)cc3)c2)c(OC)cc1C
REMARK SMILES IDX 18 1 17 2 15 3 16 4 14 5 10 6 11 7 86 8 12 9 13 10 9 11 6 13
REMARK SMILES IDX 7 14 8 15 5 16 3 17 4 18 91 19 90 20 92 21 87 22 2 23 1 24
REMARK SMILES IDX 88 25 89 26 19 27 20 28 21 29 22 30 23 31 24 32 85 33 25 34
REMARK SMILES IDX 84 35 26 36 27 37 28 38 78 39 29 40 83 41 77 42 79 43 30 44
REMARK SMILES IDX 82 45 76 46 75 47 31 49 63 50 43 51 62 52 44 53 47 54 61 55
REMARK SMILES IDX 80 56 45 57 46 58 60 60 81 61 48 62 32 63 33 64 41 65 34 66
REMARK SMILES IDX 35 67 39 68 42 69 36 70 37 71 40 72 38 73 64 74 65 75 73 76
REMARK SMILES IDX 66 77 67 78 71 79 74 80 68 81 69 82 72 83 70 84 49 85 50 86
REMARK SMILES IDX 58 87 51 88 52 89 56 90 59 91 53 92 54 93 57 94 55 95
REMARK H PARENT 9 12 79 48 47 59
REMARK Flexibility Score: inf
ROOT
ATOM      1  C   UNL     1       5.265   2.806  11.284  1.00  0.00     0.275 C 
ENDROOT
BRANCH   1   2
ATOM      2  O   UNL     1       4.325   3.388  10.369  1.00  0.00    -0.458 OA
BRANCH   2   3
ATOM      3  C   UNL     1       4.439   2.917   9.105  1.00  0.00     0.338 C 
ATOM      4  O   UNL     1       5.216   2.061   8.707  1.00  0.00    -0.246 OA
BRANCH   3   5
ATOM      5  C   UNL     1       3.555   3.631   8.170  1.00  0.00     0.062 A 
ATOM      6  C   UNL     1       1.474   3.686   6.929  1.00  0.00     0.050 A 
ATOM      7  C   UNL     1       2.069   4.531   5.993  1.00  0.00     0.027 A 
ATOM      8  C   UNL     1       2.196   3.319   8.074  1.00  0.00     0.042 A 
ATOM      9  C   UNL     1       3.415   4.889   6.123  1.00  0.00     0.003 A 
ATOM     10  C   UNL     1       4.170   4.406   7.188  1.00  0.00     0.016 A 
BRANCH   6  11
ATOM     11  N   UNL     1       0.189   3.093   6.752  1.00  0.00    -0.279 N 
ATOM     12  H   UNL     1      -0.292   2.811   7.564  1.00  0.00     0.180 HD
BRANCH  11  13
ATOM     13  S   UNL     1      -0.575   2.836   5.278  1.00  0.00     0.265 S 
ATOM     14  O   UNL     1      -0.829   4.138   4.692  1.00  0.00    -0.201 OA
ATOM     15  O   UNL     1      -1.676   1.938   5.564  1.00  0.00    -0.201 OA
BRANCH  13  16
ATOM     16  C   UNL     1       0.484   1.973   4.131  1.00  0.00     0.133 A 
ATOM     17  C   UNL     1       0.890   1.507   1.771  1.00  0.00     0.123 A 
ATOM     18  C   UNL     1       0.060   1.988   2.787  1.00  0.00     0.073 A 
ATOM     19  C   UNL     1       2.203   1.143   2.068  1.00  0.00    -0.005 A 
ATOM     20  C   UNL     1       2.570   1.024   3.416  1.00  0.00     0.055 A 
ATOM     21  C   UNL     1       3.239   0.867   1.018  1.00  0.00     0.048 C 
ATOM     22  C   UNL     1       1.705   1.387   4.460  1.00  0.00     0.139 A 
BRANCH  17  23
ATOM     23  O   UNL     1       0.373   1.494   0.504  1.00  0.00    -0.496 OA
ATOM     24  C   UNL     1       0.412   0.189  -0.086  1.00  0.00     0.278 C 
ENDBRANCH  17  23
BRANCH  22  25
ATOM     25  O   UNL     1       1.997   1.147   5.771  1.00  0.00    -0.495 OA
ATOM     26  C   UNL     1       3.329   0.738   6.067  1.00  0.00     0.278 C 
ENDBRANCH  22  25
ENDBRANCH  13  16
ENDBRANCH  11  13
ENDBRANCH   6  11
ENDBRANCH   3   5
ENDBRANCH   2   3
ENDBRANCH   1   2
BRANCH   1  27
ATOM     27  C   UNL     1       4.737   2.753  12.724  1.00  0.00     0.275 C 
BRANCH  27  28
ATOM     28  O   UNL     1       3.297   2.661  12.939  1.00  0.00    -0.458 OA
BRANCH  28  29
ATOM     29  C   UNL     1       2.344   2.038  12.191  1.00  0.00     0.338 C 
ATOM     30  O   UNL     1       1.203   2.433  12.130  1.00  0.00    -0.246 OA
BRANCH  29  31
ATOM     31  C   UNL     1       2.757   0.849  11.420  1.00  0.00     0.060 A 
ATOM     32  C   UNL     1       2.064   0.491  10.250  1.00  0.00     0.016 A 
ATOM     33  C   UNL     1       3.874   0.140  11.822  1.00  0.00     0.016 A 
ATOM     34  C   UNL     1       2.574  -0.505   9.425  1.00  0.00     0.010 A 
ATOM     35  C   UNL     1       4.507  -0.653  10.910  1.00  0.00     0.010 A 
ATOM     36  C   UNL     1       3.817  -1.038   9.756  1.00  0.00    -0.014 A 
BRANCH  36  37
ATOM     37  C   UNL     1       4.335  -2.282   9.224  1.00  0.00     0.031 A 
ATOM     38  C   UNL     1       5.126  -2.330   7.997  1.00  0.00     0.074 A 
ATOM     39  C   UNL     1       4.189  -3.288  10.115  1.00  0.00     0.049 A 
ATOM     40  N   UNL     1       5.128  -3.321   7.178  1.00  0.00    -0.248 NA
ATOM     41  C   UNL     1       5.988  -1.232   7.572  1.00  0.00     0.031 C 
ATOM     42  C   UNL     1       4.779  -4.606  10.205  1.00  0.00     0.029 A 
ATOM     43  N   UNL     1       3.288  -3.253  11.198  1.00  0.00    -0.354 N 
ATOM     44  C   UNL     1       6.250  -3.170   6.388  1.00  0.00     0.074 A 
ATOM     45  C   UNL     1       6.629  -1.784   6.533  1.00  0.00     0.031 C 
ATOM     46  C   UNL     1       4.005  -5.354  11.021  1.00  0.00     0.029 A 
ATOM     47  C   UNL     1       2.832  -4.555  11.375  1.00  0.00     0.049 A 
ATOM     48  H   UNL     1       3.031  -2.463  11.725  1.00  0.00     0.167 HD
ATOM     49  C   UNL     1       6.881  -4.290   5.921  1.00  0.00     0.037 A 
ATOM     50  C   UNL     1       1.535  -4.798  11.025  1.00  0.00     0.037 A 
ATOM     51  C   UNL     1       6.225  -5.480   6.473  1.00  0.00     0.049 A 
ATOM     52  C   UNL     1       1.490  -5.694   9.814  1.00  0.00     0.074 A 
ATOM     53  C   UNL     1       6.551  -6.269   7.566  1.00  0.00     0.029 A 
ATOM     54  N   UNL     1       4.893  -5.755   6.175  1.00  0.00    -0.354 N 
ATOM     55  N   UNL     1       2.405  -5.717   8.882  1.00  0.00    -0.248 NA
ATOM     56  C   UNL     1       0.444  -6.684   9.615  1.00  0.00     0.031 C 
ATOM     57  C   UNL     1       5.388  -6.977   7.960  1.00  0.00     0.029 A 
ATOM     58  C   UNL     1       4.355  -6.623   7.109  1.00  0.00     0.049 A 
ATOM     59  H   UNL     1       4.403  -5.385   5.406  1.00  0.00     0.167 HD
ATOM     60  C   UNL     1       2.144  -6.752   8.024  1.00  0.00     0.074 A 
ATOM     61  C   UNL     1       0.900  -7.317   8.522  1.00  0.00     0.031 C 
ATOM     62  C   UNL     1       2.981  -7.092   6.997  1.00  0.00     0.037 A 
BRANCH  49  63
ATOM     63  C   UNL     1       8.279  -4.323   5.324  1.00  0.00     0.064 A 
ATOM     64  C   UNL     1       9.076  -5.489   5.408  1.00  0.00     0.173 A 
ATOM     65  C   UNL     1       8.898  -3.244   4.664  1.00  0.00     0.173 A 
ATOM     66  F   UNL     1       8.592  -6.638   5.895  1.00  0.00    -0.203 F 
ATOM     67  C   UNL     1      10.408  -5.531   4.983  1.00  0.00     0.198 A 
ATOM     68  C   UNL     1      10.243  -3.273   4.269  1.00  0.00     0.198 A 
ATOM     69  F   UNL     1       8.207  -2.147   4.328  1.00  0.00    -0.203 F 
ATOM     70  F   UNL     1      11.110  -6.666   5.108  1.00  0.00    -0.200 F 
ATOM     71  C   UNL     1      11.002  -4.413   4.440  1.00  0.00     0.200 A 
ATOM     72  F   UNL     1      10.797  -2.186   3.712  1.00  0.00    -0.200 F 
ATOM     73  F   UNL     1      12.285  -4.444   4.055  1.00  0.00    -0.200 F 
ENDBRANCH  49  63
BRANCH  50  74
ATOM     74  C   UNL     1       0.596  -3.653  11.306  1.00  0.00     0.064 A 
ATOM     75  C   UNL     1       0.606  -3.063  12.594  1.00  0.00     0.173 A 
ATOM     76  C   UNL     1      -0.095  -2.953  10.309  1.00  0.00     0.173 A 
ATOM     77  F   UNL     1       1.248  -3.672  13.606  1.00  0.00    -0.203 F 
ATOM     78  C   UNL     1       0.057  -1.804  12.842  1.00  0.00     0.198 A 
ATOM     79  C   UNL     1      -0.673  -1.700  10.568  1.00  0.00     0.198 A 
ATOM     80  F   UNL     1      -0.155  -3.432   9.059  1.00  0.00    -0.203 F 
ATOM     81  F   UNL     1       0.204  -1.234  14.047  1.00  0.00    -0.200 F 
ATOM     82  C   UNL     1      -0.575  -1.118  11.824  1.00  0.00     0.200 A 
ATOM     83  F   UNL     1      -1.256  -1.015   9.573  1.00  0.00    -0.200 F 
ATOM     84  F   UNL     1      -1.048   0.118  12.035  1.00  0.00    -0.200 F 
ENDBRANCH  50  74
BRANCH  62  85
ATOM     85  C   UNL     1       2.640  -8.017   5.851  1.00  0.00     0.064 A 
ATOM     86  C   UNL     1       1.330  -8.304   5.439  1.00  0.00     0.173 A 
ATOM     87  C   UNL     1       3.662  -8.543   5.019  1.00  0.00     0.173 A 
ATOM     88  F   UNL     1       0.269  -7.740   6.028  1.00  0.00    -0.203 F 
ATOM     89  C   UNL     1       1.062  -9.135   4.350  1.00  0.00     0.198 A 
ATOM     90  C   UNL     1       3.388  -9.299   3.882  1.00  0.00     0.198 A 
ATOM     91  F   UNL     1       4.963  -8.317   5.256  1.00  0.00    -0.203 F 
ATOM     92  F   UNL     1      -0.209  -9.435   4.049  1.00  0.00    -0.200 F 
ATOM     93  C   UNL     1       2.088  -9.620   3.565  1.00  0.00     0.200 A 
ATOM     94  F   UNL     1       4.395  -9.694   3.089  1.00  0.00    -0.200 F 
ATOM     95  F   UNL     1       1.823 -10.371   2.489  1.00  0.00    -0.200 F 
ENDBRANCH  62  85
ENDBRANCH  36  37
ENDBRANCH  29  31
ENDBRANCH  28  29
ENDBRANCH  27  28
ENDBRANCH   1  27
TORSDOF 16
