REMARK SMILES Cc1nsc(NC(=O)[C@H]2Cc3[nH]cnc3C[NH2+]2)c1C(=O)OCCOC(=O)c1ccc(-c2c3nc(c(-c4c(F)c(F)c(F)c(F)c4F)c4ccc([nH]4)c(-c4c(F)c(F)c(F)c(F)c4F)c4nc(c(-c5c(F)c(F)c(F)c(F)c5F)c5ccc2[nH]5)C=C4)C=C3)cc1
REMARK SMILES IDX 22 1 21 2 19 3 20 4 18 5 1 6 2 7 3 8 4 9 5 10 6 11 7 12 8 14
REMARK SMILES IDX 9 15 10 16 17 17 11 18 16 19 12 22 15 23 13 24 14 26 23 27
REMARK SMILES IDX 24 28 25 29 26 30 27 31 28 32 89 33 29 34 88 35 30 36 31 37
REMARK SMILES IDX 32 38 82 39 33 40 87 41 81 42 83 43 34 44 86 45 80 46 79 47
REMARK SMILES IDX 35 49 67 50 47 51 66 52 48 53 51 54 65 55 84 56 49 57 50 58
REMARK SMILES IDX 64 60 85 61 52 62 36 63 37 64 45 65 38 66 39 67 43 68 46 69
REMARK SMILES IDX 40 70 41 71 44 72 42 73 68 74 69 75 77 76 70 77 71 78 75 79
REMARK SMILES IDX 78 80 72 81 73 82 76 83 74 84 53 85 54 86 62 87 55 88 56 89
REMARK SMILES IDX 60 90 63 91 57 92 58 93 61 94 59 95
REMARK H PARENT 6 13 17 20 17 21 12 25 83 48 51 59
REMARK Flexibility Score: inf
ROOT
ATOM      1  C   UNL     1      -2.999   1.711  -0.646  1.00  0.00     0.275 C 
ENDROOT
BRANCH   1   2
ATOM      2  O   UNL     1      -1.810   1.002  -0.256  1.00  0.00    -0.458 OA
BRANCH   2   3
ATOM      3  C   UNL     1      -1.944  -0.344  -0.039  1.00  0.00     0.343 C 
ATOM      4  O   UNL     1      -2.990  -0.903   0.208  1.00  0.00    -0.246 OA
BRANCH   3   5
ATOM      5  C   UNL     1      -0.718  -1.050  -0.386  1.00  0.00     0.117 A 
ATOM      6  C   UNL     1       1.100   0.779   0.054  1.00  0.00     0.069 C 
ATOM      7  C   UNL     1       0.613  -0.509  -0.506  1.00  0.00     0.068 A 
ATOM      8  N   UNL     1       1.469  -1.240  -1.227  1.00  0.00    -0.195 NA
ATOM      9  S   UNL     1       0.606  -2.502  -1.874  1.00  0.00    -0.017 S 
ATOM     10  C   UNL     1      -0.681  -2.388  -0.752  1.00  0.00     0.131 A 
BRANCH  10  11
ATOM     11  N   UNL     1      -1.644  -3.357  -0.632  1.00  0.00    -0.310 N 
ATOM     12  C   UNL     1      -1.601  -4.716  -0.608  1.00  0.00     0.283 C 
ATOM     13  H   UNL     1      -2.554  -2.994  -0.545  1.00  0.00     0.171 HD
ATOM     14  O   UNL     1      -2.712  -5.255  -0.761  1.00  0.00    -0.268 OA
BRANCH  12  15
ATOM     15  C   UNL     1      -0.359  -5.625  -0.326  1.00  0.00     0.279 C 
ATOM     16  C   UNL     1       1.024  -5.025   0.009  1.00  0.00     0.131 C 
ATOM     17  N   UNL     1      -0.730  -6.579   0.798  1.00  0.00    -0.331 N 
ATOM     18  C   UNL     1       1.964  -6.160   0.077  1.00  0.00     0.050 A 
ATOM     19  C   UNL     1       0.217  -7.720   0.994  1.00  0.00     0.320 C 
ATOM     20  H   UNL     1      -1.653  -6.965   0.596  1.00  0.00     0.347 HD
ATOM     21  H   UNL     1      -0.701  -6.033   1.659  1.00  0.00     0.347 HD
ATOM     22  N   UNL     1       3.172  -6.296  -0.537  1.00  0.00    -0.348 N 
ATOM     23  C   UNL     1       1.591  -7.409   0.496  1.00  0.00     0.116 A 
ATOM     24  C   UNL     1       3.474  -7.632  -0.489  1.00  0.00     0.197 A 
ATOM     25  H   UNL     1       3.718  -5.580  -0.934  1.00  0.00     0.167 HD
ATOM     26  N   UNL     1       2.554  -8.323   0.157  1.00  0.00    -0.236 NA
ENDBRANCH  12  15
ENDBRANCH  10  11
ENDBRANCH   3   5
ENDBRANCH   2   3
ENDBRANCH   1   2
BRANCH   1  27
ATOM     27  C   UNL     1      -3.169   1.669  -2.161  1.00  0.00     0.275 C 
BRANCH  27  28
ATOM     28  O   UNL     1      -3.684   0.403  -2.591  1.00  0.00    -0.458 OA
BRANCH  28  29
ATOM     29  C   UNL     1      -2.764  -0.415  -3.143  1.00  0.00     0.338 C 
ATOM     30  O   UNL     1      -1.552  -0.324  -3.047  1.00  0.00    -0.246 OA
BRANCH  29  31
ATOM     31  C   UNL     1      -3.401  -1.333  -4.086  1.00  0.00     0.060 A 
ATOM     32  C   UNL     1      -2.704  -2.486  -4.460  1.00  0.00     0.016 A 
ATOM     33  C   UNL     1      -4.508  -0.871  -4.807  1.00  0.00     0.016 A 
ATOM     34  C   UNL     1      -3.024  -3.094  -5.658  1.00  0.00     0.010 A 
ATOM     35  C   UNL     1      -4.825  -1.478  -6.000  1.00  0.00     0.010 A 
ATOM     36  C   UNL     1      -4.028  -2.531  -6.452  1.00  0.00    -0.014 A 
BRANCH  36  37
ATOM     37  C   UNL     1      -4.255  -3.094  -7.771  1.00  0.00     0.031 A 
ATOM     38  C   UNL     1      -4.848  -4.457  -7.785  1.00  0.00     0.074 A 
ATOM     39  C   UNL     1      -4.098  -2.352  -8.885  1.00  0.00     0.049 A 
ATOM     40  N   UNL     1      -4.467  -5.500  -8.448  1.00  0.00    -0.248 NA
ATOM     41  C   UNL     1      -5.987  -4.701  -6.883  1.00  0.00     0.031 C 
ATOM     42  C   UNL     1      -3.820  -0.916  -8.985  1.00  0.00     0.029 A 
ATOM     43  N   UNL     1      -4.303  -2.716 -10.179  1.00  0.00    -0.354 N 
ATOM     44  C   UNL     1      -5.396  -6.497  -8.157  1.00  0.00     0.074 A 
ATOM     45  C   UNL     1      -6.243  -5.987  -7.112  1.00  0.00     0.031 C 
ATOM     46  C   UNL     1      -4.124  -0.495 -10.233  1.00  0.00     0.029 A 
ATOM     47  C   UNL     1      -4.498  -1.646 -11.037  1.00  0.00     0.049 A 
ATOM     48  H   UNL     1      -4.312  -3.653 -10.479  1.00  0.00     0.167 HD
ATOM     49  C   UNL     1      -5.528  -7.610  -8.926  1.00  0.00     0.037 A 
ATOM     50  C   UNL     1      -5.042  -1.706 -12.277  1.00  0.00     0.037 A 
ATOM     51  C   UNL     1      -4.336  -7.887  -9.678  1.00  0.00     0.049 A 
ATOM     52  C   UNL     1      -4.973  -3.119 -12.734  1.00  0.00     0.074 A 
ATOM     53  C   UNL     1      -3.023  -8.146  -9.330  1.00  0.00     0.029 A 
ATOM     54  N   UNL     1      -4.305  -7.596 -11.018  1.00  0.00    -0.354 N 
ATOM     55  N   UNL     1      -3.865  -3.745 -13.023  1.00  0.00    -0.248 NA
ATOM     56  C   UNL     1      -6.115  -3.975 -12.444  1.00  0.00     0.031 C 
ATOM     57  C   UNL     1      -2.243  -7.495 -10.329  1.00  0.00     0.029 A 
ATOM     58  C   UNL     1      -3.131  -6.921 -11.238  1.00  0.00     0.049 A 
ATOM     59  H   UNL     1      -4.989  -7.825 -11.689  1.00  0.00     0.167 HD
ATOM     60  C   UNL     1      -4.055  -5.037 -12.553  1.00  0.00     0.074 A 
ATOM     61  C   UNL     1      -5.487  -5.143 -12.289  1.00  0.00     0.031 C 
ATOM     62  C   UNL     1      -3.005  -5.811 -12.151  1.00  0.00     0.037 A 
BRANCH  49  63
ATOM     63  C   UNL     1      -6.853  -8.265  -9.211  1.00  0.00     0.064 A 
ATOM     64  C   UNL     1      -6.889  -9.521  -9.845  1.00  0.00     0.173 A 
ATOM     65  C   UNL     1      -8.085  -7.575  -9.146  1.00  0.00     0.173 A 
ATOM     66  F   UNL     1      -5.770 -10.246  -9.990  1.00  0.00    -0.203 F 
ATOM     67  C   UNL     1      -8.060 -10.019 -10.423  1.00  0.00     0.198 A 
ATOM     68  C   UNL     1      -9.261  -8.100  -9.675  1.00  0.00     0.198 A 
ATOM     69  F   UNL     1      -8.175  -6.326  -8.673  1.00  0.00    -0.203 F 
ATOM     70  F   UNL     1      -8.022 -11.162 -11.120  1.00  0.00    -0.200 F 
ATOM     71  C   UNL     1      -9.243  -9.307 -10.340  1.00  0.00     0.200 A 
ATOM     72  F   UNL     1     -10.392  -7.385  -9.604  1.00  0.00    -0.200 F 
ATOM     73  F   UNL     1     -10.351  -9.755 -10.945  1.00  0.00    -0.200 F 
ENDBRANCH  49  63
BRANCH  50  74
ATOM     74  C   UNL     1      -5.917  -0.694 -12.916  1.00  0.00     0.064 A 
ATOM     75  C   UNL     1      -6.143  -0.700 -14.300  1.00  0.00     0.173 A 
ATOM     76  C   UNL     1      -6.744   0.154 -12.151  1.00  0.00     0.173 A 
ATOM     77  F   UNL     1      -5.440  -1.519 -15.095  1.00  0.00    -0.203 F 
ATOM     78  C   UNL     1      -7.138   0.094 -14.883  1.00  0.00     0.198 A 
ATOM     79  C   UNL     1      -7.725   0.956 -12.733  1.00  0.00     0.198 A 
ATOM     80  F   UNL     1      -6.681   0.158 -10.812  1.00  0.00    -0.203 F 
ATOM     81  F   UNL     1      -7.362   0.023 -16.202  1.00  0.00    -0.200 F 
ATOM     82  C   UNL     1      -7.930   0.918 -14.099  1.00  0.00     0.200 A 
ATOM     83  F   UNL     1      -8.505   1.720 -11.957  1.00  0.00    -0.200 F 
ATOM     84  F   UNL     1      -8.913   1.642 -14.650  1.00  0.00    -0.200 F 
ENDBRANCH  50  74
BRANCH  62  85
ATOM     85  C   UNL     1      -1.612  -5.324 -12.435  1.00  0.00     0.064 A 
ATOM     86  C   UNL     1      -1.084  -4.133 -11.908  1.00  0.00     0.173 A 
ATOM     87  C   UNL     1      -0.730  -6.170 -13.121  1.00  0.00     0.173 A 
ATOM     88  F   UNL     1      -1.829  -3.327 -11.143  1.00  0.00    -0.203 F 
ATOM     89  C   UNL     1       0.250  -3.782 -12.103  1.00  0.00     0.198 A 
ATOM     90  C   UNL     1       0.613  -5.835 -13.282  1.00  0.00     0.198 A 
ATOM     91  F   UNL     1      -1.159  -7.352 -13.591  1.00  0.00    -0.203 F 
ATOM     92  F   UNL     1       0.724  -2.633 -11.598  1.00  0.00    -0.200 F 
ATOM     93  C   UNL     1       1.099  -4.637 -12.784  1.00  0.00     0.200 A 
ATOM     94  F   UNL     1       1.444  -6.691 -13.893  1.00  0.00    -0.200 F 
ATOM     95  F   UNL     1       2.394  -4.322 -12.932  1.00  0.00    -0.200 F 
ENDBRANCH  62  85
ENDBRANCH  36  37
ENDBRANCH  29  31
ENDBRANCH  28  29
ENDBRANCH  27  28
ENDBRANCH   1  27
TORSDOF 13
