REMARK SMILES Cc1ccc(C(=O)OCCOC(=O)c2ccc(-c3c4nc(c(-c5c(F)c(F)c(F)c(F)c5F)c5ccc([nH]5)c(-c5c(F)c(F)c(F)c(F)c5F)c5nc(c(-c6c(F)c(F)c(F)c(F)c6F)c6ccc3[nH]6)C=C5)C=C4)cc2)cc1CNC(=O)C[N@@H+]1CCC[C@]2(CCOC2)C1
REMARK SMILES IDX 9 1 8 2 6 3 7 4 5 5 1 6 2 7 3 8 78 9 4 10 77 11 79 12 80 13
REMARK SMILES IDX 81 14 82 16 83 17 84 18 85 19 93 20 86 22 88 23 87 24 89 25
REMARK SMILES IDX 92 26 90 27 91 28 10 29 11 30 12 31 13 32 14 33 15 34 76 35
REMARK SMILES IDX 16 36 75 37 17 38 18 39 19 40 69 41 20 42 74 43 68 44 70 45
REMARK SMILES IDX 21 46 73 47 67 48 66 49 22 51 54 52 34 53 53 54 35 55 38 56
REMARK SMILES IDX 52 57 71 58 36 59 37 60 51 62 72 63 39 64 23 65 24 66 32 67
REMARK SMILES IDX 25 68 26 69 30 70 33 71 27 72 28 73 31 74 29 75 55 76 56 77
REMARK SMILES IDX 64 78 57 79 58 80 62 81 65 82 59 83 60 84 63 85 61 86 40 87
REMARK SMILES IDX 41 88 49 89 42 90 43 91 47 92 50 93 44 94 45 95 48 96 46 97
REMARK H PARENT 80 15 84 21 70 50 38 61
REMARK Flexibility Score: inf
ROOT
ATOM      1  C   UNL     1      -4.526   1.638  -2.196  1.00  0.00     0.275 C 
ENDROOT
BRANCH   1   2
ATOM      2  O   UNL     1      -3.260   0.955  -2.148  1.00  0.00    -0.458 OA
BRANCH   2   3
ATOM      3  C   UNL     1      -2.585   1.233  -1.004  1.00  0.00     0.338 C 
ATOM      4  O   UNL     1      -3.009   1.925  -0.085  1.00  0.00    -0.246 OA
BRANCH   3   5
ATOM      5  C   UNL     1      -1.186   0.776  -0.972  1.00  0.00     0.060 A 
ATOM      6  C   UNL     1       2.966  -0.077  -0.118  1.00  0.00     0.044 C 
ATOM      7  C   UNL     1       1.554   0.294  -0.474  1.00  0.00    -0.046 A 
ATOM      8  C   UNL     1       0.663  -0.749  -0.831  1.00  0.00     0.004 A 
ATOM      9  C   UNL     1       1.064   1.604  -0.430  1.00  0.00    -0.025 A 
ATOM     10  C   UNL     1      -0.692  -0.506  -1.126  1.00  0.00     0.016 A 
ATOM     11  C   UNL     1      -0.310   1.785  -0.612  1.00  0.00     0.021 A 
BRANCH   9  12
ATOM     12  C   UNL     1       1.855   2.880  -0.244  1.00  0.00     0.152 C 
BRANCH  12  13
ATOM     13  N   UNL     1       1.544   3.776  -1.356  1.00  0.00    -0.347 N 
ATOM     14  C   UNL     1       0.609   4.773  -1.406  1.00  0.00     0.275 C 
ATOM     15  H   UNL     1       2.075   3.645  -2.175  1.00  0.00     0.164 HD
ATOM     16  O   UNL     1       0.165   5.109  -2.507  1.00  0.00    -0.268 OA
BRANCH  14  17
ATOM     17  C   UNL     1       0.175   5.487  -0.126  1.00  0.00     0.363 C 
BRANCH  17  18
ATOM     18  N   UNL     1      -1.000   4.897   0.544  1.00  0.00    -0.327 N 
ATOM     19  C   UNL     1      -2.248   4.994  -0.230  1.00  0.00     0.262 C 
ATOM     20  C   UNL     1      -1.229   5.445   1.893  1.00  0.00     0.272 C 
ATOM     21  H   UNL     1      -0.756   3.910   0.620  1.00  0.00     0.348 HD
ATOM     22  C   UNL     1      -2.779   6.417  -0.359  1.00  0.00     0.062 C 
ATOM     23  C   UNL     1      -1.757   6.900   1.955  1.00  0.00     0.045 C 
ATOM     24  C   UNL     1      -2.953   7.079   1.003  1.00  0.00     0.021 C 
ATOM     25  C   UNL     1      -0.633   7.931   1.806  1.00  0.00     0.043 C 
ATOM     26  C   UNL     1      -2.212   7.229   3.376  1.00  0.00     0.173 C 
ATOM     27  C   UNL     1      -0.139   8.184   3.224  1.00  0.00     0.161 C 
ATOM     28  O   UNL     1      -1.018   7.489   4.109  1.00  0.00    -0.381 OA
ENDBRANCH  17  18
ENDBRANCH  14  17
ENDBRANCH  12  13
ENDBRANCH   9  12
ENDBRANCH   3   5
ENDBRANCH   2   3
ENDBRANCH   1   2
BRANCH   1  29
ATOM     29  C   UNL     1      -5.634   0.890  -2.949  1.00  0.00     0.275 C 
BRANCH  29  30
ATOM     30  O   UNL     1      -5.773  -0.556  -2.873  1.00  0.00    -0.458 OA
BRANCH  30  31
ATOM     31  C   UNL     1      -5.013  -1.391  -2.134  1.00  0.00     0.338 C 
ATOM     32  O   UNL     1      -4.501  -2.408  -2.589  1.00  0.00    -0.246 OA
BRANCH  31  33
ATOM     33  C   UNL     1      -4.888  -1.051  -0.710  1.00  0.00     0.060 A 
ATOM     34  C   UNL     1      -3.756  -1.502  -0.005  1.00  0.00     0.016 A 
ATOM     35  C   UNL     1      -5.810  -0.187  -0.126  1.00  0.00     0.016 A 
ATOM     36  C   UNL     1      -3.491  -1.021   1.267  1.00  0.00     0.010 A 
ATOM     37  C   UNL     1      -5.487   0.396   1.070  1.00  0.00     0.010 A 
ATOM     38  C   UNL     1      -4.374  -0.083   1.789  1.00  0.00    -0.014 A 
BRANCH  38  39
ATOM     39  C   UNL     1      -4.549   0.096   3.216  1.00  0.00     0.031 A 
ATOM     40  C   UNL     1      -3.919   1.194   3.955  1.00  0.00     0.074 A 
ATOM     41  C   UNL     1      -5.600  -0.667   3.601  1.00  0.00     0.049 A 
ATOM     42  N   UNL     1      -4.003   1.315   5.232  1.00  0.00    -0.248 NA
ATOM     43  C   UNL     1      -3.103   2.248   3.353  1.00  0.00     0.031 C 
ATOM     44  C   UNL     1      -6.548  -0.549   4.688  1.00  0.00     0.029 A 
ATOM     45  N   UNL     1      -5.982  -1.871   2.966  1.00  0.00    -0.354 N 
ATOM     46  C   UNL     1      -3.626   2.602   5.553  1.00  0.00     0.074 A 
ATOM     47  C   UNL     1      -2.931   3.083   4.390  1.00  0.00     0.031 C 
ATOM     48  C   UNL     1      -7.143  -1.748   4.861  1.00  0.00     0.029 A 
ATOM     49  C   UNL     1      -6.474  -2.697   3.975  1.00  0.00     0.049 A 
ATOM     50  H   UNL     1      -5.913  -2.083   2.007  1.00  0.00     0.167 HD
ATOM     51  C   UNL     1      -4.141   3.146   6.695  1.00  0.00     0.037 A 
ATOM     52  C   UNL     1      -5.669  -3.730   4.366  1.00  0.00     0.037 A 
ATOM     53  C   UNL     1      -4.883   2.117   7.414  1.00  0.00     0.049 A 
ATOM     54  C   UNL     1      -5.164  -3.483   5.768  1.00  0.00     0.074 A 
ATOM     55  C   UNL     1      -6.223   1.771   7.412  1.00  0.00     0.029 A 
ATOM     56  N   UNL     1      -4.186   1.010   7.877  1.00  0.00    -0.354 N 
ATOM     57  N   UNL     1      -4.911  -2.299   6.263  1.00  0.00    -0.248 NA
ATOM     58  C   UNL     1      -5.021  -4.551   6.747  1.00  0.00     0.031 C 
ATOM     59  C   UNL     1      -6.316   0.407   7.795  1.00  0.00     0.029 A 
ATOM     60  C   UNL     1      -5.035  -0.072   8.007  1.00  0.00     0.049 A 
ATOM     61  H   UNL     1      -3.224   0.998   8.084  1.00  0.00     0.167 HD
ATOM     62  C   UNL     1      -4.681  -2.418   7.607  1.00  0.00     0.074 A 
ATOM     63  C   UNL     1      -4.727  -3.848   7.854  1.00  0.00     0.031 C 
ATOM     64  C   UNL     1      -4.511  -1.352   8.444  1.00  0.00     0.037 A 
BRANCH  51  65
ATOM     65  C   UNL     1      -4.271   4.621   6.998  1.00  0.00     0.064 A 
ATOM     66  C   UNL     1      -5.384   5.103   7.728  1.00  0.00     0.173 A 
ATOM     67  C   UNL     1      -3.374   5.615   6.574  1.00  0.00     0.173 A 
ATOM     68  F   UNL     1      -6.279   4.273   8.277  1.00  0.00    -0.203 F 
ATOM     69  C   UNL     1      -5.636   6.463   7.921  1.00  0.00     0.198 A 
ATOM     70  C   UNL     1      -3.638   6.983   6.753  1.00  0.00     0.198 A 
ATOM     71  F   UNL     1      -2.209   5.287   6.003  1.00  0.00    -0.203 F 
ATOM     72  F   UNL     1      -6.728   6.847   8.599  1.00  0.00    -0.200 F 
ATOM     73  C   UNL     1      -4.778   7.406   7.408  1.00  0.00     0.200 A 
ATOM     74  F   UNL     1      -2.786   7.903   6.281  1.00  0.00    -0.200 F 
ATOM     75  F   UNL     1      -5.037   8.712   7.557  1.00  0.00    -0.200 F 
ENDBRANCH  51  65
BRANCH  52  76
ATOM     76  C   UNL     1      -4.892  -4.345   3.230  1.00  0.00     0.064 A 
ATOM     77  C   UNL     1      -5.608  -4.792   2.091  1.00  0.00     0.173 A 
ATOM     78  C   UNL     1      -3.503  -4.232   3.086  1.00  0.00     0.173 A 
ATOM     79  F   UNL     1      -6.944  -4.921   2.150  1.00  0.00    -0.203 F 
ATOM     80  C   UNL     1      -4.988  -5.008   0.859  1.00  0.00     0.198 A 
ATOM     81  C   UNL     1      -2.880  -4.475   1.851  1.00  0.00     0.198 A 
ATOM     82  F   UNL     1      -2.745  -3.805   4.104  1.00  0.00    -0.203 F 
ATOM     83  F   UNL     1      -5.727  -5.311  -0.219  1.00  0.00    -0.200 F 
ATOM     84  C   UNL     1      -3.623  -4.838   0.737  1.00  0.00     0.200 A 
ATOM     85  F   UNL     1      -1.561  -4.266   1.714  1.00  0.00    -0.200 F 
ATOM     86  F   UNL     1      -3.030  -4.962  -0.460  1.00  0.00    -0.200 F 
ENDBRANCH  52  76
BRANCH  64  87
ATOM     87  C   UNL     1      -3.878  -1.420   9.807  1.00  0.00     0.064 A 
ATOM     88  C   UNL     1      -2.936  -2.396  10.162  1.00  0.00     0.173 A 
ATOM     89  C   UNL     1      -4.047  -0.361  10.735  1.00  0.00     0.173 A 
ATOM     90  F   UNL     1      -2.590  -3.375   9.316  1.00  0.00    -0.203 F 
ATOM     91  C   UNL     1      -2.264  -2.356  11.382  1.00  0.00     0.198 A 
ATOM     92  C   UNL     1      -3.309  -0.279  11.909  1.00  0.00     0.198 A 
ATOM     93  F   UNL     1      -4.899   0.651  10.509  1.00  0.00    -0.203 F 
ATOM     94  F   UNL     1      -1.417  -3.344  11.699  1.00  0.00    -0.200 F 
ATOM     95  C   UNL     1      -2.434  -1.290  12.245  1.00  0.00     0.200 A 
ATOM     96  F   UNL     1      -3.429   0.799  12.696  1.00  0.00    -0.200 F 
ATOM     97  F   UNL     1      -1.739  -1.226  13.386  1.00  0.00    -0.200 F 
ENDBRANCH  64  87
ENDBRANCH  38  39
ENDBRANCH  31  33
ENDBRANCH  30  31
ENDBRANCH  29  30
ENDBRANCH   1  29
TORSDOF 15
