REMARK SMILES CCC[C@H](CNC(=O)N1C[C@H]2CCC[N@H+]2C[C@@H]1C)C(=O)OCCOC(=O)c1ccc(-c2c3nc(c(-c4c(F)c(F)c(F)c(F)c4F)c4ccc([nH]4)c(-c4c(F)c(F)c(F)c(F)c4F)c4nc(c(-c5c(F)c(F)c(F)c(F)c5F)c5ccc2[nH]5)C=C4)C=C3)cc1
REMARK SMILES IDX 22 1 21 2 19 3 20 4 4 5 3 6 2 7 1 8 5 9 6 10 7 11 8 13 9 14
REMARK SMILES IDX 10 15 17 16 11 17 16 18 18 19 12 20 15 21 13 22 14 23 23 25
REMARK SMILES IDX 24 26 25 27 26 28 27 29 28 30 89 31 29 32 88 33 30 34 31 35
REMARK SMILES IDX 32 36 82 37 33 38 87 39 81 40 83 41 34 42 86 43 80 44 79 45
REMARK SMILES IDX 35 47 67 48 47 49 66 50 48 51 51 52 65 53 84 54 49 55 50 56
REMARK SMILES IDX 64 58 85 59 52 60 36 61 37 62 45 63 38 64 39 65 43 66 46 67
REMARK SMILES IDX 40 68 41 69 44 70 42 71 68 72 69 73 77 74 70 75 71 76 75 77
REMARK SMILES IDX 78 78 72 79 73 80 76 81 74 82 53 83 54 84 62 85 55 86 56 87
REMARK SMILES IDX 60 88 63 89 57 90 58 91 61 92 59 93
REMARK H PARENT 6 12 15 24 83 46 51 57
REMARK Flexibility Score: inf
ROOT
ATOM      1  C   UNL     1       1.254  -3.776  -5.518  1.00  0.00     0.274 C 
ENDROOT
BRANCH   1   2
ATOM      2  O   UNL     1       0.846  -2.729  -4.617  1.00  0.00    -0.462 OA
BRANCH   2   3
ATOM      3  C   UNL     1       0.315  -3.113  -3.428  1.00  0.00     0.310 C 
ATOM      4  O   UNL     1       0.092  -4.275  -3.107  1.00  0.00    -0.252 OA
BRANCH   3   5
ATOM      5  C   UNL     1       0.046  -1.945  -2.489  1.00  0.00     0.118 C 
BRANCH   5   6
ATOM      6  C   UNL     1      -1.459  -1.700  -2.309  1.00  0.00     0.017 C 
BRANCH   6   7
ATOM      7  C   UNL     1      -2.064  -2.529  -1.164  1.00  0.00    -0.002 C 
ATOM      8  C   UNL     1      -1.617  -2.058   0.217  1.00  0.00     0.004 C 
ENDBRANCH   6   7
ENDBRANCH   5   6
BRANCH   5   9
ATOM      9  C   UNL     1       0.872  -0.689  -2.808  1.00  0.00     0.133 C 
BRANCH   9  10
ATOM     10  N   UNL     1       0.486  -0.001  -4.021  1.00  0.00    -0.337 N 
ATOM     11  C   UNL     1      -0.478   0.902  -4.282  1.00  0.00     0.318 C 
ATOM     12  H   UNL     1       1.032  -0.239  -4.805  1.00  0.00     0.165 HD
ATOM     13  O   UNL     1      -0.919   0.914  -5.433  1.00  0.00    -0.249 OA
BRANCH  11  14
ATOM     14  N   UNL     1      -0.967   1.715  -3.299  1.00  0.00    -0.311 N 
ATOM     15  C   UNL     1      -2.324   2.229  -3.482  1.00  0.00     0.186 C 
ATOM     16  C   UNL     1      -0.190   2.349  -2.200  1.00  0.00     0.139 C 
ATOM     17  C   UNL     1      -2.357   3.764  -3.498  1.00  0.00     0.204 C 
ATOM     18  C   UNL     1      -1.011   3.459  -1.468  1.00  0.00     0.287 C 
ATOM     19  C   UNL     1       1.143   2.927  -2.689  1.00  0.00     0.037 C 
ATOM     20  C   UNL     1      -3.784   4.302  -3.442  1.00  0.00     0.073 C 
ATOM     21  N   UNL     1      -1.632   4.426  -2.384  1.00  0.00    -0.329 N 
ATOM     22  C   UNL     1      -3.627   5.635  -2.740  1.00  0.00     0.068 C 
ATOM     23  C   UNL     1      -2.559   5.336  -1.704  1.00  0.00     0.262 C 
ATOM     24  H   UNL     1      -0.853   4.966  -2.760  1.00  0.00     0.348 HD
ENDBRANCH  11  14
ENDBRANCH   9  10
ENDBRANCH   5   9
ENDBRANCH   3   5
ENDBRANCH   2   3
ENDBRANCH   1   2
BRANCH   1  25
ATOM     25  C   UNL     1       2.778  -3.902  -5.530  1.00  0.00     0.275 C 
BRANCH  25  26
ATOM     26  O   UNL     1       3.271  -4.315  -4.239  1.00  0.00    -0.458 OA
BRANCH  26  27
ATOM     27  C   UNL     1       3.843  -3.340  -3.498  1.00  0.00     0.338 C 
ATOM     28  O   UNL     1       4.022  -2.174  -3.805  1.00  0.00    -0.246 OA
BRANCH  27  29
ATOM     29  C   UNL     1       4.120  -3.844  -2.145  1.00  0.00     0.060 A 
ATOM     30  C   UNL     1       3.253  -3.466  -1.120  1.00  0.00     0.016 A 
ATOM     31  C   UNL     1       5.276  -4.568  -1.859  1.00  0.00     0.016 A 
ATOM     32  C   UNL     1       3.530  -3.800   0.200  1.00  0.00     0.010 A 
ATOM     33  C   UNL     1       5.554  -4.913  -0.530  1.00  0.00     0.010 A 
ATOM     34  C   UNL     1       4.691  -4.517   0.508  1.00  0.00    -0.014 A 
BRANCH  34  35
ATOM     35  C   UNL     1       5.023  -4.779   1.929  1.00  0.00     0.031 A 
ATOM     36  C   UNL     1       6.124  -4.002   2.592  1.00  0.00     0.074 A 
ATOM     37  C   UNL     1       4.304  -5.668   2.637  1.00  0.00     0.049 A 
ATOM     38  N   UNL     1       6.617  -4.128   3.798  1.00  0.00    -0.248 NA
ATOM     39  C   UNL     1       6.753  -2.940   1.792  1.00  0.00     0.031 C 
ATOM     40  C   UNL     1       3.171  -6.437   2.123  1.00  0.00     0.029 A 
ATOM     41  N   UNL     1       4.418  -6.070   3.944  1.00  0.00    -0.354 N 
ATOM     42  C   UNL     1       7.630  -3.184   3.892  1.00  0.00     0.074 A 
ATOM     43  C   UNL     1       7.687  -2.495   2.620  1.00  0.00     0.031 C 
ATOM     44  C   UNL     1       2.688  -7.213   3.106  1.00  0.00     0.029 A 
ATOM     45  C   UNL     1       3.505  -7.031   4.303  1.00  0.00     0.049 A 
ATOM     46  H   UNL     1       5.088  -5.704   4.564  1.00  0.00     0.167 HD
ATOM     47  C   UNL     1       8.439  -2.919   4.945  1.00  0.00     0.037 A 
ATOM     48  C   UNL     1       3.364  -7.706   5.458  1.00  0.00     0.037 A 
ATOM     49  C   UNL     1       8.365  -3.587   6.217  1.00  0.00     0.049 A 
ATOM     50  C   UNL     1       4.303  -7.423   6.598  1.00  0.00     0.074 A 
ATOM     51  C   UNL     1       9.143  -3.390   7.345  1.00  0.00     0.029 A 
ATOM     52  N   UNL     1       7.449  -4.580   6.533  1.00  0.00    -0.354 N 
ATOM     53  N   UNL     1       5.282  -6.554   6.666  1.00  0.00    -0.248 NA
ATOM     54  C   UNL     1       4.124  -8.222   7.818  1.00  0.00     0.031 C 
ATOM     55  C   UNL     1       8.718  -4.285   8.333  1.00  0.00     0.029 A 
ATOM     56  C   UNL     1       7.651  -5.013   7.833  1.00  0.00     0.049 A 
ATOM     57  H   UNL     1       6.758  -4.926   5.923  1.00  0.00     0.167 HD
ATOM     58  C   UNL     1       5.826  -6.690   7.936  1.00  0.00     0.074 A 
ATOM     59  C   UNL     1       5.056  -7.714   8.612  1.00  0.00     0.031 C 
ATOM     60  C   UNL     1       6.872  -6.031   8.490  1.00  0.00     0.037 A 
BRANCH  47  61
ATOM     61  C   UNL     1       9.502  -1.879   4.752  1.00  0.00     0.064 A 
ATOM     62  C   UNL     1       9.198  -0.510   4.725  1.00  0.00     0.173 A 
ATOM     63  C   UNL     1      10.846  -2.259   4.620  1.00  0.00     0.173 A 
ATOM     64  F   UNL     1       7.926  -0.099   4.829  1.00  0.00    -0.203 F 
ATOM     65  C   UNL     1      10.201   0.440   4.553  1.00  0.00     0.198 A 
ATOM     66  C   UNL     1      11.848  -1.305   4.471  1.00  0.00     0.198 A 
ATOM     67  F   UNL     1      11.187  -3.556   4.641  1.00  0.00    -0.203 F 
ATOM     68  F   UNL     1       9.886   1.741   4.491  1.00  0.00    -0.200 F 
ATOM     69  C   UNL     1      11.525   0.043   4.432  1.00  0.00     0.200 A 
ATOM     70  F   UNL     1      13.127  -1.690   4.362  1.00  0.00    -0.200 F 
ATOM     71  F   UNL     1      12.489   0.960   4.271  1.00  0.00    -0.200 F 
ENDBRANCH  47  61
BRANCH  48  72
ATOM     72  C   UNL     1       2.301  -8.735   5.587  1.00  0.00     0.064 A 
ATOM     73  C   UNL     1       1.190  -8.524   6.413  1.00  0.00     0.173 A 
ATOM     74  C   UNL     1       2.378  -9.949   4.889  1.00  0.00     0.173 A 
ATOM     75  F   UNL     1       1.087  -7.390   7.121  1.00  0.00    -0.203 F 
ATOM     76  C   UNL     1       0.198  -9.495   6.545  1.00  0.00     0.198 A 
ATOM     77  C   UNL     1       1.374 -10.908   5.002  1.00  0.00     0.198 A 
ATOM     78  F   UNL     1       3.425 -10.198   4.089  1.00  0.00    -0.203 F 
ATOM     79  F   UNL     1      -0.836  -9.285   7.371  1.00  0.00    -0.200 F 
ATOM     80  C   UNL     1       0.288 -10.683   5.834  1.00  0.00     0.200 A 
ATOM     81  F   UNL     1       1.460 -12.050   4.306  1.00  0.00    -0.200 F 
ATOM     82  F   UNL     1      -0.668 -11.613   5.957  1.00  0.00    -0.200 F 
ENDBRANCH  48  72
BRANCH  60  83
ATOM     83  C   UNL     1       7.227  -6.382   9.903  1.00  0.00     0.064 A 
ATOM     84  C   UNL     1       7.886  -7.579  10.216  1.00  0.00     0.173 A 
ATOM     85  C   UNL     1       6.929  -5.499  10.951  1.00  0.00     0.173 A 
ATOM     86  F   UNL     1       8.177  -8.462   9.249  1.00  0.00    -0.203 F 
ATOM     87  C   UNL     1       8.215  -7.891  11.533  1.00  0.00     0.198 A 
ATOM     88  C   UNL     1       7.279  -5.803  12.264  1.00  0.00     0.198 A 
ATOM     89  F   UNL     1       6.303  -4.339  10.701  1.00  0.00    -0.203 F 
ATOM     90  F   UNL     1       8.806  -9.059  11.816  1.00  0.00    -0.200 F 
ATOM     91  C   UNL     1       7.916  -7.001  12.554  1.00  0.00     0.200 A 
ATOM     92  F   UNL     1       6.997  -4.939  13.249  1.00  0.00    -0.200 F 
ATOM     93  F   UNL     1       8.233  -7.302  13.821  1.00  0.00    -0.200 F 
ENDBRANCH  60  83
ENDBRANCH  34  35
ENDBRANCH  27  29
ENDBRANCH  26  27
ENDBRANCH  25  26
ENDBRANCH   1  25
TORSDOF 16
