REMARK SMILES O=C(OCCOC(=O)c1cccnc1SCC(=O)c1ccccc1Cl)c1ccc(-c2c3nc(c(-c4c(F)c(F)c(F)c(F)c4F)c4ccc([nH]4)c(-c4c(F)c(F)c(F)c(F)c4F)c4nc(c(-c5c(F)c(F)c(F)c(F)c5F)c5ccc2[nH]5)C=C4)C=C3)cc1
REMARK SMILES IDX 5 1 4 2 3 3 2 4 1 5 26 6 27 7 88 8 28 9 87 10 29 11 30 12
REMARK SMILES IDX 31 13 81 14 32 15 86 16 80 17 82 18 33 19 85 20 79 21 78 22
REMARK SMILES IDX 34 24 66 25 46 26 65 27 47 28 50 29 64 30 83 31 48 32 49 33
REMARK SMILES IDX 63 35 84 36 51 37 35 38 36 39 44 40 37 41 38 42 42 43 45 44
REMARK SMILES IDX 39 45 40 46 43 47 41 48 67 49 68 50 76 51 69 52 70 53 74 54
REMARK SMILES IDX 77 55 71 56 72 57 75 58 73 59 52 60 53 61 61 62 54 63 55 64
REMARK SMILES IDX 59 65 62 66 56 67 57 68 60 69 58 70 6 71 7 72 8 73 9 74
REMARK SMILES IDX 10 75 14 76 11 77 13 78 12 79 15 80 16 81 17 82 18 83 19 84
REMARK SMILES IDX 20 85 24 86 21 87 23 88 25 89 22 90
REMARK H PARENT 82 23 50 34
REMARK Flexibility Score: inf
ROOT
ATOM      1  C   UNL     1       3.944  -0.030   1.881  1.00  0.00     0.275 C 
ENDROOT
BRANCH   1   2
ATOM      2  C   UNL     1       4.598   1.079   1.054  1.00  0.00     0.275 C 
BRANCH   2   3
ATOM      3  O   UNL     1       3.936   1.422  -0.177  1.00  0.00    -0.458 OA
BRANCH   3   4
ATOM      4  C   UNL     1       4.050   0.802  -1.377  1.00  0.00     0.338 C 
ATOM      5  O   UNL     1       3.606   1.334  -2.391  1.00  0.00    -0.246 OA
BRANCH   4   6
ATOM      6  C   UNL     1       4.536  -0.600  -1.474  1.00  0.00     0.060 A 
ATOM      7  C   UNL     1       5.674  -1.101  -0.841  1.00  0.00     0.016 A 
ATOM      8  C   UNL     1       3.772  -1.469  -2.260  1.00  0.00     0.016 A 
ATOM      9  C   UNL     1       5.974  -2.463  -0.897  1.00  0.00     0.010 A 
ATOM     10  C   UNL     1       4.036  -2.839  -2.282  1.00  0.00     0.010 A 
ATOM     11  C   UNL     1       5.159  -3.342  -1.616  1.00  0.00    -0.014 A 
BRANCH  11  12
ATOM     12  C   UNL     1       5.636  -4.719  -1.879  1.00  0.00     0.031 A 
ATOM     13  C   UNL     1       6.176  -5.009  -3.251  1.00  0.00     0.074 A 
ATOM     14  C   UNL     1       5.690  -5.652  -0.909  1.00  0.00     0.049 A 
ATOM     15  N   UNL     1       6.784  -6.081  -3.686  1.00  0.00    -0.248 NA
ATOM     16  C   UNL     1       6.065  -3.935  -4.254  1.00  0.00     0.031 C 
ATOM     17  C   UNL     1       5.289  -5.452   0.481  1.00  0.00     0.029 A 
ATOM     18  N   UNL     1       6.105  -6.959  -0.944  1.00  0.00    -0.354 N 
ATOM     19  C   UNL     1       7.174  -5.780  -4.983  1.00  0.00     0.074 A 
ATOM     20  C   UNL     1       6.652  -4.476  -5.307  1.00  0.00     0.031 C 
ATOM     21  C   UNL     1       5.404  -6.614   1.150  1.00  0.00     0.029 A 
ATOM     22  C   UNL     1       5.922  -7.630   0.242  1.00  0.00     0.049 A 
ATOM     23  H   UNL     1       6.498  -7.378  -1.744  1.00  0.00     0.167 HD
ATOM     24  C   UNL     1       7.959  -6.504  -5.809  1.00  0.00     0.037 A 
ATOM     25  C   UNL     1       6.157  -8.919   0.555  1.00  0.00     0.037 A 
ATOM     26  C   UNL     1       8.469  -7.803  -5.483  1.00  0.00     0.049 A 
ATOM     27  C   UNL     1       6.880  -9.774  -0.454  1.00  0.00     0.074 A 
ATOM     28  C   UNL     1       9.286  -8.622  -6.237  1.00  0.00     0.029 A 
ATOM     29  N   UNL     1       8.188  -8.480  -4.305  1.00  0.00    -0.354 N 
ATOM     30  N   UNL     1       7.325  -9.446  -1.643  1.00  0.00    -0.248 NA
ATOM     31  C   UNL     1       7.190 -11.155  -0.059  1.00  0.00     0.031 C 
ATOM     32  C   UNL     1       9.443  -9.826  -5.545  1.00  0.00     0.029 A 
ATOM     33  C   UNL     1       8.779  -9.731  -4.332  1.00  0.00     0.049 A 
ATOM     34  H   UNL     1       7.650  -8.124  -3.562  1.00  0.00     0.167 HD
ATOM     35  C   UNL     1       8.021 -10.551  -2.110  1.00  0.00     0.074 A 
ATOM     36  C   UNL     1       7.936 -11.562  -1.076  1.00  0.00     0.031 C 
ATOM     37  C   UNL     1       8.686 -10.712  -3.281  1.00  0.00     0.037 A 
BRANCH  24  38
ATOM     38  C   UNL     1       8.300  -5.897  -7.134  1.00  0.00     0.064 A 
ATOM     39  C   UNL     1       9.174  -4.802  -7.238  1.00  0.00     0.173 A 
ATOM     40  C   UNL     1       7.751  -6.416  -8.313  1.00  0.00     0.173 A 
ATOM     41  F   UNL     1       9.704  -4.252  -6.135  1.00  0.00    -0.203 F 
ATOM     42  C   UNL     1       9.470  -4.239  -8.476  1.00  0.00     0.198 A 
ATOM     43  C   UNL     1       8.071  -5.868  -9.552  1.00  0.00     0.198 A 
ATOM     44  F   UNL     1       6.903  -7.454  -8.264  1.00  0.00    -0.203 F 
ATOM     45  F   UNL     1      10.270  -3.166  -8.549  1.00  0.00    -0.200 F 
ATOM     46  C   UNL     1       8.925  -4.778  -9.632  1.00  0.00     0.200 A 
ATOM     47  F   UNL     1       7.549  -6.392 -10.668  1.00  0.00    -0.200 F 
ATOM     48  F   UNL     1       9.217  -4.241 -10.824  1.00  0.00    -0.200 F 
ENDBRANCH  24  38
BRANCH  25  49
ATOM     49  C   UNL     1       5.734  -9.478   1.869  1.00  0.00     0.064 A 
ATOM     50  C   UNL     1       6.665  -9.914   2.822  1.00  0.00     0.173 A 
ATOM     51  C   UNL     1       4.373  -9.652   2.168  1.00  0.00     0.173 A 
ATOM     52  F   UNL     1       7.978  -9.782   2.583  1.00  0.00    -0.203 F 
ATOM     53  C   UNL     1       6.256 -10.544   3.997  1.00  0.00     0.198 A 
ATOM     54  C   UNL     1       3.964 -10.260   3.354  1.00  0.00     0.198 A 
ATOM     55  F   UNL     1       3.436  -9.242   1.300  1.00  0.00    -0.203 F 
ATOM     56  F   UNL     1       7.172 -11.010   4.858  1.00  0.00    -0.200 F 
ATOM     57  C   UNL     1       4.906 -10.719   4.261  1.00  0.00     0.200 A 
ATOM     58  F   UNL     1       2.658 -10.416   3.609  1.00  0.00    -0.200 F 
ATOM     59  F   UNL     1       4.515 -11.341   5.382  1.00  0.00    -0.200 F 
ENDBRANCH  25  49
BRANCH  37  60
ATOM     60  C   UNL     1       9.411 -12.008  -3.486  1.00  0.00     0.064 A 
ATOM     61  C   UNL     1       8.724 -13.212  -3.695  1.00  0.00     0.173 A 
ATOM     62  C   UNL     1      10.814 -12.033  -3.529  1.00  0.00     0.173 A 
ATOM     63  F   UNL     1       7.384 -13.241  -3.649  1.00  0.00    -0.203 F 
ATOM     64  C   UNL     1       9.416 -14.399  -3.910  1.00  0.00     0.198 A 
ATOM     65  C   UNL     1      11.501 -13.214  -3.784  1.00  0.00     0.198 A 
ATOM     66  F   UNL     1      11.518 -10.905  -3.345  1.00  0.00    -0.203 F 
ATOM     67  F   UNL     1       8.741 -15.548  -4.052  1.00  0.00    -0.200 F 
ATOM     68  C   UNL     1      10.802 -14.398  -3.965  1.00  0.00     0.200 A 
ATOM     69  F   UNL     1      12.839 -13.207  -3.857  1.00  0.00    -0.200 F 
ATOM     70  F   UNL     1      11.466 -15.541  -4.186  1.00  0.00    -0.200 F 
ENDBRANCH  37  60
ENDBRANCH  11  12
ENDBRANCH   4   6
ENDBRANCH   3   4
ENDBRANCH   2   3
ENDBRANCH   1   2
BRANCH   1  71
ATOM     71  O   UNL     1       3.331  -1.052   1.076  1.00  0.00    -0.458 OA
BRANCH  71  72
ATOM     72  C   UNL     1       2.374  -1.762   1.720  1.00  0.00     0.341 C 
ATOM     73  O   UNL     1       2.049  -1.656   2.892  1.00  0.00    -0.246 OA
BRANCH  72  74
ATOM     74  C   UNL     1       1.942  -2.909   0.917  1.00  0.00     0.092 A 
ATOM     75  C   UNL     1       2.269  -4.137   1.532  1.00  0.00     0.020 A 
ATOM     76  C   UNL     1       1.294  -2.928  -0.312  1.00  0.00     0.111 A 
ATOM     77  C   UNL     1       2.017  -5.344   0.899  1.00  0.00     0.021 A 
ATOM     78  N   UNL     1       1.086  -4.133  -0.933  1.00  0.00    -0.249 NA
ATOM     79  C   UNL     1       1.448  -5.291  -0.345  1.00  0.00     0.112 A 
BRANCH  76  80
ATOM     80  S   UNL     1       0.636  -1.711  -1.412  1.00  0.00    -0.097 SA
BRANCH  80  81
ATOM     81  C   UNL     1       0.280  -0.118  -0.681  1.00  0.00     0.157 C 
BRANCH  81  82
ATOM     82  C   UNL     1       0.145   0.064   0.792  1.00  0.00     0.174 C 
ATOM     83  O   UNL     1       1.072   0.593   1.412  1.00  0.00    -0.293 OA
BRANCH  82  84
ATOM     84  C   UNL     1      -1.157  -0.065   1.502  1.00  0.00     0.037 A 
ATOM     85  C   UNL     1      -1.362   0.922   2.489  1.00  0.00     0.013 A 
ATOM     86  C   UNL     1      -2.169  -1.003   1.284  1.00  0.00     0.051 A 
ATOM     87  C   UNL     1      -2.562   1.013   3.189  1.00  0.00     0.001 A 
ATOM     88  C   UNL     1      -3.382  -0.894   1.980  1.00  0.00     0.021 A 
ATOM     89  Cl  UNL     1      -2.053  -2.387   0.276  1.00  0.00    -0.084 Cl
ATOM     90  C   UNL     1      -3.583   0.116   2.916  1.00  0.00     0.002 A 
ENDBRANCH  82  84
ENDBRANCH  81  82
ENDBRANCH  80  81
ENDBRANCH  76  80
ENDBRANCH  72  74
ENDBRANCH  71  72
ENDBRANCH   1  71
TORSDOF 15
