REMARK SMILES C[C@H]1CC[C@H]([NH+](CC(=O)OCCOC(=O)c2ccc(-c3c4nc(c(-c5c(F)c(F)c(F)c(F)c5F)c5ccc([nH]5)c(-c5c(F)c(F)c(F)c(F)c5F)c5nc(c(-c6c(F)c(F)c(F)c(F)c6F)c6ccc3[nH]6)C=C5)C=C4)cc2)C(C)(C)C)C[C@@H]1C
REMARK SMILES IDX 11 1 10 2 8 3 9 4 7 5 6 6 5 8 1 9 2 10 3 11 84 12 4 13 83 14
REMARK SMILES IDX 85 15 79 16 80 17 81 18 82 19 12 20 13 21 14 22 15 23 16 24
REMARK SMILES IDX 17 25 78 26 18 27 77 28 19 29 20 30 21 31 71 32 22 33 76 34
REMARK SMILES IDX 70 35 72 36 23 37 75 38 69 39 68 40 24 42 56 43 36 44 55 45
REMARK SMILES IDX 37 46 40 47 54 48 73 49 38 50 39 51 53 53 74 54 41 55 25 56
REMARK SMILES IDX 26 57 34 58 27 59 28 60 32 61 35 62 29 63 30 64 33 65 31 66
REMARK SMILES IDX 57 67 58 68 66 69 59 70 60 71 64 72 67 73 61 74 62 75 65 76
REMARK SMILES IDX 63 77 42 78 43 79 51 80 44 81 45 82 49 83 52 84 46 85 47 86
REMARK SMILES IDX 50 87 48 88
REMARK H PARENT 6 7 72 41 40 52
REMARK Flexibility Score: inf
ROOT
ATOM      1  C   UNL     1      -3.791   2.514   0.820  1.00  0.00     0.274 C 
ENDROOT
BRANCH   1   2
ATOM      2  O   UNL     1      -3.453   1.194   0.333  1.00  0.00    -0.458 OA
BRANCH   2   3
ATOM      3  C   UNL     1      -4.345   0.200   0.556  1.00  0.00     0.361 C 
ATOM      4  O   UNL     1      -5.506   0.401   0.907  1.00  0.00    -0.245 OA
BRANCH   3   5
ATOM      5  C   UNL     1      -3.801  -1.224   0.397  1.00  0.00     0.387 C 
BRANCH   5   6
ATOM      6  N   UNL     1      -2.418  -1.394  -0.098  1.00  0.00    -0.319 N 
ATOM      7  H   UNL     1      -1.801  -1.693  -0.853  1.00  0.00     0.349 HD
BRANCH   6   8
ATOM      8  C   UNL     1      -1.368  -1.323   0.943  1.00  0.00     0.185 C 
ATOM      9  C   UNL     1       2.498  -0.554   2.981  1.00  0.00     0.008 C 
ATOM     10  C   UNL     1       1.385  -0.666   1.940  1.00  0.00    -0.011 C 
ATOM     11  C   UNL     1       0.864  -2.107   1.879  1.00  0.00     0.010 C 
ATOM     12  C   UNL     1       0.220   0.294   2.230  1.00  0.00    -0.006 C 
ATOM     13  C   UNL     1      -0.164  -2.260   0.762  1.00  0.00     0.065 C 
ATOM     14  C   UNL     1      -0.922   0.123   1.221  1.00  0.00     0.068 C 
ATOM     15  C   UNL     1       0.656   1.766   2.237  1.00  0.00     0.008 C 
ENDBRANCH   6   8
BRANCH   6  16
ATOM     16  C   UNL     1      -2.159  -1.598  -1.544  1.00  0.00     0.090 C 
ATOM     17  C   UNL     1      -1.114  -0.603  -2.091  1.00  0.00     0.078 C 
ATOM     18  C   UNL     1      -1.700  -3.046  -1.840  1.00  0.00     0.078 C 
ATOM     19  C   UNL     1      -3.413  -1.402  -2.431  1.00  0.00     0.078 C 
ENDBRANCH   6  16
ENDBRANCH   5   6
ENDBRANCH   3   5
ENDBRANCH   2   3
ENDBRANCH   1   2
BRANCH   1  20
ATOM     20  C   UNL     1      -3.477   3.551  -0.249  1.00  0.00     0.275 C 
BRANCH  20  21
ATOM     21  O   UNL     1      -4.376   3.319  -1.341  1.00  0.00    -0.458 OA
BRANCH  21  22
ATOM     22  C   UNL     1      -3.830   2.685  -2.395  1.00  0.00     0.338 C 
ATOM     23  O   UNL     1      -2.646   2.504  -2.644  1.00  0.00    -0.246 OA
BRANCH  22  24
ATOM     24  C   UNL     1      -4.907   2.188  -3.248  1.00  0.00     0.060 A 
ATOM     25  C   UNL     1      -5.758   1.181  -2.782  1.00  0.00     0.016 A 
ATOM     26  C   UNL     1      -4.988   2.654  -4.557  1.00  0.00     0.016 A 
ATOM     27  C   UNL     1      -6.651   0.580  -3.659  1.00  0.00     0.010 A 
ATOM     28  C   UNL     1      -5.949   2.118  -5.406  1.00  0.00     0.010 A 
ATOM     29  C   UNL     1      -6.775   1.070  -4.966  1.00  0.00    -0.014 A 
BRANCH  29  30
ATOM     30  C   UNL     1      -7.835   0.562  -5.861  1.00  0.00     0.031 A 
ATOM     31  C   UNL     1      -7.482  -0.155  -7.127  1.00  0.00     0.074 A 
ATOM     32  C   UNL     1      -9.114   0.831  -5.541  1.00  0.00     0.049 A 
ATOM     33  N   UNL     1      -8.251  -0.470  -8.136  1.00  0.00    -0.248 NA
ATOM     34  C   UNL     1      -6.078  -0.562  -7.287  1.00  0.00     0.031 C 
ATOM     35  C   UNL     1      -9.551   1.507  -4.317  1.00  0.00     0.029 A 
ATOM     36  N   UNL     1     -10.277   0.590  -6.221  1.00  0.00    -0.354 N 
ATOM     37  C   UNL     1      -7.422  -1.082  -9.066  1.00  0.00     0.074 A 
ATOM     38  C   UNL     1      -6.089  -1.096  -8.502  1.00  0.00     0.031 C 
ATOM     39  C   UNL     1     -10.886   1.617  -4.327  1.00  0.00     0.029 A 
ATOM     40  C   UNL     1     -11.387   1.094  -5.590  1.00  0.00     0.049 A 
ATOM     41  H   UNL     1     -10.314   0.104  -7.077  1.00  0.00     0.167 HD
ATOM     42  C   UNL     1      -7.758  -1.574 -10.282  1.00  0.00     0.037 A 
ATOM     43  C   UNL     1     -12.662   1.172  -6.009  1.00  0.00     0.037 A 
ATOM     44  C   UNL     1      -9.098  -1.551 -10.813  1.00  0.00     0.049 A 
ATOM     45  C   UNL     1     -12.998   0.647  -7.372  1.00  0.00     0.074 A 
ATOM     46  C   UNL     1      -9.555  -2.011 -12.035  1.00  0.00     0.029 A 
ATOM     47  N   UNL     1     -10.200  -1.039 -10.140  1.00  0.00    -0.354 N 
ATOM     48  N   UNL     1     -12.203   0.106  -8.264  1.00  0.00    -0.248 NA
ATOM     49  C   UNL     1     -14.398   0.757  -7.794  1.00  0.00     0.031 C 
ATOM     50  C   UNL     1     -10.928  -1.751 -12.113  1.00  0.00     0.029 A 
ATOM     51  C   UNL     1     -11.335  -1.164 -10.925  1.00  0.00     0.049 A 
ATOM     52  H   UNL     1     -10.178  -0.644  -9.239  1.00  0.00     0.167 HD
ATOM     53  C   UNL     1     -13.005  -0.198  -9.351  1.00  0.00     0.074 A 
ATOM     54  C   UNL     1     -14.354   0.202  -8.997  1.00  0.00     0.031 C 
ATOM     55  C   UNL     1     -12.660  -0.751 -10.539  1.00  0.00     0.037 A 
BRANCH  42  56
ATOM     56  C   UNL     1      -6.663  -2.149 -11.132  1.00  0.00     0.064 A 
ATOM     57  C   UNL     1      -6.090  -3.398 -10.850  1.00  0.00     0.173 A 
ATOM     58  C   UNL     1      -6.215  -1.465 -12.272  1.00  0.00     0.173 A 
ATOM     59  F   UNL     1      -6.473  -4.087  -9.765  1.00  0.00    -0.203 F 
ATOM     60  C   UNL     1      -5.099  -3.933 -11.671  1.00  0.00     0.198 A 
ATOM     61  C   UNL     1      -5.240  -2.012 -13.102  1.00  0.00     0.198 A 
ATOM     62  F   UNL     1      -6.732  -0.268 -12.588  1.00  0.00    -0.203 F 
ATOM     63  F   UNL     1      -4.544  -5.114 -11.366  1.00  0.00    -0.200 F 
ATOM     64  C   UNL     1      -4.681  -3.244 -12.800  1.00  0.00     0.200 A 
ATOM     65  F   UNL     1      -4.844  -1.349 -14.197  1.00  0.00    -0.200 F 
ATOM     66  F   UNL     1      -3.734  -3.765 -13.593  1.00  0.00    -0.200 F 
ENDBRANCH  42  56
BRANCH  43  67
ATOM     67  C   UNL     1     -13.684   1.791  -5.130  1.00  0.00     0.064 A 
ATOM     68  C   UNL     1     -14.668   1.008  -4.513  1.00  0.00     0.173 A 
ATOM     69  C   UNL     1     -13.666   3.165  -4.844  1.00  0.00     0.173 A 
ATOM     70  F   UNL     1     -14.734  -0.307  -4.769  1.00  0.00    -0.203 F 
ATOM     71  C   UNL     1     -15.598   1.576  -3.646  1.00  0.00     0.198 A 
ATOM     72  C   UNL     1     -14.579   3.727  -3.955  1.00  0.00     0.198 A 
ATOM     73  F   UNL     1     -12.737   3.955  -5.402  1.00  0.00    -0.203 F 
ATOM     74  F   UNL     1     -16.546   0.810  -3.089  1.00  0.00    -0.200 F 
ATOM     75  C   UNL     1     -15.547   2.933  -3.360  1.00  0.00     0.200 A 
ATOM     76  F   UNL     1     -14.512   5.034  -3.666  1.00  0.00    -0.200 F 
ATOM     77  F   UNL     1     -16.431   3.474  -2.511  1.00  0.00    -0.200 F 
ENDBRANCH  43  67
BRANCH  55  78
ATOM     78  C   UNL     1     -13.769  -0.968 -11.520  1.00  0.00     0.064 A 
ATOM     79  C   UNL     1     -14.321   0.098 -12.244  1.00  0.00     0.173 A 
ATOM     80  C   UNL     1     -14.275  -2.256 -11.743  1.00  0.00     0.173 A 
ATOM     81  F   UNL     1     -13.880   1.349 -12.045  1.00  0.00    -0.203 F 
ATOM     82  C   UNL     1     -15.362  -0.116 -13.142  1.00  0.00     0.198 A 
ATOM     83  C   UNL     1     -15.300  -2.469 -12.659  1.00  0.00     0.198 A 
ATOM     84  F   UNL     1     -13.776  -3.305 -11.073  1.00  0.00    -0.203 F 
ATOM     85  F   UNL     1     -15.908   0.922 -13.790  1.00  0.00    -0.200 F 
ATOM     86  C   UNL     1     -15.847  -1.398 -13.352  1.00  0.00     0.200 A 
ATOM     87  F   UNL     1     -15.766  -3.708 -12.866  1.00  0.00    -0.200 F 
ATOM     88  F   UNL     1     -16.851  -1.602 -14.216  1.00  0.00    -0.200 F 
ENDBRANCH  55  78
ENDBRANCH  29  30
ENDBRANCH  22  24
ENDBRANCH  21  22
ENDBRANCH  20  21
ENDBRANCH   1  20
TORSDOF 14
