REMARK SMILES CC[C@H]1CN(C(=O)N(CC(=O)OCCOC(=O)c2ccc(-c3c4nc(c(-c5c(F)c(F)c(F)c(F)c5F)c5ccc([nH]5)c(-c5c(F)c(F)c(F)c(F)c5F)c5nc(c(-c6c(F)c(F)c(F)c(F)c6F)c6ccc3[nH]6)C=C5)C=C4)cc2)C(C)(C)C)CC[N@@H+]1C
REMARK SMILES IDX 13 1 12 2 10 3 11 4 9 5 8 6 6 7 7 8 5 9 3 10 4 11 87 12
REMARK SMILES IDX 86 13 88 14 85 16 2 17 1 18 81 19 82 20 83 21 84 22 14 23
REMARK SMILES IDX 15 24 16 25 17 26 18 27 19 28 80 29 20 30 79 31 21 32 22 33
REMARK SMILES IDX 23 34 73 35 24 36 78 37 72 38 74 39 25 40 77 41 71 42 70 43
REMARK SMILES IDX 26 45 58 46 38 47 57 48 39 49 42 50 56 51 75 52 40 53 41 54
REMARK SMILES IDX 55 56 76 57 43 58 27 59 28 60 36 61 29 62 30 63 34 64 37 65
REMARK SMILES IDX 31 66 32 67 35 68 33 69 59 70 60 71 68 72 61 73 62 74 66 75
REMARK SMILES IDX 69 76 63 77 64 78 67 79 65 80 44 81 45 82 53 83 46 84 47 85
REMARK SMILES IDX 51 86 54 87 48 88 49 89 52 90 50 91
REMARK H PARENT 87 15 74 44 42 55
REMARK Flexibility Score: inf
ROOT
ATOM      1  C   UNL     1       3.290  -0.897   8.532  1.00  0.00     0.274 C 
ENDROOT
BRANCH   1   2
ATOM      2  O   UNL     1       2.047  -0.605   7.865  1.00  0.00    -0.461 OA
BRANCH   2   3
ATOM      3  C   UNL     1       1.838  -1.337   6.747  1.00  0.00     0.325 C 
ATOM      4  O   UNL     1       2.598  -2.214   6.337  1.00  0.00    -0.250 OA
BRANCH   3   5
ATOM      5  C   UNL     1       0.609  -0.957   5.937  1.00  0.00     0.244 C 
BRANCH   5   6
ATOM      6  N   UNL     1      -0.414   0.029   6.324  1.00  0.00    -0.309 N 
BRANCH   6   7
ATOM      7  C   UNL     1      -0.344   1.327   5.834  1.00  0.00     0.321 C 
ATOM      8  O   UNL     1      -0.583   2.297   6.554  1.00  0.00    -0.248 OA
BRANCH   7   9
ATOM      9  N   UNL     1      -0.074   1.506   4.484  1.00  0.00    -0.313 N 
ATOM     10  C   UNL     1       0.696   0.686   2.239  1.00  0.00     0.203 C 
ATOM     11  C   UNL     1      -0.333   0.543   3.400  1.00  0.00     0.186 C 
ATOM     12  N   UNL     1       0.752   2.068   1.702  1.00  0.00    -0.332 N 
ATOM     13  C   UNL     1       0.954   3.048   2.791  1.00  0.00     0.284 C 
ATOM     14  C   UNL     1      -0.435   2.388   0.909  1.00  0.00     0.333 C 
ATOM     15  H   UNL     1       1.554   2.125   1.074  1.00  0.00     0.348 HD
ATOM     16  C   UNL     1       0.030   2.891   4.013  1.00  0.00     0.183 C 
BRANCH  10  17
ATOM     17  C   UNL     1       2.103   0.204   2.681  1.00  0.00     0.063 C 
ATOM     18  C   UNL     1       3.180   0.362   1.614  1.00  0.00     0.010 C 
ENDBRANCH  10  17
ENDBRANCH   7   9
ENDBRANCH   6   7
BRANCH   6  19
ATOM     19  C   UNL     1      -1.413  -0.277   7.408  1.00  0.00     0.037 C 
ATOM     20  C   UNL     1      -1.034   0.356   8.761  1.00  0.00     0.034 C 
ATOM     21  C   UNL     1      -2.814   0.234   6.985  1.00  0.00     0.034 C 
ATOM     22  C   UNL     1      -1.583  -1.791   7.643  1.00  0.00     0.034 C 
ENDBRANCH   6  19
ENDBRANCH   5   6
ENDBRANCH   3   5
ENDBRANCH   2   3
ENDBRANCH   1   2
BRANCH   1  23
ATOM     23  C   UNL     1       3.134  -1.976   9.604  1.00  0.00     0.275 C 
BRANCH  23  24
ATOM     24  O   UNL     1       2.447  -3.130   9.086  1.00  0.00    -0.458 OA
BRANCH  24  25
ATOM     25  C   UNL     1       1.291  -3.443   9.714  1.00  0.00     0.338 C 
ATOM     26  O   UNL     1       0.807  -2.888  10.686  1.00  0.00    -0.246 OA
BRANCH  25  27
ATOM     27  C   UNL     1       0.626  -4.593   9.067  1.00  0.00     0.060 A 
ATOM     28  C   UNL     1       0.431  -4.647   7.684  1.00  0.00     0.016 A 
ATOM     29  C   UNL     1       0.047  -5.560   9.890  1.00  0.00     0.016 A 
ATOM     30  C   UNL     1      -0.412  -5.615   7.134  1.00  0.00     0.010 A 
ATOM     31  C   UNL     1      -0.724  -6.579   9.329  1.00  0.00     0.010 A 
ATOM     32  C   UNL     1      -0.988  -6.599   7.950  1.00  0.00    -0.014 A 
BRANCH  32  33
ATOM     33  C   UNL     1      -1.863  -7.663   7.391  1.00  0.00     0.031 A 
ATOM     34  C   UNL     1      -3.288  -7.795   7.854  1.00  0.00     0.074 A 
ATOM     35  C   UNL     1      -1.363  -8.554   6.515  1.00  0.00     0.049 A 
ATOM     36  N   UNL     1      -4.127  -8.786   7.685  1.00  0.00    -0.248 NA
ATOM     37  C   UNL     1      -3.841  -6.664   8.616  1.00  0.00     0.031 C 
ATOM     38  C   UNL     1      -0.013  -8.525   5.953  1.00  0.00     0.029 A 
ATOM     39  N   UNL     1      -1.931  -9.675   5.961  1.00  0.00    -0.354 N 
ATOM     40  C   UNL     1      -5.285  -8.423   8.359  1.00  0.00     0.074 A 
ATOM     41  C   UNL     1      -5.046  -7.116   8.936  1.00  0.00     0.031 C 
ATOM     42  C   UNL     1       0.143  -9.574   5.132  1.00  0.00     0.029 A 
ATOM     43  C   UNL     1      -1.066 -10.389   5.170  1.00  0.00     0.049 A 
ATOM     44  H   UNL     1      -2.866  -9.940   6.116  1.00  0.00     0.167 HD
ATOM     45  C   UNL     1      -6.439  -9.121   8.489  1.00  0.00     0.037 A 
ATOM     46  C   UNL     1      -1.207 -11.592   4.583  1.00  0.00     0.037 A 
ATOM     47  C   UNL     1      -6.689 -10.403   7.882  1.00  0.00     0.049 A 
ATOM     48  C   UNL     1      -2.478 -12.366   4.775  1.00  0.00     0.074 A 
ATOM     49  C   UNL     1      -7.836 -11.177   7.938  1.00  0.00     0.029 A 
ATOM     50  N   UNL     1      -5.779 -11.096   7.099  1.00  0.00    -0.354 N 
ATOM     51  N   UNL     1      -3.549 -12.039   5.454  1.00  0.00    -0.248 NA
ATOM     52  C   UNL     1      -2.550 -13.687   4.135  1.00  0.00     0.031 C 
ATOM     53  C   UNL     1      -7.610 -12.351   7.211  1.00  0.00     0.029 A 
ATOM     54  C   UNL     1      -6.334 -12.293   6.675  1.00  0.00     0.049 A 
ATOM     55  H   UNL     1      -4.872 -10.784   6.877  1.00  0.00     0.167 HD
ATOM     56  C   UNL     1      -4.426 -13.104   5.316  1.00  0.00     0.074 A 
ATOM     57  C   UNL     1      -3.768 -14.084   4.477  1.00  0.00     0.031 C 
ATOM     58  C   UNL     1      -5.666 -13.257   5.841  1.00  0.00     0.037 A 
BRANCH  45  59
ATOM     59  C   UNL     1      -7.519  -8.528   9.342  1.00  0.00     0.064 A 
ATOM     60  C   UNL     1      -8.316  -7.466   8.893  1.00  0.00     0.173 A 
ATOM     61  C   UNL     1      -7.797  -9.070  10.607  1.00  0.00     0.173 A 
ATOM     62  F   UNL     1      -8.081  -6.907   7.696  1.00  0.00    -0.203 F 
ATOM     63  C   UNL     1      -9.343  -6.958   9.685  1.00  0.00     0.198 A 
ATOM     64  C   UNL     1      -8.837  -8.574  11.387  1.00  0.00     0.198 A 
ATOM     65  F   UNL     1      -7.066 -10.091  11.079  1.00  0.00    -0.203 F 
ATOM     66  F   UNL     1     -10.073  -5.923   9.248  1.00  0.00    -0.200 F 
ATOM     67  C   UNL     1      -9.607  -7.516  10.927  1.00  0.00     0.200 A 
ATOM     68  F   UNL     1      -9.097  -9.121  12.583  1.00  0.00    -0.200 F 
ATOM     69  F   UNL     1     -10.602  -7.032  11.683  1.00  0.00    -0.200 F 
ENDBRANCH  45  59
BRANCH  46  70
ATOM     70  C   UNL     1      -0.087 -12.148   3.785  1.00  0.00     0.064 A 
ATOM     71  C   UNL     1      -0.163 -12.204   2.388  1.00  0.00     0.173 A 
ATOM     72  C   UNL     1       1.089 -12.605   4.399  1.00  0.00     0.173 A 
ATOM     73  F   UNL     1      -1.278 -11.799   1.762  1.00  0.00    -0.203 F 
ATOM     74  C   UNL     1       0.897 -12.699   1.633  1.00  0.00     0.198 A 
ATOM     75  C   UNL     1       2.157 -13.077   3.641  1.00  0.00     0.198 A 
ATOM     76  F   UNL     1       1.206 -12.569   5.735  1.00  0.00    -0.203 F 
ATOM     77  F   UNL     1       0.791 -12.766   0.299  1.00  0.00    -0.200 F 
ATOM     78  C   UNL     1       2.059 -13.126   2.259  1.00  0.00     0.200 A 
ATOM     79  F   UNL     1       3.282 -13.477   4.249  1.00  0.00    -0.200 F 
ATOM     80  F   UNL     1       3.083 -13.589   1.530  1.00  0.00    -0.200 F 
ENDBRANCH  46  70
BRANCH  58  81
ATOM     81  C   UNL     1      -6.398 -14.518   5.500  1.00  0.00     0.064 A 
ATOM     82  C   UNL     1      -6.080 -15.737   6.115  1.00  0.00     0.173 A 
ATOM     83  C   UNL     1      -7.443 -14.502   4.565  1.00  0.00     0.173 A 
ATOM     84  F   UNL     1      -5.075 -15.803   7.001  1.00  0.00    -0.203 F 
ATOM     85  C   UNL     1      -6.772 -16.901   5.791  1.00  0.00     0.198 A 
ATOM     86  C   UNL     1      -8.146 -15.664   4.259  1.00  0.00     0.198 A 
ATOM     87  F   UNL     1      -7.784 -13.358   3.952  1.00  0.00    -0.203 F 
ATOM     88  F   UNL     1      -6.427 -18.064   6.362  1.00  0.00    -0.200 F 
ATOM     89  C   UNL     1      -7.806 -16.863   4.868  1.00  0.00     0.200 A 
ATOM     90  F   UNL     1      -9.148 -15.624   3.370  1.00  0.00    -0.200 F 
ATOM     91  F   UNL     1      -8.470 -17.984   4.557  1.00  0.00    -0.200 F 
ENDBRANCH  58  81
ENDBRANCH  32  33
ENDBRANCH  25  27
ENDBRANCH  24  25
ENDBRANCH  23  24
ENDBRANCH   1  23
TORSDOF 16
