REMARK SMILES O=C(OCCOC(=O)c1cc(Cl)c2c(c1)[C@H]1C=CC[C@H]1[C@H](c1ccc(S(=O)(=O)N3CCOCC3)cc1)N2)c1ccc(-c2c3nc(c(-c4c(F)c(F)c(F)c(F)c4F)c4ccc([nH]4)c(-c4c(F)c(F)c(F)c(F)c4F)c4nc(c(-c5c(F)c(F)c(F)c(F)c5F)c5ccc2[nH]5)C=C4)C=C3)cc1
REMARK SMILES IDX 5 1 4 2 3 3 2 4 1 5 38 6 39 7 100 8 40 9 99 10 41 11 42 12
REMARK SMILES IDX 43 13 93 14 44 15 98 16 92 17 94 18 45 19 97 20 91 21 90 22
REMARK SMILES IDX 46 24 78 25 58 26 77 27 59 28 62 29 76 30 95 31 60 32 61 33
REMARK SMILES IDX 75 35 96 36 63 37 47 38 48 39 56 40 49 41 50 42 54 43 57 44
REMARK SMILES IDX 51 45 52 46 55 47 53 48 79 49 80 50 88 51 81 52 82 53 86 54
REMARK SMILES IDX 89 55 83 56 84 57 87 58 85 59 64 60 65 61 73 62 66 63 67 64
REMARK SMILES IDX 71 65 74 66 68 67 69 68 72 69 70 70 6 71 7 72 8 73 9 74
REMARK SMILES IDX 10 75 15 76 11 77 14 78 12 79 13 80 16 81 37 82 17 83 20 84
REMARK SMILES IDX 21 85 18 87 19 88 22 89 23 90 36 91 24 92 35 93 25 94 26 95
REMARK SMILES IDX 27 96 28 97 29 98 30 99 34 100 31 101 33 102 32 103
REMARK H PARENT 94 23 62 34 37 86
REMARK Flexibility Score: inf
ROOT
ATOM      1  C   UNL     1       3.922  -1.627  -1.586  1.00  0.00     0.275 C 
ENDROOT
BRANCH   1   2
ATOM      2  C   UNL     1       4.163  -1.624  -0.070  1.00  0.00     0.275 C 
BRANCH   2   3
ATOM      3  O   UNL     1       3.130  -0.994   0.700  1.00  0.00    -0.458 OA
BRANCH   3   4
ATOM      4  C   UNL     1       3.051   0.294   1.106  1.00  0.00     0.338 C 
ATOM      5  O   UNL     1       2.273   0.582   2.014  1.00  0.00    -0.246 OA
BRANCH   4   6
ATOM      6  C   UNL     1       3.727   1.423   0.387  1.00  0.00     0.060 A 
ATOM      7  C   UNL     1       4.883   1.357  -0.393  1.00  0.00     0.016 A 
ATOM      8  C   UNL     1       3.093   2.671   0.494  1.00  0.00     0.016 A 
ATOM      9  C   UNL     1       5.332   2.458  -1.125  1.00  0.00     0.010 A 
ATOM     10  C   UNL     1       3.527   3.781  -0.234  1.00  0.00     0.010 A 
ATOM     11  C   UNL     1       4.660   3.675  -1.043  1.00  0.00    -0.014 A 
BRANCH  11  12
ATOM     12  C   UNL     1       5.329   4.893  -1.533  1.00  0.00     0.031 A 
ATOM     13  C   UNL     1       6.155   5.645  -0.540  1.00  0.00     0.074 A 
ATOM     14  C   UNL     1       5.292   5.268  -2.822  1.00  0.00     0.049 A 
ATOM     15  N   UNL     1       6.908   6.692  -0.724  1.00  0.00    -0.248 NA
ATOM     16  C   UNL     1       6.185   5.106   0.832  1.00  0.00     0.031 C 
ATOM     17  C   UNL     1       4.663   4.512  -3.894  1.00  0.00     0.029 A 
ATOM     18  N   UNL     1       5.797   6.376  -3.451  1.00  0.00    -0.354 N 
ATOM     19  C   UNL     1       7.558   6.885   0.482  1.00  0.00     0.074 A 
ATOM     20  C   UNL     1       7.046   5.917   1.421  1.00  0.00     0.031 C 
ATOM     21  C   UNL     1       4.744   5.213  -5.038  1.00  0.00     0.029 A 
ATOM     22  C   UNL     1       5.443   6.462  -4.775  1.00  0.00     0.049 A 
ATOM     23  H   UNL     1       6.360   7.045  -2.998  1.00  0.00     0.167 HD
ATOM     24  C   UNL     1       8.543   7.764   0.758  1.00  0.00     0.037 A 
ATOM     25  C   UNL     1       5.662   7.441  -5.672  1.00  0.00     0.037 A 
ATOM     26  C   UNL     1       9.000   8.754  -0.173  1.00  0.00     0.049 A 
ATOM     27  C   UNL     1       6.564   8.570  -5.264  1.00  0.00     0.074 A 
ATOM     28  C   UNL     1       9.950   9.737   0.015  1.00  0.00     0.029 A 
ATOM     29  N   UNL     1       8.514   8.898  -1.466  1.00  0.00    -0.354 N 
ATOM     30  N   UNL     1       7.201   8.738  -4.130  1.00  0.00    -0.248 NA
ATOM     31  C   UNL     1       6.825   9.614  -6.262  1.00  0.00     0.031 C 
ATOM     32  C   UNL     1       9.991  10.520  -1.142  1.00  0.00     0.029 A 
ATOM     33  C   UNL     1       9.111   9.987  -2.074  1.00  0.00     0.049 A 
ATOM     34  H   UNL     1       7.844   8.312  -1.887  1.00  0.00     0.167 HD
ATOM     35  C   UNL     1       7.979   9.872  -4.291  1.00  0.00     0.074 A 
ATOM     36  C   UNL     1       7.729  10.356  -5.636  1.00  0.00     0.031 C 
ATOM     37  C   UNL     1       8.836  10.449  -3.413  1.00  0.00     0.037 A 
BRANCH  24  38
ATOM     38  C   UNL     1       9.148   7.686   2.122  1.00  0.00     0.064 A 
ATOM     39  C   UNL     1       9.974   6.612   2.493  1.00  0.00     0.173 A 
ATOM     40  C   UNL     1       8.879   8.673   3.077  1.00  0.00     0.173 A 
ATOM     41  F   UNL     1      10.225   5.620   1.624  1.00  0.00    -0.203 F 
ATOM     42  C   UNL     1      10.496   6.524   3.779  1.00  0.00     0.198 A 
ATOM     43  C   UNL     1       9.424   8.596   4.354  1.00  0.00     0.198 A 
ATOM     44  F   UNL     1       8.075   9.703   2.775  1.00  0.00    -0.203 F 
ATOM     45  F   UNL     1      11.238   5.464   4.129  1.00  0.00    -0.200 F 
ATOM     46  C   UNL     1      10.228   7.520   4.706  1.00  0.00     0.200 A 
ATOM     47  F   UNL     1       9.161   9.556   5.251  1.00  0.00    -0.200 F 
ATOM     48  F   UNL     1      10.731   7.436   5.945  1.00  0.00    -0.200 F 
ENDBRANCH  24  38
BRANCH  25  49
ATOM     49  C   UNL     1       5.048   7.374  -7.025  1.00  0.00     0.064 A 
ATOM     50  C   UNL     1       5.822   7.160  -8.172  1.00  0.00     0.173 A 
ATOM     51  C   UNL     1       3.661   7.524  -7.196  1.00  0.00     0.173 A 
ATOM     52  F   UNL     1       7.152   7.023  -8.065  1.00  0.00    -0.203 F 
ATOM     53  C   UNL     1       5.239   7.117  -9.439  1.00  0.00     0.198 A 
ATOM     54  C   UNL     1       3.077   7.464  -8.460  1.00  0.00     0.198 A 
ATOM     55  F   UNL     1       2.871   7.723  -6.130  1.00  0.00    -0.203 F 
ATOM     56  F   UNL     1       6.010   6.944 -10.521  1.00  0.00    -0.200 F 
ATOM     57  C   UNL     1       3.868   7.266  -9.582  1.00  0.00     0.200 A 
ATOM     58  F   UNL     1       1.750   7.600  -8.591  1.00  0.00    -0.200 F 
ATOM     59  F   UNL     1       3.311   7.224 -10.800  1.00  0.00    -0.200 F 
ENDBRANCH  25  49
BRANCH  37  60
ATOM     60  C   UNL     1       9.577  11.665  -3.878  1.00  0.00     0.064 A 
ATOM     61  C   UNL     1       8.926  12.893  -4.053  1.00  0.00     0.173 A 
ATOM     62  C   UNL     1      10.967  11.619  -4.067  1.00  0.00     0.173 A 
ATOM     63  F   UNL     1       7.597  12.982  -3.896  1.00  0.00    -0.203 F 
ATOM     64  C   UNL     1       9.639  14.031  -4.416  1.00  0.00     0.198 A 
ATOM     65  C   UNL     1      11.681  12.767  -4.392  1.00  0.00     0.198 A 
ATOM     66  F   UNL     1      11.635  10.467  -3.900  1.00  0.00    -0.203 F 
ATOM     67  F   UNL     1       8.992  15.188  -4.616  1.00  0.00    -0.200 F 
ATOM     68  C   UNL     1      11.016  13.970  -4.572  1.00  0.00     0.200 A 
ATOM     69  F   UNL     1      13.014  12.710  -4.519  1.00  0.00    -0.200 F 
ATOM     70  F   UNL     1      11.704  15.073  -4.896  1.00  0.00    -0.200 F 
ENDBRANCH  37  60
ENDBRANCH  11  12
ENDBRANCH   4   6
ENDBRANCH   3   4
ENDBRANCH   2   3
ENDBRANCH   1   2
BRANCH   1  71
ATOM     71  O   UNL     1       3.402  -0.395  -2.118  1.00  0.00    -0.458 OA
BRANCH  71  72
ATOM     72  C   UNL     1       2.047  -0.282  -2.118  1.00  0.00     0.338 C 
ATOM     73  O   UNL     1       1.244  -1.109  -1.738  1.00  0.00    -0.246 OA
BRANCH  72  74
ATOM     74  C   UNL     1       1.675   1.076  -2.563  1.00  0.00     0.062 A 
ATOM     75  C   UNL     1       2.056   1.536  -3.818  1.00  0.00     0.038 A 
ATOM     76  C   UNL     1       0.863   1.868  -1.744  1.00  0.00     0.022 A 
ATOM     77  C   UNL     1       1.675   2.820  -4.210  1.00  0.00     0.065 A 
ATOM     78  C   UNL     1       0.527   3.183  -2.122  1.00  0.00    -0.015 A 
ATOM     79  Cl  UNL     1       1.988   3.290  -5.850  1.00  0.00    -0.082 Cl
ATOM     80  C   UNL     1       1.017   3.703  -3.327  1.00  0.00     0.057 A 
ATOM     81  C   UNL     1      -0.460   3.967  -1.303  1.00  0.00     0.049 C 
ATOM     82  N   UNL     1       0.762   5.018  -3.692  1.00  0.00    -0.376 N 
ATOM     83  C   UNL     1      -0.001   4.532   0.016  1.00  0.00    -0.023 C 
ATOM     84  C   UNL     1      -1.015   5.233  -2.000  1.00  0.00     0.031 C 
ATOM     85  C   UNL     1       0.141   5.962  -2.771  1.00  0.00     0.114 C 
ATOM     86  H   UNL     1       1.008   5.320  -4.596  1.00  0.00     0.161 HD
ATOM     87  C   UNL     1      -0.658   5.662   0.304  1.00  0.00    -0.030 C 
ATOM     88  C   UNL     1      -1.634   5.961  -0.784  1.00  0.00     0.034 C 
BRANCH  85  89
ATOM     89  C   UNL     1      -0.331   7.193  -3.549  1.00  0.00    -0.025 A 
ATOM     90  C   UNL     1      -0.328   7.341  -4.954  1.00  0.00     0.007 A 
ATOM     91  C   UNL     1      -0.814   8.264  -2.811  1.00  0.00     0.007 A 
ATOM     92  C   UNL     1      -0.865   8.488  -5.577  1.00  0.00     0.022 A 
ATOM     93  C   UNL     1      -1.474   9.308  -3.427  1.00  0.00     0.022 A 
ATOM     94  C   UNL     1      -1.485   9.459  -4.797  1.00  0.00     0.082 A 
BRANCH  94  95
ATOM     95  S   UNL     1      -2.226  10.907  -5.519  1.00  0.00     0.243 S 
ATOM     96  O   UNL     1      -1.154  11.610  -6.196  1.00  0.00    -0.207 OA
ATOM     97  O   UNL     1      -3.404  10.456  -6.222  1.00  0.00    -0.207 OA
BRANCH  95  98
ATOM     98  N   UNL     1      -2.727  11.873  -4.229  1.00  0.00    -0.193 NA
ATOM     99  C   UNL     1      -1.794  12.723  -3.458  1.00  0.00     0.131 C 
ATOM    100  C   UNL     1      -4.074  11.770  -3.630  1.00  0.00     0.131 C 
ATOM    101  C   UNL     1      -1.782  12.345  -1.968  1.00  0.00     0.177 C 
ATOM    102  C   UNL     1      -4.002  11.407  -2.141  1.00  0.00     0.177 C 
ATOM    103  O   UNL     1      -3.096  12.239  -1.401  1.00  0.00    -0.379 OA
ENDBRANCH  95  98
ENDBRANCH  94  95
ENDBRANCH  85  89
ENDBRANCH  72  74
ENDBRANCH  71  72
ENDBRANCH   1  71
TORSDOF 14
