REMARK SMILES C[C@@H]1CN(C(=O)Nc2ccc(O)c(C(=O)OCCOC(=O)c3ccc(-c4c5nc(c(-c6c(F)c(F)c(F)c(F)c6F)c6ccc([nH]6)c(-c6c(F)c(F)c(F)c(F)c6F)c6nc(c(-c7c(F)c(F)c(F)c(F)c7F)c7ccc4[nH]7)C=C6)C=C5)cc3)c2)C[C@@H]1C
REMARK SMILES IDX 17 1 16 2 14 3 15 4 13 5 8 6 9 7 85 8 10 9 11 10 7 11 5 12
REMARK SMILES IDX 6 13 4 15 1 16 2 17 3 18 87 19 86 20 88 21 12 22 18 24 19 25
REMARK SMILES IDX 20 26 21 27 22 28 23 29 84 30 24 31 83 32 25 33 26 34 27 35
REMARK SMILES IDX 77 36 28 37 82 38 76 39 78 40 29 41 81 42 75 43 74 44 30 46
REMARK SMILES IDX 62 47 42 48 61 49 43 50 46 51 60 52 79 53 44 54 45 55 59 57
REMARK SMILES IDX 80 58 47 59 31 60 32 61 40 62 33 63 34 64 38 65 41 66 35 67
REMARK SMILES IDX 36 68 39 69 37 70 63 71 64 72 72 73 65 74 66 75 70 76 73 77
REMARK SMILES IDX 67 78 68 79 71 80 69 81 48 82 49 83 57 84 50 85 51 86 55 87
REMARK SMILES IDX 58 88 52 89 53 90 56 91 54 92
REMARK H PARENT 7 14 12 23 78 45 46 56
REMARK Flexibility Score: inf
ROOT
ATOM      1  C   UNL     1       9.025   2.335  -0.432  1.00  0.00     0.275 C 
ENDROOT
BRANCH   1   2
ATOM      2  O   UNL     1       7.746   2.501  -1.070  1.00  0.00    -0.458 OA
BRANCH   2   3
ATOM      3  C   UNL     1       6.654   2.442  -0.268  1.00  0.00     0.342 C 
ATOM      4  O   UNL     1       6.642   2.260   0.932  1.00  0.00    -0.246 OA
BRANCH   3   5
ATOM      5  C   UNL     1       5.441   2.837  -1.025  1.00  0.00     0.103 A 
ATOM      6  C   UNL     1       3.350   4.060  -0.968  1.00  0.00     0.044 A 
ATOM      7  C   UNL     1       3.127   3.751  -2.308  1.00  0.00     0.030 A 
ATOM      8  C   UNL     1       4.508   3.622  -0.335  1.00  0.00     0.045 A 
ATOM      9  C   UNL     1       4.036   2.942  -2.995  1.00  0.00     0.049 A 
ATOM     10  C   UNL     1       5.182   2.470  -2.348  1.00  0.00     0.130 A 
BRANCH   6  11
ATOM     11  N   UNL     1       2.454   4.834  -0.236  1.00  0.00    -0.308 N 
ATOM     12  C   UNL     1       1.143   4.640   0.063  1.00  0.00     0.321 C 
ATOM     13  O   UNL     1       0.532   5.601   0.539  1.00  0.00    -0.248 OA
ATOM     14  H   UNL     1       2.837   5.665   0.127  1.00  0.00     0.171 HD
BRANCH  12  15
ATOM     15  N   UNL     1       0.579   3.395  -0.016  1.00  0.00    -0.324 N 
ATOM     16  C   UNL     1       0.696  -0.314   0.123  1.00  0.00     0.010 C 
ATOM     17  C   UNL     1       0.106   1.065  -0.132  1.00  0.00     0.010 C 
ATOM     18  C   UNL     1       1.177   2.123  -0.404  1.00  0.00     0.125 C 
ATOM     19  C   UNL     1      -0.711   1.691   1.008  1.00  0.00     0.010 C 
ATOM     20  C   UNL     1      -0.724   3.168   0.593  1.00  0.00     0.125 C 
ATOM     21  C   UNL     1      -0.097   1.498   2.397  1.00  0.00     0.010 C 
ENDBRANCH  12  15
ENDBRANCH   6  11
BRANCH  10  22
ATOM     22  O   UNL     1       6.016   1.612  -3.006  1.00  0.00    -0.507 OA
ATOM     23  H   UNL     1       5.835   1.371  -3.893  1.00  0.00     0.293 HD
ENDBRANCH  10  22
ENDBRANCH   3   5
ENDBRANCH   2   3
ENDBRANCH   1   2
BRANCH   1  24
ATOM     24  C   UNL     1       9.811   3.639  -0.541  1.00  0.00     0.275 C 
BRANCH  24  25
ATOM     25  O   UNL     1       9.156   4.647   0.253  1.00  0.00    -0.458 OA
BRANCH  25  26
ATOM     26  C   UNL     1       8.801   5.779  -0.392  1.00  0.00     0.338 C 
ATOM     27  O   UNL     1       9.046   6.099  -1.545  1.00  0.00    -0.246 OA
BRANCH  26  28
ATOM     28  C   UNL     1       7.987   6.607   0.511  1.00  0.00     0.060 A 
ATOM     29  C   UNL     1       6.717   6.158   0.860  1.00  0.00     0.016 A 
ATOM     30  C   UNL     1       8.419   7.866   0.917  1.00  0.00     0.016 A 
ATOM     31  C   UNL     1       5.841   6.989   1.554  1.00  0.00     0.010 A 
ATOM     32  C   UNL     1       7.568   8.672   1.687  1.00  0.00     0.010 A 
ATOM     33  C   UNL     1       6.254   8.260   1.984  1.00  0.00    -0.014 A 
BRANCH  33  34
ATOM     34  C   UNL     1       5.293   9.161   2.688  1.00  0.00     0.031 A 
ATOM     35  C   UNL     1       4.927  10.499   2.096  1.00  0.00     0.074 A 
ATOM     36  C   UNL     1       4.712   8.774   3.843  1.00  0.00     0.049 A 
ATOM     37  N   UNL     1       4.194  11.461   2.604  1.00  0.00    -0.248 NA
ATOM     38  C   UNL     1       5.464  10.805   0.761  1.00  0.00     0.031 C 
ATOM     39  C   UNL     1       4.943   7.500   4.524  1.00  0.00     0.029 A 
ATOM     40  N   UNL     1       3.792   9.411   4.642  1.00  0.00    -0.354 N 
ATOM     41  C   UNL     1       4.231  12.499   1.682  1.00  0.00     0.074 A 
ATOM     42  C   UNL     1       5.059  12.055   0.581  1.00  0.00     0.031 C 
ATOM     43  C   UNL     1       4.151   7.426   5.604  1.00  0.00     0.029 A 
ATOM     44  C   UNL     1       3.410   8.676   5.739  1.00  0.00     0.049 A 
ATOM     45  H   UNL     1       3.439  10.309   4.447  1.00  0.00     0.167 HD
ATOM     46  C   UNL     1       3.629  13.711   1.745  1.00  0.00     0.037 A 
ATOM     47  C   UNL     1       2.581   8.981   6.756  1.00  0.00     0.037 A 
ATOM     48  C   UNL     1       2.740  14.132   2.797  1.00  0.00     0.049 A 
ATOM     49  C   UNL     1       1.925  10.334   6.797  1.00  0.00     0.074 A 
ATOM     50  C   UNL     1       2.048  15.326   2.915  1.00  0.00     0.029 A 
ATOM     51  N   UNL     1       2.403  13.366   3.902  1.00  0.00    -0.354 N 
ATOM     52  N   UNL     1       1.994  11.316   5.932  1.00  0.00    -0.248 NA
ATOM     53  C   UNL     1       1.089  10.628   7.971  1.00  0.00     0.031 C 
ATOM     54  C   UNL     1       1.322  15.298   4.110  1.00  0.00     0.029 A 
ATOM     55  C   UNL     1       1.530  14.071   4.716  1.00  0.00     0.049 A 
ATOM     56  H   UNL     1       2.736  12.457   4.082  1.00  0.00     0.167 HD
ATOM     57  C   UNL     1       1.205  12.335   6.449  1.00  0.00     0.074 A 
ATOM     58  C   UNL     1       0.643  11.843   7.689  1.00  0.00     0.031 C 
ATOM     59  C   UNL     1       0.977  13.572   5.947  1.00  0.00     0.037 A 
BRANCH  46  60
ATOM     60  C   UNL     1       3.925  14.699   0.654  1.00  0.00     0.064 A 
ATOM     61  C   UNL     1       3.372  14.581  -0.628  1.00  0.00     0.173 A 
ATOM     62  C   UNL     1       4.720  15.824   0.927  1.00  0.00     0.173 A 
ATOM     63  F   UNL     1       2.615  13.518  -0.942  1.00  0.00    -0.203 F 
ATOM     64  C   UNL     1       3.615  15.546  -1.603  1.00  0.00     0.198 A 
ATOM     65  C   UNL     1       4.939  16.799  -0.042  1.00  0.00     0.198 A 
ATOM     66  F   UNL     1       5.266  15.988   2.141  1.00  0.00    -0.203 F 
ATOM     67  F   UNL     1       3.101  15.399  -2.832  1.00  0.00    -0.200 F 
ATOM     68  C   UNL     1       4.390  16.658  -1.306  1.00  0.00     0.200 A 
ATOM     69  F   UNL     1       5.678  17.879   0.251  1.00  0.00    -0.200 F 
ATOM     70  F   UNL     1       4.609  17.593  -2.241  1.00  0.00    -0.200 F 
ENDBRANCH  46  60
BRANCH  47  71
ATOM     71  C   UNL     1       2.342   7.999   7.848  1.00  0.00     0.064 A 
ATOM     72  C   UNL     1       1.079   7.418   8.033  1.00  0.00     0.173 A 
ATOM     73  C   UNL     1       3.358   7.650   8.750  1.00  0.00     0.173 A 
ATOM     74  F   UNL     1       0.065   7.746   7.219  1.00  0.00    -0.203 F 
ATOM     75  C   UNL     1       0.838   6.541   9.089  1.00  0.00     0.198 A 
ATOM     76  C   UNL     1       3.124   6.748   9.785  1.00  0.00     0.198 A 
ATOM     77  F   UNL     1       4.582   8.183   8.622  1.00  0.00    -0.203 F 
ATOM     78  F   UNL     1      -0.392   6.044   9.277  1.00  0.00    -0.200 F 
ATOM     79  C   UNL     1       1.862   6.202   9.960  1.00  0.00     0.200 A 
ATOM     80  F   UNL     1       4.120   6.416  10.618  1.00  0.00    -0.200 F 
ATOM     81  F   UNL     1       1.630   5.360  10.976  1.00  0.00    -0.200 F 
ENDBRANCH  47  71
BRANCH  59  82
ATOM     82  C   UNL     1       0.067  14.470   6.732  1.00  0.00     0.064 A 
ATOM     83  C   UNL     1       0.478  15.051   7.941  1.00  0.00     0.173 A 
ATOM     84  C   UNL     1      -1.224  14.760   6.268  1.00  0.00     0.173 A 
ATOM     85  F   UNL     1       1.698  14.790   8.435  1.00  0.00    -0.203 F 
ATOM     86  C   UNL     1      -0.383  15.863   8.674  1.00  0.00     0.198 A 
ATOM     87  C   UNL     1      -2.073  15.595   6.990  1.00  0.00     0.198 A 
ATOM     88  F   UNL     1      -1.663  14.235   5.115  1.00  0.00    -0.203 F 
ATOM     89  F   UNL     1       0.012  16.364   9.852  1.00  0.00    -0.200 F 
ATOM     90  C   UNL     1      -1.655  16.138   8.196  1.00  0.00     0.200 A 
ATOM     91  F   UNL     1      -3.299  15.868   6.523  1.00  0.00    -0.200 F 
ATOM     92  F   UNL     1      -2.484  16.918   8.903  1.00  0.00    -0.200 F 
ENDBRANCH  59  82
ENDBRANCH  33  34
ENDBRANCH  26  28
ENDBRANCH  25  26
ENDBRANCH  24  25
ENDBRANCH   1  24
TORSDOF 14
