REMARK SMILES O=C(OCCOC(=O)[C@H]([C@@H]1CCOC1)[C@@H]1CCS(=O)(=O)C1)c1ccc(-c2c3nc(c(-c4c(F)c(F)c(F)c(F)c4F)c4ccc([nH]4)c(-c4c(F)c(F)c(F)c(F)c4F)c4nc(c(-c5c(F)c(F)c(F)c(F)c5F)c5ccc2[nH]5)C=C4)C=C3)cc1
REMARK SMILES IDX 4 1 3 2 2 3 1 4 22 5 23 6 84 7 24 8 83 9 25 10 26 11 27 12
REMARK SMILES IDX 77 13 28 14 82 15 76 16 78 17 29 18 81 19 75 20 74 21 30 23
REMARK SMILES IDX 62 24 42 25 61 26 43 27 46 28 60 29 79 30 44 31 45 32 59 34
REMARK SMILES IDX 80 35 47 36 31 37 32 38 40 39 33 40 34 41 38 42 41 43 35 44
REMARK SMILES IDX 36 45 39 46 37 47 63 48 64 49 72 50 65 51 66 52 70 53 73 54
REMARK SMILES IDX 67 55 68 56 71 57 69 58 48 59 49 60 57 61 50 62 51 63 55 64
REMARK SMILES IDX 58 65 52 66 53 67 56 68 54 69 5 70 6 71 7 72 8 73 9 74 15 75
REMARK SMILES IDX 16 76 21 77 17 78 18 79 19 80 20 81 10 82 11 83 14 84 12 85
REMARK SMILES IDX 13 86
REMARK H PARENT 78 22 46 33
REMARK Flexibility Score: inf
ROOT
ATOM      1  C   UNL     1       2.704  -0.873  -5.225  1.00  0.00     0.275 C 
ENDROOT
BRANCH   1   2
ATOM      2  O   UNL     1       2.602   0.041  -4.116  1.00  0.00    -0.458 OA
BRANCH   2   3
ATOM      3  C   UNL     1       1.764   0.076  -3.055  1.00  0.00     0.338 C 
ATOM      4  O   UNL     1       1.755   1.100  -2.371  1.00  0.00    -0.246 OA
BRANCH   3   5
ATOM      5  C   UNL     1       0.940  -1.081  -2.550  1.00  0.00     0.060 A 
ATOM      6  C   UNL     1       0.663  -2.276  -3.217  1.00  0.00     0.016 A 
ATOM      7  C   UNL     1       0.445  -0.959  -1.233  1.00  0.00     0.016 A 
ATOM      8  C   UNL     1       0.031  -3.346  -2.559  1.00  0.00     0.010 A 
ATOM      9  C   UNL     1      -0.227  -2.007  -0.586  1.00  0.00     0.010 A 
ATOM     10  C   UNL     1      -0.406  -3.228  -1.233  1.00  0.00    -0.014 A 
BRANCH  10  11
ATOM     11  C   UNL     1      -1.144  -4.357  -0.607  1.00  0.00     0.031 A 
ATOM     12  C   UNL     1      -2.559  -4.578  -1.006  1.00  0.00     0.074 A 
ATOM     13  C   UNL     1      -0.585  -5.169   0.313  1.00  0.00     0.049 A 
ATOM     14  N   UNL     1      -3.346  -5.573  -0.707  1.00  0.00    -0.248 NA
ATOM     15  C   UNL     1      -3.199  -3.497  -1.772  1.00  0.00     0.031 C 
ATOM     16  C   UNL     1       0.703  -4.928   0.923  1.00  0.00     0.029 A 
ATOM     17  N   UNL     1      -0.961  -6.381   0.850  1.00  0.00    -0.354 N 
ATOM     18  C   UNL     1      -4.600  -5.186  -1.137  1.00  0.00     0.074 A 
ATOM     19  C   UNL     1      -4.456  -3.912  -1.808  1.00  0.00     0.031 C 
ATOM     20  C   UNL     1       1.114  -6.015   1.587  1.00  0.00     0.029 A 
ATOM     21  C   UNL     1       0.099  -7.041   1.460  1.00  0.00     0.049 A 
ATOM     22  H   UNL     1      -1.877  -6.739   0.806  1.00  0.00     0.167 HD
ATOM     23  C   UNL     1      -5.771  -5.810  -0.888  1.00  0.00     0.037 A 
ATOM     24  C   UNL     1       0.241  -8.345   1.779  1.00  0.00     0.037 A 
ATOM     25  C   UNL     1      -5.874  -7.060  -0.184  1.00  0.00     0.049 A 
ATOM     26  C   UNL     1      -1.023  -9.161   1.756  1.00  0.00     0.074 A 
ATOM     27  C   UNL     1      -7.012  -7.771   0.143  1.00  0.00     0.029 A 
ATOM     28  N   UNL     1      -4.792  -7.778   0.311  1.00  0.00    -0.354 N 
ATOM     29  N   UNL     1      -2.199  -8.841   1.274  1.00  0.00    -0.248 NA
ATOM     30  C   UNL     1      -0.978 -10.473   2.417  1.00  0.00     0.031 C 
ATOM     31  C   UNL     1      -6.624  -8.893   0.882  1.00  0.00     0.029 A 
ATOM     32  C   UNL     1      -5.241  -8.915   0.962  1.00  0.00     0.049 A 
ATOM     33  H   UNL     1      -3.848  -7.517   0.214  1.00  0.00     0.167 HD
ATOM     34  C   UNL     1      -3.048  -9.865   1.648  1.00  0.00     0.074 A 
ATOM     35  C   UNL     1      -2.228 -10.886   2.269  1.00  0.00     0.031 C 
ATOM     36  C   UNL     1      -4.399  -9.909   1.577  1.00  0.00     0.037 A 
BRANCH  23  37
ATOM     37  C   UNL     1      -7.020  -5.074  -1.254  1.00  0.00     0.064 A 
ATOM     38  C   UNL     1      -7.422  -4.895  -2.583  1.00  0.00     0.173 A 
ATOM     39  C   UNL     1      -7.818  -4.520  -0.240  1.00  0.00     0.173 A 
ATOM     40  F   UNL     1      -6.669  -5.368  -3.587  1.00  0.00    -0.203 F 
ATOM     41  C   UNL     1      -8.575  -4.175  -2.886  1.00  0.00     0.198 A 
ATOM     42  C   UNL     1      -8.984  -3.828  -0.545  1.00  0.00     0.198 A 
ATOM     43  F   UNL     1      -7.460  -4.644   1.047  1.00  0.00    -0.203 F 
ATOM     44  F   UNL     1      -8.914  -3.967  -4.165  1.00  0.00    -0.200 F 
ATOM     45  C   UNL     1      -9.359  -3.651  -1.868  1.00  0.00     0.200 A 
ATOM     46  F   UNL     1      -9.739  -3.324   0.441  1.00  0.00    -0.200 F 
ATOM     47  F   UNL     1     -10.470  -2.963  -2.162  1.00  0.00    -0.200 F 
ENDBRANCH  23  37
BRANCH  24  48
ATOM     48  C   UNL     1       1.556  -8.991   2.108  1.00  0.00     0.064 A 
ATOM     49  C   UNL     1       1.960 -10.146   1.406  1.00  0.00     0.173 A 
ATOM     50  C   UNL     1       2.412  -8.554   3.129  1.00  0.00     0.173 A 
ATOM     51  F   UNL     1       1.182 -10.648   0.434  1.00  0.00    -0.203 F 
ATOM     52  C   UNL     1       3.119 -10.850   1.742  1.00  0.00     0.198 A 
ATOM     53  C   UNL     1       3.607  -9.220   3.421  1.00  0.00     0.198 A 
ATOM     54  F   UNL     1       2.086  -7.496   3.885  1.00  0.00    -0.203 F 
ATOM     55  F   UNL     1       3.401 -12.009   1.130  1.00  0.00    -0.200 F 
ATOM     56  C   UNL     1       3.948 -10.379   2.744  1.00  0.00     0.200 A 
ATOM     57  F   UNL     1       4.412  -8.753   4.385  1.00  0.00    -0.200 F 
ATOM     58  F   UNL     1       5.053 -11.059   3.082  1.00  0.00    -0.200 F 
ENDBRANCH  24  48
BRANCH  36  59
ATOM     59  C   UNL     1      -5.067 -11.060   2.260  1.00  0.00     0.064 A 
ATOM     60  C   UNL     1      -5.085 -11.149   3.662  1.00  0.00     0.173 A 
ATOM     61  C   UNL     1      -5.752 -12.034   1.525  1.00  0.00     0.173 A 
ATOM     62  F   UNL     1      -4.431 -10.244   4.407  1.00  0.00    -0.203 F 
ATOM     63  C   UNL     1      -5.753 -12.185   4.302  1.00  0.00     0.198 A 
ATOM     64  C   UNL     1      -6.447 -13.051   2.171  1.00  0.00     0.198 A 
ATOM     65  F   UNL     1      -5.768 -11.984   0.185  1.00  0.00    -0.203 F 
ATOM     66  F   UNL     1      -5.726 -12.273   5.639  1.00  0.00    -0.200 F 
ATOM     67  C   UNL     1      -6.444 -13.129   3.556  1.00  0.00     0.200 A 
ATOM     68  F   UNL     1      -7.130 -13.953   1.452  1.00  0.00    -0.200 F 
ATOM     69  F   UNL     1      -7.106 -14.115   4.174  1.00  0.00    -0.200 F 
ENDBRANCH  36  59
ENDBRANCH  10  11
ENDBRANCH   3   5
ENDBRANCH   2   3
ENDBRANCH   1   2
BRANCH   1  70
ATOM     70  C   UNL     1       3.711  -1.992  -4.970  1.00  0.00     0.274 C 
BRANCH  70  71
ATOM     71  O   UNL     1       3.449  -2.647  -3.720  1.00  0.00    -0.462 OA
BRANCH  71  72
ATOM     72  C   UNL     1       4.278  -2.312  -2.693  1.00  0.00     0.309 C 
ATOM     73  O   UNL     1       5.256  -1.587  -2.790  1.00  0.00    -0.252 OA
BRANCH  72  74
ATOM     74  C   UNL     1       3.848  -3.012  -1.406  1.00  0.00     0.109 C 
BRANCH  74  75
ATOM     75  C   UNL     1       4.630  -4.364  -1.289  1.00  0.00     0.019 C 
ATOM     76  C   UNL     1       4.819  -5.149  -2.621  1.00  0.00     0.021 C 
ATOM     77  C   UNL     1       3.977  -5.375  -0.319  1.00  0.00     0.141 C 
ATOM     78  C   UNL     1       3.582  -5.991  -2.860  1.00  0.00     0.137 C 
ATOM     79  S   UNL     1       3.293  -6.734  -1.288  1.00  0.00     0.150 S 
ATOM     80  O   UNL     1       1.860  -6.848  -1.144  1.00  0.00    -0.229 OA
ATOM     81  O   UNL     1       4.160  -7.883  -1.137  1.00  0.00    -0.229 OA
ENDBRANCH  74  75
BRANCH  74  82
ATOM     82  C   UNL     1       3.987  -1.898  -0.297  1.00  0.00     0.032 C 
ATOM     83  C   UNL     1       5.381  -1.720   0.281  1.00  0.00     0.035 C 
ATOM     84  C   UNL     1       3.227  -2.091   0.997  1.00  0.00     0.164 C 
ATOM     85  C   UNL     1       5.397  -2.634   1.497  1.00  0.00     0.160 C 
ATOM     86  O   UNL     1       4.029  -2.976   1.775  1.00  0.00    -0.381 OA
ENDBRANCH  74  82
ENDBRANCH  72  74
ENDBRANCH  71  72
ENDBRANCH  70  71
ENDBRANCH   1  70
TORSDOF 13
