REMARK SMILES N#CCCn1cc(/C=C/c2cc(C(=O)OCCOC(=O)c3ccc(-c4c5nc(c(-c6c(F)c(F)c(F)c(F)c6F)c6ccc([nH]6)c(-c6c(F)c(F)c(F)c(F)c6F)c6nc(c(-c7c(F)c(F)c(F)c(F)c7F)c7ccc4[nH]7)C=C6)C=C5)cc3)c3ccccc3n2)c(-c2ccccc2)n1
REMARK SMILES IDX 15 1 13 2 14 3 12 4 10 5 11 6 90 7 89 8 84 9 88 10 85 11
REMARK SMILES IDX 87 12 86 13 9 14 8 15 7 16 5 17 6 18 98 19 91 20 4 21 3 22
REMARK SMILES IDX 2 23 1 24 92 25 93 26 97 27 94 28 96 29 95 30 16 31 17 32
REMARK SMILES IDX 18 33 19 34 20 35 21 36 22 37 83 38 23 39 82 40 24 41 25 42
REMARK SMILES IDX 26 43 76 44 27 45 81 46 75 47 77 48 28 49 80 50 74 51 73 52
REMARK SMILES IDX 29 54 61 55 41 56 60 57 42 58 45 59 59 60 78 61 43 62 44 63
REMARK SMILES IDX 58 65 79 66 46 67 30 68 31 69 39 70 32 71 33 72 37 73 40 74
REMARK SMILES IDX 34 75 35 76 38 77 36 78 62 79 63 80 71 81 64 82 65 83 69 84
REMARK SMILES IDX 72 85 66 86 67 87 70 88 68 89 47 90 48 91 56 92 49 93 50 94
REMARK SMILES IDX 54 95 57 96 51 97 52 98 55 99 53 100
REMARK H PARENT 77 53 45 64
REMARK Flexibility Score: inf
ROOT
ATOM      1  O   UNL     1      -0.926  -2.034  11.467  1.00  0.00    -0.458 OA
ENDROOT
BRANCH   1   2
ATOM      2  C   UNL     1      -0.898  -1.548  10.208  1.00  0.00     0.339 C 
ATOM      3  O   UNL     1      -1.816  -0.928   9.681  1.00  0.00    -0.246 OA
BRANCH   2   4
ATOM      4  C   UNL     1       0.416  -1.765   9.524  1.00  0.00     0.071 A 
ATOM      5  C   UNL     1       1.754  -1.135   7.626  1.00  0.00     0.065 A 
ATOM      6  C   UNL     1       0.604  -0.977   8.375  1.00  0.00     0.044 A 
ATOM      7  N   UNL     1       2.703  -2.031   7.956  1.00  0.00    -0.248 NA
ATOM      8  C   UNL     1       2.558  -2.760   9.072  1.00  0.00     0.072 A 
ATOM      9  C   UNL     1       1.439  -2.673   9.932  1.00  0.00     0.015 A 
ATOM     10  C   UNL     1       3.587  -3.641   9.373  1.00  0.00     0.029 A 
ATOM     11  C   UNL     1       1.455  -3.490  11.099  1.00  0.00     0.011 A 
ATOM     12  C   UNL     1       3.579  -4.435  10.519  1.00  0.00     0.002 A 
ATOM     13  C   UNL     1       2.513  -4.350  11.393  1.00  0.00     0.001 A 
BRANCH   5  14
ATOM     14  C   UNL     1       2.007  -0.285   6.453  1.00  0.00     0.029 C 
ATOM     15  C   UNL     1       2.948  -0.530   5.521  1.00  0.00     0.014 C 
BRANCH  15  16
ATOM     16  C   UNL     1       3.254   0.315   4.407  1.00  0.00     0.021 A 
ATOM     17  N   UNL     1       3.857   0.955   2.400  1.00  0.00    -0.270 N 
ATOM     18  C   UNL     1       3.736  -0.144   3.199  1.00  0.00     0.117 A 
ATOM     19  N   UNL     1       3.537   2.101   3.019  1.00  0.00    -0.172 NA
ATOM     20  C   UNL     1       3.186   1.734   4.263  1.00  0.00     0.100 A 
BRANCH  17  21
ATOM     21  C   UNL     1       4.326   1.024   1.027  1.00  0.00     0.159 C 
BRANCH  21  22
ATOM     22  C   UNL     1       3.783  -0.045   0.089  1.00  0.00     0.144 C 
BRANCH  22  23
ATOM     23  C   UNL     1       2.263  -0.045   0.089  1.00  0.00     0.064 C 
ATOM     24  N   UNL     1       1.002  -0.045   0.089  1.00  0.00    -0.198 NA
ENDBRANCH  22  23
ENDBRANCH  21  22
ENDBRANCH  17  21
BRANCH  20  25
ATOM     25  C   UNL     1       2.836   2.747   5.255  1.00  0.00     0.003 A 
ATOM     26  C   UNL     1       3.514   2.807   6.481  1.00  0.00     0.010 A 
ATOM     27  C   UNL     1       1.819   3.671   4.988  1.00  0.00     0.010 A 
ATOM     28  C   UNL     1       3.168   3.771   7.431  1.00  0.00     0.001 A 
ATOM     29  C   UNL     1       1.472   4.632   5.941  1.00  0.00     0.001 A 
ATOM     30  C   UNL     1       2.147   4.682   7.161  1.00  0.00     0.000 A 
ENDBRANCH  20  25
ENDBRANCH  15  16
ENDBRANCH   5  14
ENDBRANCH   2   4
ENDBRANCH   1   2
BRANCH   1  31
ATOM     31  C   UNL     1      -2.055  -1.690  12.293  1.00  0.00     0.275 C 
BRANCH  31  32
ATOM     32  C   UNL     1      -1.736  -0.481  13.161  1.00  0.00     0.275 C 
BRANCH  32  33
ATOM     33  O   UNL     1      -1.758   0.723  12.394  1.00  0.00    -0.458 OA
BRANCH  33  34
ATOM     34  C   UNL     1      -0.572   1.076  11.852  1.00  0.00     0.338 C 
ATOM     35  O   UNL     1       0.442   0.402  11.780  1.00  0.00    -0.246 OA
BRANCH  34  36
ATOM     36  C   UNL     1      -0.592   2.504  11.524  1.00  0.00     0.060 A 
ATOM     37  C   UNL     1       0.522   3.016  10.852  1.00  0.00     0.016 A 
ATOM     38  C   UNL     1      -1.552   3.343  12.109  1.00  0.00     0.016 A 
ATOM     39  C   UNL     1       0.761   4.372  10.906  1.00  0.00     0.010 A 
ATOM     40  C   UNL     1      -1.312   4.697  12.162  1.00  0.00     0.010 A 
ATOM     41  C   UNL     1      -0.123   5.185  11.620  1.00  0.00    -0.014 A 
BRANCH  41  42
ATOM     42  C   UNL     1       0.219   6.588  11.758  1.00  0.00     0.031 A 
ATOM     43  C   UNL     1       0.031   7.396  10.529  1.00  0.00     0.074 A 
ATOM     44  C   UNL     1       0.550   7.107  12.956  1.00  0.00     0.049 A 
ATOM     45  N   UNL     1       0.876   8.181   9.944  1.00  0.00    -0.248 NA
ATOM     46  C   UNL     1      -1.247   7.244   9.813  1.00  0.00     0.031 C 
ATOM     47  C   UNL     1       0.470   6.448  14.264  1.00  0.00     0.029 A 
ATOM     48  N   UNL     1       0.909   8.382  13.270  1.00  0.00    -0.354 N 
ATOM     49  C   UNL     1       0.180   8.754   8.883  1.00  0.00     0.074 A 
ATOM     50  C   UNL     1      -1.070   8.052   8.770  1.00  0.00     0.031 C 
ATOM     51  C   UNL     1       0.551   7.384  15.235  1.00  0.00     0.029 A 
ATOM     52  C   UNL     1       0.800   8.677  14.620  1.00  0.00     0.049 A 
ATOM     53  H   UNL     1       1.218   9.035  12.600  1.00  0.00     0.167 HD
ATOM     54  C   UNL     1       0.580   9.924   8.321  1.00  0.00     0.037 A 
ATOM     55  C   UNL     1       0.810   9.911  15.177  1.00  0.00     0.037 A 
ATOM     56  C   UNL     1       1.976  10.175   8.546  1.00  0.00     0.049 A 
ATOM     57  C   UNL     1       1.394  10.852  14.191  1.00  0.00     0.074 A 
ATOM     58  C   UNL     1       3.147   9.534   8.197  1.00  0.00     0.029 A 
ATOM     59  N   UNL     1       2.319  11.086   9.511  1.00  0.00    -0.354 N 
ATOM     60  N   UNL     1       2.645  10.860  13.826  1.00  0.00    -0.248 NA
ATOM     61  C   UNL     1       0.486  11.574  13.313  1.00  0.00     0.031 C 
ATOM     62  C   UNL     1       4.049   9.783   9.272  1.00  0.00     0.029 A 
ATOM     63  C   UNL     1       3.384  10.577  10.207  1.00  0.00     0.049 A 
ATOM     64  H   UNL     1       1.880  11.952   9.674  1.00  0.00     0.167 HD
ATOM     65  C   UNL     1       2.619  11.217  12.486  1.00  0.00     0.074 A 
ATOM     66  C   UNL     1       1.290  11.771  12.266  1.00  0.00     0.031 C 
ATOM     67  C   UNL     1       3.578  10.768  11.625  1.00  0.00     0.037 A 
BRANCH  54  68
ATOM     68  C   UNL     1      -0.385  11.004   7.899  1.00  0.00     0.064 A 
ATOM     69  C   UNL     1       0.094  12.117   7.182  1.00  0.00     0.173 A 
ATOM     70  C   UNL     1      -1.687  11.137   8.434  1.00  0.00     0.173 A 
ATOM     71  F   UNL     1       1.329  12.110   6.658  1.00  0.00    -0.203 F 
ATOM     72  C   UNL     1      -0.647  13.296   7.072  1.00  0.00     0.198 A 
ATOM     73  C   UNL     1      -2.444  12.295   8.275  1.00  0.00     0.198 A 
ATOM     74  F   UNL     1      -2.231  10.205   9.226  1.00  0.00    -0.203 F 
ATOM     75  F   UNL     1      -0.100  14.373   6.492  1.00  0.00    -0.200 F 
ATOM     76  C   UNL     1      -1.913  13.386   7.622  1.00  0.00     0.200 A 
ATOM     77  F   UNL     1      -3.660  12.369   8.835  1.00  0.00    -0.200 F 
ATOM     78  F   UNL     1      -2.597  14.536   7.573  1.00  0.00    -0.200 F 
ENDBRANCH  54  68
BRANCH  55  79
ATOM     79  C   UNL     1       0.064  10.370  16.371  1.00  0.00     0.064 A 
ATOM     80  C   UNL     1       0.426  11.548  17.042  1.00  0.00     0.173 A 
ATOM     81  C   UNL     1      -1.176   9.801  16.727  1.00  0.00     0.173 A 
ATOM     82  F   UNL     1       1.566  12.180  16.727  1.00  0.00    -0.203 F 
ATOM     83  C   UNL     1      -0.411  12.131  17.999  1.00  0.00     0.198 A 
ATOM     84  C   UNL     1      -2.002  10.375  17.692  1.00  0.00     0.198 A 
ATOM     85  F   UNL     1      -1.655   8.729  16.079  1.00  0.00    -0.203 F 
ATOM     86  F   UNL     1      -0.061  13.290  18.574  1.00  0.00    -0.200 F 
ATOM     87  C   UNL     1      -1.626  11.547  18.319  1.00  0.00     0.200 A 
ATOM     88  F   UNL     1      -3.190   9.817  17.965  1.00  0.00    -0.200 F 
ATOM     89  F   UNL     1      -2.452  12.134  19.196  1.00  0.00    -0.200 F 
ENDBRANCH  55  79
BRANCH  67  90
ATOM     90  C   UNL     1       4.826  10.188  12.225  1.00  0.00     0.064 A 
ATOM     91  C   UNL     1       4.851   9.015  12.998  1.00  0.00     0.173 A 
ATOM     92  C   UNL     1       6.055  10.778  11.903  1.00  0.00     0.173 A 
ATOM     93  F   UNL     1       3.725   8.337  13.258  1.00  0.00    -0.203 F 
ATOM     94  C   UNL     1       6.051   8.492  13.474  1.00  0.00     0.198 A 
ATOM     95  C   UNL     1       7.255  10.231  12.346  1.00  0.00     0.198 A 
ATOM     96  F   UNL     1       6.094  11.866  11.117  1.00  0.00    -0.203 F 
ATOM     97  F   UNL     1       6.049   7.383  14.229  1.00  0.00    -0.200 F 
ATOM     98  C   UNL     1       7.252   9.097  13.143  1.00  0.00     0.200 A 
ATOM     99  F   UNL     1       8.418  10.790  11.982  1.00  0.00    -0.200 F 
ATOM    100  F   UNL     1       8.410   8.572  13.569  1.00  0.00    -0.200 F 
ENDBRANCH  67  90
ENDBRANCH  41  42
ENDBRANCH  34  36
ENDBRANCH  33  34
ENDBRANCH  32  33
ENDBRANCH  31  32
ENDBRANCH   1  31
TORSDOF 17
