REMARK SMILES C#Cc1ccc2c(c1)C=C(C(=O)OCCOC(=O)c1ccc(-c3c4nc(c(-c5c(F)c(F)c(F)c(F)c5F)c5ccc([nH]5)c(-c5c(F)c(F)c(F)c(F)c5F)c5nc(c(-c6c(F)c(F)c(F)c(F)c6F)c6ccc3[nH]6)C=C5)C=C4)cc1)[C@@H](C(F)(F)F)O2
REMARK SMILES IDX 15 1 14 2 13 3 11 4 12 5 10 6 3 7 4 8 8 9 5 10 7 11 6 12
REMARK SMILES IDX 9 13 87 14 82 15 2 16 1 17 83 18 84 19 85 20 86 21 16 22
REMARK SMILES IDX 17 23 18 24 19 25 20 26 81 27 21 28 80 29 22 30 23 31 24 32
REMARK SMILES IDX 74 33 25 34 79 35 73 36 75 37 26 38 78 39 72 40 71 41 27 43
REMARK SMILES IDX 59 44 39 45 58 46 40 47 43 48 57 49 76 50 41 51 42 52 56 54
REMARK SMILES IDX 77 55 44 56 28 57 29 58 37 59 30 60 31 61 35 62 38 63 32 64
REMARK SMILES IDX 33 65 36 66 34 67 60 68 61 69 69 70 62 71 63 72 67 73 70 74
REMARK SMILES IDX 64 75 65 76 68 77 66 78 45 79 46 80 54 81 47 82 48 83 52 84
REMARK SMILES IDX 55 85 49 86 50 87 53 88 51 89
REMARK H PARENT 75 42 43 53
REMARK Flexibility Score: inf
ROOT
ATOM      1  C   UNL     1      -8.430   5.656   1.375  1.00  0.00     0.275 C 
ENDROOT
BRANCH   1   2
ATOM      2  C   UNL     1      -8.711   4.696   0.215  1.00  0.00     0.275 C 
BRANCH   2   3
ATOM      3  O   UNL     1      -7.976   3.458   0.355  1.00  0.00    -0.459 OA
BRANCH   3   4
ATOM      4  C   UNL     1      -6.897   3.319  -0.450  1.00  0.00     0.338 C 
ATOM      5  O   UNL     1      -6.516   4.119  -1.292  1.00  0.00    -0.246 OA
BRANCH   4   6
ATOM      6  C   UNL     1      -6.183   2.055  -0.170  1.00  0.00     0.087 C 
ATOM      7  C   UNL     1      -1.981  -0.283   0.130  1.00  0.00     0.025 A 
ATOM      8  C   UNL     1      -2.659  -1.503   0.132  1.00  0.00     0.021 A 
ATOM      9  C   UNL     1      -2.709   0.903   0.106  1.00  0.00     0.029 A 
ATOM     10  C   UNL     1      -4.061  -1.532   0.114  1.00  0.00     0.048 A 
ATOM     11  C   UNL     1      -4.109   0.866   0.061  1.00  0.00     0.018 A 
ATOM     12  C   UNL     1      -4.791  -0.345   0.071  1.00  0.00     0.128 A 
ATOM     13  C   UNL     1      -4.853   2.098  -0.050  1.00  0.00     0.027 C 
ATOM     14  O   UNL     1      -6.155  -0.440   0.048  1.00  0.00    -0.475 OA
ATOM     15  C   UNL     1      -6.947   0.763  -0.201  1.00  0.00     0.316 C 
BRANCH   7  16
ATOM     16  C   UNL     1      -0.551  -0.228   0.125  1.00  0.00    -0.070 C 
ATOM     17  C   UNL     1       0.648  -0.141   0.106  1.00  0.00     0.010 C 
ENDBRANCH   7  16
BRANCH  15  18
ATOM     18  C   UNL     1      -7.682   0.605  -1.542  1.00  0.00     0.430 C 
ATOM     19  F   UNL     1      -8.365  -0.562  -1.599  1.00  0.00    -0.167 F 
ATOM     20  F   UNL     1      -8.591   1.593  -1.733  1.00  0.00    -0.167 F 
ATOM     21  F   UNL     1      -6.832   0.633  -2.594  1.00  0.00    -0.167 F 
ENDBRANCH  15  18
ENDBRANCH   4   6
ENDBRANCH   3   4
ENDBRANCH   2   3
ENDBRANCH   1   2
BRANCH   1  22
ATOM     22  O   UNL     1      -7.094   6.185   1.298  1.00  0.00    -0.458 OA
BRANCH  22  23
ATOM     23  C   UNL     1      -6.176   5.503   2.016  1.00  0.00     0.338 C 
ATOM     24  O   UNL     1      -6.356   4.525   2.722  1.00  0.00    -0.246 OA
BRANCH  23  25
ATOM     25  C   UNL     1      -4.837   6.012   1.711  1.00  0.00     0.060 A 
ATOM     26  C   UNL     1      -4.178   6.910   2.536  1.00  0.00     0.016 A 
ATOM     27  C   UNL     1      -4.163   5.422   0.653  1.00  0.00     0.016 A 
ATOM     28  C   UNL     1      -2.839   7.212   2.264  1.00  0.00     0.010 A 
ATOM     29  C   UNL     1      -2.792   5.555   0.518  1.00  0.00     0.010 A 
ATOM     30  C   UNL     1      -2.116   6.507   1.276  1.00  0.00    -0.014 A 
BRANCH  30  31
ATOM     31  C   UNL     1      -0.678   6.779   1.003  1.00  0.00     0.031 A 
ATOM     32  C   UNL     1      -0.203   7.112  -0.395  1.00  0.00     0.074 A 
ATOM     33  C   UNL     1       0.210   6.709   2.014  1.00  0.00     0.049 A 
ATOM     34  N   UNL     1       1.002   7.433  -0.802  1.00  0.00    -0.248 NA
ATOM     35  C   UNL     1      -1.187   7.040  -1.490  1.00  0.00     0.031 C 
ATOM     36  C   UNL     1      -0.102   6.294   3.383  1.00  0.00     0.029 A 
ATOM     37  N   UNL     1       1.548   7.010   2.059  1.00  0.00    -0.354 N 
ATOM     38  C   UNL     1       0.909   7.589  -2.181  1.00  0.00     0.074 A 
ATOM     39  C   UNL     1      -0.433   7.227  -2.561  1.00  0.00     0.031 C 
ATOM     40  C   UNL     1       0.982   6.462   4.153  1.00  0.00     0.029 A 
ATOM     41  C   UNL     1       2.084   6.937   3.323  1.00  0.00     0.049 A 
ATOM     42  H   UNL     1       2.074   7.255   1.263  1.00  0.00     0.167 HD
ATOM     43  C   UNL     1       1.838   8.053  -3.049  1.00  0.00     0.037 A 
ATOM     44  C   UNL     1       3.319   7.236   3.767  1.00  0.00     0.037 A 
ATOM     45  C   UNL     1       3.162   8.453  -2.659  1.00  0.00     0.049 A 
ATOM     46  C   UNL     1       4.337   7.751   2.787  1.00  0.00     0.074 A 
ATOM     47  C   UNL     1       4.163   8.997  -3.443  1.00  0.00     0.029 A 
ATOM     48  N   UNL     1       3.667   8.353  -1.371  1.00  0.00    -0.354 N 
ATOM     49  N   UNL     1       4.203   7.989   1.505  1.00  0.00    -0.248 NA
ATOM     50  C   UNL     1       5.675   8.043   3.316  1.00  0.00     0.031 C 
ATOM     51  C   UNL     1       5.295   9.167  -2.643  1.00  0.00     0.029 A 
ATOM     52  C   UNL     1       4.979   8.795  -1.346  1.00  0.00     0.049 A 
ATOM     53  H   UNL     1       3.167   8.018  -0.592  1.00  0.00     0.167 HD
ATOM     54  C   UNL     1       5.430   8.474   1.075  1.00  0.00     0.074 A 
ATOM     55  C   UNL     1       6.288   8.522   2.242  1.00  0.00     0.031 C 
ATOM     56  C   UNL     1       5.815   8.838  -0.173  1.00  0.00     0.037 A 
BRANCH  43  57
ATOM     57  C   UNL     1       1.448   8.190  -4.496  1.00  0.00     0.064 A 
ATOM     58  C   UNL     1       0.491   9.129  -4.913  1.00  0.00     0.173 A 
ATOM     59  C   UNL     1       2.080   7.421  -5.485  1.00  0.00     0.173 A 
ATOM     60  F   UNL     1      -0.153   9.886  -4.011  1.00  0.00    -0.203 F 
ATOM     61  C   UNL     1       0.164   9.275  -6.259  1.00  0.00     0.198 A 
ATOM     62  C   UNL     1       1.778   7.596  -6.834  1.00  0.00     0.198 A 
ATOM     63  F   UNL     1       3.007   6.513  -5.147  1.00  0.00    -0.203 F 
ATOM     64  F   UNL     1      -0.788  10.145  -6.625  1.00  0.00    -0.200 F 
ATOM     65  C   UNL     1       0.816   8.518  -7.219  1.00  0.00     0.200 A 
ATOM     66  F   UNL     1       2.424   6.878  -7.762  1.00  0.00    -0.200 F 
ATOM     67  F   UNL     1       0.516   8.674  -8.516  1.00  0.00    -0.200 F 
ENDBRANCH  43  57
BRANCH  44  68
ATOM     68  C   UNL     1       3.628   7.109   5.216  1.00  0.00     0.064 A 
ATOM     69  C   UNL     1       3.860   8.245   6.005  1.00  0.00     0.173 A 
ATOM     70  C   UNL     1       3.650   5.859   5.853  1.00  0.00     0.173 A 
ATOM     71  F   UNL     1       3.865   9.462   5.442  1.00  0.00    -0.203 F 
ATOM     72  C   UNL     1       4.107   8.135   7.372  1.00  0.00     0.198 A 
ATOM     73  C   UNL     1       3.863   5.753   7.226  1.00  0.00     0.198 A 
ATOM     74  F   UNL     1       3.426   4.742   5.147  1.00  0.00    -0.203 F 
ATOM     75  F   UNL     1       4.356   9.235   8.096  1.00  0.00    -0.200 F 
ATOM     76  C   UNL     1       4.097   6.891   7.984  1.00  0.00     0.200 A 
ATOM     77  F   UNL     1       3.829   4.551   7.816  1.00  0.00    -0.200 F 
ATOM     78  F   UNL     1       4.313   6.787   9.302  1.00  0.00    -0.200 F 
ENDBRANCH  44  68
BRANCH  56  79
ATOM     79  C   UNL     1       7.222   9.329  -0.352  1.00  0.00     0.064 A 
ATOM     80  C   UNL     1       8.318   8.461  -0.255  1.00  0.00     0.173 A 
ATOM     81  C   UNL     1       7.468  10.663  -0.713  1.00  0.00     0.173 A 
ATOM     82  F   UNL     1       8.136   7.179   0.096  1.00  0.00    -0.203 F 
ATOM     83  C   UNL     1       9.612   8.914  -0.494  1.00  0.00     0.198 A 
ATOM     84  C   UNL     1       8.759  11.103  -0.989  1.00  0.00     0.198 A 
ATOM     85  F   UNL     1       6.453  11.532  -0.832  1.00  0.00    -0.203 F 
ATOM     86  F   UNL     1      10.649   8.076  -0.356  1.00  0.00    -0.200 F 
ATOM     87  C   UNL     1       9.830  10.230  -0.873  1.00  0.00     0.200 A 
ATOM     88  F   UNL     1       8.965  12.369  -1.378  1.00  0.00    -0.200 F 
ATOM     89  F   UNL     1      11.074  10.658  -1.127  1.00  0.00    -0.200 F 
ENDBRANCH  56  79
ENDBRANCH  30  31
ENDBRANCH  23  25
ENDBRANCH  22  23
ENDBRANCH   1  22
TORSDOF 13
