REMARK SMILES O=C(CC[NH+]1CCC([N@H+]2CCC[C@H](C(=O)NCc3cccnc3)C2)CC1)OCCOC(=O)c1ccc(-c2c3nc(c(-c4c(F)c(F)c(F)c(F)c4F)c4ccc([nH]4)c(-c4c(F)c(F)c(F)c(F)c4F)c4nc(c(-c5c(F)c(F)c(F)c(F)c5F)c5ccc2[nH]5)C=C4)C=C3)cc1
REMARK SMILES IDX 1 1 2 2 3 3 4 4 5 5 6 6 26 7 7 9 25 10 8 11 9 12 10 13 24 14
REMARK SMILES IDX 11 16 13 17 12 18 14 19 15 20 16 21 17 23 18 24 19 25 23 26
REMARK SMILES IDX 20 27 22 28 21 29 27 30 28 31 29 32 30 33 31 34 32 35 33 36
REMARK SMILES IDX 34 37 95 38 35 39 94 40 36 41 37 42 38 43 88 44 39 45 93 46
REMARK SMILES IDX 87 47 89 48 40 49 92 50 86 51 85 52 41 54 73 55 53 56 72 57
REMARK SMILES IDX 54 58 57 59 71 60 90 61 55 62 56 63 70 65 91 66 58 67 42 68
REMARK SMILES IDX 43 69 51 70 44 71 45 72 49 73 52 74 46 75 47 76 50 77 48 78
REMARK SMILES IDX 74 79 75 80 83 81 76 82 77 83 81 84 84 85 78 86 79 87 82 88
REMARK SMILES IDX 80 89 59 90 60 91 68 92 61 93 62 94 66 95 69 96 63 97 64 98
REMARK SMILES IDX 67 99 65 100
REMARK H PARENT 5 8 9 15 16 22 89 53 57 64
REMARK Flexibility Score: inf
ROOT
ATOM      1  O   UNL     1       1.211  -1.578   0.765  1.00  0.00    -0.252 OA
ATOM      2  C   UNL     1       1.938  -0.619   0.533  1.00  0.00     0.311 C 
ENDROOT
BRANCH   2   3
ATOM      3  C   UNL     1       2.846  -0.010   1.577  1.00  0.00     0.184 C 
BRANCH   3   4
ATOM      4  C   UNL     1       3.771  -0.993   2.303  1.00  0.00     0.274 C 
BRANCH   4   5
ATOM      5  N   UNL     1       4.852  -1.639   1.541  1.00  0.00    -0.334 N 
ATOM      6  C   UNL     1       4.386  -2.826   0.830  1.00  0.00     0.268 C 
ATOM      7  C   UNL     1       5.717  -0.717   0.809  1.00  0.00     0.268 C 
ATOM      8  H   UNL     1       5.517  -2.011   2.219  1.00  0.00     0.348 HD
ATOM      9  C   UNL     1       5.514  -3.529   0.089  1.00  0.00     0.126 C 
ATOM     10  C   UNL     1       6.679  -1.338  -0.211  1.00  0.00     0.126 C 
ATOM     11  C   UNL     1       6.102  -2.565  -0.940  1.00  0.00     0.195 C 
BRANCH  11  12
ATOM     12  N   UNL     1       7.098  -3.151  -1.859  1.00  0.00    -0.331 N 
ATOM     13  C   UNL     1       8.199  -3.853  -1.194  1.00  0.00     0.262 C 
ATOM     14  C   UNL     1       6.479  -3.978  -2.910  1.00  0.00     0.275 C 
ATOM     15  H   UNL     1       7.528  -2.345  -2.314  1.00  0.00     0.348 HD
ATOM     16  C   UNL     1       9.297  -4.166  -2.202  1.00  0.00     0.062 C 
ATOM     17  C   UNL     1       7.460  -4.573  -3.928  1.00  0.00     0.133 C 
ATOM     18  C   UNL     1       8.790  -5.043  -3.334  1.00  0.00     0.025 C 
BRANCH  17  19
ATOM     19  C   UNL     1       7.622  -3.846  -5.265  1.00  0.00     0.229 C 
ATOM     20  O   UNL     1       7.450  -4.481  -6.314  1.00  0.00    -0.275 OA
ATOM     21  N   UNL     1       8.011  -2.560  -5.420  1.00  0.00    -0.352 N 
ATOM     22  H   UNL     1       8.234  -2.324  -6.350  1.00  0.00     0.163 HD
BRANCH  21  23
ATOM     23  C   UNL     1       8.165  -1.464  -4.492  1.00  0.00     0.153 C 
BRANCH  23  24
ATOM     24  C   UNL     1       9.561  -0.923  -4.377  1.00  0.00    -0.010 A 
ATOM     25  C   UNL     1       9.765   0.375  -3.891  1.00  0.00     0.009 A 
ATOM     26  C   UNL     1      10.697  -1.686  -4.627  1.00  0.00     0.116 A 
ATOM     27  C   UNL     1      11.058   0.847  -3.681  1.00  0.00     0.020 A 
ATOM     28  N   UNL     1      11.965  -1.254  -4.429  1.00  0.00    -0.264 NA
ATOM     29  C   UNL     1      12.116   0.000  -3.958  1.00  0.00     0.111 A 
ENDBRANCH  23  24
ENDBRANCH  21  23
ENDBRANCH  17  19
ENDBRANCH  11  12
ENDBRANCH   4   5
ENDBRANCH   3   4
ENDBRANCH   2   3
BRANCH   2  30
ATOM     30  O   UNL     1       1.840   0.083  -0.630  1.00  0.00    -0.462 OA
BRANCH  30  31
ATOM     31  C   UNL     1       2.993   0.107  -1.492  1.00  0.00     0.274 C 
BRANCH  31  32
ATOM     32  C   UNL     1       3.530   1.519  -1.766  1.00  0.00     0.275 C 
BRANCH  32  33
ATOM     33  O   UNL     1       3.413   2.354  -0.606  1.00  0.00    -0.458 OA
BRANCH  33  34
ATOM     34  C   UNL     1       2.213   2.987  -0.531  1.00  0.00     0.338 C 
ATOM     35  O   UNL     1       1.401   3.121  -1.425  1.00  0.00    -0.246 OA
BRANCH  34  36
ATOM     36  C   UNL     1       1.916   3.304   0.879  1.00  0.00     0.060 A 
ATOM     37  C   UNL     1       0.638   2.973   1.342  1.00  0.00     0.016 A 
ATOM     38  C   UNL     1       2.845   3.915   1.727  1.00  0.00     0.016 A 
ATOM     39  C   UNL     1       0.257   3.321   2.633  1.00  0.00     0.010 A 
ATOM     40  C   UNL     1       2.460   4.266   3.026  1.00  0.00     0.010 A 
ATOM     41  C   UNL     1       1.148   4.015   3.463  1.00  0.00    -0.014 A 
BRANCH  41  42
ATOM     42  C   UNL     1       0.606   4.644   4.691  1.00  0.00     0.031 A 
ATOM     43  C   UNL     1       0.153   6.077   4.618  1.00  0.00     0.074 A 
ATOM     44  C   UNL     1       0.414   3.927   5.811  1.00  0.00     0.049 A 
ATOM     45  N   UNL     1      -0.505   6.787   5.498  1.00  0.00    -0.248 NA
ATOM     46  C   UNL     1       0.479   6.804   3.380  1.00  0.00     0.031 C 
ATOM     47  C   UNL     1       0.802   2.532   6.000  1.00  0.00     0.029 A 
ATOM     48  N   UNL     1      -0.176   4.279   6.999  1.00  0.00    -0.354 N 
ATOM     49  C   UNL     1      -0.702   8.027   4.906  1.00  0.00     0.074 A 
ATOM     50  C   UNL     1      -0.040   7.998   3.621  1.00  0.00     0.031 C 
ATOM     51  C   UNL     1       0.437   2.142   7.234  1.00  0.00     0.029 A 
ATOM     52  C   UNL     1      -0.212   3.260   7.918  1.00  0.00     0.049 A 
ATOM     53  H   UNL     1      -0.539   5.177   7.175  1.00  0.00     0.167 HD
ATOM     54  C   UNL     1      -1.400   9.087   5.377  1.00  0.00     0.037 A 
ATOM     55  C   UNL     1      -0.724   3.236   9.164  1.00  0.00     0.037 A 
ATOM     56  C   UNL     1      -2.037   9.129   6.665  1.00  0.00     0.049 A 
ATOM     57  C   UNL     1      -1.447   4.450   9.690  1.00  0.00     0.074 A 
ATOM     58  C   UNL     1      -2.754  10.161   7.243  1.00  0.00     0.029 A 
ATOM     59  N   UNL     1      -2.023   8.087   7.581  1.00  0.00    -0.354 N 
ATOM     60  N   UNL     1      -1.677   5.599   9.101  1.00  0.00    -0.248 NA
ATOM     61  C   UNL     1      -2.003   4.353  11.047  1.00  0.00     0.031 C 
ATOM     62  C   UNL     1      -3.140   9.758   8.527  1.00  0.00     0.029 A 
ATOM     63  C   UNL     1      -2.704   8.459   8.729  1.00  0.00     0.049 A 
ATOM     64  H   UNL     1      -1.593   7.214   7.437  1.00  0.00     0.167 HD
ATOM     65  C   UNL     1      -2.422   6.349  10.002  1.00  0.00     0.074 A 
ATOM     66  C   UNL     1      -2.625   5.516  11.169  1.00  0.00     0.031 C 
ATOM     67  C   UNL     1      -2.895   7.614   9.879  1.00  0.00     0.037 A 
BRANCH  54  68
ATOM     68  C   UNL     1      -1.504  10.289   4.486  1.00  0.00     0.064 A 
ATOM     69  C   UNL     1      -2.307  10.274   3.335  1.00  0.00     0.173 A 
ATOM     70  C   UNL     1      -0.815  11.470   4.792  1.00  0.00     0.173 A 
ATOM     71  F   UNL     1      -2.971   9.161   2.989  1.00  0.00    -0.203 F 
ATOM     72  C   UNL     1      -2.398  11.393   2.511  1.00  0.00     0.198 A 
ATOM     73  C   UNL     1      -0.928  12.595   3.979  1.00  0.00     0.198 A 
ATOM     74  F   UNL     1      -0.032  11.534   5.880  1.00  0.00    -0.203 F 
ATOM     75  F   UNL     1      -3.135  11.342   1.393  1.00  0.00    -0.200 F 
ATOM     76  C   UNL     1      -1.714  12.554   2.837  1.00  0.00     0.200 A 
ATOM     77  F   UNL     1      -0.271  13.719   4.298  1.00  0.00    -0.200 F 
ATOM     78  F   UNL     1      -1.804  13.631   2.045  1.00  0.00    -0.200 F 
ENDBRANCH  54  68
BRANCH  55  79
ATOM     79  C   UNL     1      -0.585   2.015  10.001  1.00  0.00     0.064 A 
ATOM     80  C   UNL     1      -1.697   1.233  10.342  1.00  0.00     0.173 A 
ATOM     81  C   UNL     1       0.665   1.627  10.505  1.00  0.00     0.173 A 
ATOM     82  F   UNL     1      -2.917   1.578   9.906  1.00  0.00    -0.203 F 
ATOM     83  C   UNL     1      -1.568   0.125  11.178  1.00  0.00     0.198 A 
ATOM     84  C   UNL     1       0.797   0.503  11.317  1.00  0.00     0.198 A 
ATOM     85  F   UNL     1       1.760   2.342  10.209  1.00  0.00    -0.203 F 
ATOM     86  F   UNL     1      -2.655  -0.574  11.533  1.00  0.00    -0.200 F 
ATOM     87  C   UNL     1      -0.321  -0.242  11.661  1.00  0.00     0.200 A 
ATOM     88  F   UNL     1       2.005   0.148  11.775  1.00  0.00    -0.200 F 
ATOM     89  F   UNL     1      -0.198  -1.305  12.468  1.00  0.00    -0.200 F 
ENDBRANCH  55  79
BRANCH  67  90
ATOM     90  C   UNL     1      -3.692   8.164  11.027  1.00  0.00     0.064 A 
ATOM     91  C   UNL     1      -3.086   8.505  12.245  1.00  0.00     0.173 A 
ATOM     92  C   UNL     1      -5.072   8.378  10.897  1.00  0.00     0.173 A 
ATOM     93  F   UNL     1      -1.770   8.309  12.423  1.00  0.00    -0.203 F 
ATOM     94  C   UNL     1      -3.839   9.009  13.303  1.00  0.00     0.198 A 
ATOM     95  C   UNL     1      -5.817   8.910  11.946  1.00  0.00     0.198 A 
ATOM     96  F   UNL     1      -5.699   8.079   9.749  1.00  0.00    -0.203 F 
ATOM     97  F   UNL     1      -3.247   9.277  14.475  1.00  0.00    -0.200 F 
ATOM     98  C   UNL     1      -5.202   9.216  13.151  1.00  0.00     0.200 A 
ATOM     99  F   UNL     1      -7.131   9.123  11.793  1.00  0.00    -0.200 F 
ATOM    100  F   UNL     1      -5.924   9.702  14.169  1.00  0.00    -0.200 F 
ENDBRANCH  67  90
ENDBRANCH  41  42
ENDBRANCH  34  36
ENDBRANCH  33  34
ENDBRANCH  32  33
ENDBRANCH  31  32
ENDBRANCH  30  31
ENDBRANCH   2  30
TORSDOF 17
