REMARK SMILES O=C(C[C@H](NC(=O)[C@]12C[C@H]3C[C@H](C[C@H](C3)C1)C2)c1cccc([N+](=O)[O-])c1)OCCOC(=O)c1ccc(-c2c3nc(c(-c4c(F)c(F)c(F)c(F)c4F)c4ccc([nH]4)c(-c4c(F)c(F)c(F)c(F)c4F)c4nc(c(-c5c(F)c(F)c(F)c(F)c5F)c5ccc2[nH]5)C=C4)C=C3)cc1
REMARK SMILES IDX 28 1 27 2 2 3 1 4 3 5 4 6 18 7 19 8 26 9 20 10 22 11 21 12
REMARK SMILES IDX 23 13 24 14 25 15 5 16 6 17 7 19 8 20 9 21 16 22 17 23 10 24
REMARK SMILES IDX 14 25 12 26 11 27 15 28 13 29 29 30 30 31 31 32 32 33 33 34
REMARK SMILES IDX 34 35 95 36 35 37 94 38 36 39 37 40 38 41 88 42 39 43 93 44
REMARK SMILES IDX 87 45 89 46 40 47 92 48 86 49 85 50 41 52 73 53 53 54 72 55
REMARK SMILES IDX 54 56 57 57 71 58 90 59 55 60 56 61 70 63 91 64 58 65 42 66
REMARK SMILES IDX 43 67 51 68 44 69 45 70 49 71 52 72 46 73 47 74 50 75 48 76
REMARK SMILES IDX 74 77 75 78 83 79 76 80 77 81 81 82 84 83 78 84 79 85 82 86
REMARK SMILES IDX 80 87 59 88 60 89 68 90 61 91 62 92 66 93 69 94 63 95 64 96
REMARK SMILES IDX 67 97 65 98
REMARK H PARENT 5 18 89 51 57 62
REMARK Flexibility Score: inf
ROOT
ATOM      1  C   UNL     1       6.721   2.381  -0.055  1.00  0.00     0.274 C 
ENDROOT
BRANCH   1   2
ATOM      2  O   UNL     1       7.029   1.956   1.285  1.00  0.00    -0.462 OA
BRANCH   2   3
ATOM      3  C   UNL     1       6.187   1.188   2.014  1.00  0.00     0.308 C 
ATOM      4  O   UNL     1       6.548   0.670   3.069  1.00  0.00    -0.252 OA
BRANCH   3   5
ATOM      5  C   UNL     1       4.783   0.998   1.507  1.00  0.00     0.152 C 
BRANCH   5   6
ATOM      6  C   UNL     1       3.671   1.970   1.952  1.00  0.00     0.123 C 
BRANCH   6   7
ATOM      7  C   UNL     1       4.172   3.375   2.300  1.00  0.00    -0.018 A 
ATOM      8  C   UNL     1       5.120   3.527   3.334  1.00  0.00     0.006 A 
ATOM      9  C   UNL     1       3.740   4.541   1.655  1.00  0.00     0.091 A 
ATOM     10  C   UNL     1       5.779   4.736   3.558  1.00  0.00     0.007 A 
ATOM     11  C   UNL     1       4.369   5.770   1.914  1.00  0.00     0.269 A 
ATOM     12  C   UNL     1       5.423   5.861   2.825  1.00  0.00     0.085 A 
BRANCH  11  13
ATOM     13  N   UNL     1       3.920   6.968   1.196  1.00  0.00     0.062 N 
ATOM     14  O   UNL     1       4.558   8.015   1.367  1.00  0.00    -0.258 OA
ATOM     15  O   UNL     1       2.934   6.856   0.454  1.00  0.00    -0.258 OA
ENDBRANCH  11  13
ENDBRANCH   6   7
BRANCH   6  16
ATOM     16  N   UNL     1       2.598   1.968   0.916  1.00  0.00    -0.348 N 
ATOM     17  C   UNL     1       1.659   1.087   0.471  1.00  0.00     0.226 C 
ATOM     18  H   UNL     1       2.558   2.823   0.429  1.00  0.00     0.164 HD
ATOM     19  O   UNL     1       0.934   1.501  -0.439  1.00  0.00    -0.274 OA
BRANCH  17  20
ATOM     20  C   UNL     1       1.591  -0.376   0.901  1.00  0.00     0.050 C 
ATOM     21  C   UNL     1       1.830  -0.575   2.413  1.00  0.00     0.020 C 
ATOM     22  C   UNL     1       2.571  -1.143  -0.023  1.00  0.00     0.020 C 
ATOM     23  C   UNL     1       0.203  -1.036   0.613  1.00  0.00     0.020 C 
ATOM     24  C   UNL     1       1.933  -2.049   2.758  1.00  0.00    -0.010 C 
ATOM     25  C   UNL     1       2.623  -2.598   0.394  1.00  0.00    -0.010 C 
ATOM     26  C   UNL     1       0.210  -2.539   1.008  1.00  0.00    -0.010 C 
ATOM     27  C   UNL     1       0.577  -2.697   2.489  1.00  0.00     0.007 C 
ATOM     28  C   UNL     1       3.038  -2.599   1.860  1.00  0.00     0.007 C 
ATOM     29  C   UNL     1       1.271  -3.275   0.186  1.00  0.00     0.007 C 
ENDBRANCH  17  20
ENDBRANCH   6  16
ENDBRANCH   5   6
ENDBRANCH   3   5
ENDBRANCH   2   3
ENDBRANCH   1   2
BRANCH   1  30
ATOM     30  C   UNL     1       7.154   1.340  -1.095  1.00  0.00     0.275 C 
BRANCH  30  31
ATOM     31  O   UNL     1       6.630   0.013  -0.835  1.00  0.00    -0.458 OA
BRANCH  31  32
ATOM     32  C   UNL     1       7.433  -0.832  -0.129  1.00  0.00     0.338 C 
ATOM     33  O   UNL     1       8.540  -0.565   0.316  1.00  0.00    -0.246 OA
BRANCH  32  34
ATOM     34  C   UNL     1       6.748  -2.132   0.110  1.00  0.00     0.060 A 
ATOM     35  C   UNL     1       6.808  -2.755   1.370  1.00  0.00     0.016 A 
ATOM     36  C   UNL     1       6.077  -2.778  -0.922  1.00  0.00     0.016 A 
ATOM     37  C   UNL     1       6.172  -4.002   1.612  1.00  0.00     0.010 A 
ATOM     38  C   UNL     1       5.457  -4.016  -0.678  1.00  0.00     0.010 A 
ATOM     39  C   UNL     1       5.470  -4.655   0.595  1.00  0.00    -0.014 A 
BRANCH  39  40
ATOM     40  C   UNL     1       4.820  -6.021   0.691  1.00  0.00     0.031 A 
ATOM     41  C   UNL     1       5.361  -7.088  -0.221  1.00  0.00     0.074 A 
ATOM     42  C   UNL     1       3.750  -6.391   1.442  1.00  0.00     0.049 A 
ATOM     43  N   UNL     1       4.890  -8.287  -0.453  1.00  0.00    -0.248 NA
ATOM     44  C   UNL     1       6.627  -6.790  -0.911  1.00  0.00     0.031 C 
ATOM     45  C   UNL     1       3.197  -5.730   2.611  1.00  0.00     0.029 A 
ATOM     46  N   UNL     1       2.835  -7.415   1.234  1.00  0.00    -0.354 N 
ATOM     47  C   UNL     1       5.860  -8.914  -1.209  1.00  0.00     0.074 A 
ATOM     48  C   UNL     1       6.837  -7.913  -1.575  1.00  0.00     0.031 C 
ATOM     49  C   UNL     1       1.933  -6.141   2.822  1.00  0.00     0.029 A 
ATOM     50  C   UNL     1       1.637  -7.221   1.897  1.00  0.00     0.049 A 
ATOM     51  H   UNL     1       3.022  -8.201   0.670  1.00  0.00     0.167 HD
ATOM     52  C   UNL     1       5.999 -10.235  -1.455  1.00  0.00     0.037 A 
ATOM     53  C   UNL     1       0.447  -7.854   1.814  1.00  0.00     0.037 A 
ATOM     54  C   UNL     1       5.033 -11.239  -1.111  1.00  0.00     0.049 A 
ATOM     55  C   UNL     1       0.444  -9.235   1.224  1.00  0.00     0.074 A 
ATOM     56  C   UNL     1       5.109 -12.607  -1.299  1.00  0.00     0.029 A 
ATOM     57  N   UNL     1       3.798 -10.981  -0.537  1.00  0.00    -0.354 N 
ATOM     58  N   UNL     1       1.425  -9.868   0.637  1.00  0.00    -0.248 NA
ATOM     59  C   UNL     1      -0.761 -10.053   1.434  1.00  0.00     0.031 C 
ATOM     60  C   UNL     1       3.887 -13.168  -0.912  1.00  0.00     0.029 A 
ATOM     61  C   UNL     1       3.073 -12.158  -0.426  1.00  0.00     0.049 A 
ATOM     62  H   UNL     1       3.482 -10.094  -0.251  1.00  0.00     0.167 HD
ATOM     63  C   UNL     1       1.014 -11.187   0.532  1.00  0.00     0.074 A 
ATOM     64  C   UNL     1      -0.332 -11.251   1.060  1.00  0.00     0.031 C 
ATOM     65  C   UNL     1       1.733 -12.249   0.096  1.00  0.00     0.037 A 
BRANCH  52  66
ATOM     66  C   UNL     1       7.290 -10.640  -2.091  1.00  0.00     0.064 A 
ATOM     67  C   UNL     1       8.502 -10.544  -1.385  1.00  0.00     0.173 A 
ATOM     68  C   UNL     1       7.329 -11.066  -3.421  1.00  0.00     0.173 A 
ATOM     69  F   UNL     1       8.513 -10.112  -0.113  1.00  0.00    -0.203 F 
ATOM     70  C   UNL     1       9.713 -10.814  -2.009  1.00  0.00     0.198 A 
ATOM     71  C   UNL     1       8.541 -11.367  -4.033  1.00  0.00     0.198 A 
ATOM     72  F   UNL     1       6.197 -11.164  -4.134  1.00  0.00    -0.203 F 
ATOM     73  F   UNL     1      10.863 -10.637  -1.343  1.00  0.00    -0.200 F 
ATOM     74  C   UNL     1       9.732 -11.227  -3.332  1.00  0.00     0.200 A 
ATOM     75  F   UNL     1       8.561 -11.768  -5.311  1.00  0.00    -0.200 F 
ATOM     76  F   UNL     1      10.900 -11.473  -3.940  1.00  0.00    -0.200 F 
ENDBRANCH  52  66
BRANCH  53  77
ATOM     77  C   UNL     1      -0.794  -7.310   2.437  1.00  0.00     0.064 A 
ATOM     78  C   UNL     1      -1.280  -7.794   3.660  1.00  0.00     0.173 A 
ATOM     79  C   UNL     1      -1.587  -6.371   1.755  1.00  0.00     0.173 A 
ATOM     80  F   UNL     1      -0.582  -8.721   4.332  1.00  0.00    -0.203 F 
ATOM     81  C   UNL     1      -2.518  -7.389   4.161  1.00  0.00     0.198 A 
ATOM     82  C   UNL     1      -2.819  -5.954   2.265  1.00  0.00     0.198 A 
ATOM     83  F   UNL     1      -1.186  -5.889   0.569  1.00  0.00    -0.203 F 
ATOM     84  F   UNL     1      -2.982  -7.919   5.301  1.00  0.00    -0.200 F 
ATOM     85  C   UNL     1      -3.288  -6.471   3.463  1.00  0.00     0.200 A 
ATOM     86  F   UNL     1      -3.567  -5.076   1.582  1.00  0.00    -0.200 F 
ATOM     87  F   UNL     1      -4.489  -6.104   3.933  1.00  0.00    -0.200 F 
ENDBRANCH  53  77
BRANCH  65  88
ATOM     88  C   UNL     1       1.107 -13.607   0.213  1.00  0.00     0.064 A 
ATOM     89  C   UNL     1       0.003 -13.985  -0.563  1.00  0.00     0.173 A 
ATOM     90  C   UNL     1       1.648 -14.559   1.092  1.00  0.00     0.173 A 
ATOM     91  F   UNL     1      -0.565 -13.106  -1.403  1.00  0.00    -0.203 F 
ATOM     92  C   UNL     1      -0.550 -15.257  -0.448  1.00  0.00     0.198 A 
ATOM     93  C   UNL     1       1.117 -15.842   1.177  1.00  0.00     0.198 A 
ATOM     94  F   UNL     1       2.703 -14.249   1.861  1.00  0.00    -0.203 F 
ATOM     95  F   UNL     1      -1.638 -15.578  -1.162  1.00  0.00    -0.200 F 
ATOM     96  C   UNL     1       0.014 -16.188   0.412  1.00  0.00     0.200 A 
ATOM     97  F   UNL     1       1.673 -16.744   1.997  1.00  0.00    -0.200 F 
ATOM     98  F   UNL     1      -0.511 -17.417   0.509  1.00  0.00    -0.200 F 
ENDBRANCH  65  88
ENDBRANCH  39  40
ENDBRANCH  32  34
ENDBRANCH  31  32
ENDBRANCH  30  31
ENDBRANCH   1  30
TORSDOF 16
