REMARK SMILES O=C(OCCOC(=O)c1ccc(-c2c3nc(c(-c4c(F)c(F)c(F)c(F)c4F)c4ccc([nH]4)c(-c4c(F)c(F)c(F)c(F)c4F)c4nc(c(-c5c(F)c(F)c(F)c(F)c5F)c5ccc2[nH]5)C=C4)C=C3)cc1)c1ccc(N[C@H]2OC[C@@H](O)[C@@H](O)[C@H]2O)cc1
REMARK SMILES IDX 4 1 3 2 2 3 1 4 72 5 73 6 87 7 74 8 86 9 75 10 76 11 77 13
REMARK SMILES IDX 78 14 84 15 79 16 82 17 80 18 85 19 83 21 81 23 5 25 6 26
REMARK SMILES IDX 7 27 8 28 9 29 10 30 71 31 11 32 70 33 12 34 13 35 14 36
REMARK SMILES IDX 64 37 15 38 69 39 63 40 65 41 16 42 68 43 62 44 61 45 17 47
REMARK SMILES IDX 49 48 29 49 48 50 30 51 33 52 47 53 66 54 31 55 32 56 46 58
REMARK SMILES IDX 67 59 34 60 18 61 19 62 27 63 20 64 21 65 25 66 28 67 22 68
REMARK SMILES IDX 23 69 26 70 24 71 50 72 51 73 59 74 52 75 53 76 57 77 60 78
REMARK SMILES IDX 54 79 55 80 58 81 56 82 35 83 36 84 44 85 37 86 38 87 42 88
REMARK SMILES IDX 45 89 39 90 40 91 43 92 41 93
REMARK H PARENT 76 12 85 20 83 22 81 24 65 46 33 57
REMARK Flexibility Score: inf
ROOT
ATOM      1  C   UNL     1       2.002  -9.324  -5.036  1.00  0.00     0.275 C 
ENDROOT
BRANCH   1   2
ATOM      2  O   UNL     1       3.139  -9.998  -5.606  1.00  0.00    -0.458 OA
BRANCH   2   3
ATOM      3  C   UNL     1       4.349  -9.521  -5.984  1.00  0.00     0.338 C 
ATOM      4  O   UNL     1       5.054 -10.235  -6.699  1.00  0.00    -0.246 OA
BRANCH   3   5
ATOM      5  C   UNL     1       4.955  -8.238  -5.488  1.00  0.00     0.060 A 
ATOM      6  C   UNL     1       4.296  -7.206  -4.829  1.00  0.00     0.018 A 
ATOM      7  C   UNL     1       6.342  -8.088  -5.657  1.00  0.00     0.018 A 
ATOM      8  C   UNL     1       5.002  -6.158  -4.224  1.00  0.00     0.026 A 
ATOM      9  C   UNL     1       7.038  -7.008  -5.090  1.00  0.00     0.026 A 
ATOM     10  C   UNL     1       6.391  -6.072  -4.286  1.00  0.00     0.036 A 
BRANCH  10  11
ATOM     11  N   UNL     1       7.124  -5.136  -3.578  1.00  0.00    -0.358 N 
ATOM     12  H   UNL     1       8.093  -5.069  -3.741  1.00  0.00     0.163 HD
BRANCH  11  13
ATOM     13  C   UNL     1       6.515  -4.247  -2.605  1.00  0.00     0.244 C 
ATOM     14  O   UNL     1       5.986  -5.025  -1.526  1.00  0.00    -0.353 OA
ATOM     15  C   UNL     1       7.540  -3.253  -2.019  1.00  0.00     0.195 C 
ATOM     16  C   UNL     1       5.216  -4.244  -0.604  1.00  0.00     0.197 C 
ATOM     17  C   UNL     1       6.752  -2.306  -1.097  1.00  0.00     0.178 C 
ATOM     18  C   UNL     1       6.030  -3.098   0.008  1.00  0.00     0.171 C 
BRANCH  15  19
ATOM     19  O   UNL     1       8.545  -3.935  -1.232  1.00  0.00    -0.386 OA
ATOM     20  H   UNL     1       8.117  -4.414  -0.505  1.00  0.00     0.211 HD
ENDBRANCH  15  19
BRANCH  17  21
ATOM     21  O   UNL     1       7.621  -1.330  -0.522  1.00  0.00    -0.387 OA
ATOM     22  H   UNL     1       8.295  -1.774   0.016  1.00  0.00     0.211 HD
ENDBRANCH  17  21
BRANCH  18  23
ATOM     23  O   UNL     1       6.983  -3.631   0.940  1.00  0.00    -0.388 OA
ATOM     24  H   UNL     1       7.585  -4.234   0.478  1.00  0.00     0.211 HD
ENDBRANCH  18  23
ENDBRANCH  11  13
ENDBRANCH  10  11
ENDBRANCH   3   5
ENDBRANCH   2   3
ENDBRANCH   1   2
BRANCH   1  25
ATOM     25  C   UNL     1       1.944  -9.411  -3.506  1.00  0.00     0.275 C 
BRANCH  25  26
ATOM     26  O   UNL     1       3.200  -9.088  -2.885  1.00  0.00    -0.458 OA
BRANCH  26  27
ATOM     27  C   UNL     1       4.002 -10.154  -2.614  1.00  0.00     0.338 C 
ATOM     28  O   UNL     1       3.705 -11.327  -2.728  1.00  0.00    -0.246 OA
BRANCH  27  29
ATOM     29  C   UNL     1       5.371  -9.694  -2.268  1.00  0.00     0.060 A 
ATOM     30  C   UNL     1       6.458 -10.468  -2.697  1.00  0.00     0.016 A 
ATOM     31  C   UNL     1       5.601  -8.529  -1.535  1.00  0.00     0.016 A 
ATOM     32  C   UNL     1       7.770 -10.091  -2.381  1.00  0.00     0.010 A 
ATOM     33  C   UNL     1       6.914  -8.150  -1.229  1.00  0.00     0.010 A 
ATOM     34  C   UNL     1       8.011  -8.933  -1.632  1.00  0.00    -0.014 A 
BRANCH  34  35
ATOM     35  C   UNL     1       9.377  -8.571  -1.161  1.00  0.00     0.031 A 
ATOM     36  C   UNL     1       9.720  -8.736   0.292  1.00  0.00     0.074 A 
ATOM     37  C   UNL     1      10.301  -8.045  -1.986  1.00  0.00     0.049 A 
ATOM     38  N   UNL     1      10.810  -8.398   0.932  1.00  0.00    -0.248 NA
ATOM     39  C   UNL     1       8.695  -9.370   1.133  1.00  0.00     0.031 C 
ATOM     40  C   UNL     1      10.148  -7.878  -3.424  1.00  0.00     0.029 A 
ATOM     41  N   UNL     1      11.548  -7.525  -1.723  1.00  0.00    -0.354 N 
ATOM     42  C   UNL     1      10.605  -8.780   2.250  1.00  0.00     0.074 A 
ATOM     43  C   UNL     1       9.265  -9.325   2.327  1.00  0.00     0.031 C 
ATOM     44  C   UNL     1      11.221  -7.233  -3.913  1.00  0.00     0.029 A 
ATOM     45  C   UNL     1      12.148  -6.952  -2.817  1.00  0.00     0.049 A 
ATOM     46  H   UNL     1      11.969  -7.561  -0.834  1.00  0.00     0.167 HD
ATOM     47  C   UNL     1      11.460  -8.711   3.298  1.00  0.00     0.037 A 
ATOM     48  C   UNL     1      13.307  -6.273  -2.929  1.00  0.00     0.037 A 
ATOM     49  C   UNL     1      12.794  -8.176   3.236  1.00  0.00     0.049 A 
ATOM     50  C   UNL     1      14.210  -6.121  -1.733  1.00  0.00     0.074 A 
ATOM     51  C   UNL     1      13.745  -8.118   4.240  1.00  0.00     0.029 A 
ATOM     52  N   UNL     1      13.360  -7.589   2.115  1.00  0.00    -0.354 N 
ATOM     53  N   UNL     1      14.037  -6.553  -0.508  1.00  0.00    -0.248 NA
ATOM     54  C   UNL     1      15.482  -5.409  -1.940  1.00  0.00     0.031 C 
ATOM     55  C   UNL     1      14.865  -7.441   3.744  1.00  0.00     0.029 A 
ATOM     56  C   UNL     1      14.635  -7.131   2.414  1.00  0.00     0.049 A 
ATOM     57  H   UNL     1      12.922  -7.509   1.237  1.00  0.00     0.167 HD
ATOM     58  C   UNL     1      15.191  -6.210   0.186  1.00  0.00     0.074 A 
ATOM     59  C   UNL     1      16.056  -5.524  -0.750  1.00  0.00     0.031 C 
ATOM     60  C   UNL     1      15.505  -6.460   1.481  1.00  0.00     0.037 A 
BRANCH  47  61
ATOM     61  C   UNL     1      10.955  -9.215   4.616  1.00  0.00     0.064 A 
ATOM     62  C   UNL     1      10.732 -10.582   4.846  1.00  0.00     0.173 A 
ATOM     63  C   UNL     1      10.685  -8.319   5.660  1.00  0.00     0.173 A 
ATOM     64  F   UNL     1      10.964 -11.477   3.873  1.00  0.00    -0.203 F 
ATOM     65  C   UNL     1      10.211 -11.027   6.057  1.00  0.00     0.198 A 
ATOM     66  C   UNL     1      10.196  -8.772   6.882  1.00  0.00     0.198 A 
ATOM     67  F   UNL     1      10.892  -7.004   5.495  1.00  0.00    -0.203 F 
ATOM     68  F   UNL     1       9.942 -12.328   6.230  1.00  0.00    -0.200 F 
ATOM     69  C   UNL     1       9.947 -10.123   7.074  1.00  0.00     0.200 A 
ATOM     70  F   UNL     1       9.953  -7.899   7.869  1.00  0.00    -0.200 F 
ATOM     71  F   UNL     1       9.440 -10.552   8.238  1.00  0.00    -0.200 F 
ENDBRANCH  47  61
BRANCH  48  72
ATOM     72  C   UNL     1      13.690  -5.688  -4.240  1.00  0.00     0.064 A 
ATOM     73  C   UNL     1      14.736  -6.227  -4.999  1.00  0.00     0.173 A 
ATOM     74  C   UNL     1      13.017  -4.569  -4.754  1.00  0.00     0.173 A 
ATOM     75  F   UNL     1      15.422  -7.283  -4.537  1.00  0.00    -0.203 F 
ATOM     76  C   UNL     1      15.107  -5.660  -6.217  1.00  0.00     0.198 A 
ATOM     77  C   UNL     1      13.375  -4.016  -5.981  1.00  0.00     0.198 A 
ATOM     78  F   UNL     1      12.003  -4.021  -4.067  1.00  0.00    -0.203 F 
ATOM     79  F   UNL     1      16.135  -6.173  -6.907  1.00  0.00    -0.200 F 
ATOM     80  C   UNL     1      14.424  -4.558  -6.709  1.00  0.00     0.200 A 
ATOM     81  F   UNL     1      12.705  -2.957  -6.457  1.00  0.00    -0.200 F 
ATOM     82  F   UNL     1      14.778  -4.015  -7.882  1.00  0.00    -0.200 F 
ENDBRANCH  48  72
BRANCH  60  83
ATOM     83  C   UNL     1      16.862  -6.042   1.973  1.00  0.00     0.064 A 
ATOM     84  C   UNL     1      17.187  -4.697   2.201  1.00  0.00     0.173 A 
ATOM     85  C   UNL     1      17.826  -7.011   2.296  1.00  0.00     0.173 A 
ATOM     86  F   UNL     1      16.309  -3.729   1.895  1.00  0.00    -0.203 F 
ATOM     87  C   UNL     1      18.428  -4.338   2.725  1.00  0.00     0.198 A 
ATOM     88  C   UNL     1      19.054  -6.651   2.845  1.00  0.00     0.198 A 
ATOM     89  F   UNL     1      17.566  -8.313   2.102  1.00  0.00    -0.203 F 
ATOM     90  F   UNL     1      18.728  -3.044   2.906  1.00  0.00    -0.200 F 
ATOM     91  C   UNL     1      19.355  -5.314   3.056  1.00  0.00     0.200 A 
ATOM     92  F   UNL     1      19.942  -7.598   3.178  1.00  0.00    -0.200 F 
ATOM     93  F   UNL     1      20.540  -4.968   3.578  1.00  0.00    -0.200 F 
ENDBRANCH  60  83
ENDBRANCH  34  35
ENDBRANCH  27  29
ENDBRANCH  26  27
ENDBRANCH  25  26
ENDBRANCH   1  25
TORSDOF 16
