REMARK SMILES Cc1cc(C)c(OCC(=O)Nc2ccc(Cl)c(C(=O)OCCOC(=O)c3ccc(-c4c5nc(c(-c6c(F)c(F)c(F)c(F)c6F)c6ccc([nH]6)c(-c6c(F)c(F)c(F)c(F)c6F)c6nc(c(-c7c(F)c(F)c(F)c(F)c7F)c7ccc4[nH]7)C=C6)C=C5)cc3)c2)c(Cl)c1
REMARK SMILES IDX 21 1 20 2 18 3 19 4 17 5 12 6 13 7 89 8 14 9 15 10 16 11
REMARK SMILES IDX 11 12 9 13 10 14 8 16 7 17 6 18 1 19 2 20 3 21 92 22 4 23
REMARK SMILES IDX 90 24 5 25 91 26 22 27 23 28 24 29 25 30 26 31 27 32 88 33
REMARK SMILES IDX 28 34 87 35 29 36 30 37 31 38 81 39 32 40 86 41 80 42 82 43
REMARK SMILES IDX 33 44 85 45 79 46 78 47 34 49 66 50 46 51 65 52 47 53 50 54
REMARK SMILES IDX 64 55 83 56 48 57 49 58 63 60 84 61 51 62 35 63 36 64 44 65
REMARK SMILES IDX 37 66 38 67 42 68 45 69 39 70 40 71 43 72 41 73 67 74 68 75
REMARK SMILES IDX 76 76 69 77 70 78 74 79 77 80 71 81 72 82 75 83 73 84 52 85
REMARK SMILES IDX 53 86 61 87 54 88 55 89 59 90 62 91 56 92 57 93 60 94 58 95
REMARK H PARENT 11 15 82 48 50 59
REMARK Flexibility Score: inf
ROOT
ATOM      1  C   UNL     1      -6.271   5.790   5.602  1.00  0.00     0.275 C 
ENDROOT
BRANCH   1   2
ATOM      2  O   UNL     1      -5.635   4.842   4.724  1.00  0.00    -0.458 OA
BRANCH   2   3
ATOM      3  C   UNL     1      -4.820   5.353   3.773  1.00  0.00     0.339 C 
ATOM      4  O   UNL     1      -4.545   6.525   3.602  1.00  0.00    -0.246 OA
BRANCH   3   5
ATOM      5  C   UNL     1      -4.102   4.267   3.071  1.00  0.00     0.080 A 
ATOM      6  C   UNL     1      -1.919   3.524   2.293  1.00  0.00     0.042 A 
ATOM      7  C   UNL     1      -2.478   2.328   1.871  1.00  0.00     0.028 A 
ATOM      8  C   UNL     1      -2.732   4.488   2.876  1.00  0.00     0.043 A 
ATOM      9  C   UNL     1      -3.856   2.115   2.010  1.00  0.00     0.023 A 
ATOM     10  C   UNL     1      -4.676   3.083   2.608  1.00  0.00     0.055 A 
ATOM     11  Cl  UNL     1      -6.370   2.768   2.673  1.00  0.00    -0.083 Cl
BRANCH   6  12
ATOM     12  N   UNL     1      -0.552   3.791   2.264  1.00  0.00    -0.323 N 
ATOM     13  C   UNL     1       0.298   3.829   1.199  1.00  0.00     0.262 C 
ATOM     14  O   UNL     1       1.427   4.287   1.407  1.00  0.00    -0.271 OA
ATOM     15  H   UNL     1      -0.140   3.979   3.139  1.00  0.00     0.170 HD
BRANCH  13  16
ATOM     16  C   UNL     1      -0.187   3.527  -0.225  1.00  0.00     0.329 C 
BRANCH  16  17
ATOM     17  O   UNL     1      -0.554   2.248  -0.669  1.00  0.00    -0.482 OA
BRANCH  17  18
ATOM     18  C   UNL     1       0.206   1.127  -0.512  1.00  0.00     0.141 A 
ATOM     19  C   UNL     1       2.024  -2.768   0.085  1.00  0.00     0.044 C 
ATOM     20  C   UNL     1       1.396  -1.426  -0.139  1.00  0.00    -0.049 A 
ATOM     21  C   UNL     1       2.157  -0.255  -0.101  1.00  0.00     0.010 A 
ATOM     22  C   UNL     1       0.035  -1.326  -0.403  1.00  0.00     0.027 A 
ATOM     23  C   UNL     1       1.594   1.026  -0.324  1.00  0.00    -0.007 A 
ATOM     24  C   UNL     1      -0.546  -0.071  -0.597  1.00  0.00     0.083 A 
ATOM     25  C   UNL     1       2.590   2.150  -0.348  1.00  0.00     0.048 C 
ATOM     26  Cl  UNL     1      -2.248  -0.052  -0.953  1.00  0.00    -0.080 Cl
ENDBRANCH  17  18
ENDBRANCH  16  17
ENDBRANCH  13  16
ENDBRANCH   6  12
ENDBRANCH   3   5
ENDBRANCH   2   3
ENDBRANCH   1   2
BRANCH   1  27
ATOM     27  C   UNL     1      -5.786   5.583   7.035  1.00  0.00     0.275 C 
BRANCH  27  28
ATOM     28  O   UNL     1      -4.406   5.985   7.155  1.00  0.00    -0.458 OA
BRANCH  28  29
ATOM     29  C   UNL     1      -3.515   4.979   7.277  1.00  0.00     0.338 C 
ATOM     30  O   UNL     1      -3.734   3.779   7.324  1.00  0.00    -0.246 OA
BRANCH  29  31
ATOM     31  C   UNL     1      -2.152   5.526   7.261  1.00  0.00     0.060 A 
ATOM     32  C   UNL     1      -1.577   5.807   6.027  1.00  0.00     0.016 A 
ATOM     33  C   UNL     1      -1.392   5.614   8.424  1.00  0.00     0.016 A 
ATOM     34  C   UNL     1      -0.215   6.079   5.928  1.00  0.00     0.010 A 
ATOM     35  C   UNL     1      -0.044   5.986   8.335  1.00  0.00     0.010 A 
ATOM     36  C   UNL     1       0.573   6.183   7.083  1.00  0.00    -0.014 A 
BRANCH  36  37
ATOM     37  C   UNL     1       2.039   6.454   6.981  1.00  0.00     0.031 A 
ATOM     38  C   UNL     1       3.035   5.485   7.567  1.00  0.00     0.074 A 
ATOM     39  C   UNL     1       2.493   7.555   6.349  1.00  0.00     0.049 A 
ATOM     40  N   UNL     1       4.330   5.616   7.728  1.00  0.00    -0.248 NA
ATOM     41  C   UNL     1       2.502   4.203   8.050  1.00  0.00     0.031 C 
ATOM     42  C   UNL     1       1.659   8.557   5.686  1.00  0.00     0.029 A 
ATOM     43  N   UNL     1       3.775   8.009   6.148  1.00  0.00    -0.354 N 
ATOM     44  C   UNL     1       4.750   4.469   8.390  1.00  0.00     0.074 A 
ATOM     45  C   UNL     1       3.574   3.651   8.600  1.00  0.00     0.031 C 
ATOM     46  C   UNL     1       2.448   9.474   5.105  1.00  0.00     0.029 A 
ATOM     47  C   UNL     1       3.839   9.181   5.434  1.00  0.00     0.049 A 
ATOM     48  H   UNL     1       4.572   7.539   6.485  1.00  0.00     0.167 HD
ATOM     49  C   UNL     1       6.001   4.130   8.788  1.00  0.00     0.037 A 
ATOM     50  C   UNL     1       4.891   9.957   5.109  1.00  0.00     0.037 A 
ATOM     51  C   UNL     1       7.183   4.908   8.515  1.00  0.00     0.049 A 
ATOM     52  C   UNL     1       6.263   9.579   5.591  1.00  0.00     0.074 A 
ATOM     53  C   UNL     1       8.498   4.626   8.843  1.00  0.00     0.029 A 
ATOM     54  N   UNL     1       7.193   6.117   7.835  1.00  0.00    -0.354 N 
ATOM     55  N   UNL     1       6.642   8.521   6.264  1.00  0.00    -0.248 NA
ATOM     56  C   UNL     1       7.349  10.523   5.293  1.00  0.00     0.031 C 
ATOM     57  C   UNL     1       9.299   5.684   8.397  1.00  0.00     0.029 A 
ATOM     58  C   UNL     1       8.489   6.603   7.752  1.00  0.00     0.049 A 
ATOM     59  H   UNL     1       6.397   6.563   7.465  1.00  0.00     0.167 HD
ATOM     60  C   UNL     1       8.009   8.661   6.457  1.00  0.00     0.074 A 
ATOM     61  C   UNL     1       8.397   9.900   5.816  1.00  0.00     0.031 C 
ATOM     62  C   UNL     1       8.864   7.837   7.111  1.00  0.00     0.037 A 
BRANCH  49  63
ATOM     63  C   UNL     1       6.154   2.878   9.605  1.00  0.00     0.064 A 
ATOM     64  C   UNL     1       6.005   1.598   9.052  1.00  0.00     0.173 A 
ATOM     65  C   UNL     1       6.474   2.968  10.970  1.00  0.00     0.173 A 
ATOM     66  F   UNL     1       5.688   1.456   7.756  1.00  0.00    -0.203 F 
ATOM     67  C   UNL     1       6.136   0.457   9.841  1.00  0.00     0.198 A 
ATOM     68  C   UNL     1       6.634   1.825  11.748  1.00  0.00     0.198 A 
ATOM     69  F   UNL     1       6.637   4.167  11.549  1.00  0.00    -0.203 F 
ATOM     70  F   UNL     1       5.934  -0.754   9.302  1.00  0.00    -0.200 F 
ATOM     71  C   UNL     1       6.455   0.571  11.186  1.00  0.00     0.200 A 
ATOM     72  F   UNL     1       6.956   1.937  13.044  1.00  0.00    -0.200 F 
ATOM     73  F   UNL     1       6.580  -0.529  11.942  1.00  0.00    -0.200 F 
ENDBRANCH  49  63
BRANCH  50  74
ATOM     74  C   UNL     1       4.680  11.187   4.301  1.00  0.00     0.064 A 
ATOM     75  C   UNL     1       5.157  11.270   2.986  1.00  0.00     0.173 A 
ATOM     76  C   UNL     1       3.990  12.294   4.817  1.00  0.00     0.173 A 
ATOM     77  F   UNL     1       5.850  10.250   2.460  1.00  0.00    -0.203 F 
ATOM     78  C   UNL     1       4.951  12.414   2.218  1.00  0.00     0.198 A 
ATOM     79  C   UNL     1       3.759  13.425   4.038  1.00  0.00     0.198 A 
ATOM     80  F   UNL     1       3.519  12.267   6.073  1.00  0.00    -0.203 F 
ATOM     81  F   UNL     1       5.446  12.481   0.974  1.00  0.00    -0.200 F 
ATOM     82  C   UNL     1       4.243  13.486   2.740  1.00  0.00     0.200 A 
ATOM     83  F   UNL     1       3.063  14.453   4.543  1.00  0.00    -0.200 F 
ATOM     84  F   UNL     1       4.033  14.580   1.996  1.00  0.00    -0.200 F 
ENDBRANCH  50  74
BRANCH  62  85
ATOM     85  C   UNL     1      10.310   8.235   7.138  1.00  0.00     0.064 A 
ATOM     86  C   UNL     1      10.766   9.290   7.942  1.00  0.00     0.173 A 
ATOM     87  C   UNL     1      11.253   7.538   6.369  1.00  0.00     0.173 A 
ATOM     88  F   UNL     1       9.900   9.999   8.681  1.00  0.00    -0.203 F 
ATOM     89  C   UNL     1      12.112   9.647   7.957  1.00  0.00     0.198 A 
ATOM     90  C   UNL     1      12.602   7.881   6.406  1.00  0.00     0.198 A 
ATOM     91  F   UNL     1      10.868   6.519   5.586  1.00  0.00    -0.203 F 
ATOM     92  F   UNL     1      12.520  10.687   8.697  1.00  0.00    -0.200 F 
ATOM     93  C   UNL     1      13.029   8.939   7.194  1.00  0.00     0.200 A 
ATOM     94  F   UNL     1      13.488   7.189   5.676  1.00  0.00    -0.200 F 
ATOM     95  F   UNL     1      14.325   9.282   7.212  1.00  0.00    -0.200 F 
ENDBRANCH  62  85
ENDBRANCH  36  37
ENDBRANCH  29  31
ENDBRANCH  28  29
ENDBRANCH  27  28
ENDBRANCH   1  27
TORSDOF 15
