REMARK SMILES [NH3+]C1CC[NH+](CC(=O)Nc2cc(Cl)ccc2C(=O)OCCOC(=O)c2ccc(-c3c4nc(c(-c5c(F)c(F)c(F)c(F)c5F)c5ccc([nH]5)c(-c5c(F)c(F)c(F)c(F)c5F)c5nc(c(-c6c(F)c(F)c(F)c(F)c6F)c6ccc3[nH]6)C=C5)C=C4)cc2)CC1
REMARK SMILES IDX 20 1 19 2 17 3 18 4 16 5 10 6 11 7 12 8 15 9 13 10 14 11
REMARK SMILES IDX 9 12 7 13 8 14 6 16 5 17 2 18 3 19 89 20 4 21 88 22 1 24
REMARK SMILES IDX 21 28 22 29 23 30 24 31 25 32 26 33 87 34 27 35 86 36 28 37
REMARK SMILES IDX 29 38 30 39 80 40 31 41 85 42 79 43 81 44 32 45 84 46 78 47
REMARK SMILES IDX 77 48 33 50 65 51 45 52 64 53 46 54 49 55 63 56 82 57 47 58
REMARK SMILES IDX 48 59 62 61 83 62 50 63 34 64 35 65 43 66 36 67 37 68 41 69
REMARK SMILES IDX 44 70 38 71 39 72 42 73 40 74 66 75 67 76 75 77 68 78 69 79
REMARK SMILES IDX 73 80 76 81 70 82 71 83 74 84 72 85 51 86 52 87 60 88 53 89
REMARK SMILES IDX 54 90 58 91 61 92 55 93 56 94 59 95 57 96
REMARK H PARENT 9 15 5 23 1 25 1 26 1 27 81 49 49 60
REMARK Flexibility Score: inf
ROOT
ATOM      1  C   UNL     1       1.496  -6.065   4.033  1.00  0.00     0.275 C 
ENDROOT
BRANCH   1   2
ATOM      2  O   UNL     1       1.321  -5.447   2.740  1.00  0.00    -0.458 OA
BRANCH   2   3
ATOM      3  C   UNL     1       2.425  -4.936   2.139  1.00  0.00     0.340 C 
ATOM      4  O   UNL     1       3.535  -4.852   2.626  1.00  0.00    -0.246 OA
BRANCH   3   5
ATOM      5  C   UNL     1       2.138  -4.652   0.697  1.00  0.00     0.083 A 
ATOM      6  C   UNL     1       0.852  -4.369   0.174  1.00  0.00     0.057 A 
ATOM      7  C   UNL     1       0.726  -4.280  -1.214  1.00  0.00     0.047 A 
ATOM      8  C   UNL     1       1.847  -4.352  -2.053  1.00  0.00     0.043 A 
ATOM      9  C   UNL     1       3.261  -4.690  -0.156  1.00  0.00     0.019 A 
ATOM     10  Cl  UNL     1       1.655  -4.164  -3.753  1.00  0.00    -0.084 Cl
ATOM     11  C   UNL     1       3.117  -4.541  -1.530  1.00  0.00     0.021 A 
BRANCH   6  12
ATOM     12  N   UNL     1      -0.201  -4.120   1.084  1.00  0.00    -0.320 N 
ATOM     13  C   UNL     1      -1.397  -3.468   1.078  1.00  0.00     0.279 C 
ATOM     14  O   UNL     1      -1.947  -3.365   2.186  1.00  0.00    -0.268 OA
ATOM     15  H   UNL     1      -0.020  -4.530   1.960  1.00  0.00     0.170 HD
BRANCH  13  16
ATOM     16  C   UNL     1      -2.067  -2.867  -0.148  1.00  0.00     0.363 C 
BRANCH  16  17
ATOM     17  N   UNL     1      -1.752  -1.468  -0.462  1.00  0.00    -0.327 N 
ATOM     18  C   UNL     1       0.101   0.299   1.059  1.00  0.00     0.192 C 
ATOM     19  C   UNL     1      -1.349   0.075   1.514  1.00  0.00     0.126 C 
ATOM     20  C   UNL     1       0.569  -0.868   0.194  1.00  0.00     0.126 C 
ATOM     21  C   UNL     1      -2.294  -0.432   0.416  1.00  0.00     0.268 C 
ATOM     22  C   UNL     1      -0.418  -1.147  -0.937  1.00  0.00     0.268 C 
ATOM     23  H   UNL     1      -2.329  -1.426  -1.303  1.00  0.00     0.348 HD
BRANCH  18  24
ATOM     24  N   UNL     1       0.273   1.554   0.321  1.00  0.00    -0.355 N 
ATOM     25  H   UNL     1      -0.039   2.334   0.899  1.00  0.00     0.344 HD
ATOM     26  H   UNL     1      -0.279   1.523  -0.536  1.00  0.00     0.344 HD
ATOM     27  H   UNL     1       1.258   1.678   0.086  1.00  0.00     0.344 HD
ENDBRANCH  18  24
ENDBRANCH  16  17
ENDBRANCH  13  16
ENDBRANCH   6  12
ENDBRANCH   3   5
ENDBRANCH   2   3
ENDBRANCH   1   2
BRANCH   1  28
ATOM     28  C   UNL     1       1.170  -7.554   3.920  1.00  0.00     0.275 C 
BRANCH  28  29
ATOM     29  O   UNL     1       2.143  -8.174   3.057  1.00  0.00    -0.458 OA
BRANCH  29  30
ATOM     30  C   UNL     1       1.672  -8.690   1.898  1.00  0.00     0.338 C 
ATOM     31  O   UNL     1       0.512  -8.802   1.543  1.00  0.00    -0.246 OA
BRANCH  30  32
ATOM     32  C   UNL     1       2.809  -9.028   1.026  1.00  0.00     0.060 A 
ATOM     33  C   UNL     1       3.664  -8.006   0.629  1.00  0.00     0.016 A 
ATOM     34  C   UNL     1       2.955 -10.302   0.484  1.00  0.00     0.016 A 
ATOM     35  C   UNL     1       4.589  -8.214  -0.388  1.00  0.00     0.010 A 
ATOM     36  C   UNL     1       3.985 -10.544  -0.438  1.00  0.00     0.010 A 
ATOM     37  C   UNL     1       4.798  -9.495  -0.913  1.00  0.00    -0.014 A 
BRANCH  37  38
ATOM     38  C   UNL     1       5.842  -9.725  -1.960  1.00  0.00     0.031 A 
ATOM     39  C   UNL     1       5.486 -10.428  -3.246  1.00  0.00     0.074 A 
ATOM     40  C   UNL     1       7.112  -9.302  -1.780  1.00  0.00     0.049 A 
ATOM     41  N   UNL     1       6.274 -10.947  -4.155  1.00  0.00    -0.248 NA
ATOM     42  C   UNL     1       4.053 -10.583  -3.543  1.00  0.00     0.031 C 
ATOM     43  C   UNL     1       7.606  -8.555  -0.622  1.00  0.00     0.029 A 
ATOM     44  N   UNL     1       8.227  -9.436  -2.577  1.00  0.00    -0.354 N 
ATOM     45  C   UNL     1       5.438 -11.558  -5.082  1.00  0.00     0.074 A 
ATOM     46  C   UNL     1       4.080 -11.333  -4.636  1.00  0.00     0.031 C 
ATOM     47  C   UNL     1       8.900  -8.255  -0.803  1.00  0.00     0.029 A 
ATOM     48  C   UNL     1       9.366  -8.900  -2.023  1.00  0.00     0.049 A 
ATOM     49  H   UNL     1       8.210  -9.873  -3.459  1.00  0.00     0.167 HD
ATOM     50  C   UNL     1       5.777 -12.251  -6.196  1.00  0.00     0.037 A 
ATOM     51  C   UNL     1      10.656  -8.977  -2.403  1.00  0.00     0.037 A 
ATOM     52  C   UNL     1       7.127 -12.401  -6.678  1.00  0.00     0.049 A 
ATOM     53  C   UNL     1      11.012  -9.779  -3.623  1.00  0.00     0.074 A 
ATOM     54  C   UNL     1       7.569 -13.058  -7.814  1.00  0.00     0.029 A 
ATOM     55  N   UNL     1       8.250 -11.867  -6.064  1.00  0.00    -0.354 N 
ATOM     56  N   UNL     1      10.222 -10.419  -4.449  1.00  0.00    -0.248 NA
ATOM     57  C   UNL     1      12.441  -9.895  -3.946  1.00  0.00     0.031 C 
ATOM     58  C   UNL     1       8.963 -12.959  -7.863  1.00  0.00     0.029 A 
ATOM     59  C   UNL     1       9.386 -12.197  -6.786  1.00  0.00     0.049 A 
ATOM     60  H   UNL     1       8.241 -11.333  -5.237  1.00  0.00     0.167 HD
ATOM     61  C   UNL     1      11.054 -11.008  -5.391  1.00  0.00     0.074 A 
ATOM     62  C   UNL     1      12.408 -10.626  -5.051  1.00  0.00     0.031 C 
ATOM     63  C   UNL     1      10.726 -11.804  -6.437  1.00  0.00     0.037 A 
BRANCH  50  64
ATOM     64  C   UNL     1       4.683 -12.946  -6.955  1.00  0.00     0.064 A 
ATOM     65  C   UNL     1       3.753 -12.249  -7.737  1.00  0.00     0.173 A 
ATOM     66  C   UNL     1       4.608 -14.349  -6.942  1.00  0.00     0.173 A 
ATOM     67  F   UNL     1       3.773 -10.908  -7.776  1.00  0.00    -0.203 F 
ATOM     68  C   UNL     1       2.775 -12.928  -8.462  1.00  0.00     0.198 A 
ATOM     69  C   UNL     1       3.649 -15.025  -7.691  1.00  0.00     0.198 A 
ATOM     70  F   UNL     1       5.479 -15.066  -6.216  1.00  0.00    -0.203 F 
ATOM     71  F   UNL     1       1.871 -12.240  -9.173  1.00  0.00    -0.200 F 
ATOM     72  C   UNL     1       2.729 -14.315  -8.445  1.00  0.00     0.200 A 
ATOM     73  F   UNL     1       3.618 -16.365  -7.684  1.00  0.00    -0.200 F 
ATOM     74  F   UNL     1       1.797 -14.966  -9.154  1.00  0.00    -0.200 F 
ENDBRANCH  50  64
BRANCH  51  75
ATOM     75  C   UNL     1      11.718  -8.351  -1.567  1.00  0.00     0.064 A 
ATOM     76  C   UNL     1      12.484  -7.280  -2.047  1.00  0.00     0.173 A 
ATOM     77  C   UNL     1      11.992  -8.816  -0.270  1.00  0.00     0.173 A 
ATOM     78  F   UNL     1      12.283  -6.818  -3.290  1.00  0.00    -0.203 F 
ATOM     79  C   UNL     1      13.488  -6.707  -1.268  1.00  0.00     0.198 A 
ATOM     80  C   UNL     1      12.968  -8.217   0.521  1.00  0.00     0.198 A 
ATOM     81  F   UNL     1      11.292  -9.841   0.238  1.00  0.00    -0.203 F 
ATOM     82  F   UNL     1      14.238  -5.717  -1.770  1.00  0.00    -0.200 F 
ATOM     83  C   UNL     1      13.722  -7.169   0.018  1.00  0.00     0.200 A 
ATOM     84  F   UNL     1      13.176  -8.655   1.770  1.00  0.00    -0.200 F 
ATOM     85  F   UNL     1      14.680  -6.609   0.770  1.00  0.00    -0.200 F 
ENDBRANCH  51  75
BRANCH  63  86
ATOM     86  C   UNL     1      11.848 -12.287  -7.307  1.00  0.00     0.064 A 
ATOM     87  C   UNL     1      12.741 -13.277  -6.871  1.00  0.00     0.173 A 
ATOM     88  C   UNL     1      12.010 -11.777  -8.604  1.00  0.00     0.173 A 
ATOM     89  F   UNL     1      12.637 -13.780  -5.632  1.00  0.00    -0.203 F 
ATOM     90  C   UNL     1      13.770 -13.723  -7.695  1.00  0.00     0.198 A 
ATOM     91  C   UNL     1      13.023 -12.246  -9.435  1.00  0.00     0.198 A 
ATOM     92  F   UNL     1      11.179 -10.832  -9.068  1.00  0.00    -0.203 F 
ATOM     93  F   UNL     1      14.641 -14.635  -7.242  1.00  0.00    -0.200 F 
ATOM     94  C   UNL     1      13.906 -13.213  -8.978  1.00  0.00     0.200 A 
ATOM     95  F   UNL     1      13.146 -11.761 -10.678  1.00  0.00    -0.200 F 
ATOM     96  F   UNL     1      14.894 -13.648  -9.772  1.00  0.00    -0.200 F 
ENDBRANCH  63  86
ENDBRANCH  37  38
ENDBRANCH  30  32
ENDBRANCH  29  30
ENDBRANCH  28  29
ENDBRANCH   1  28
TORSDOF 15
