REMARK SMILES O=C(NCc1ccc(C(=O)OCCOC(=O)c2ccc(-c3c4nc(c(-c5c(F)c(F)c(F)c(F)c5F)c5ccc([nH]5)c(-c5c(F)c(F)c(F)c(F)c5F)c5nc(c(-c6c(F)c(F)c(F)c(F)c6F)c6ccc3[nH]6)C=C5)C=C4)cc2)o1)N[C@@H]1CCS(=O)(=O)C1
REMARK SMILES IDX 12 1 11 2 9 3 10 4 8 5 5 6 6 7 80 8 7 9 4 10 3 11 1 12 2 13
REMARK SMILES IDX 81 14 82 17 83 18 88 19 84 20 85 21 86 22 87 23 13 24 14 25
REMARK SMILES IDX 15 26 16 27 17 28 18 29 79 30 19 31 78 32 20 33 21 34 22 35
REMARK SMILES IDX 72 36 23 37 77 38 71 39 73 40 24 41 76 42 70 43 69 44 25 46
REMARK SMILES IDX 57 47 37 48 56 49 38 50 41 51 55 52 74 53 39 54 40 55 54 57
REMARK SMILES IDX 75 58 42 59 26 60 27 61 35 62 28 63 29 64 33 65 36 66 30 67
REMARK SMILES IDX 31 68 34 69 32 70 58 71 59 72 67 73 60 74 61 75 65 76 68 77
REMARK SMILES IDX 62 78 63 79 66 80 64 81 43 82 44 83 52 84 45 85 46 86 50 87
REMARK SMILES IDX 53 88 47 89 48 90 51 91 49 92
REMARK H PARENT 3 15 81 16 73 45 41 56
REMARK Flexibility Score: inf
ROOT
ATOM      1  C   UNL     1       7.267   6.321  -3.166  1.00  0.00     0.275 C 
ENDROOT
BRANCH   1   2
ATOM      2  O   UNL     1       6.379   5.851  -2.134  1.00  0.00    -0.456 OA
BRANCH   2   3
ATOM      3  C   UNL     1       5.843   4.609  -2.330  1.00  0.00     0.374 C 
ATOM      4  O   UNL     1       5.974   3.957  -3.357  1.00  0.00    -0.242 OA
BRANCH   3   5
ATOM      5  C   UNL     1       5.207   4.146  -1.116  1.00  0.00     0.211 A 
ATOM      6  C   UNL     1       4.489   2.562   0.249  1.00  0.00     0.124 A 
ATOM      7  C   UNL     1       4.403   3.747   0.949  1.00  0.00     0.048 A 
ATOM      8  O   UNL     1       4.920   2.808  -1.019  1.00  0.00    -0.452 OA
ATOM      9  C   UNL     1       4.869   4.763   0.075  1.00  0.00     0.058 A 
BRANCH   6  10
ATOM     10  C   UNL     1       4.277   1.136   0.605  1.00  0.00     0.193 C 
BRANCH  10  11
ATOM     11  N   UNL     1       2.868   0.830   0.523  1.00  0.00    -0.331 N 
ATOM     12  O   UNL     1       0.977  -0.199  -0.024  1.00  0.00    -0.249 OA
ATOM     13  C   UNL     1       2.200  -0.156  -0.111  1.00  0.00     0.315 C 
ATOM     14  N   UNL     1       2.925  -1.063  -0.822  1.00  0.00    -0.334 N 
ATOM     15  H   UNL     1       2.290   1.452   1.020  1.00  0.00     0.165 HD
ATOM     16  H   UNL     1       3.909  -1.035  -0.783  1.00  0.00     0.165 HD
BRANCH  14  17
ATOM     17  C   UNL     1       2.269  -2.079  -1.642  1.00  0.00     0.099 C 
ATOM     18  C   UNL     1       3.023  -3.413  -1.649  1.00  0.00     0.042 C 
ATOM     19  C   UNL     1       2.162  -1.636  -3.099  1.00  0.00     0.161 C 
ATOM     20  C   UNL     1       4.219  -3.269  -2.580  1.00  0.00     0.139 C 
ATOM     21  S   UNL     1       3.731  -2.088  -3.824  1.00  0.00     0.152 S 
ATOM     22  O   UNL     1       4.630  -0.955  -3.730  1.00  0.00    -0.229 OA
ATOM     23  O   UNL     1       3.504  -2.788  -5.072  1.00  0.00    -0.229 OA
ENDBRANCH  14  17
ENDBRANCH  10  11
ENDBRANCH   6  10
ENDBRANCH   3   5
ENDBRANCH   2   3
ENDBRANCH   1   2
BRANCH   1  24
ATOM     24  C   UNL     1       8.735   6.059  -2.805  1.00  0.00     0.275 C 
BRANCH  24  25
ATOM     25  O   UNL     1       9.072   4.660  -2.887  1.00  0.00    -0.458 OA
BRANCH  25  26
ATOM     26  C   UNL     1       8.946   3.964  -1.732  1.00  0.00     0.338 C 
ATOM     27  O   UNL     1       8.609   4.401  -0.644  1.00  0.00    -0.246 OA
BRANCH  26  28
ATOM     28  C   UNL     1       9.146   2.525  -1.987  1.00  0.00     0.060 A 
ATOM     29  C   UNL     1       8.144   1.648  -1.562  1.00  0.00     0.016 A 
ATOM     30  C   UNL     1      10.311   2.030  -2.575  1.00  0.00     0.016 A 
ATOM     31  C   UNL     1       8.294   0.275  -1.729  1.00  0.00     0.010 A 
ATOM     32  C   UNL     1      10.467   0.647  -2.733  1.00  0.00     0.010 A 
ATOM     33  C   UNL     1       9.462  -0.237  -2.304  1.00  0.00    -0.014 A 
BRANCH  33  34
ATOM     34  C   UNL     1       9.633  -1.705  -2.413  1.00  0.00     0.031 A 
ATOM     35  C   UNL     1      10.512  -2.433  -1.438  1.00  0.00     0.074 A 
ATOM     36  C   UNL     1       8.963  -2.389  -3.357  1.00  0.00     0.049 A 
ATOM     37  N   UNL     1      10.807  -3.707  -1.378  1.00  0.00    -0.248 NA
ATOM     38  C   UNL     1      11.134  -1.621  -0.381  1.00  0.00     0.031 C 
ATOM     39  C   UNL     1       8.040  -1.804  -4.328  1.00  0.00     0.029 A 
ATOM     40  N   UNL     1       8.960  -3.729  -3.654  1.00  0.00    -0.354 N 
ATOM     41  C   UNL     1      11.651  -3.849  -0.286  1.00  0.00     0.074 A 
ATOM     42  C   UNL     1      11.838  -2.530   0.280  1.00  0.00     0.031 C 
ATOM     43  C   UNL     1       7.569  -2.777  -5.124  1.00  0.00     0.029 A 
ATOM     44  C   UNL     1       8.182  -4.045  -4.739  1.00  0.00     0.049 A 
ATOM     45  H   UNL     1       9.466  -4.398  -3.139  1.00  0.00     0.167 HD
ATOM     46  C   UNL     1      12.212  -4.981   0.204  1.00  0.00     0.037 A 
ATOM     47  C   UNL     1       8.003  -5.222  -5.367  1.00  0.00     0.037 A 
ATOM     48  C   UNL     1      12.024  -6.294  -0.355  1.00  0.00     0.049 A 
ATOM     49  C   UNL     1       8.699  -6.451  -4.850  1.00  0.00     0.074 A 
ATOM     50  C   UNL     1      12.537  -7.502   0.084  1.00  0.00     0.029 A 
ATOM     51  N   UNL     1      11.264  -6.569  -1.482  1.00  0.00    -0.354 N 
ATOM     52  N   UNL     1       9.484  -6.580  -3.809  1.00  0.00    -0.248 NA
ATOM     53  C   UNL     1       8.481  -7.699  -5.595  1.00  0.00     0.031 C 
ATOM     54  C   UNL     1      12.116  -8.504  -0.798  1.00  0.00     0.029 A 
ATOM     55  C   UNL     1      11.309  -7.925  -1.764  1.00  0.00     0.049 A 
ATOM     56  H   UNL     1      10.766  -5.899  -2.005  1.00  0.00     0.167 HD
ATOM     57  C   UNL     1       9.837  -7.921  -3.760  1.00  0.00     0.074 A 
ATOM     58  C   UNL     1       9.173  -8.569  -4.872  1.00  0.00     0.031 C 
ATOM     59  C   UNL     1      10.637  -8.557  -2.870  1.00  0.00     0.037 A 
BRANCH  46  60
ATOM     60  C   UNL     1      13.102  -4.845   1.402  1.00  0.00     0.064 A 
ATOM     61  C   UNL     1      12.577  -4.628   2.684  1.00  0.00     0.173 A 
ATOM     62  C   UNL     1      14.493  -4.973   1.272  1.00  0.00     0.173 A 
ATOM     63  F   UNL     1      11.254  -4.487   2.856  1.00  0.00    -0.203 F 
ATOM     64  C   UNL     1      13.415  -4.526   3.791  1.00  0.00     0.198 A 
ATOM     65  C   UNL     1      15.326  -4.890   2.384  1.00  0.00     0.198 A 
ATOM     66  F   UNL     1      15.042  -5.185   0.067  1.00  0.00    -0.203 F 
ATOM     67  F   UNL     1      12.895  -4.284   5.003  1.00  0.00    -0.200 F 
ATOM     68  C   UNL     1      14.787  -4.662   3.642  1.00  0.00     0.200 A 
ATOM     69  F   UNL     1      16.651  -5.029   2.239  1.00  0.00    -0.200 F 
ATOM     70  F   UNL     1      15.591  -4.567   4.709  1.00  0.00    -0.200 F 
ENDBRANCH  46  60
BRANCH  47  71
ATOM     71  C   UNL     1       7.135  -5.285  -6.567  1.00  0.00     0.064 A 
ATOM     72  C   UNL     1       5.877  -5.899  -6.517  1.00  0.00     0.173 A 
ATOM     73  C   UNL     1       7.550  -4.735  -7.789  1.00  0.00     0.173 A 
ATOM     74  F   UNL     1       5.455  -6.465  -5.376  1.00  0.00    -0.203 F 
ATOM     75  C   UNL     1       5.071  -5.973  -7.651  1.00  0.00     0.198 A 
ATOM     76  C   UNL     1       6.734  -4.789  -8.915  1.00  0.00     0.198 A 
ATOM     77  F   UNL     1       8.752  -4.149  -7.886  1.00  0.00    -0.203 F 
ATOM     78  F   UNL     1       3.895  -6.613  -7.593  1.00  0.00    -0.200 F 
ATOM     79  C   UNL     1       5.497  -5.413  -8.847  1.00  0.00     0.200 A 
ATOM     80  F   UNL     1       7.152  -4.251 -10.069  1.00  0.00    -0.200 F 
ATOM     81  F   UNL     1       4.726  -5.495  -9.940  1.00  0.00    -0.200 F 
ENDBRANCH  47  71
BRANCH  59  82
ATOM     82  C   UNL     1      10.812 -10.037  -3.039  1.00  0.00     0.064 A 
ATOM     83  C   UNL     1      11.634 -10.568  -4.042  1.00  0.00     0.173 A 
ATOM     84  C   UNL     1      10.183 -10.930  -2.159  1.00  0.00     0.173 A 
ATOM     85  F   UNL     1      12.245  -9.753  -4.916  1.00  0.00    -0.203 F 
ATOM     86  C   UNL     1      11.807 -11.943  -4.170  1.00  0.00     0.198 A 
ATOM     87  C   UNL     1      10.375 -12.304  -2.276  1.00  0.00     0.198 A 
ATOM     88  F   UNL     1       9.390 -10.469  -1.180  1.00  0.00    -0.203 F 
ATOM     89  F   UNL     1      12.569 -12.432  -5.158  1.00  0.00    -0.200 F 
ATOM     90  C   UNL     1      11.183 -12.809  -3.284  1.00  0.00     0.200 A 
ATOM     91  F   UNL     1       9.778 -13.138  -1.414  1.00  0.00    -0.200 F 
ATOM     92  F   UNL     1      11.355 -14.133  -3.405  1.00  0.00    -0.200 F 
ENDBRANCH  59  82
ENDBRANCH  33  34
ENDBRANCH  26  28
ENDBRANCH  25  26
ENDBRANCH  24  25
ENDBRANCH   1  24
TORSDOF 14
