REMARK SMILES Cc1c(C[NH2+]Cc2cccc(F)c2)c(C(=O)OCCOC(=O)c2ccc(-c3c4nc(c(-c5c(F)c(F)c(F)c(F)c5F)c5ccc([nH]5)c(-c5c(F)c(F)c(F)c(F)c5F)c5nc(c(-c6c(F)c(F)c(F)c(F)c6F)c6ccc3[nH]6)C=C5)C=C4)cc2)c(C)n1Cc1c(F)cccc1Cl
REMARK SMILES IDX 18 1 17 2 15 3 16 4 14 5 1 6 2 7 3 8 88 9 86 10 87 11 4 12
REMARK SMILES IDX 5 13 6 16 7 17 8 18 13 19 9 20 11 21 10 22 12 23 89 24 90 25
REMARK SMILES IDX 91 26 96 27 92 28 93 29 95 30 97 31 94 32 19 33 20 34 21 35
REMARK SMILES IDX 22 36 23 37 24 38 85 39 25 40 84 41 26 42 27 43 28 44 78 45
REMARK SMILES IDX 29 46 83 47 77 48 79 49 30 50 82 51 76 52 75 53 31 55 63 56
REMARK SMILES IDX 43 57 62 58 44 59 47 60 61 61 80 62 45 63 46 64 60 66 81 67
REMARK SMILES IDX 48 68 32 69 33 70 41 71 34 72 35 73 39 74 42 75 36 76 37 77
REMARK SMILES IDX 40 78 38 79 64 80 65 81 73 82 66 83 67 84 71 85 74 86 68 87
REMARK SMILES IDX 69 88 72 89 70 90 49 91 50 92 58 93 51 94 52 95 56 96 59 97
REMARK SMILES IDX 53 98 54 99 57 100 55 101
REMARK H PARENT 5 14 5 15 79 54 47 65
REMARK Flexibility Score: inf
ROOT
ATOM      1  C   UNL     1      -2.192   1.433   7.001  1.00  0.00     0.275 C 
ENDROOT
BRANCH   1   2
ATOM      2  O   UNL     1      -1.643   1.706   5.678  1.00  0.00    -0.458 OA
BRANCH   2   3
ATOM      3  C   UNL     1      -0.574   0.956   5.290  1.00  0.00     0.340 C 
ATOM      4  O   UNL     1      -0.056   0.099   6.023  1.00  0.00    -0.246 OA
BRANCH   3   5
ATOM      5  C   UNL     1      -0.149   1.190   3.903  1.00  0.00     0.089 A 
ATOM      6  C   UNL     1       0.766   0.131   0.429  1.00  0.00     0.065 C 
ATOM      7  C   UNL     1       0.412   0.781   1.727  1.00  0.00     0.025 A 
ATOM      8  C   UNL     1      -0.123   0.197   2.872  1.00  0.00     0.042 A 
ATOM      9  N   UNL     1       0.611   2.135   1.991  1.00  0.00    -0.343 N 
ATOM     10  C   UNL     1       0.444   2.331   3.362  1.00  0.00     0.030 A 
ATOM     11  C   UNL     1       0.898   3.537   4.107  1.00  0.00     0.065 C 
BRANCH   8  12
ATOM     12  C   UNL     1      -0.557  -1.224   3.084  1.00  0.00     0.300 C 
BRANCH  12  13
ATOM     13  N   UNL     1       0.475  -1.874   3.875  1.00  0.00    -0.339 N 
ATOM     14  H   UNL     1       0.612  -1.333   4.729  1.00  0.00     0.346 HD
ATOM     15  H   UNL     1       1.311  -1.911   3.291  1.00  0.00     0.346 HD
BRANCH  13  16
ATOM     16  C   UNL     1       0.170  -3.244   4.249  1.00  0.00     0.297 C 
BRANCH  16  17
ATOM     17  C   UNL     1       0.321  -4.278   3.154  1.00  0.00     0.009 A 
ATOM     18  C   UNL     1       0.818  -3.984   1.873  1.00  0.00     0.010 A 
ATOM     19  C   UNL     1      -0.054  -5.601   3.430  1.00  0.00     0.048 A 
ATOM     20  C   UNL     1       0.865  -4.958   0.874  1.00  0.00     0.004 A 
ATOM     21  C   UNL     1       0.018  -6.571   2.435  1.00  0.00     0.123 A 
ATOM     22  C   UNL     1       0.457  -6.256   1.156  1.00  0.00     0.039 A 
ATOM     23  F   UNL     1      -0.352  -7.828   2.714  1.00  0.00    -0.207 F 
ENDBRANCH  16  17
ENDBRANCH  13  16
ENDBRANCH  12  13
ENDBRANCH   8  12
BRANCH   9  24
ATOM     24  C   UNL     1       1.115   3.125   1.008  1.00  0.00     0.162 C 
BRANCH  24  25
ATOM     25  C   UNL     1       0.067   4.080   0.469  1.00  0.00     0.026 A 
ATOM     26  C   UNL     1      -0.354   5.162   1.254  1.00  0.00     0.129 A 
ATOM     27  C   UNL     1      -0.488   4.006  -0.820  1.00  0.00     0.048 A 
ATOM     28  F   UNL     1       0.268   5.441   2.403  1.00  0.00    -0.207 F 
ATOM     29  C   UNL     1      -1.355   6.049   0.856  1.00  0.00     0.040 A 
ATOM     30  C   UNL     1      -1.477   4.914  -1.244  1.00  0.00     0.021 A 
ATOM     31  Cl  UNL     1       0.064   2.881  -2.010  1.00  0.00    -0.084 Cl
ATOM     32  C   UNL     1      -1.933   5.918  -0.395  1.00  0.00     0.005 A 
ENDBRANCH  24  25
ENDBRANCH   9  24
ENDBRANCH   3   5
ENDBRANCH   2   3
ENDBRANCH   1   2
BRANCH   1  33
ATOM     33  C   UNL     1      -3.695   1.022   6.929  1.00  0.00     0.275 C 
BRANCH  33  34
ATOM     34  O   UNL     1      -4.100  -0.350   7.342  1.00  0.00    -0.458 OA
BRANCH  34  35
ATOM     35  C   UNL     1      -4.950  -1.044   6.499  1.00  0.00     0.338 C 
ATOM     36  O   UNL     1      -5.087  -0.759   5.315  1.00  0.00    -0.246 OA
BRANCH  35  37
ATOM     37  C   UNL     1      -5.797  -2.192   7.115  1.00  0.00     0.060 A 
ATOM     38  C   UNL     1      -5.329  -3.498   7.166  1.00  0.00     0.016 A 
ATOM     39  C   UNL     1      -7.188  -2.088   7.371  1.00  0.00     0.016 A 
ATOM     40  C   UNL     1      -6.199  -4.613   7.530  1.00  0.00     0.010 A 
ATOM     41  C   UNL     1      -8.084  -3.239   7.689  1.00  0.00     0.010 A 
ATOM     42  C   UNL     1      -7.630  -4.570   7.794  1.00  0.00    -0.014 A 
BRANCH  42  43
ATOM     43  C   UNL     1      -8.505  -6.010   7.644  1.00  0.00     0.031 A 
ATOM     44  C   UNL     1      -7.857  -6.578   6.424  1.00  0.00     0.074 A 
ATOM     45  C   UNL     1      -9.595  -6.802   8.108  1.00  0.00     0.049 A 
ATOM     46  N   UNL     1      -7.840  -5.887   5.315  1.00  0.00    -0.248 NA
ATOM     47  C   UNL     1      -6.876  -7.663   6.481  1.00  0.00     0.031 C 
ATOM     48  C   UNL     1     -10.586  -6.484   9.161  1.00  0.00     0.029 A 
ATOM     49  N   UNL     1     -10.109  -8.128   7.747  1.00  0.00    -0.354 N 
ATOM     50  C   UNL     1      -7.117  -6.630   4.421  1.00  0.00     0.074 A 
ATOM     51  C   UNL     1      -6.345  -7.540   5.258  1.00  0.00     0.031 C 
ATOM     52  C   UNL     1     -11.431  -7.530   9.441  1.00  0.00     0.029 A 
ATOM     53  C   UNL     1     -11.186  -8.693   8.578  1.00  0.00     0.049 A 
ATOM     54  H   UNL     1      -9.748  -8.622   6.976  1.00  0.00     0.167 HD
ATOM     55  C   UNL     1      -7.758  -6.900   3.248  1.00  0.00     0.037 A 
ATOM     56  C   UNL     1     -11.893  -9.920   8.540  1.00  0.00     0.037 A 
ATOM     57  C   UNL     1      -8.281  -8.238   3.205  1.00  0.00     0.049 A 
ATOM     58  C   UNL     1     -11.758 -10.428   7.174  1.00  0.00     0.074 A 
ATOM     59  C   UNL     1      -7.824  -9.453   3.680  1.00  0.00     0.029 A 
ATOM     60  N   UNL     1      -9.645  -8.369   3.063  1.00  0.00    -0.354 N 
ATOM     61  N   UNL     1     -12.511  -9.978   6.219  1.00  0.00    -0.248 NA
ATOM     62  C   UNL     1     -10.921 -11.574   6.833  1.00  0.00     0.031 C 
ATOM     63  C   UNL     1      -8.930  -9.974   4.381  1.00  0.00     0.029 A 
ATOM     64  C   UNL     1     -10.078  -9.332   3.937  1.00  0.00     0.049 A 
ATOM     65  H   UNL     1     -10.211  -7.858   2.441  1.00  0.00     0.167 HD
ATOM     66  C   UNL     1     -11.843 -10.377   5.113  1.00  0.00     0.074 A 
ATOM     67  C   UNL     1     -11.094 -11.556   5.509  1.00  0.00     0.031 C 
ATOM     68  C   UNL     1     -11.462  -9.360   4.308  1.00  0.00     0.037 A 
BRANCH  55  69
ATOM     69  C   UNL     1      -8.483  -5.735   2.629  1.00  0.00     0.064 A 
ATOM     70  C   UNL     1      -9.540  -5.043   3.260  1.00  0.00     0.173 A 
ATOM     71  C   UNL     1      -8.099  -5.295   1.361  1.00  0.00     0.173 A 
ATOM     72  F   UNL     1     -10.124  -5.528   4.368  1.00  0.00    -0.203 F 
ATOM     73  C   UNL     1     -10.071  -3.879   2.720  1.00  0.00     0.198 A 
ATOM     74  C   UNL     1      -8.690  -4.170   0.785  1.00  0.00     0.198 A 
ATOM     75  F   UNL     1      -7.176  -5.975   0.664  1.00  0.00    -0.203 F 
ATOM     76  F   UNL     1     -11.022  -3.208   3.386  1.00  0.00    -0.200 F 
ATOM     77  C   UNL     1      -9.644  -3.441   1.481  1.00  0.00     0.200 A 
ATOM     78  F   UNL     1      -8.346  -3.799  -0.456  1.00  0.00    -0.200 F 
ATOM     79  F   UNL     1     -10.189  -2.345   0.936  1.00  0.00    -0.200 F 
ENDBRANCH  55  69
BRANCH  56  80
ATOM     80  C   UNL     1     -12.930 -10.924   9.238  1.00  0.00     0.064 A 
ATOM     81  C   UNL     1     -12.688 -11.511  10.492  1.00  0.00     0.173 A 
ATOM     82  C   UNL     1     -13.884 -11.691   8.457  1.00  0.00     0.173 A 
ATOM     83  F   UNL     1     -11.823 -10.938  11.337  1.00  0.00    -0.203 F 
ATOM     84  C   UNL     1     -13.259 -12.761  10.886  1.00  0.00     0.198 A 
ATOM     85  C   UNL     1     -14.403 -12.953   8.826  1.00  0.00     0.198 A 
ATOM     86  F   UNL     1     -14.307 -11.267   7.258  1.00  0.00    -0.203 F 
ATOM     87  F   UNL     1     -12.949 -13.292  12.079  1.00  0.00    -0.200 F 
ATOM     88  C   UNL     1     -14.075 -13.498  10.040  1.00  0.00     0.200 A 
ATOM     89  F   UNL     1     -15.162 -13.655   7.967  1.00  0.00    -0.200 F 
ATOM     90  F   UNL     1     -14.513 -14.723  10.378  1.00  0.00    -0.200 F 
ENDBRANCH  56  80
BRANCH  68  91
ATOM     91  C   UNL     1     -12.464  -8.238   4.108  1.00  0.00     0.064 A 
ATOM     92  C   UNL     1     -12.919  -8.019   2.804  1.00  0.00     0.173 A 
ATOM     93  C   UNL     1     -13.054  -7.436   5.116  1.00  0.00     0.173 A 
ATOM     94  F   UNL     1     -12.377  -8.708   1.789  1.00  0.00    -0.203 F 
ATOM     95  C   UNL     1     -13.910  -7.081   2.517  1.00  0.00     0.198 A 
ATOM     96  C   UNL     1     -14.079  -6.529   4.833  1.00  0.00     0.198 A 
ATOM     97  F   UNL     1     -12.653  -7.493   6.391  1.00  0.00    -0.203 F 
ATOM     98  F   UNL     1     -14.282  -6.883   1.245  1.00  0.00    -0.200 F 
ATOM     99  C   UNL     1     -14.504  -6.350   3.532  1.00  0.00     0.200 A 
ATOM    100  F   UNL     1     -14.650  -5.827   5.824  1.00  0.00    -0.200 F 
ATOM    101  F   UNL     1     -15.469  -5.464   3.251  1.00  0.00    -0.200 F 
ENDBRANCH  68  91
ENDBRANCH  42  43
ENDBRANCH  35  37
ENDBRANCH  34  35
ENDBRANCH  33  34
ENDBRANCH   1  33
TORSDOF 17
