REMARK SMILES CC(C)(O)C#Cc1ccc(C(=O)N[C@@H](CC2=c3ccccc3=NC2)C(=O)OCCOC(=O)c2ccc(-c3c4nc(c(-c5c(F)c(F)c(F)c(F)c5F)c5ccc([nH]5)c(-c5c(F)c(F)c(F)c(F)c5F)c5nc(c(-c6c(F)c(F)c(F)c(F)c6F)c6ccc3[nH]6)C=C5)C=C4)cc2)s1
REMARK SMILES IDX 27 1 25 2 26 3 14 4 13 5 11 6 12 7 10 9 7 10 8 11 96 12 9 13
REMARK SMILES IDX 6 14 5 15 2 16 1 17 3 18 4 19 15 21 16 22 17 23 24 24 18 25
REMARK SMILES IDX 22 26 23 27 19 28 21 29 20 30 28 31 29 32 30 33 31 34 32 35
REMARK SMILES IDX 33 36 34 37 95 38 35 39 94 40 36 41 37 42 38 43 88 44 39 45
REMARK SMILES IDX 93 46 87 47 89 48 40 49 92 50 86 51 85 52 41 54 73 55 53 56
REMARK SMILES IDX 72 57 54 58 57 59 71 60 90 61 55 62 56 63 70 65 91 66 58 67
REMARK SMILES IDX 42 68 43 69 51 70 44 71 45 72 49 73 52 74 46 75 47 76 50 77
REMARK SMILES IDX 48 78 74 79 75 80 83 81 76 82 77 83 81 84 84 85 78 86 79 87
REMARK SMILES IDX 82 88 80 89 59 90 60 91 68 92 61 93 62 94 66 95 69 96 63 97
REMARK SMILES IDX 64 98 67 99 65 100
REMARK H PARENT 13 8 4 20 89 53 57 64
REMARK Flexibility Score: inf
ROOT
ATOM      1  O   UNL     1      -0.518  -5.902   6.294  1.00  0.00    -0.461 OA
ENDROOT
BRANCH   1   2
ATOM      2  C   UNL     1       0.291  -5.748   5.207  1.00  0.00     0.329 C 
ATOM      3  O   UNL     1       0.020  -6.196   4.095  1.00  0.00    -0.250 OA
BRANCH   2   4
ATOM      4  C   UNL     1       1.612  -4.973   5.481  1.00  0.00     0.196 C 
BRANCH   4   5
ATOM      5  N   UNL     1       1.922  -4.494   6.834  1.00  0.00    -0.338 N 
ATOM      6  C   UNL     1       2.528  -3.338   7.299  1.00  0.00     0.262 C 
ATOM      7  O   UNL     1       2.793  -3.348   8.504  1.00  0.00    -0.268 OA
ATOM      8  H   UNL     1       1.646  -5.113   7.548  1.00  0.00     0.164 HD
BRANCH   6   9
ATOM      9  C   UNL     1       2.690  -2.115   6.510  1.00  0.00     0.093 A 
ATOM     10  C   UNL     1       2.207  -0.471   4.752  1.00  0.00     0.078 A 
ATOM     11  C   UNL     1       2.378   0.152   5.974  1.00  0.00     0.030 A 
ATOM     12  S   UNL     1       3.036  -1.996   4.835  1.00  0.00    -0.121 S 
ATOM     13  C   UNL     1       2.646  -0.815   7.006  1.00  0.00     0.027 A 
BRANCH  10  14
ATOM     14  C   UNL     1       1.395  -0.011   3.622  1.00  0.00    -0.053 C 
ATOM     15  C   UNL     1       0.961   0.445   2.480  1.00  0.00    -0.063 C 
BRANCH  15  16
ATOM     16  C   UNL     1       0.454   0.976   1.149  1.00  0.00     0.120 C 
ATOM     17  C   UNL     1       0.410  -0.331   0.216  1.00  0.00     0.056 C 
ATOM     18  C   UNL     1      -0.635   2.152   0.193  1.00  0.00     0.056 C 
BRANCH  16  19
ATOM     19  O   UNL     1      -1.191   0.308   1.217  1.00  0.00    -0.378 OA
ATOM     20  H   UNL     1      -1.675   0.560   0.415  1.00  0.00     0.212 HD
ENDBRANCH  16  19
ENDBRANCH  15  16
ENDBRANCH  10  14
ENDBRANCH   6   9
ENDBRANCH   4   5
BRANCH   4  21
ATOM     21  C   UNL     1       2.802  -5.812   4.951  1.00  0.00     0.070 C 
BRANCH  21  22
ATOM     22  C   UNL     1       2.729  -7.275   5.262  1.00  0.00    -0.037 C 
ATOM     23  C   UNL     1       2.618  -8.290   4.406  1.00  0.00     0.001 A 
ATOM     24  C   UNL     1       2.713  -7.767   6.674  1.00  0.00     0.174 C 
ATOM     25  C   UNL     1       2.525  -8.431   2.987  1.00  0.00     0.010 A 
ATOM     26  C   UNL     1       2.554  -9.456   5.301  1.00  0.00     0.065 A 
ATOM     27  N   UNL     1       2.602  -9.239   6.580  1.00  0.00    -0.280 NA
ATOM     28  C   UNL     1       2.414  -9.664   2.464  1.00  0.00     0.001 A 
ATOM     29  C   UNL     1       2.445 -10.779   4.652  1.00  0.00     0.028 A 
ATOM     30  C   UNL     1       2.391 -10.845   3.311  1.00  0.00     0.002 A 
ENDBRANCH  21  22
ENDBRANCH   4  21
ENDBRANCH   2   4
ENDBRANCH   1   2
BRANCH   1  31
ATOM     31  C   UNL     1      -1.697  -6.710   6.034  1.00  0.00     0.274 C 
BRANCH  31  32
ATOM     32  C   UNL     1      -2.880  -6.313   6.923  1.00  0.00     0.275 C 
BRANCH  32  33
ATOM     33  O   UNL     1      -3.393  -5.053   6.479  1.00  0.00    -0.458 OA
BRANCH  33  34
ATOM     34  C   UNL     1      -2.921  -3.998   7.199  1.00  0.00     0.338 C 
ATOM     35  O   UNL     1      -2.541  -3.981   8.329  1.00  0.00    -0.246 OA
BRANCH  34  36
ATOM     36  C   UNL     1      -2.511  -3.028   6.171  1.00  0.00     0.060 A 
ATOM     37  C   UNL     1      -3.265  -2.683   5.034  1.00  0.00     0.016 A 
ATOM     38  C   UNL     1      -1.194  -2.652   6.311  1.00  0.00     0.016 A 
ATOM     39  C   UNL     1      -2.655  -2.017   3.970  1.00  0.00     0.010 A 
ATOM     40  C   UNL     1      -0.634  -1.969   5.279  1.00  0.00     0.010 A 
ATOM     41  C   UNL     1      -1.322  -1.685   4.106  1.00  0.00    -0.014 A 
BRANCH  41  42
ATOM     42  C   UNL     1      -0.512  -1.001   3.106  1.00  0.00     0.031 A 
ATOM     43  C   UNL     1      -0.759   0.994   3.442  1.00  0.00     0.074 A 
ATOM     44  C   UNL     1       0.593  -2.091   2.455  1.00  0.00     0.049 A 
ATOM     45  N   UNL     1      -0.726   2.115   2.475  1.00  0.00    -0.248 NA
ATOM     46  C   UNL     1       0.196   2.038   4.352  1.00  0.00     0.031 C 
ATOM     47  C   UNL     1       0.684  -3.612   2.556  1.00  0.00     0.029 A 
ATOM     48  N   UNL     1       2.015  -2.095   1.572  1.00  0.00    -0.354 N 
ATOM     49  C   UNL     1       0.784   2.856   2.116  1.00  0.00     0.074 A 
ATOM     50  C   UNL     1       1.000   2.933   3.608  1.00  0.00     0.031 C 
ATOM     51  C   UNL     1       1.869  -4.229   2.147  1.00  0.00     0.029 A 
ATOM     52  C   UNL     1       2.903  -3.358   1.552  1.00  0.00     0.049 A 
ATOM     53  H   UNL     1       2.284  -1.294   1.066  1.00  0.00     0.167 HD
ATOM     54  C   UNL     1       1.813   2.719   0.789  1.00  0.00     0.037 A 
ATOM     55  C   UNL     1       4.109  -3.761   0.810  1.00  0.00     0.037 A 
ATOM     56  C   UNL     1       1.744   1.701  -0.714  1.00  0.00     0.049 A 
ATOM     57  C   UNL     1       4.111  -3.152  -0.549  1.00  0.00     0.074 A 
ATOM     58  C   UNL     1       1.033   1.786  -1.969  1.00  0.00     0.029 A 
ATOM     59  N   UNL     1       2.566   0.490  -1.118  1.00  0.00    -0.354 N 
ATOM     60  N   UNL     1       3.295  -3.528  -1.483  1.00  0.00    -0.248 NA
ATOM     61  C   UNL     1       5.100  -2.173  -1.016  1.00  0.00     0.031 C 
ATOM     62  C   UNL     1       1.012   0.551  -2.747  1.00  0.00     0.029 A 
ATOM     63  C   UNL     1       1.857  -0.367  -2.175  1.00  0.00     0.049 A 
ATOM     64  H   UNL     1       3.452   0.279  -0.746  1.00  0.00     0.167 HD
ATOM     65  C   UNL     1       3.214  -2.401  -2.247  1.00  0.00     0.074 A 
ATOM     66  C   UNL     1       4.468  -1.716  -2.099  1.00  0.00     0.031 C 
ATOM     67  C   UNL     1       1.980  -1.873  -2.378  1.00  0.00     0.037 A 
BRANCH  54  68
ATOM     68  C   UNL     1       2.925   3.685   0.260  1.00  0.00     0.064 A 
ATOM     69  C   UNL     1       2.660   4.231  -1.048  1.00  0.00     0.173 A 
ATOM     70  C   UNL     1       4.272   3.405   0.508  1.00  0.00     0.173 A 
ATOM     71  F   UNL     1       1.392   4.474  -1.425  1.00  0.00    -0.203 F 
ATOM     72  C   UNL     1       3.629   4.282  -2.067  1.00  0.00     0.198 A 
ATOM     73  C   UNL     1       5.267   3.603  -0.478  1.00  0.00     0.198 A 
ATOM     74  F   UNL     1       4.623   2.796   1.648  1.00  0.00    -0.203 F 
ATOM     75  F   UNL     1       3.267   4.500  -3.343  1.00  0.00    -0.200 F 
ATOM     76  C   UNL     1       4.941   3.985  -1.773  1.00  0.00     0.200 A 
ATOM     77  F   UNL     1       6.547   3.319  -0.196  1.00  0.00    -0.200 F 
ATOM     78  F   UNL     1       5.876   4.020  -2.736  1.00  0.00    -0.200 F 
ENDBRANCH  54  68
BRANCH  55  79
ATOM     79  C   UNL     1       5.433  -4.789   0.748  1.00  0.00     0.064 A 
ATOM     80  C   UNL     1       6.058  -5.283  -0.482  1.00  0.00     0.173 A 
ATOM     81  C   UNL     1       6.354  -4.804   1.813  1.00  0.00     0.173 A 
ATOM     82  F   UNL     1       5.366  -5.348  -1.630  1.00  0.00    -0.203 F 
ATOM     83  C   UNL     1       7.436  -5.662  -0.612  1.00  0.00     0.198 A 
ATOM     84  C   UNL     1       7.732  -5.189   1.680  1.00  0.00     0.198 A 
ATOM     85  F   UNL     1       5.965  -4.348   3.008  1.00  0.00    -0.203 F 
ATOM     86  F   UNL     1       7.951  -6.019  -1.804  1.00  0.00    -0.200 F 
ATOM     87  C   UNL     1       8.279  -5.588   0.471  1.00  0.00     0.200 A 
ATOM     88  F   UNL     1       8.553  -5.094   2.738  1.00  0.00    -0.200 F 
ATOM     89  F   UNL     1       9.593  -5.851   0.349  1.00  0.00    -0.200 F 
ENDBRANCH  55  79
BRANCH  67  90
ATOM     90  C   UNL     1       0.916  -3.085  -2.663  1.00  0.00     0.064 A 
ATOM     91  C   UNL     1       0.708  -4.215  -1.791  1.00  0.00     0.173 A 
ATOM     92  C   UNL     1       0.409  -3.334  -3.958  1.00  0.00     0.173 A 
ATOM     93  F   UNL     1       1.126  -4.178  -0.522  1.00  0.00    -0.203 F 
ATOM     94  C   UNL     1       0.121  -5.449  -2.178  1.00  0.00     0.198 A 
ATOM     95  C   UNL     1      -0.243  -4.552  -4.332  1.00  0.00     0.198 A 
ATOM     96  F   UNL     1       0.584  -2.422  -4.922  1.00  0.00    -0.203 F 
ATOM     97  F   UNL     1       0.072  -6.486  -1.320  1.00  0.00    -0.200 F 
ATOM     98  C   UNL     1      -0.371  -5.612  -3.450  1.00  0.00     0.200 A 
ATOM     99  F   UNL     1      -0.713  -4.708  -5.580  1.00  0.00    -0.200 F 
ATOM    100  F   UNL     1      -0.944  -6.770  -3.825  1.00  0.00    -0.200 F 
ENDBRANCH  67  90
ENDBRANCH  41  42
ENDBRANCH  34  36
ENDBRANCH  33  34
ENDBRANCH  32  33
ENDBRANCH  31  32
ENDBRANCH   1  31
TORSDOF 18
