REMARK SMILES CNC(=O)c1ccc(N(CCC(=O)OCCOC(=O)c2ccc(-c3c4nc(c(-c5c(F)c(F)c(F)c(F)c5F)c5ccc([nH]5)c(-c5c(F)c(F)c(F)c(F)c5F)c5nc(c(-c6c(F)c(F)c(F)c(F)c6F)c6ccc3[nH]6)C=C5)C=C4)cc2)C2CC2)nn1
REMARK SMILES IDX 15 1 14 2 12 3 13 4 11 5 10 6 9 7 8 8 5 9 6 10 87 11 7 12
REMARK SMILES IDX 86 13 3 14 1 15 2 16 4 18 83 19 84 20 85 21 16 22 17 23
REMARK SMILES IDX 18 24 19 25 20 26 21 27 82 28 22 29 81 30 23 31 24 32 25 33
REMARK SMILES IDX 75 34 26 35 80 36 74 37 76 38 27 39 79 40 73 41 72 42 28 44
REMARK SMILES IDX 60 45 40 46 59 47 41 48 44 49 58 50 77 51 42 52 43 53 57 55
REMARK SMILES IDX 78 56 45 57 29 58 30 59 38 60 31 61 32 62 36 63 39 64 33 65
REMARK SMILES IDX 34 66 37 67 35 68 61 69 62 70 70 71 63 72 64 73 68 74 71 75
REMARK SMILES IDX 65 76 66 77 69 78 67 79 46 80 47 81 55 82 48 83 49 84 53 85
REMARK SMILES IDX 56 86 50 87 51 88 54 89 52 90
REMARK H PARENT 2 17 76 43 44 54
REMARK Flexibility Score: inf
ROOT
ATOM      1  C   UNL     1      -1.665   7.554  -4.533  1.00  0.00     0.274 C 
ENDROOT
BRANCH   1   2
ATOM      2  O   UNL     1      -1.320   6.832  -3.334  1.00  0.00    -0.462 OA
BRANCH   2   3
ATOM      3  C   UNL     1      -0.842   7.545  -2.284  1.00  0.00     0.307 C 
ATOM      4  O   UNL     1      -0.658   8.755  -2.287  1.00  0.00    -0.252 OA
BRANCH   3   5
ATOM      5  C   UNL     1      -0.547   6.662  -1.097  1.00  0.00     0.144 C 
BRANCH   5   6
ATOM      6  C   UNL     1      -1.819   6.155  -0.423  1.00  0.00     0.130 C 
BRANCH   6   7
ATOM      7  N   UNL     1      -2.201   4.802  -0.891  1.00  0.00    -0.352 N 
BRANCH   7   8
ATOM      8  C   UNL     1      -1.651   3.733  -0.154  1.00  0.00     0.151 A 
ATOM      9  C   UNL     1      -0.555   1.710   1.397  1.00  0.00     0.150 A 
ATOM     10  C   UNL     1      -1.361   1.369   0.335  1.00  0.00     0.040 A 
ATOM     11  N   UNL     1      -0.291   2.991   1.695  1.00  0.00    -0.143 NA
ATOM     12  C   UNL     1      -1.895   2.396  -0.446  1.00  0.00     0.051 A 
ATOM     13  N   UNL     1      -0.843   3.993   0.905  1.00  0.00    -0.132 NA
BRANCH   9  14
ATOM     14  C   UNL     1       0.072   0.666   2.239  1.00  0.00     0.271 C 
ATOM     15  C   UNL     1       1.397  -0.271   0.291  1.00  0.00     0.143 C 
ATOM     16  N   UNL     1       0.897  -0.266   1.647  1.00  0.00    -0.354 N 
ATOM     17  H   UNL     1       1.180  -1.018   2.215  1.00  0.00     0.163 HD
ATOM     18  O   UNL     1      -0.165   0.602   3.442  1.00  0.00    -0.267 OA
ENDBRANCH   9  14
ENDBRANCH   7   8
BRANCH   7  19
ATOM     19  C   UNL     1      -3.038   4.767  -2.107  1.00  0.00     0.084 C 
ATOM     20  C   UNL     1      -2.700   3.916  -3.299  1.00  0.00     0.027 C 
ATOM     21  C   UNL     1      -4.008   3.731  -2.573  1.00  0.00     0.027 C 
ENDBRANCH   7  19
ENDBRANCH   6   7
ENDBRANCH   5   6
ENDBRANCH   3   5
ENDBRANCH   2   3
ENDBRANCH   1   2
BRANCH   1  22
ATOM     22  C   UNL     1      -3.144   7.949  -4.551  1.00  0.00     0.275 C 
BRANCH  22  23
ATOM     23  O   UNL     1      -3.358   9.121  -3.746  1.00  0.00    -0.458 OA
BRANCH  23  24
ATOM     24  C   UNL     1      -3.974   8.931  -2.559  1.00  0.00     0.338 C 
ATOM     25  O   UNL     1      -4.442   7.902  -2.110  1.00  0.00    -0.246 OA
BRANCH  24  26
ATOM     26  C   UNL     1      -3.921  10.187  -1.802  1.00  0.00     0.060 A 
ATOM     27  C   UNL     1      -3.074  10.267  -0.693  1.00  0.00     0.016 A 
ATOM     28  C   UNL     1      -4.734  11.260  -2.167  1.00  0.00     0.016 A 
ATOM     29  C   UNL     1      -3.028  11.440   0.055  1.00  0.00     0.010 A 
ATOM     30  C   UNL     1      -4.685  12.435  -1.418  1.00  0.00     0.010 A 
ATOM     31  C   UNL     1      -3.836  12.528  -0.302  1.00  0.00    -0.014 A 
BRANCH  31  32
ATOM     32  C   UNL     1      -3.812  13.764   0.510  1.00  0.00     0.031 A 
ATOM     33  C   UNL     1      -4.931  14.049   1.465  1.00  0.00     0.074 A 
ATOM     34  C   UNL     1      -2.789  14.627   0.375  1.00  0.00     0.049 A 
ATOM     35  N   UNL     1      -5.124  15.096   2.225  1.00  0.00    -0.248 NA
ATOM     36  C   UNL     1      -5.977  13.022   1.573  1.00  0.00     0.031 C 
ATOM     37  C   UNL     1      -1.643  14.441  -0.515  1.00  0.00     0.029 A 
ATOM     38  N   UNL     1      -2.554  15.834   0.980  1.00  0.00    -0.354 N 
ATOM     39  C   UNL     1      -6.315  14.860   2.895  1.00  0.00     0.074 A 
ATOM     40  C   UNL     1      -6.815  13.582   2.434  1.00  0.00     0.031 C 
ATOM     41  C   UNL     1      -0.827  15.501  -0.401  1.00  0.00     0.029 A 
ATOM     42  C   UNL     1      -1.407  16.450   0.546  1.00  0.00     0.049 A 
ATOM     43  H   UNL     1      -3.151  16.223   1.659  1.00  0.00     0.167 HD
ATOM     44  C   UNL     1      -6.929  15.639   3.817  1.00  0.00     0.037 A 
ATOM     45  C   UNL     1      -0.894  17.652   0.867  1.00  0.00     0.037 A 
ATOM     46  C   UNL     1      -6.422  16.905   4.274  1.00  0.00     0.049 A 
ATOM     47  C   UNL     1      -1.612  18.511   1.872  1.00  0.00     0.074 A 
ATOM     48  C   UNL     1      -6.958  17.761   5.221  1.00  0.00     0.029 A 
ATOM     49  N   UNL     1      -5.256  17.500   3.812  1.00  0.00    -0.354 N 
ATOM     50  N   UNL     1      -2.725  18.268   2.522  1.00  0.00    -0.248 NA
ATOM     51  C   UNL     1      -1.001  19.808   2.191  1.00  0.00     0.031 C 
ATOM     52  C   UNL     1      -6.136  18.891   5.304  1.00  0.00     0.029 A 
ATOM     53  C   UNL     1      -5.066  18.720   4.441  1.00  0.00     0.049 A 
ATOM     54  H   UNL     1      -4.653  17.112   3.137  1.00  0.00     0.167 HD
ATOM     55  C   UNL     1      -2.935  19.367   3.343  1.00  0.00     0.074 A 
ATOM     56  C   UNL     1      -1.828  20.274   3.117  1.00  0.00     0.031 C 
ATOM     57  C   UNL     1      -3.952  19.603   4.207  1.00  0.00     0.037 A 
BRANCH  44  58
ATOM     58  C   UNL     1      -8.232  15.149   4.376  1.00  0.00     0.064 A 
ATOM     59  C   UNL     1      -8.288  14.079   5.281  1.00  0.00     0.173 A 
ATOM     60  C   UNL     1      -9.436  15.776   4.022  1.00  0.00     0.173 A 
ATOM     61  F   UNL     1      -7.166  13.438   5.638  1.00  0.00    -0.203 F 
ATOM     62  C   UNL     1      -9.506  13.640   5.794  1.00  0.00     0.198 A 
ATOM     63  C   UNL     1     -10.649  15.350   4.556  1.00  0.00     0.198 A 
ATOM     64  F   UNL     1      -9.436  16.806   3.162  1.00  0.00    -0.203 F 
ATOM     65  F   UNL     1      -9.541  12.589   6.625  1.00  0.00    -0.200 F 
ATOM     66  C   UNL     1     -10.684  14.279   5.436  1.00  0.00     0.200 A 
ATOM     67  F   UNL     1     -11.785  15.974   4.217  1.00  0.00    -0.200 F 
ATOM     68  F   UNL     1     -11.855  13.857   5.934  1.00  0.00    -0.200 F 
ENDBRANCH  44  58
BRANCH  45  69
ATOM     69  C   UNL     1       0.370  18.106   0.235  1.00  0.00     0.064 A 
ATOM     70  C   UNL     1       1.557  18.187   0.974  1.00  0.00     0.173 A 
ATOM     71  C   UNL     1       0.417  18.461  -1.121  1.00  0.00     0.173 A 
ATOM     72  F   UNL     1       1.555  17.879   2.280  1.00  0.00    -0.203 F 
ATOM     73  C   UNL     1       2.743  18.617   0.384  1.00  0.00     0.198 A 
ATOM     74  C   UNL     1       1.609  18.868  -1.716  1.00  0.00     0.198 A 
ATOM     75  F   UNL     1      -0.693  18.401  -1.871  1.00  0.00    -0.203 F 
ATOM     76  F   UNL     1       3.857  18.722   1.122  1.00  0.00    -0.200 F 
ATOM     77  C   UNL     1       2.770  18.951  -0.962  1.00  0.00     0.200 A 
ATOM     78  F   UNL     1       1.633  19.181  -3.019  1.00  0.00    -0.200 F 
ATOM     79  F   UNL     1       3.912  19.361  -1.530  1.00  0.00    -0.200 F 
ENDBRANCH  45  69
BRANCH  57  80
ATOM     80  C   UNL     1      -3.898  20.878   4.996  1.00  0.00     0.064 A 
ATOM     81  C   UNL     1      -4.174  22.119   4.405  1.00  0.00     0.173 A 
ATOM     82  C   UNL     1      -3.604  20.850   6.367  1.00  0.00     0.173 A 
ATOM     83  F   UNL     1      -4.444  22.197   3.093  1.00  0.00    -0.203 F 
ATOM     84  C   UNL     1      -4.138  23.291   5.156  1.00  0.00     0.198 A 
ATOM     85  C   UNL     1      -3.594  22.020   7.120  1.00  0.00     0.198 A 
ATOM     86  F   UNL     1      -3.338  19.686   6.979  1.00  0.00    -0.203 F 
ATOM     87  F   UNL     1      -4.365  24.471   4.564  1.00  0.00    -0.200 F 
ATOM     88  C   UNL     1      -3.855  23.240   6.513  1.00  0.00     0.200 A 
ATOM     89  F   UNL     1      -3.330  21.969   8.433  1.00  0.00    -0.200 F 
ATOM     90  F   UNL     1      -3.826  24.368   7.235  1.00  0.00    -0.200 F 
ENDBRANCH  57  80
ENDBRANCH  31  32
ENDBRANCH  24  26
ENDBRANCH  23  24
ENDBRANCH  22  23
ENDBRANCH   1  22
TORSDOF 16
