REMARK SMILES O=C(CSc1ccccc1C(=O)OCCOC(=O)c1ccc(-c2c3nc(c(-c4c(F)c(F)c(F)c(F)c4F)c4ccc([nH]4)c(-c4c(F)c(F)c(F)c(F)c4F)c4nc(c(-c5c(F)c(F)c(F)c(F)c5F)c5ccc2[nH]5)C=C4)C=C3)cc1)c1ccc(Cl)cc1
REMARK SMILES IDX 14 1 13 2 11 3 12 4 10 5 5 6 6 7 7 8 9 9 8 10 4 11 3 12 2 13
REMARK SMILES IDX 1 14 82 15 83 16 88 17 84 18 87 19 85 20 86 21 15 22 16 23
REMARK SMILES IDX 17 24 18 25 19 26 20 27 81 28 21 29 80 30 22 31 23 32 24 33
REMARK SMILES IDX 74 34 25 35 79 36 73 37 75 38 26 39 78 40 72 41 71 42 27 44
REMARK SMILES IDX 59 45 39 46 58 47 40 48 43 49 57 50 76 51 41 52 42 53 56 55
REMARK SMILES IDX 77 56 44 57 28 58 29 59 37 60 30 61 31 62 35 63 38 64 32 65
REMARK SMILES IDX 33 66 36 67 34 68 60 69 61 70 69 71 62 72 63 73 67 74 70 75
REMARK SMILES IDX 64 76 65 77 68 78 66 79 45 80 46 81 54 82 47 83 48 84 52 85
REMARK SMILES IDX 55 86 49 87 50 88 53 89 51 90
REMARK H PARENT 75 43 43 54
REMARK Flexibility Score: inf
ROOT
ATOM      1  C   UNL     1       1.367  -0.995   1.928  1.00  0.00     0.275 C 
ENDROOT
BRANCH   1   2
ATOM      2  O   UNL     1       2.059   0.278   1.886  1.00  0.00    -0.458 OA
BRANCH   2   3
ATOM      3  C   UNL     1       1.247   1.341   1.673  1.00  0.00     0.339 C 
ATOM      4  O   UNL     1       0.035   1.288   1.518  1.00  0.00    -0.246 OA
BRANCH   3   5
ATOM      5  C   UNL     1       1.936   2.642   1.839  1.00  0.00     0.073 A 
ATOM      6  C   UNL     1       3.089   3.078   1.172  1.00  0.00     0.022 A 
ATOM      7  C   UNL     1       3.531   4.399   1.417  1.00  0.00     0.016 A 
ATOM      8  C   UNL     1       2.890   5.244   2.325  1.00  0.00     0.001 A 
ATOM      9  C   UNL     1       1.292   3.511   2.753  1.00  0.00     0.017 A 
ATOM     10  C   UNL     1       1.780   4.789   3.016  1.00  0.00     0.001 A 
BRANCH   6  11
ATOM     11  S   UNL     1       4.239   2.179   0.148  1.00  0.00    -0.117 SA
BRANCH  11  12
ATOM     12  C   UNL     1       3.282   1.269  -1.065  1.00  0.00     0.156 C 
BRANCH  12  13
ATOM     13  C   UNL     1       3.149  -0.238  -0.931  1.00  0.00     0.173 C 
ATOM     14  O   UNL     1       2.172  -0.761  -1.491  1.00  0.00    -0.293 OA
BRANCH  13  15
ATOM     15  C   UNL     1       4.108  -1.193  -0.248  1.00  0.00     0.018 A 
ATOM     16  C   UNL     1       5.207  -0.852   0.547  1.00  0.00     0.013 A 
ATOM     17  C   UNL     1       3.795  -2.566  -0.353  1.00  0.00     0.013 A 
ATOM     18  C   UNL     1       5.910  -1.824   1.278  1.00  0.00     0.021 A 
ATOM     19  C   UNL     1       4.505  -3.542   0.360  1.00  0.00     0.021 A 
ATOM     20  C   UNL     1       5.547  -3.162   1.194  1.00  0.00     0.041 A 
ATOM     21  Cl  UNL     1       6.354  -4.333   2.158  1.00  0.00    -0.084 Cl
ENDBRANCH  13  15
ENDBRANCH  12  13
ENDBRANCH  11  12
ENDBRANCH   6  11
ENDBRANCH   3   5
ENDBRANCH   2   3
ENDBRANCH   1   2
BRANCH   1  22
ATOM     22  C   UNL     1       2.174  -2.026   2.720  1.00  0.00     0.275 C 
BRANCH  22  23
ATOM     23  O   UNL     1       2.014  -1.776   4.122  1.00  0.00    -0.458 OA
BRANCH  23  24
ATOM     24  C   UNL     1       2.872  -0.866   4.627  1.00  0.00     0.338 C 
ATOM     25  O   UNL     1       3.905  -0.429   4.139  1.00  0.00    -0.246 OA
BRANCH  24  26
ATOM     26  C   UNL     1       2.173  -0.256   5.752  1.00  0.00     0.060 A 
ATOM     27  C   UNL     1       1.603   0.998   5.530  1.00  0.00     0.016 A 
ATOM     28  C   UNL     1       2.025  -0.920   6.966  1.00  0.00     0.016 A 
ATOM     29  C   UNL     1       0.892   1.619   6.542  1.00  0.00     0.010 A 
ATOM     30  C   UNL     1       1.283  -0.307   7.974  1.00  0.00     0.010 A 
ATOM     31  C   UNL     1       0.727   0.971   7.772  1.00  0.00    -0.014 A 
BRANCH  31  32
ATOM     32  C   UNL     1       0.032   1.671   8.875  1.00  0.00     0.031 A 
ATOM     33  C   UNL     1       0.816   2.074  10.088  1.00  0.00     0.074 A 
ATOM     34  C   UNL     1      -1.276   1.964   8.763  1.00  0.00     0.049 A 
ATOM     35  N   UNL     1       0.397   2.584  11.216  1.00  0.00    -0.248 NA
ATOM     36  C   UNL     1       2.270   1.853  10.031  1.00  0.00     0.031 C 
ATOM     37  C   UNL     1      -2.116   1.651   7.605  1.00  0.00     0.029 A 
ATOM     38  N   UNL     1      -2.128   2.599   9.629  1.00  0.00    -0.354 N 
ATOM     39  C   UNL     1       1.526   2.700  12.017  1.00  0.00     0.074 A 
ATOM     40  C   UNL     1       2.644   2.188  11.256  1.00  0.00     0.031 C 
ATOM     41  C   UNL     1      -3.354   2.121   7.819  1.00  0.00     0.029 A 
ATOM     42  C   UNL     1      -3.413   2.703   9.155  1.00  0.00     0.049 A 
ATOM     43  H   UNL     1      -1.846   2.947  10.505  1.00  0.00     0.167 HD
ATOM     44  C   UNL     1       1.613   3.193  13.275  1.00  0.00     0.037 A 
ATOM     45  C   UNL     1      -4.518   3.186   9.753  1.00  0.00     0.037 A 
ATOM     46  C   UNL     1       0.488   3.731  13.996  1.00  0.00     0.049 A 
ATOM     47  C   UNL     1      -4.396   3.714  11.156  1.00  0.00     0.074 A 
ATOM     48  C   UNL     1       0.451   4.265  15.271  1.00  0.00     0.029 A 
ATOM     49  N   UNL     1      -0.804   3.808  13.492  1.00  0.00    -0.354 N 
ATOM     50  N   UNL     1      -3.333   3.792  11.922  1.00  0.00    -0.248 NA
ATOM     51  C   UNL     1      -5.626   4.214  11.781  1.00  0.00     0.031 C 
ATOM     52  C   UNL     1      -0.871   4.626  15.553  1.00  0.00     0.029 A 
ATOM     53  C   UNL     1      -1.649   4.370  14.434  1.00  0.00     0.049 A 
ATOM     54  H   UNL     1      -1.079   3.506  12.595  1.00  0.00     0.167 HD
ATOM     55  C   UNL     1      -3.760   4.362  13.113  1.00  0.00     0.074 A 
ATOM     56  C   UNL     1      -5.175   4.638  12.953  1.00  0.00     0.031 C 
ATOM     57  C   UNL     1      -3.054   4.629  14.241  1.00  0.00     0.037 A 
BRANCH  44  58
ATOM     58  C   UNL     1       2.953   3.135  13.953  1.00  0.00     0.064 A 
ATOM     59  C   UNL     1       4.037   3.922  13.534  1.00  0.00     0.173 A 
ATOM     60  C   UNL     1       3.156   2.272  15.041  1.00  0.00     0.173 A 
ATOM     61  F   UNL     1       3.906   4.749  12.486  1.00  0.00    -0.203 F 
ATOM     62  C   UNL     1       5.281   3.821  14.154  1.00  0.00     0.198 A 
ATOM     63  C   UNL     1       4.391   2.199  15.682  1.00  0.00     0.198 A 
ATOM     64  F   UNL     1       2.157   1.496  15.486  1.00  0.00    -0.203 F 
ATOM     65  F   UNL     1       6.317   4.537  13.695  1.00  0.00    -0.200 F 
ATOM     66  C   UNL     1       5.455   2.965  15.231  1.00  0.00     0.200 A 
ATOM     67  F   UNL     1       4.554   1.379  16.729  1.00  0.00    -0.200 F 
ATOM     68  F   UNL     1       6.651   2.871  15.828  1.00  0.00    -0.200 F 
ENDBRANCH  44  58
BRANCH  45  69
ATOM     69  C   UNL     1      -5.823   3.173   9.038  1.00  0.00     0.064 A 
ATOM     70  C   UNL     1      -6.459   4.366   8.669  1.00  0.00     0.173 A 
ATOM     71  C   UNL     1      -6.461   1.968   8.705  1.00  0.00     0.173 A 
ATOM     72  F   UNL     1      -5.903   5.546   8.982  1.00  0.00    -0.203 F 
ATOM     73  C   UNL     1      -7.688   4.356   8.011  1.00  0.00     0.198 A 
ATOM     74  C   UNL     1      -7.673   1.958   8.016  1.00  0.00     0.198 A 
ATOM     75  F   UNL     1      -5.898   0.796   9.033  1.00  0.00    -0.203 F 
ATOM     76  F   UNL     1      -8.296   5.512   7.713  1.00  0.00    -0.200 F 
ATOM     77  C   UNL     1      -8.290   3.152   7.678  1.00  0.00     0.200 A 
ATOM     78  F   UNL     1      -8.241   0.791   7.682  1.00  0.00    -0.200 F 
ATOM     79  F   UNL     1      -9.467   3.142   7.037  1.00  0.00    -0.200 F 
ENDBRANCH  45  69
BRANCH  57  80
ATOM     80  C   UNL     1      -3.806   5.280  15.365  1.00  0.00     0.064 A 
ATOM     81  C   UNL     1      -4.777   4.586  16.103  1.00  0.00     0.173 A 
ATOM     82  C   UNL     1      -3.546   6.615  15.710  1.00  0.00     0.173 A 
ATOM     83  F   UNL     1      -5.072   3.313  15.801  1.00  0.00    -0.203 F 
ATOM     84  C   UNL     1      -5.491   5.220  17.115  1.00  0.00     0.198 A 
ATOM     85  C   UNL     1      -4.236   7.233  16.747  1.00  0.00     0.198 A 
ATOM     86  F   UNL     1      -2.620   7.319  15.041  1.00  0.00    -0.203 F 
ATOM     87  F   UNL     1      -6.463   4.559  17.759  1.00  0.00    -0.200 F 
ATOM     88  C   UNL     1      -5.217   6.540  17.439  1.00  0.00     0.200 A 
ATOM     89  F   UNL     1      -3.959   8.504  17.069  1.00  0.00    -0.200 F 
ATOM     90  F   UNL     1      -5.908   7.149  18.413  1.00  0.00    -0.200 F 
ENDBRANCH  57  80
ENDBRANCH  31  32
ENDBRANCH  24  26
ENDBRANCH  23  24
ENDBRANCH  22  23
ENDBRANCH   1  22
TORSDOF 15
