REMARK SMILES O=C(OCCOC(=O)[C@H](CCO)NC(=O)c1cccc(C(F)(F)F)c1F)c1ccc(-c2c3nc(c(-c4c(F)c(F)c(F)c(F)c4F)c4ccc([nH]4)c(-c4c(F)c(F)c(F)c(F)c4F)c4nc(c(-c5c(F)c(F)c(F)c(F)c5F)c5ccc2[nH]5)C=C4)C=C3)cc1
REMARK SMILES IDX 5 1 4 2 3 3 2 4 1 5 27 6 28 7 89 8 29 9 88 10 30 11 31 12
REMARK SMILES IDX 32 13 82 14 33 15 87 16 81 17 83 18 34 19 86 20 80 21 79 22
REMARK SMILES IDX 35 24 67 25 47 26 66 27 48 28 51 29 65 30 84 31 49 32 50 33
REMARK SMILES IDX 64 35 85 36 52 37 36 38 37 39 45 40 38 41 39 42 43 43 46 44
REMARK SMILES IDX 40 45 41 46 44 47 42 48 68 49 69 50 77 51 70 52 71 53 75 54
REMARK SMILES IDX 78 55 72 56 73 57 76 58 74 59 53 60 54 61 62 62 55 63 56 64
REMARK SMILES IDX 60 65 63 66 57 67 58 68 61 69 59 70 6 71 7 72 8 73 9 74
REMARK SMILES IDX 13 75 14 76 15 78 16 79 17 80 25 81 18 82 20 83 26 84 19 85
REMARK SMILES IDX 21 86 22 87 23 88 24 89 10 90 11 91 12 92
REMARK H PARENT 83 23 51 34 13 77 12 93
REMARK Flexibility Score: inf
ROOT
ATOM      1  C   UNL     1       4.703  -3.727  -2.288  1.00  0.00     0.274 C 
ENDROOT
BRANCH   1   2
ATOM      2  C   UNL     1       4.157  -4.085  -3.679  1.00  0.00     0.275 C 
BRANCH   2   3
ATOM      3  O   UNL     1       2.974  -3.365  -4.064  1.00  0.00    -0.458 OA
BRANCH   3   4
ATOM      4  C   UNL     1       1.712  -3.833  -3.853  1.00  0.00     0.338 C 
ATOM      5  O   UNL     1       0.734  -3.306  -4.352  1.00  0.00    -0.246 OA
BRANCH   4   6
ATOM      6  C   UNL     1       1.542  -4.836  -2.775  1.00  0.00     0.060 A 
ATOM      7  C   UNL     1       1.892  -6.187  -2.847  1.00  0.00     0.016 A 
ATOM      8  C   UNL     1       1.054  -4.320  -1.590  1.00  0.00     0.016 A 
ATOM      9  C   UNL     1       1.845  -6.994  -1.687  1.00  0.00     0.010 A 
ATOM     10  C   UNL     1       1.054  -5.106  -0.446  1.00  0.00     0.010 A 
ATOM     11  C   UNL     1       1.448  -6.443  -0.463  1.00  0.00    -0.014 A 
BRANCH  11  12
ATOM     12  C   UNL     1       1.197  -7.182   0.806  1.00  0.00     0.031 A 
ATOM     13  C   UNL     1      -0.222  -7.603   1.097  1.00  0.00     0.074 A 
ATOM     14  C   UNL     1       2.076  -7.178   1.831  1.00  0.00     0.049 A 
ATOM     15  N   UNL     1      -0.715  -8.187   2.160  1.00  0.00    -0.248 NA
ATOM     16  C   UNL     1      -1.232  -7.249   0.083  1.00  0.00     0.031 C 
ATOM     17  C   UNL     1       3.404  -6.564   1.819  1.00  0.00     0.029 A 
ATOM     18  N   UNL     1       1.936  -7.634   3.125  1.00  0.00    -0.354 N 
ATOM     19  C   UNL     1      -2.076  -8.301   1.924  1.00  0.00     0.074 A 
ATOM     20  C   UNL     1      -2.353  -7.636   0.671  1.00  0.00     0.031 C 
ATOM     21  C   UNL     1       3.930  -6.633   3.058  1.00  0.00     0.029 A 
ATOM     22  C   UNL     1       2.997  -7.330   3.945  1.00  0.00     0.049 A 
ATOM     23  H   UNL     1       1.145  -8.134   3.434  1.00  0.00     0.167 HD
ATOM     24  C   UNL     1      -3.006  -8.953   2.657  1.00  0.00     0.037 A 
ATOM     25  C   UNL     1       3.202  -7.599   5.253  1.00  0.00     0.037 A 
ATOM     26  C   UNL     1      -2.743  -9.615   3.904  1.00  0.00     0.049 A 
ATOM     27  C   UNL     1       2.199  -8.419   6.029  1.00  0.00     0.074 A 
ATOM     28  C   UNL     1      -3.563 -10.476   4.612  1.00  0.00     0.029 A 
ATOM     29  N   UNL     1      -1.585  -9.463   4.644  1.00  0.00    -0.354 N 
ATOM     30  N   UNL     1       1.000  -8.809   5.679  1.00  0.00    -0.248 NA
ATOM     31  C   UNL     1       2.605  -8.889   7.367  1.00  0.00     0.031 C 
ATOM     32  C   UNL     1      -2.918 -10.814   5.804  1.00  0.00     0.029 A 
ATOM     33  C   UNL     1      -1.675 -10.204   5.810  1.00  0.00     0.049 A 
ATOM     34  H   UNL     1      -0.813  -8.911   4.382  1.00  0.00     0.167 HD
ATOM     35  C   UNL     1       0.538  -9.614   6.716  1.00  0.00     0.074 A 
ATOM     36  C   UNL     1       1.575  -9.646   7.721  1.00  0.00     0.031 C 
ATOM     37  C   UNL     1      -0.637 -10.280   6.803  1.00  0.00     0.037 A 
BRANCH  24  38
ATOM     38  C   UNL     1      -4.381  -9.092   2.081  1.00  0.00     0.064 A 
ATOM     39  C   UNL     1      -5.495  -8.532   2.720  1.00  0.00     0.173 A 
ATOM     40  C   UNL     1      -4.601  -9.916   0.966  1.00  0.00     0.173 A 
ATOM     41  F   UNL     1      -5.335  -7.743   3.794  1.00  0.00    -0.203 F 
ATOM     42  C   UNL     1      -6.784  -8.819   2.281  1.00  0.00     0.198 A 
ATOM     43  C   UNL     1      -5.889 -10.177   0.513  1.00  0.00     0.198 A 
ATOM     44  F   UNL     1      -3.565 -10.474   0.322  1.00  0.00    -0.203 F 
ATOM     45  F   UNL     1      -7.840  -8.319   2.938  1.00  0.00    -0.200 F 
ATOM     46  C   UNL     1      -6.979  -9.642   1.181  1.00  0.00     0.200 A 
ATOM     47  F   UNL     1      -6.073 -10.961  -0.558  1.00  0.00    -0.200 F 
ATOM     48  F   UNL     1      -8.222  -9.929   0.769  1.00  0.00    -0.200 F 
ENDBRANCH  24  38
BRANCH  25  49
ATOM     49  C   UNL     1       4.474  -7.199   5.910  1.00  0.00     0.064 A 
ATOM     50  C   UNL     1       4.678  -5.903   6.400  1.00  0.00     0.173 A 
ATOM     51  C   UNL     1       5.493  -8.142   6.109  1.00  0.00     0.173 A 
ATOM     52  F   UNL     1       3.726  -4.971   6.256  1.00  0.00    -0.203 F 
ATOM     53  C   UNL     1       5.857  -5.566   7.066  1.00  0.00     0.198 A 
ATOM     54  C   UNL     1       6.660  -7.810   6.792  1.00  0.00     0.198 A 
ATOM     55  F   UNL     1       5.323  -9.406   5.693  1.00  0.00    -0.203 F 
ATOM     56  F   UNL     1       6.032  -4.321   7.531  1.00  0.00    -0.200 F 
ATOM     57  C   UNL     1       6.843  -6.521   7.267  1.00  0.00     0.200 A 
ATOM     58  F   UNL     1       7.592  -8.747   7.015  1.00  0.00    -0.200 F 
ATOM     59  F   UNL     1       7.962  -6.205   7.934  1.00  0.00    -0.200 F 
ENDBRANCH  25  49
BRANCH  37  60
ATOM     60  C   UNL     1      -0.870 -11.185   7.977  1.00  0.00     0.064 A 
ATOM     61  C   UNL     1      -0.910 -12.577   7.790  1.00  0.00     0.173 A 
ATOM     62  C   UNL     1      -1.152 -10.688   9.257  1.00  0.00     0.173 A 
ATOM     63  F   UNL     1      -0.658 -13.104   6.582  1.00  0.00    -0.203 F 
ATOM     64  C   UNL     1      -1.242 -13.434   8.835  1.00  0.00     0.198 A 
ATOM     65  C   UNL     1      -1.459 -11.552  10.307  1.00  0.00     0.198 A 
ATOM     66  F   UNL     1      -1.120  -9.368   9.491  1.00  0.00    -0.203 F 
ATOM     67  F   UNL     1      -1.312 -14.755   8.620  1.00  0.00    -0.200 F 
ATOM     68  C   UNL     1      -1.515 -12.921  10.093  1.00  0.00     0.200 A 
ATOM     69  F   UNL     1      -1.706 -11.057  11.528  1.00  0.00    -0.200 F 
ATOM     70  F   UNL     1      -1.833 -13.747  11.100  1.00  0.00    -0.200 F 
ENDBRANCH  37  60
ENDBRANCH  11  12
ENDBRANCH   4   6
ENDBRANCH   3   4
ENDBRANCH   2   3
ENDBRANCH   1   2
BRANCH   1  71
ATOM     71  O   UNL     1       3.667  -3.424  -1.327  1.00  0.00    -0.461 OA
BRANCH  71  72
ATOM     72  C   UNL     1       3.973  -2.491  -0.382  1.00  0.00     0.328 C 
ATOM     73  O   UNL     1       5.101  -2.023  -0.257  1.00  0.00    -0.250 OA
BRANCH  72  74
ATOM     74  C   UNL     1       2.751  -2.085   0.523  1.00  0.00     0.194 C 
BRANCH  74  75
ATOM     75  N   UNL     1       2.491  -3.047   1.610  1.00  0.00    -0.338 N 
ATOM     76  C   UNL     1       1.519  -3.143   2.585  1.00  0.00     0.254 C 
ATOM     77  H   UNL     1       3.151  -3.777   1.648  1.00  0.00     0.164 HD
ATOM     78  O   UNL     1       1.954  -3.577   3.660  1.00  0.00    -0.269 OA
BRANCH  76  79
ATOM     79  C   UNL     1       0.024  -2.929   2.500  1.00  0.00     0.076 A 
ATOM     80  C   UNL     1      -0.674  -3.101   3.717  1.00  0.00     0.017 A 
ATOM     81  C   UNL     1      -0.768  -2.824   1.352  1.00  0.00     0.148 A 
ATOM     82  C   UNL     1      -2.067  -3.228   3.775  1.00  0.00     0.002 A 
ATOM     83  C   UNL     1      -2.158  -3.070   1.372  1.00  0.00     0.092 A 
ATOM     84  F   UNL     1      -0.216  -2.520   0.179  1.00  0.00    -0.205 F 
ATOM     85  C   UNL     1      -2.806  -3.246   2.602  1.00  0.00     0.016 A 
BRANCH  83  86
ATOM     86  C   UNL     1      -2.962  -3.231   0.108  1.00  0.00     0.419 C 
ATOM     87  F   UNL     1      -3.718  -4.373   0.137  1.00  0.00    -0.166 F 
ATOM     88  F   UNL     1      -3.850  -2.219  -0.088  1.00  0.00    -0.166 F 
ATOM     89  F   UNL     1      -2.228  -3.328  -1.031  1.00  0.00    -0.166 F 
ENDBRANCH  83  86
ENDBRANCH  76  79
ENDBRANCH  74  75
BRANCH  74  90
ATOM     90  C   UNL     1       3.116  -0.729   1.166  1.00  0.00     0.065 C 
BRANCH  90  91
ATOM     91  C   UNL     1       3.023   0.403   0.156  1.00  0.00     0.159 C 
BRANCH  91  92
ATOM     92  O   UNL     1       1.668   0.511  -0.255  1.00  0.00    -0.396 OA
ATOM     93  H   UNL     1       1.382  -0.328  -0.649  1.00  0.00     0.210 HD
ENDBRANCH  91  92
ENDBRANCH  90  91
ENDBRANCH  74  90
ENDBRANCH  72  74
ENDBRANCH  71  72
ENDBRANCH   1  71
TORSDOF 17
