REMARK SMILES CC[C@@H](C)c1ccccc1NC(=O)[C@@H]1[C@@H](C(=O)OCCOC(=O)c2ccc(-c3c4nc(c(-c5c(F)c(F)c(F)c(F)c5F)c5ccc([nH]5)c(-c5c(F)c(F)c(F)c(F)c5F)c5nc(c(-c6c(F)c(F)c(F)c(F)c6F)c6ccc3[nH]6)C=C5)C=C4)cc2)[C@@H]2C=C[C@H]1C2
REMARK SMILES IDX 19 1 18 2 16 3 17 4 15 5 14 6 90 7 87 8 89 9 91 10 88 11
REMARK SMILES IDX 12 12 11 13 13 15 10 16 5 17 6 18 7 19 9 20 8 21 3 22 4 23
REMARK SMILES IDX 2 24 1 25 20 26 21 27 22 28 23 29 24 30 25 31 86 32 26 33
REMARK SMILES IDX 85 34 27 35 28 36 29 37 79 38 30 39 84 40 78 41 80 42 31 43
REMARK SMILES IDX 83 44 77 45 76 46 32 48 64 49 44 50 63 51 45 52 48 53 62 54
REMARK SMILES IDX 81 55 46 56 47 57 61 59 82 60 49 61 33 62 34 63 42 64 35 65
REMARK SMILES IDX 36 66 40 67 43 68 37 69 38 70 41 71 39 72 65 73 66 74 74 75
REMARK SMILES IDX 67 76 68 77 72 78 75 79 69 80 70 81 73 82 71 83 50 84 51 85
REMARK SMILES IDX 59 86 52 87 53 88 57 89 60 90 54 91 55 92 58 93 56 94
REMARK H PARENT 11 14 80 47 48 58
REMARK Flexibility Score: inf
ROOT
ATOM      1  C   UNL     1      -5.021   6.523   4.376  1.00  0.00     0.274 C 
ENDROOT
BRANCH   1   2
ATOM      2  O   UNL     1      -3.643   6.238   4.679  1.00  0.00    -0.462 OA
BRANCH   2   3
ATOM      3  C   UNL     1      -2.983   5.449   3.797  1.00  0.00     0.310 C 
ATOM      4  O   UNL     1      -3.499   4.895   2.832  1.00  0.00    -0.252 OA
BRANCH   3   5
ATOM      5  C   UNL     1      -1.502   5.325   4.088  1.00  0.00     0.119 C 
ATOM      6  C   UNL     1      -1.172   3.864   4.468  1.00  0.00     0.100 C 
ATOM      7  C   UNL     1      -0.401   4.007   5.807  1.00  0.00     0.025 C 
ATOM      8  C   UNL     1      -0.996   6.114   5.334  1.00  0.00     0.027 C 
ATOM      9  C   UNL     1       0.871   4.792   5.607  1.00  0.00    -0.027 C 
ATOM     10  C   UNL     1      -1.233   5.115   6.474  1.00  0.00     0.017 C 
ATOM     11  C   UNL     1       0.518   6.060   5.343  1.00  0.00    -0.027 C 
BRANCH   6  12
ATOM     12  C   UNL     1      -0.629   2.786   3.538  1.00  0.00     0.228 C 
ATOM     13  N   UNL     1      -0.028   2.852   2.331  1.00  0.00    -0.326 N 
ATOM     14  H   UNL     1      -0.096   1.980   1.879  1.00  0.00     0.169 HD
ATOM     15  O   UNL     1      -0.818   1.612   3.918  1.00  0.00    -0.274 OA
BRANCH  13  16
ATOM     16  C   UNL     1       0.661   3.760   1.512  1.00  0.00     0.044 A 
ATOM     17  C   UNL     1       1.045   3.436   0.181  1.00  0.00    -0.022 A 
ATOM     18  C   UNL     1       1.671   4.457  -0.593  1.00  0.00     0.006 A 
ATOM     19  C   UNL     1       1.967   5.715  -0.081  1.00  0.00     0.000 A 
ATOM     20  C   UNL     1       1.073   4.991   2.021  1.00  0.00     0.026 A 
ATOM     21  C   UNL     1       1.691   5.973   1.245  1.00  0.00     0.002 A 
BRANCH  17  22
ATOM     22  C   UNL     1       0.956   2.087  -0.568  1.00  0.00     0.018 C 
ATOM     23  C   UNL     1      -0.043   2.172  -1.736  1.00  0.00     0.013 C 
BRANCH  22  24
ATOM     24  C   UNL     1       0.752   0.784   0.232  1.00  0.00     0.005 C 
ATOM     25  C   UNL     1       1.193  -0.475  -0.508  1.00  0.00     0.004 C 
ENDBRANCH  22  24
ENDBRANCH  17  22
ENDBRANCH  13  16
ENDBRANCH   6  12
ENDBRANCH   3   5
ENDBRANCH   2   3
ENDBRANCH   1   2
BRANCH   1  26
ATOM     26  C   UNL     1      -5.167   7.902   3.725  1.00  0.00     0.275 C 
BRANCH  26  27
ATOM     27  O   UNL     1      -4.637   7.934   2.385  1.00  0.00    -0.458 OA
BRANCH  27  28
ATOM     28  C   UNL     1      -3.330   8.257   2.288  1.00  0.00     0.338 C 
ATOM     29  O   UNL     1      -2.557   8.517   3.205  1.00  0.00    -0.246 OA
BRANCH  28  30
ATOM     30  C   UNL     1      -2.884   8.173   0.894  1.00  0.00     0.060 A 
ATOM     31  C   UNL     1      -1.971   7.175   0.553  1.00  0.00     0.016 A 
ATOM     32  C   UNL     1      -3.248   9.145  -0.039  1.00  0.00     0.016 A 
ATOM     33  C   UNL     1      -1.377   7.176  -0.705  1.00  0.00     0.010 A 
ATOM     34  C   UNL     1      -2.671   9.124  -1.315  1.00  0.00     0.010 A 
ATOM     35  C   UNL     1      -1.705   8.157  -1.650  1.00  0.00    -0.014 A 
BRANCH  35  36
ATOM     36  C   UNL     1      -0.992   8.194  -2.956  1.00  0.00     0.031 A 
ATOM     37  C   UNL     1      -0.107   9.360  -3.306  1.00  0.00     0.074 A 
ATOM     38  C   UNL     1      -1.105   7.169  -3.823  1.00  0.00     0.049 A 
ATOM     39  N   UNL     1       0.496   9.635  -4.436  1.00  0.00    -0.248 NA
ATOM     40  C   UNL     1       0.127  10.351  -2.245  1.00  0.00     0.031 C 
ATOM     41  C   UNL     1      -1.886   5.954  -3.598  1.00  0.00     0.029 A 
ATOM     42  N   UNL     1      -0.560   6.990  -5.072  1.00  0.00    -0.354 N 
ATOM     43  C   UNL     1       1.137  10.852  -4.239  1.00  0.00     0.074 A 
ATOM     44  C   UNL     1       0.851  11.262  -2.881  1.00  0.00     0.031 C 
ATOM     45  C   UNL     1      -1.760   5.149  -4.664  1.00  0.00     0.029 A 
ATOM     46  C   UNL     1      -0.947   5.819  -5.675  1.00  0.00     0.049 A 
ATOM     47  H   UNL     1       0.049   7.639  -5.494  1.00  0.00     0.167 HD
ATOM     48  C   UNL     1       1.891  11.562  -5.113  1.00  0.00     0.037 A 
ATOM     49  C   UNL     1      -0.709   5.351  -6.915  1.00  0.00     0.037 A 
ATOM     50  C   UNL     1       2.224  11.131  -6.446  1.00  0.00     0.049 A 
ATOM     51  C   UNL     1       0.112   6.167  -7.874  1.00  0.00     0.074 A 
ATOM     52  C   UNL     1       3.020  11.767  -7.385  1.00  0.00     0.029 A 
ATOM     53  N   UNL     1       1.788   9.950  -7.028  1.00  0.00    -0.354 N 
ATOM     54  N   UNL     1       0.688   7.329  -7.688  1.00  0.00    -0.248 NA
ATOM     55  C   UNL     1       0.305   5.611  -9.221  1.00  0.00     0.031 C 
ATOM     56  C   UNL     1       3.033  10.990  -8.549  1.00  0.00     0.029 A 
ATOM     57  C   UNL     1       2.281   9.849  -8.320  1.00  0.00     0.049 A 
ATOM     58  H   UNL     1       1.214   9.283  -6.589  1.00  0.00     0.167 HD
ATOM     59  C   UNL     1       1.315   7.641  -8.887  1.00  0.00     0.074 A 
ATOM     60  C   UNL     1       1.069   6.534  -9.788  1.00  0.00     0.031 C 
ATOM     61  C   UNL     1       2.025   8.748  -9.212  1.00  0.00     0.037 A 
BRANCH  48  62
ATOM     62  C   UNL     1       2.387  12.907  -4.670  1.00  0.00     0.064 A 
ATOM     63  C   UNL     1       3.429  13.048  -3.743  1.00  0.00     0.173 A 
ATOM     64  C   UNL     1       1.836  14.074  -5.222  1.00  0.00     0.173 A 
ATOM     65  F   UNL     1       3.981  11.964  -3.178  1.00  0.00    -0.203 F 
ATOM     66  C   UNL     1       3.887  14.309  -3.368  1.00  0.00     0.198 A 
ATOM     67  C   UNL     1       2.313  15.332  -4.864  1.00  0.00     0.198 A 
ATOM     68  F   UNL     1       0.841  13.993  -6.118  1.00  0.00    -0.203 F 
ATOM     69  F   UNL     1       4.857  14.422  -2.451  1.00  0.00    -0.200 F 
ATOM     70  C   UNL     1       3.333  15.449  -3.933  1.00  0.00     0.200 A 
ATOM     71  F   UNL     1       1.785  16.431  -5.421  1.00  0.00    -0.200 F 
ATOM     72  F   UNL     1       3.780  16.661  -3.577  1.00  0.00    -0.200 F 
ENDBRANCH  48  62
BRANCH  49  73
ATOM     73  C   UNL     1      -1.298   4.053  -7.331  1.00  0.00     0.064 A 
ATOM     74  C   UNL     1      -0.493   2.924  -7.529  1.00  0.00     0.173 A 
ATOM     75  C   UNL     1      -2.681   3.915  -7.524  1.00  0.00     0.173 A 
ATOM     76  F   UNL     1       0.837   3.016  -7.381  1.00  0.00    -0.203 F 
ATOM     77  C   UNL     1      -1.049   1.705  -7.909  1.00  0.00     0.198 A 
ATOM     78  C   UNL     1      -3.238   2.689  -7.877  1.00  0.00     0.198 A 
ATOM     79  F   UNL     1      -3.492   4.969  -7.349  1.00  0.00    -0.203 F 
ATOM     80  F   UNL     1      -0.255   0.648  -8.126  1.00  0.00    -0.200 F 
ATOM     81  C   UNL     1      -2.422   1.586  -8.074  1.00  0.00     0.200 A 
ATOM     82  F   UNL     1      -4.565   2.576  -8.022  1.00  0.00    -0.200 F 
ATOM     83  F   UNL     1      -2.957   0.410  -8.428  1.00  0.00    -0.200 F 
ENDBRANCH  49  73
BRANCH  61  84
ATOM     84  C   UNL     1       2.601   8.814 -10.596  1.00  0.00     0.064 A 
ATOM     85  C   UNL     1       1.791   9.057 -11.714  1.00  0.00     0.173 A 
ATOM     86  C   UNL     1       3.981   8.665 -10.802  1.00  0.00     0.173 A 
ATOM     87  F   UNL     1       0.464   9.190 -11.570  1.00  0.00    -0.203 F 
ATOM     88  C   UNL     1       2.339   9.128 -12.992  1.00  0.00     0.198 A 
ATOM     89  C   UNL     1       4.528   8.761 -12.078  1.00  0.00     0.198 A 
ATOM     90  F   UNL     1       4.798   8.435  -9.764  1.00  0.00    -0.203 F 
ATOM     91  F   UNL     1       1.541   9.320 -14.052  1.00  0.00    -0.200 F 
ATOM     92  C   UNL     1       3.707   8.986 -13.173  1.00  0.00     0.200 A 
ATOM     93  F   UNL     1       5.851   8.633 -12.249  1.00  0.00    -0.200 F 
ATOM     94  F   UNL     1       4.233   9.058 -14.403  1.00  0.00    -0.200 F 
ENDBRANCH  61  84
ENDBRANCH  35  36
ENDBRANCH  28  30
ENDBRANCH  27  28
ENDBRANCH  26  27
ENDBRANCH   1  26
TORSDOF 15
