REMARK SMILES COc1ccc([C@H]2CC(c3ccc(S(C)(=O)=O)cc3)=NN2c2ccc(C(=O)OCCOC(=O)c3ccc(-c4c5nc(c(-c6c(F)c(F)c(F)c(F)c6F)c6ccc([nH]6)c(-c6c(F)c(F)c(F)c(F)c6F)c6nc(c(-c7c(F)c(F)c(F)c(F)c7F)c7ccc4[nH]7)C=C6)C=C5)cc3)cc2)cc1OC
REMARK SMILES IDX 29 1 28 2 26 3 27 4 25 5 22 6 23 7 98 8 24 9 97 10 21 11
REMARK SMILES IDX 7 12 8 13 9 14 20 15 6 16 3 17 4 18 100 19 5 20 99 21 2 22
REMARK SMILES IDX 1 23 101 24 102 25 10 26 11 27 19 28 12 29 18 30 13 31 14 32
REMARK SMILES IDX 15 33 16 34 17 35 30 36 31 37 32 38 33 39 34 40 35 41 96 42
REMARK SMILES IDX 36 43 95 44 37 45 38 46 39 47 89 48 40 49 94 50 88 51 90 52
REMARK SMILES IDX 41 53 93 54 87 55 86 56 42 58 74 59 54 60 73 61 55 62 58 63
REMARK SMILES IDX 72 64 91 65 56 66 57 67 71 69 92 70 59 71 43 72 44 73 52 74
REMARK SMILES IDX 45 75 46 76 50 77 53 78 47 79 48 80 51 81 49 82 75 83 76 84
REMARK SMILES IDX 84 85 77 86 78 87 82 88 85 89 79 90 80 91 83 92 81 93 60 94
REMARK SMILES IDX 61 95 69 96 62 97 63 98 67 99 70 100 64 101 65 102 68 103
REMARK SMILES IDX 66 104
REMARK H PARENT 90 57 58 68
REMARK Flexibility Score: inf
ROOT
ATOM      1  C   UNL     1       1.683 -10.673  -3.391  1.00  0.00     0.275 C 
ENDROOT
BRANCH   1   2
ATOM      2  O   UNL     1       1.739  -9.438  -4.135  1.00  0.00    -0.458 OA
BRANCH   2   3
ATOM      3  C   UNL     1       2.191  -8.367  -3.438  1.00  0.00     0.338 C 
ATOM      4  O   UNL     1       2.544  -8.354  -2.268  1.00  0.00    -0.246 OA
BRANCH   3   5
ATOM      5  C   UNL     1       2.290  -7.176  -4.304  1.00  0.00     0.060 A 
ATOM      6  C   UNL     1       2.498  -4.754  -5.728  1.00  0.00     0.060 A 
ATOM      7  C   UNL     1       3.580  -5.250  -4.998  1.00  0.00     0.029 A 
ATOM      8  C   UNL     1       1.317  -5.514  -5.764  1.00  0.00     0.029 A 
ATOM      9  C   UNL     1       3.464  -6.422  -4.261  1.00  0.00     0.018 A 
ATOM     10  C   UNL     1       1.216  -6.734  -5.078  1.00  0.00     0.018 A 
BRANCH   6  11
ATOM     11  N   UNL     1       2.606  -3.521  -6.356  1.00  0.00    -0.257 N 
ATOM     12  C   UNL     1       1.728  -2.386  -6.059  1.00  0.00     0.144 C 
ATOM     13  C   UNL     1       2.424  -1.226  -6.787  1.00  0.00     0.091 C 
ATOM     14  C   UNL     1       3.682  -1.911  -7.242  1.00  0.00     0.071 C 
ATOM     15  N   UNL     1       3.764  -3.177  -6.987  1.00  0.00    -0.176 NA
BRANCH  12  16
ATOM     16  C   UNL     1       1.565  -2.114  -4.567  1.00  0.00    -0.019 A 
ATOM     17  C   UNL     1       1.219  -1.529  -1.826  1.00  0.00     0.160 A 
ATOM     18  C   UNL     1       0.124  -1.891  -2.622  1.00  0.00     0.051 A 
ATOM     19  C   UNL     1       2.504  -1.500  -2.378  1.00  0.00     0.161 A 
ATOM     20  C   UNL     1       0.294  -2.170  -3.981  1.00  0.00     0.010 A 
ATOM     21  C   UNL     1       2.661  -1.802  -3.741  1.00  0.00     0.056 A 
BRANCH  17  22
ATOM     22  O   UNL     1       1.011  -1.297  -0.492  1.00  0.00    -0.493 OA
ATOM     23  C   UNL     1       0.226  -0.125  -0.270  1.00  0.00     0.278 C 
ENDBRANCH  17  22
BRANCH  19  24
ATOM     24  O   UNL     1       3.689  -1.209  -1.756  1.00  0.00    -0.493 OA
ATOM     25  C   UNL     1       3.645  -0.605  -0.472  1.00  0.00     0.278 C 
ENDBRANCH  19  24
ENDBRANCH  12  16
BRANCH  14  26
ATOM     26  C   UNL     1       4.703  -1.185  -8.008  1.00  0.00    -0.002 A 
ATOM     27  C   UNL     1       5.083  -1.696  -9.254  1.00  0.00     0.011 A 
ATOM     28  C   UNL     1       5.250   0.006  -7.526  1.00  0.00     0.011 A 
ATOM     29  C   UNL     1       5.982  -0.987 -10.050  1.00  0.00     0.021 A 
ATOM     30  C   UNL     1       6.172   0.705  -8.310  1.00  0.00     0.021 A 
ATOM     31  C   UNL     1       6.523   0.212  -9.572  1.00  0.00     0.067 A 
BRANCH  31  32
ATOM     32  S   UNL     1       7.605   1.152 -10.625  1.00  0.00     0.175 S 
ATOM     33  C   UNL     1       9.001   0.094 -10.894  1.00  0.00     0.163 C 
ATOM     34  O   UNL     1       6.909   1.322 -11.886  1.00  0.00    -0.224 OA
ATOM     35  O   UNL     1       8.064   2.301  -9.867  1.00  0.00    -0.224 OA
ENDBRANCH  31  32
ENDBRANCH  14  26
ENDBRANCH   6  11
ENDBRANCH   3   5
ENDBRANCH   2   3
ENDBRANCH   1   2
BRANCH   1  36
ATOM     36  C   UNL     1       2.921 -11.536  -3.639  1.00  0.00     0.275 C 
BRANCH  36  37
ATOM     37  O   UNL     1       4.095 -10.889  -3.115  1.00  0.00    -0.458 OA
BRANCH  37  38
ATOM     38  C   UNL     1       5.091 -10.674  -4.003  1.00  0.00     0.338 C 
ATOM     39  O   UNL     1       5.128 -11.009  -5.175  1.00  0.00    -0.246 OA
BRANCH  38  40
ATOM     40  C   UNL     1       6.195  -9.931  -3.367  1.00  0.00     0.060 A 
ATOM     41  C   UNL     1       5.952  -8.682  -2.808  1.00  0.00     0.016 A 
ATOM     42  C   UNL     1       7.504 -10.393  -3.485  1.00  0.00     0.016 A 
ATOM     43  C   UNL     1       7.014  -7.826  -2.516  1.00  0.00     0.010 A 
ATOM     44  C   UNL     1       8.565  -9.587  -3.055  1.00  0.00     0.010 A 
ATOM     45  C   UNL     1       8.341  -8.267  -2.619  1.00  0.00    -0.014 A 
BRANCH  45  46
ATOM     46  C   UNL     1       9.485  -7.352  -2.316  1.00  0.00     0.031 A 
ATOM     47  C   UNL     1      10.582  -7.140  -3.333  1.00  0.00     0.074 A 
ATOM     48  C   UNL     1       9.555  -6.696  -1.139  1.00  0.00     0.049 A 
ATOM     49  N   UNL     1      11.754  -6.571  -3.187  1.00  0.00    -0.248 NA
ATOM     50  C   UNL     1      10.335  -7.650  -4.691  1.00  0.00     0.031 C 
ATOM     51  C   UNL     1       8.556  -6.754  -0.071  1.00  0.00     0.029 A 
ATOM     52  N   UNL     1      10.513  -5.842  -0.642  1.00  0.00    -0.354 N 
ATOM     53  C   UNL     1      12.406  -6.720  -4.406  1.00  0.00     0.074 A 
ATOM     54  C   UNL     1      11.501  -7.429  -5.284  1.00  0.00     0.031 C 
ATOM     55  C   UNL     1       8.924  -5.937   0.926  1.00  0.00     0.029 A 
ATOM     56  C   UNL     1      10.236  -5.379   0.621  1.00  0.00     0.049 A 
ATOM     57  H   UNL     1      11.320  -5.588  -1.145  1.00  0.00     0.167 HD
ATOM     58  C   UNL     1      13.646  -6.302  -4.760  1.00  0.00     0.037 A 
ATOM     59  C   UNL     1      10.969  -4.631   1.468  1.00  0.00     0.037 A 
ATOM     60  C   UNL     1      14.518  -5.528  -3.914  1.00  0.00     0.049 A 
ATOM     61  C   UNL     1      12.347  -4.193   1.059  1.00  0.00     0.074 A 
ATOM     62  C   UNL     1      15.788  -5.049  -4.189  1.00  0.00     0.029 A 
ATOM     63  N   UNL     1      14.199  -5.099  -2.635  1.00  0.00    -0.354 N 
ATOM     64  N   UNL     1      12.982  -4.404  -0.068  1.00  0.00    -0.248 NA
ATOM     65  C   UNL     1      13.120  -3.432   2.050  1.00  0.00     0.031 C 
ATOM     66  C   UNL     1      16.249  -4.353  -3.066  1.00  0.00     0.029 A 
ATOM     67  C   UNL     1      15.250  -4.364  -2.107  1.00  0.00     0.049 A 
ATOM     68  H   UNL     1      13.352  -5.287  -2.170  1.00  0.00     0.167 HD
ATOM     69  C   UNL     1      14.220  -3.794   0.073  1.00  0.00     0.074 A 
ATOM     70  C   UNL     1      14.240  -3.184   1.386  1.00  0.00     0.031 C 
ATOM     71  C   UNL     1      15.251  -3.752  -0.805  1.00  0.00     0.037 A 
BRANCH  58  72
ATOM     72  C   UNL     1      14.157  -6.692  -6.118  1.00  0.00     0.064 A 
ATOM     73  C   UNL     1      13.681  -6.096  -7.293  1.00  0.00     0.173 A 
ATOM     74  C   UNL     1      15.186  -7.641  -6.235  1.00  0.00     0.173 A 
ATOM     75  F   UNL     1      12.693  -5.190  -7.238  1.00  0.00    -0.203 F 
ATOM     76  C   UNL     1      14.200  -6.449  -8.537  1.00  0.00     0.198 A 
ATOM     77  C   UNL     1      15.722  -7.971  -7.477  1.00  0.00     0.198 A 
ATOM     78  F   UNL     1      15.687  -8.235  -5.141  1.00  0.00    -0.203 F 
ATOM     79  F   UNL     1      13.704  -5.891  -9.651  1.00  0.00    -0.200 F 
ATOM     80  C   UNL     1      15.225  -7.379  -8.627  1.00  0.00     0.200 A 
ATOM     81  F   UNL     1      16.723  -8.859  -7.560  1.00  0.00    -0.200 F 
ATOM     82  F   UNL     1      15.731  -7.707  -9.824  1.00  0.00    -0.200 F 
ENDBRANCH  58  72
BRANCH  59  83
ATOM     83  C   UNL     1      10.431  -4.289   2.811  1.00  0.00     0.064 A 
ATOM     84  C   UNL     1      10.106  -2.967   3.144  1.00  0.00     0.173 A 
ATOM     85  C   UNL     1      10.234  -5.275   3.790  1.00  0.00     0.173 A 
ATOM     86  F   UNL     1      10.305  -1.984   2.253  1.00  0.00    -0.203 F 
ATOM     87  C   UNL     1       9.614  -2.644   4.407  1.00  0.00     0.198 A 
ATOM     88  C   UNL     1       9.711  -4.955   5.040  1.00  0.00     0.198 A 
ATOM     89  F   UNL     1      10.534  -6.555   3.525  1.00  0.00    -0.203 F 
ATOM     90  F   UNL     1       9.354  -1.366   4.714  1.00  0.00    -0.200 F 
ATOM     91  C   UNL     1       9.408  -3.639   5.351  1.00  0.00     0.200 A 
ATOM     92  F   UNL     1       9.501  -5.923   5.944  1.00  0.00    -0.200 F 
ATOM     93  F   UNL     1       8.928  -3.328   6.562  1.00  0.00    -0.200 F 
ENDBRANCH  59  83
BRANCH  71  94
ATOM     94  C   UNL     1      16.471  -2.986  -0.388  1.00  0.00     0.064 A 
ATOM     95  C   UNL     1      17.361  -3.489   0.572  1.00  0.00     0.173 A 
ATOM     96  C   UNL     1      16.765  -1.747  -0.975  1.00  0.00     0.173 A 
ATOM     97  F   UNL     1      17.113  -4.662   1.173  1.00  0.00    -0.203 F 
ATOM     98  C   UNL     1      18.490  -2.766   0.948  1.00  0.00     0.198 A 
ATOM     99  C   UNL     1      17.908  -1.038  -0.615  1.00  0.00     0.198 A 
ATOM    100  F   UNL     1      15.947  -1.226  -1.901  1.00  0.00    -0.203 F 
ATOM    101  F   UNL     1      19.302  -3.243   1.901  1.00  0.00    -0.200 F 
ATOM    102  C   UNL     1      18.765  -1.544   0.351  1.00  0.00     0.200 A 
ATOM    103  F   UNL     1      18.177   0.138  -1.199  1.00  0.00    -0.200 F 
ATOM    104  F   UNL     1      19.852  -0.850   0.713  1.00  0.00    -0.200 F 
ENDBRANCH  71  94
ENDBRANCH  45  46
ENDBRANCH  38  40
ENDBRANCH  37  38
ENDBRANCH  36  37
ENDBRANCH   1  36
TORSDOF 17
