REMARK SMILES C[C@@H]1CCCN(c2ccc(NC(=O)Cc3cccs3)c(C(=O)OCCOC(=O)c3ccc(-c4c5nc(c(-c6c(F)c(F)c(F)c(F)c6F)c6ccc([nH]6)c(-c6c(F)c(F)c(F)c(F)c6F)c6nc(c(-c7c(F)c(F)c(F)c(F)c7F)c7ccc4[nH]7)C=C6)C=C5)cc3)c2)C1
REMARK SMILES IDX 24 1 23 2 21 3 22 4 20 5 7 6 8 7 92 8 9 9 10 10 6 11 1 12
REMARK SMILES IDX 2 13 3 14 93 15 4 16 5 17 11 18 12 19 13 21 14 22 15 23
REMARK SMILES IDX 16 24 19 25 17 26 18 27 25 28 26 29 27 30 28 31 29 32 30 33
REMARK SMILES IDX 91 34 31 35 90 36 32 37 33 38 34 39 84 40 35 41 89 42 83 43
REMARK SMILES IDX 85 44 36 45 88 46 82 47 81 48 37 50 69 51 49 52 68 53 50 54
REMARK SMILES IDX 53 55 67 56 86 57 51 58 52 59 66 61 87 62 54 63 38 64 39 65
REMARK SMILES IDX 47 66 40 67 41 68 45 69 48 70 42 71 43 72 46 73 44 74 70 75
REMARK SMILES IDX 71 76 79 77 72 78 73 79 77 80 80 81 74 82 75 83 78 84 76 85
REMARK SMILES IDX 55 86 56 87 64 88 57 89 58 90 62 91 65 92 59 93 60 94 63 95
REMARK SMILES IDX 61 96
REMARK H PARENT 11 20 85 49 53 60
REMARK Flexibility Score: inf
ROOT
ATOM      1  C   UNL     1       3.727   0.939  -5.864  1.00  0.00     0.275 C 
ENDROOT
BRANCH   1   2
ATOM      2  O   UNL     1       3.239   1.327  -4.562  1.00  0.00    -0.458 OA
BRANCH   2   3
ATOM      3  C   UNL     1       3.906   2.306  -3.897  1.00  0.00     0.340 C 
ATOM      4  O   UNL     1       4.831   2.970  -4.340  1.00  0.00    -0.246 OA
BRANCH   3   5
ATOM      5  C   UNL     1       3.362   2.494  -2.515  1.00  0.00     0.085 A 
ATOM      6  C   UNL     1       1.948   1.669  -0.702  1.00  0.00     0.038 A 
ATOM      7  C   UNL     1       2.277   2.783   0.059  1.00  0.00     0.028 A 
ATOM      8  C   UNL     1       2.521   1.517  -1.969  1.00  0.00     0.043 A 
ATOM      9  C   UNL     1       3.142   3.747  -0.448  1.00  0.00     0.029 A 
ATOM     10  C   UNL     1       3.633   3.655  -1.754  1.00  0.00     0.055 A 
BRANCH   6  11
ATOM     11  N   UNL     1       1.105   0.692  -0.233  1.00  0.00    -0.371 N 
ATOM     12  C   UNL     1      -2.597   0.023   0.150  1.00  0.00     0.009 C 
ATOM     13  C   UNL     1      -1.149  -0.181  -0.284  1.00  0.00     0.005 C 
ATOM     14  C   UNL     1      -0.594  -1.509   0.267  1.00  0.00     0.007 C 
ATOM     15  C   UNL     1      -0.267   1.003   0.146  1.00  0.00     0.119 C 
ATOM     16  C   UNL     1       0.880  -1.700  -0.096  1.00  0.00     0.022 C 
ATOM     17  C   UNL     1       1.711  -0.500   0.338  1.00  0.00     0.116 C 
ENDBRANCH   6  11
BRANCH  10  18
ATOM     18  N   UNL     1       4.348   4.721  -2.321  1.00  0.00    -0.325 N 
ATOM     19  C   UNL     1       4.333   6.064  -2.079  1.00  0.00     0.229 C 
ATOM     20  H   UNL     1       4.979   4.450  -3.026  1.00  0.00     0.169 HD
ATOM     21  O   UNL     1       5.235   6.722  -2.617  1.00  0.00    -0.274 OA
BRANCH  19  22
ATOM     22  C   UNL     1       3.303   6.787  -1.214  1.00  0.00     0.147 C 
BRANCH  22  23
ATOM     23  C   UNL     1       1.841   6.715  -1.626  1.00  0.00     0.014 A 
ATOM     24  C   UNL     1       1.037   5.684  -2.083  1.00  0.00     0.016 A 
ATOM     25  S   UNL     1       0.885   8.147  -1.438  1.00  0.00    -0.148 S 
ATOM     26  C   UNL     1      -0.331   6.048  -2.252  1.00  0.00     0.012 A 
ATOM     27  C   UNL     1      -0.552   7.361  -1.920  1.00  0.00     0.065 A 
ENDBRANCH  22  23
ENDBRANCH  19  22
ENDBRANCH  10  18
ENDBRANCH   3   5
ENDBRANCH   2   3
ENDBRANCH   1   2
BRANCH   1  28
ATOM     28  C   UNL     1       2.812   1.422  -6.994  1.00  0.00     0.275 C 
BRANCH  28  29
ATOM     29  O   UNL     1       2.949   2.841  -7.190  1.00  0.00    -0.458 OA
BRANCH  29  30
ATOM     30  C   UNL     1       2.022   3.590  -6.551  1.00  0.00     0.338 C 
ATOM     31  O   UNL     1       1.043   3.192  -5.944  1.00  0.00    -0.246 OA
BRANCH  30  32
ATOM     32  C   UNL     1       2.487   4.986  -6.485  1.00  0.00     0.060 A 
ATOM     33  C   UNL     1       2.591   5.520  -5.207  1.00  0.00     0.016 A 
ATOM     34  C   UNL     1       2.784   5.773  -7.600  1.00  0.00     0.016 A 
ATOM     35  C   UNL     1       2.992   6.835  -5.031  1.00  0.00     0.010 A 
ATOM     36  C   UNL     1       3.192   7.107  -7.417  1.00  0.00     0.010 A 
ATOM     37  C   UNL     1       3.304   7.641  -6.124  1.00  0.00    -0.014 A 
BRANCH  37  38
ATOM     38  C   UNL     1       3.647   9.054  -5.834  1.00  0.00     0.031 A 
ATOM     39  C   UNL     1       2.553  10.076  -5.787  1.00  0.00     0.074 A 
ATOM     40  C   UNL     1       4.884   9.388  -5.420  1.00  0.00     0.049 A 
ATOM     41  N   UNL     1       2.623  11.361  -5.552  1.00  0.00    -0.248 NA
ATOM     42  C   UNL     1       1.188   9.575  -6.006  1.00  0.00     0.031 C 
ATOM     43  C   UNL     1       5.988   8.451  -5.227  1.00  0.00     0.029 A 
ATOM     44  N   UNL     1       5.405  10.602  -5.044  1.00  0.00    -0.354 N 
ATOM     45  C   UNL     1       1.319  11.827  -5.616  1.00  0.00     0.074 A 
ATOM     46  C   UNL     1       0.474  10.686  -5.902  1.00  0.00     0.031 C 
ATOM     47  C   UNL     1       7.054   9.122  -4.761  1.00  0.00     0.029 A 
ATOM     48  C   UNL     1       6.729  10.544  -4.681  1.00  0.00     0.049 A 
ATOM     49  H   UNL     1       4.880  11.435  -5.036  1.00  0.00     0.167 HD
ATOM     50  C   UNL     1       0.872  13.095  -5.464  1.00  0.00     0.037 A 
ATOM     51  C   UNL     1       7.586  11.530  -4.353  1.00  0.00     0.037 A 
ATOM     52  C   UNL     1       1.716  14.226  -5.175  1.00  0.00     0.049 A 
ATOM     53  C   UNL     1       7.091  12.955  -4.334  1.00  0.00     0.074 A 
ATOM     54  C   UNL     1       1.364  15.560  -5.068  1.00  0.00     0.029 A 
ATOM     55  N   UNL     1       3.082  14.154  -4.947  1.00  0.00    -0.354 N 
ATOM     56  N   UNL     1       5.872  13.412  -4.487  1.00  0.00    -0.248 NA
ATOM     57  C   UNL     1       8.098  14.005  -4.115  1.00  0.00     0.031 C 
ATOM     58  C   UNL     1       2.526  16.302  -4.833  1.00  0.00     0.029 A 
ATOM     59  C   UNL     1       3.593  15.424  -4.729  1.00  0.00     0.049 A 
ATOM     60  H   UNL     1       3.611  13.323  -4.940  1.00  0.00     0.167 HD
ATOM     61  C   UNL     1       5.960  14.792  -4.359  1.00  0.00     0.074 A 
ATOM     62  C   UNL     1       7.350  15.099  -4.096  1.00  0.00     0.031 C 
ATOM     63  C   UNL     1       4.977  15.721  -4.457  1.00  0.00     0.037 A 
BRANCH  50  64
ATOM     64  C   UNL     1      -0.588  13.337  -5.702  1.00  0.00     0.064 A 
ATOM     65  C   UNL     1      -1.573  12.928  -4.793  1.00  0.00     0.173 A 
ATOM     66  C   UNL     1      -1.002  13.999  -6.868  1.00  0.00     0.173 A 
ATOM     67  F   UNL     1      -1.231  12.272  -3.674  1.00  0.00    -0.203 F 
ATOM     68  C   UNL     1      -2.923  13.149  -5.056  1.00  0.00     0.198 A 
ATOM     69  C   UNL     1      -2.349  14.245  -7.114  1.00  0.00     0.198 A 
ATOM     70  F   UNL     1      -0.098  14.410  -7.770  1.00  0.00    -0.203 F 
ATOM     71  F   UNL     1      -3.853  12.703  -4.201  1.00  0.00    -0.200 F 
ATOM     72  C   UNL     1      -3.308  13.812  -6.213  1.00  0.00     0.200 A 
ATOM     73  F   UNL     1      -2.717  14.894  -8.227  1.00  0.00    -0.200 F 
ATOM     74  F   UNL     1      -4.607  14.025  -6.463  1.00  0.00    -0.200 F 
ENDBRANCH  50  64
BRANCH  51  75
ATOM     75  C   UNL     1       9.020  11.227  -4.087  1.00  0.00     0.064 A 
ATOM     76  C   UNL     1       9.606  11.491  -2.841  1.00  0.00     0.173 A 
ATOM     77  C   UNL     1       9.851  10.726  -5.102  1.00  0.00     0.173 A 
ATOM     78  F   UNL     1       8.868  12.008  -1.848  1.00  0.00    -0.203 F 
ATOM     79  C   UNL     1      10.970  11.288  -2.629  1.00  0.00     0.198 A 
ATOM     80  C   UNL     1      11.206  10.491  -4.878  1.00  0.00     0.198 A 
ATOM     81  F   UNL     1       9.350  10.476  -6.321  1.00  0.00    -0.203 F 
ATOM     82  F   UNL     1      11.518  11.614  -1.450  1.00  0.00    -0.200 F 
ATOM     83  C   UNL     1      11.767  10.783  -3.645  1.00  0.00     0.200 A 
ATOM     84  F   UNL     1      11.970  10.001  -5.863  1.00  0.00    -0.200 F 
ATOM     85  F   UNL     1      13.079  10.599  -3.444  1.00  0.00    -0.200 F 
ENDBRANCH  51  75
BRANCH  63  86
ATOM     86  C   UNL     1       5.356  17.159  -4.242  1.00  0.00     0.064 A 
ATOM     87  C   UNL     1       6.121  17.870  -5.179  1.00  0.00     0.173 A 
ATOM     88  C   UNL     1       4.903  17.850  -3.107  1.00  0.00     0.173 A 
ATOM     89  F   UNL     1       6.591  17.254  -6.274  1.00  0.00    -0.203 F 
ATOM     90  C   UNL     1       6.438  19.211  -4.975  1.00  0.00     0.198 A 
ATOM     91  C   UNL     1       5.194  19.199  -2.924  1.00  0.00     0.198 A 
ATOM     92  F   UNL     1       4.161  17.221  -2.183  1.00  0.00    -0.203 F 
ATOM     93  F   UNL     1       7.210  19.857  -5.861  1.00  0.00    -0.200 F 
ATOM     94  C   UNL     1       5.967  19.876  -3.853  1.00  0.00     0.200 A 
ATOM     95  F   UNL     1       4.724  19.844  -1.847  1.00  0.00    -0.200 F 
ATOM     96  F   UNL     1       6.263  21.169  -3.666  1.00  0.00    -0.200 F 
ENDBRANCH  63  86
ENDBRANCH  37  38
ENDBRANCH  30  32
ENDBRANCH  29  30
ENDBRANCH  28  29
ENDBRANCH   1  28
TORSDOF 15
