REMARK SMILES C[C@@H]1CN(S(=O)(=O)c2cccc(C(=O)N3CCC[C@@H]3C(=O)OCCOC(=O)c3ccc(-c4c5nc(c(-c6c(F)c(F)c(F)c(F)c6F)c6ccc([nH]6)c(-c6c(F)c(F)c(F)c(F)c6F)c6nc(c(-c7c(F)c(F)c(F)c(F)c7F)c7ccc4[nH]7)C=C6)C=C5)cc3)c2)C[C@H](C)O1
REMARK SMILES IDX 23 1 22 2 20 3 21 4 19 5 15 6 16 7 17 8 18 9 13 10 14 11
REMARK SMILES IDX 12 12 8 13 9 14 91 15 10 16 11 17 5 18 6 19 7 20 4 21 1 22
REMARK SMILES IDX 2 23 3 24 95 25 93 26 92 27 94 28 24 29 25 30 26 31 27 32
REMARK SMILES IDX 28 33 29 34 90 35 30 36 89 37 31 38 32 39 33 40 83 41 34 42
REMARK SMILES IDX 88 43 82 44 84 45 35 46 87 47 81 48 80 49 36 51 68 52 48 53
REMARK SMILES IDX 67 54 49 55 52 56 66 57 85 58 50 59 51 60 65 62 86 63 53 64
REMARK SMILES IDX 37 65 38 66 46 67 39 68 40 69 44 70 47 71 41 72 42 73 45 74
REMARK SMILES IDX 43 75 69 76 70 77 78 78 71 79 72 80 76 81 79 82 73 83 74 84
REMARK SMILES IDX 77 85 75 86 54 87 55 88 63 89 56 90 57 91 61 92 64 93 58 94
REMARK SMILES IDX 59 95 62 96 60 97
REMARK H PARENT 84 50 52 61
REMARK Flexibility Score: inf
ROOT
ATOM      1  C   UNL     1       1.907  -3.711  -0.521  1.00  0.00     0.274 C 
ENDROOT
BRANCH   1   2
ATOM      2  O   UNL     1       1.356  -3.774   0.814  1.00  0.00    -0.461 OA
BRANCH   2   3
ATOM      3  C   UNL     1       1.043  -5.025   1.252  1.00  0.00     0.328 C 
ATOM      4  O   UNL     1       1.128  -6.033   0.557  1.00  0.00    -0.250 OA
BRANCH   3   5
ATOM      5  C   UNL     1       0.501  -5.060   2.689  1.00  0.00     0.195 C 
ATOM      6  N   UNL     1      -0.917  -4.759   2.784  1.00  0.00    -0.325 N 
ATOM      7  C   UNL     1      -1.199  -4.319   4.134  1.00  0.00     0.121 C 
ATOM      8  C   UNL     1      -0.019  -3.415   4.423  1.00  0.00     0.024 C 
ATOM      9  C   UNL     1       1.149  -4.085   3.688  1.00  0.00     0.039 C 
BRANCH   6  10
ATOM     10  C   UNL     1      -1.838  -5.498   2.069  1.00  0.00     0.254 C 
ATOM     11  O   UNL     1      -1.841  -6.719   2.014  1.00  0.00    -0.269 OA
BRANCH  10  12
ATOM     12  C   UNL     1      -2.683  -4.659   1.166  1.00  0.00     0.041 A 
ATOM     13  C   UNL     1      -3.424  -2.460   0.459  1.00  0.00     0.083 A 
ATOM     14  C   UNL     1      -4.001  -3.011  -0.684  1.00  0.00     0.022 A 
ATOM     15  C   UNL     1      -2.806  -3.286   1.393  1.00  0.00     0.035 A 
ATOM     16  C   UNL     1      -3.923  -4.394  -0.896  1.00  0.00     0.002 A 
ATOM     17  C   UNL     1      -3.259  -5.217   0.022  1.00  0.00     0.014 A 
BRANCH  13  18
ATOM     18  S   UNL     1      -3.621  -0.747   0.873  1.00  0.00     0.243 S 
ATOM     19  O   UNL     1      -3.929  -0.687   2.287  1.00  0.00    -0.207 OA
ATOM     20  O   UNL     1      -4.517  -0.162  -0.104  1.00  0.00    -0.207 OA
BRANCH  18  21
ATOM     21  N   UNL     1      -2.072  -0.003   0.655  1.00  0.00    -0.193 NA
ATOM     22  C   UNL     1       1.199  -0.113   0.190  1.00  0.00     0.040 C 
ATOM     23  C   UNL     1       0.346   0.276   1.392  1.00  0.00     0.130 C 
ATOM     24  C   UNL     1      -0.964  -0.533   1.525  1.00  0.00     0.134 C 
ATOM     25  O   UNL     1       0.167   1.694   1.465  1.00  0.00    -0.373 OA
ATOM     26  C   UNL     1      -0.898   2.224   0.669  1.00  0.00     0.130 C 
ATOM     27  C   UNL     1      -2.213   1.480   0.912  1.00  0.00     0.134 C 
ATOM     28  C   UNL     1      -0.540   2.335  -0.808  1.00  0.00     0.040 C 
ENDBRANCH  18  21
ENDBRANCH  13  18
ENDBRANCH  10  12
ENDBRANCH   6  10
ENDBRANCH   3   5
ENDBRANCH   2   3
ENDBRANCH   1   2
BRANCH   1  29
ATOM     29  C   UNL     1       3.436  -3.595  -0.502  1.00  0.00     0.275 C 
BRANCH  29  30
ATOM     30  O   UNL     1       4.056  -4.798  -0.009  1.00  0.00    -0.458 OA
BRANCH  30  31
ATOM     31  C   UNL     1       4.277  -4.821   1.326  1.00  0.00     0.338 C 
ATOM     32  O   UNL     1       4.069  -3.920   2.122  1.00  0.00    -0.246 OA
BRANCH  31  33
ATOM     33  C   UNL     1       4.628  -6.185   1.754  1.00  0.00     0.060 A 
ATOM     34  C   UNL     1       3.831  -6.767   2.743  1.00  0.00     0.016 A 
ATOM     35  C   UNL     1       5.736  -6.867   1.248  1.00  0.00     0.016 A 
ATOM     36  C   UNL     1       4.120  -8.037   3.223  1.00  0.00     0.010 A 
ATOM     37  C   UNL     1       6.038  -8.142   1.741  1.00  0.00     0.010 A 
ATOM     38  C   UNL     1       5.233  -8.729   2.734  1.00  0.00    -0.014 A 
BRANCH  38  39
ATOM     39  C   UNL     1       5.550 -10.050   3.318  1.00  0.00     0.031 A 
ATOM     40  C   UNL     1       6.625 -10.169   4.356  1.00  0.00     0.074 A 
ATOM     41  C   UNL     1       4.814 -11.121   2.973  1.00  0.00     0.049 A 
ATOM     42  N   UNL     1       7.029 -11.226   5.013  1.00  0.00    -0.248 NA
ATOM     43  C   UNL     1       7.338  -8.932   4.706  1.00  0.00     0.031 C 
ATOM     44  C   UNL     1       3.714 -11.109   2.009  1.00  0.00     0.029 A 
ATOM     45  N   UNL     1       4.870 -12.421   3.406  1.00  0.00    -0.354 N 
ATOM     46  C   UNL     1       8.050 -10.787   5.843  1.00  0.00     0.074 A 
ATOM     47  C   UNL     1       8.216  -9.370   5.597  1.00  0.00     0.031 C 
ATOM     48  C   UNL     1       3.192 -12.344   1.930  1.00  0.00     0.029 A 
ATOM     49  C   UNL     1       3.939 -13.236   2.813  1.00  0.00     0.049 A 
ATOM     50  H   UNL     1       5.516 -12.739   4.078  1.00  0.00     0.167 HD
ATOM     51  C   UNL     1       8.780 -11.504   6.731  1.00  0.00     0.037 A 
ATOM     52  C   UNL     1       3.723 -14.556   2.959  1.00  0.00     0.037 A 
ATOM     53  C   UNL     1       8.603 -12.912   6.978  1.00  0.00     0.049 A 
ATOM     54  C   UNL     1       4.566 -15.334   3.931  1.00  0.00     0.074 A 
ATOM     55  C   UNL     1       9.285 -13.727   7.865  1.00  0.00     0.029 A 
ATOM     56  N   UNL     1       7.673 -13.715   6.333  1.00  0.00    -0.354 N 
ATOM     57  N   UNL     1       5.529 -14.911   4.714  1.00  0.00    -0.248 NA
ATOM     58  C   UNL     1       4.290 -16.773   4.041  1.00  0.00     0.031 C 
ATOM     59  C   UNL     1       8.796 -15.031   7.727  1.00  0.00     0.029 A 
ATOM     60  C   UNL     1       7.777 -15.021   6.787  1.00  0.00     0.049 A 
ATOM     61  H   UNL     1       7.034 -13.403   5.652  1.00  0.00     0.167 HD
ATOM     62  C   UNL     1       5.966 -16.024   5.418  1.00  0.00     0.074 A 
ATOM     63  C   UNL     1       5.146 -17.138   4.986  1.00  0.00     0.031 C 
ATOM     64  C   UNL     1       6.958 -16.117   6.337  1.00  0.00     0.037 A 
BRANCH  51  65
ATOM     65  C   UNL     1       9.863 -10.780   7.473  1.00  0.00     0.064 A 
ATOM     66  C   UNL     1       9.575  -9.868   8.499  1.00  0.00     0.173 A 
ATOM     67  C   UNL     1      11.211 -11.017   7.163  1.00  0.00     0.173 A 
ATOM     68  F   UNL     1       8.302  -9.594   8.820  1.00  0.00    -0.203 F 
ATOM     69  C   UNL     1      10.597  -9.201   9.170  1.00  0.00     0.198 A 
ATOM     70  C   UNL     1      12.230 -10.367   7.853  1.00  0.00     0.198 A 
ATOM     71  F   UNL     1      11.539 -11.881   6.191  1.00  0.00    -0.203 F 
ATOM     72  F   UNL     1      10.298  -8.299  10.116  1.00  0.00    -0.200 F 
ATOM     73  C   UNL     1      11.923  -9.455   8.851  1.00  0.00     0.200 A 
ATOM     74  F   UNL     1      13.511 -10.619   7.548  1.00  0.00    -0.200 F 
ATOM     75  F   UNL     1      12.905  -8.812   9.498  1.00  0.00    -0.200 F 
ENDBRANCH  51  65
BRANCH  52  76
ATOM     76  C   UNL     1       2.664 -15.220   2.158  1.00  0.00     0.064 A 
ATOM     77  C   UNL     1       1.490 -15.694   2.757  1.00  0.00     0.173 A 
ATOM     78  C   UNL     1       2.804 -15.384   0.771  1.00  0.00     0.173 A 
ATOM     79  F   UNL     1       1.324 -15.584   4.083  1.00  0.00    -0.203 F 
ATOM     80  C   UNL     1       0.499 -16.318   2.001  1.00  0.00     0.198 A 
ATOM     81  C   UNL     1       1.801 -15.984   0.013  1.00  0.00     0.198 A 
ATOM     82  F   UNL     1       3.911 -14.950   0.152  1.00  0.00    -0.203 F 
ATOM     83  F   UNL     1      -0.597 -16.798   2.604  1.00  0.00    -0.200 F 
ATOM     84  C   UNL     1       0.652 -16.455   0.629  1.00  0.00     0.200 A 
ATOM     85  F   UNL     1       1.950 -16.106  -1.313  1.00  0.00    -0.200 F 
ATOM     86  F   UNL     1      -0.304 -17.049  -0.098  1.00  0.00    -0.200 F 
ENDBRANCH  52  76
BRANCH  64  87
ATOM     87  C   UNL     1       7.198 -17.469   6.942  1.00  0.00     0.064 A 
ATOM     88  C   UNL     1       7.800 -18.503   6.210  1.00  0.00     0.173 A 
ATOM     89  C   UNL     1       6.836 -17.728   8.272  1.00  0.00     0.173 A 
ATOM     90  F   UNL     1       8.150 -18.308   4.930  1.00  0.00    -0.203 F 
ATOM     91  C   UNL     1       8.002 -19.758   6.779  1.00  0.00     0.198 A 
ATOM     92  C   UNL     1       7.064 -18.976   8.846  1.00  0.00     0.198 A 
ATOM     93  F   UNL     1       6.263 -16.771   9.016  1.00  0.00    -0.203 F 
ATOM     94  F   UNL     1       8.532 -20.746   6.045  1.00  0.00    -0.200 F 
ATOM     95  C   UNL     1       7.639 -19.992   8.096  1.00  0.00     0.200 A 
ATOM     96  F   UNL     1       6.721 -19.198  10.122  1.00  0.00    -0.200 F 
ATOM     97  F   UNL     1       7.833 -21.201   8.641  1.00  0.00    -0.200 F 
ENDBRANCH  64  87
ENDBRANCH  38  39
ENDBRANCH  31  33
ENDBRANCH  30  31
ENDBRANCH  29  30
ENDBRANCH   1  29
TORSDOF 15
