REMARK SMILES C=C1C(=O)O[C@@H]2[C@H]1[C@H](OC(=O)[C@]1(C)O[C@@H]1C)[C@@H](OC(C)=O)/C(C(=O)OCCOC(=O)c1ccc(-c3c4nc(c(-c5c(F)c(F)c(F)c(F)c5F)c5ccc([nH]5)c(-c5c(F)c(F)c(F)c(F)c5F)c5nc(c(-c6c(F)c(F)c(F)c(F)c6F)c6ccc3[nH]6)C=C5)C=C4)cc1)=C\[C@H]1O[C@H]1[C@@]1(C)O[C@@H]21
REMARK SMILES IDX 25 1 23 2 24 3 22 4 94 5 95 6 97 7 96 8 98 9 101 10 100 11
REMARK SMILES IDX 99 12 6 13 1 14 2 15 3 16 7 17 4 18 5 19 17 21 8 22 9 24
REMARK SMILES IDX 10 25 11 26 12 27 14 28 15 29 13 30 16 31 18 32 19 33 20 34
REMARK SMILES IDX 21 35 26 36 27 37 28 38 29 39 30 40 31 41 32 42 93 43 33 44
REMARK SMILES IDX 92 45 34 46 35 47 36 48 86 49 37 50 91 51 85 52 87 53 38 54
REMARK SMILES IDX 90 55 84 56 83 57 39 59 71 60 51 61 70 62 52 63 55 64 69 65
REMARK SMILES IDX 88 66 53 67 54 68 68 70 89 71 56 72 40 73 41 74 49 75 42 76
REMARK SMILES IDX 43 77 47 78 50 79 44 80 45 81 48 82 46 83 72 84 73 85 81 86
REMARK SMILES IDX 74 87 75 88 79 89 82 90 76 91 77 92 80 93 78 94 57 95 58 96
REMARK SMILES IDX 66 97 59 98 60 99 64 100 67 101 61 102 62 103 65 104 63 105
REMARK H PARENT 87 58 55 69
REMARK Flexibility Score: 90.00
ROOT
ATOM      1  O   UNL     1       1.835  -1.706  -8.711  1.00  0.00    -0.459 OA
ENDROOT
BRANCH   1   2
ATOM      2  C   UNL     1       2.457  -0.503  -8.657  1.00  0.00     0.337 C 
ATOM      3  O   UNL     1       2.878   0.052  -7.656  1.00  0.00    -0.246 OA
BRANCH   2   4
ATOM      4  C   UNL     1       2.192   0.257  -9.898  1.00  0.00     0.080 C 
ATOM      5  C   UNL     1       2.660  -0.251 -11.055  1.00  0.00     0.022 C 
BRANCH   5   6
ATOM      6  C   UNL     1       2.387   0.072 -12.462  1.00  0.00     0.174 C 
ATOM      7  C   UNL     1       2.904   1.329 -13.145  1.00  0.00     0.186 C 
ATOM      8  O   UNL     1       1.511   1.102 -12.907  1.00  0.00    -0.362 OA
BRANCH   7   9
ATOM      9  C   UNL     1       3.417   2.704 -12.695  1.00  0.00     0.125 C 
ATOM     10  C   UNL     1       2.772   3.919 -12.019  1.00  0.00     0.195 C 
ATOM     11  O   UNL     1       2.766   3.765 -13.436  1.00  0.00    -0.359 OA
ATOM     12  C   UNL     1       4.923   2.799 -12.784  1.00  0.00     0.048 C 
BRANCH  10  13
ATOM     13  C   UNL     1       1.407   3.992 -11.390  1.00  0.00     0.220 C 
ATOM     14  C   UNL     1       3.058   5.923  -9.279  1.00  0.00     0.021 C 
ATOM     15  C   UNL     1       1.921   5.354  -9.692  1.00  0.00     0.041 C 
ATOM     16  C   UNL     1       1.083   6.150 -10.619  1.00  0.00     0.334 C 
ATOM     17  C   UNL     1       1.397   3.960  -9.851  1.00  0.00     0.115 CG0
ATOM     18  O   UNL     1       0.713   7.294 -10.475  1.00  0.00    -0.247 OA
ATOM     19  O   UNL     1       0.822   5.307 -11.661  1.00  0.00    -0.455 OA
ATOM     20  G   UNL     1       1.879   2.733  -9.037  1.00  0.00     0.000 G0
ENDBRANCH  10  13
ENDBRANCH   7   9
ENDBRANCH   5   6
BRANCH   4  21
ATOM     21  C   UNL     1       1.238   1.370  -9.535  1.00  0.00     0.255 C 
BRANCH  21  22
ATOM     22  C   UNL     1       1.879   2.733  -9.037  1.00  0.00     0.234 CG0
ATOM     23  G   UNL     1       1.397   3.960  -9.851  1.00  0.00     0.000 G0
BRANCH  22  24
ATOM     24  O   UNL     1       3.312   2.695  -8.868  1.00  0.00    -0.455 OA
BRANCH  24  25
ATOM     25  C   UNL     1       4.006   3.145  -7.761  1.00  0.00     0.341 C 
ATOM     26  O   UNL     1       5.165   3.522  -7.908  1.00  0.00    -0.249 OA
BRANCH  25  27
ATOM     27  C   UNL     1       3.452   3.092  -6.360  1.00  0.00     0.188 C 
ATOM     28  O   UNL     1       2.109   3.512  -6.102  1.00  0.00    -0.354 OA
ATOM     29  C   UNL     1       3.116   4.396  -5.606  1.00  0.00     0.160 C 
ATOM     30  C   UNL     1       3.975   2.036  -5.425  1.00  0.00     0.058 C 
ATOM     31  C   UNL     1       3.022   5.768  -6.158  1.00  0.00     0.042 C 
ENDBRANCH  25  27
ENDBRANCH  24  25
ENDBRANCH  22  24
ENDBRANCH  21  22
BRANCH  21  32
ATOM     32  O   UNL     1       0.281   1.615 -10.575  1.00  0.00    -0.453 OA
BRANCH  32  33
ATOM     33  C   UNL     1      -0.694   0.703 -10.809  1.00  0.00     0.303 C 
ATOM     34  C   UNL     1      -1.481   1.120 -12.019  1.00  0.00     0.139 C 
ATOM     35  O   UNL     1      -0.921  -0.281 -10.123  1.00  0.00    -0.253 OA
ENDBRANCH  32  33
ENDBRANCH  21  32
ENDBRANCH   4  21
ENDBRANCH   2   4
ENDBRANCH   1   2
BRANCH   1  36
ATOM     36  C   UNL     1       1.238  -2.112  -7.466  1.00  0.00     0.275 C 
BRANCH  36  37
ATOM     37  C   UNL     1       2.126  -3.015  -6.609  1.00  0.00     0.275 C 
BRANCH  37  38
ATOM     38  O   UNL     1       3.317  -2.338  -6.173  1.00  0.00    -0.458 OA
BRANCH  38  39
ATOM     39  C   UNL     1       4.367  -2.449  -7.021  1.00  0.00     0.338 C 
ATOM     40  O   UNL     1       4.438  -3.162  -8.010  1.00  0.00    -0.246 OA
BRANCH  39  41
ATOM     41  C   UNL     1       5.393  -1.436  -6.699  1.00  0.00     0.060 A 
ATOM     42  C   UNL     1       5.964  -0.737  -7.773  1.00  0.00     0.016 A 
ATOM     43  C   UNL     1       5.810  -1.186  -5.390  1.00  0.00     0.016 A 
ATOM     44  C   UNL     1       6.987   0.179  -7.549  1.00  0.00     0.010 A 
ATOM     45  C   UNL     1       6.855  -0.283  -5.166  1.00  0.00     0.010 A 
ATOM     46  C   UNL     1       7.475   0.367  -6.251  1.00  0.00    -0.014 A 
BRANCH  46  47
ATOM     47  C   UNL     1       8.801   1.001  -6.066  1.00  0.00     0.031 A 
ATOM     48  C   UNL     1      10.000   0.096  -6.055  1.00  0.00     0.074 A 
ATOM     49  C   UNL     1       8.951   2.330  -5.945  1.00  0.00     0.049 A 
ATOM     50  N   UNL     1      11.261   0.383  -5.866  1.00  0.00    -0.248 NA
ATOM     51  C   UNL     1       9.736  -1.334  -6.294  1.00  0.00     0.031 C 
ATOM     52  C   UNL     1       7.874   3.307  -6.016  1.00  0.00     0.029 A 
ATOM     53  N   UNL     1      10.076   3.086  -5.732  1.00  0.00    -0.354 N 
ATOM     54  C   UNL     1      11.936  -0.826  -5.964  1.00  0.00     0.074 A 
ATOM     55  C   UNL     1      10.948  -1.854  -6.197  1.00  0.00     0.031 C 
ATOM     56  C   UNL     1       8.380   4.538  -5.830  1.00  0.00     0.029 A 
ATOM     57  C   UNL     1       9.817   4.429  -5.597  1.00  0.00     0.049 A 
ATOM     58  H   UNL     1      10.982   2.704  -5.680  1.00  0.00     0.167 HD
ATOM     59  C   UNL     1      13.266  -1.056  -5.873  1.00  0.00     0.037 A 
ATOM     60  C   UNL     1      10.649   5.446  -5.301  1.00  0.00     0.037 A 
ATOM     61  C   UNL     1      14.239  -0.031  -5.616  1.00  0.00     0.049 A 
ATOM     62  C   UNL     1      12.116   5.152  -5.116  1.00  0.00     0.074 A 
ATOM     63  C   UNL     1      15.608  -0.156  -5.471  1.00  0.00     0.029 A 
ATOM     64  N   UNL     1      13.938   1.314  -5.455  1.00  0.00    -0.354 N 
ATOM     65  N   UNL     1      12.751   4.008  -5.209  1.00  0.00    -0.248 NA
ATOM     66  C   UNL     1      12.985   6.293  -4.796  1.00  0.00     0.031 C 
ATOM     67  C   UNL     1      16.131   1.109  -5.177  1.00  0.00     0.029 A 
ATOM     68  C   UNL     1      15.095   2.030  -5.197  1.00  0.00     0.049 A 
ATOM     69  H   UNL     1      13.035   1.702  -5.516  1.00  0.00     0.167 HD
ATOM     70  C   UNL     1      14.093   4.295  -5.002  1.00  0.00     0.074 A 
ATOM     71  C   UNL     1      14.182   5.725  -4.782  1.00  0.00     0.031 C 
ATOM     72  C   UNL     1      15.158   3.456  -5.001  1.00  0.00     0.037 A 
BRANCH  59  73
ATOM     73  C   UNL     1      13.720  -2.478  -6.009  1.00  0.00     0.064 A 
ATOM     74  C   UNL     1      13.672  -3.153  -7.239  1.00  0.00     0.173 A 
ATOM     75  C   UNL     1      14.187  -3.183  -4.890  1.00  0.00     0.173 A 
ATOM     76  F   UNL     1      13.206  -2.532  -8.333  1.00  0.00    -0.203 F 
ATOM     77  C   UNL     1      14.047  -4.491  -7.336  1.00  0.00     0.198 A 
ATOM     78  C   UNL     1      14.589  -4.511  -4.997  1.00  0.00     0.198 A 
ATOM     79  F   UNL     1      14.244  -2.585  -3.691  1.00  0.00    -0.203 F 
ATOM     80  F   UNL     1      13.936  -5.133  -8.507  1.00  0.00    -0.200 F 
ATOM     81  C   UNL     1      14.510  -5.166  -6.217  1.00  0.00     0.200 A 
ATOM     82  F   UNL     1      15.040  -5.161  -3.916  1.00  0.00    -0.200 F 
ATOM     83  F   UNL     1      14.868  -6.454  -6.310  1.00  0.00    -0.200 F 
ENDBRANCH  59  73
BRANCH  60  84
ATOM     84  C   UNL     1      10.121   6.828  -5.154  1.00  0.00     0.064 A 
ATOM     85  C   UNL     1      10.463   7.838  -6.064  1.00  0.00     0.173 A 
ATOM     86  C   UNL     1       9.283   7.176  -4.083  1.00  0.00     0.173 A 
ATOM     87  F   UNL     1      11.282   7.564  -7.090  1.00  0.00    -0.203 F 
ATOM     88  C   UNL     1      10.007   9.145  -5.898  1.00  0.00     0.198 A 
ATOM     89  C   UNL     1       8.804   8.476  -3.934  1.00  0.00     0.198 A 
ATOM     90  F   UNL     1       8.926   6.250  -3.181  1.00  0.00    -0.203 F 
ATOM     91  F   UNL     1      10.392  10.101  -6.754  1.00  0.00    -0.200 F 
ATOM     92  C   UNL     1       9.174   9.461  -4.836  1.00  0.00     0.200 A 
ATOM     93  F   UNL     1       7.990   8.774  -2.912  1.00  0.00    -0.200 F 
ATOM     94  F   UNL     1       8.736  10.718  -4.675  1.00  0.00    -0.200 F 
ENDBRANCH  60  84
BRANCH  72  95
ATOM     95  C   UNL     1      16.515   4.069  -4.818  1.00  0.00     0.064 A 
ATOM     96  C   UNL     1      16.936   4.586  -3.585  1.00  0.00     0.173 A 
ATOM     97  C   UNL     1      17.419   4.105  -5.891  1.00  0.00     0.173 A 
ATOM     98  F   UNL     1      16.104   4.586  -2.533  1.00  0.00    -0.203 F 
ATOM     99  C   UNL     1      18.203   5.146  -3.440  1.00  0.00     0.198 A 
ATOM    100  C   UNL     1      18.696   4.636  -5.734  1.00  0.00     0.198 A 
ATOM    101  F   UNL     1      17.068   3.615  -7.089  1.00  0.00    -0.203 F 
ATOM    102  F   UNL     1      18.566   5.682  -2.267  1.00  0.00    -0.200 F 
ATOM    103  C   UNL     1      19.083   5.164  -4.512  1.00  0.00     0.200 A 
ATOM    104  F   UNL     1      19.550   4.638  -6.767  1.00  0.00    -0.200 F 
ATOM    105  F   UNL     1      20.303   5.699  -4.369  1.00  0.00    -0.200 F 
ENDBRANCH  72  95
ENDBRANCH  46  47
ENDBRANCH  39  41
ENDBRANCH  38  39
ENDBRANCH  37  38
ENDBRANCH  36  37
ENDBRANCH   1  36
TORSDOF 16
