REMARK SMILES O=C(CSC(=S)NC(=O)c1ccc([N+](=O)[O-])cc1)OCCOC(=O)c1ccc(-c2c3nc(c(-c4c(F)c(F)c(F)c(F)c4F)c4ccc([nH]4)c(-c4c(F)c(F)c(F)c(F)c4F)c4nc(c(-c5c(F)c(F)c(F)c(F)c5F)c5ccc2[nH]5)C=C4)C=C3)cc1
REMARK SMILES IDX 19 1 2 2 1 3 3 4 4 5 5 6 6 7 7 8 8 9 9 11 10 12 11 13 18 14
REMARK SMILES IDX 12 15 17 16 13 17 14 18 15 19 16 20 20 21 21 22 22 23 23 24
REMARK SMILES IDX 24 25 25 26 26 27 87 28 27 29 86 30 28 31 29 32 30 33 80 34
REMARK SMILES IDX 31 35 85 36 79 37 81 38 32 39 84 40 78 41 77 42 33 44 65 45
REMARK SMILES IDX 45 46 64 47 46 48 49 49 63 50 82 51 47 52 48 53 62 55 83 56
REMARK SMILES IDX 50 57 34 58 35 59 43 60 36 61 37 62 41 63 44 64 38 65 39 66
REMARK SMILES IDX 42 67 40 68 66 69 67 70 75 71 68 72 69 73 73 74 76 75 70 76
REMARK SMILES IDX 71 77 74 78 72 79 51 80 52 81 60 82 53 83 54 84 58 85 61 86
REMARK SMILES IDX 55 87 56 88 59 89 57 90
REMARK H PARENT 7 10 81 43 49 54
REMARK Flexibility Score: inf
ROOT
ATOM      1  O   UNL     1       3.059  -0.866  -0.974  1.00  0.00    -0.461 OA
ENDROOT
BRANCH   1   2
ATOM      2  C   UNL     1       2.306  -0.578   0.114  1.00  0.00     0.316 C 
ATOM      3  O   UNL     1       1.079  -0.646   0.058  1.00  0.00    -0.251 OA
BRANCH   2   4
ATOM      4  C   UNL     1       2.994  -0.188   1.400  1.00  0.00     0.199 C 
BRANCH   4   5
ATOM      5  S   UNL     1       3.541  -1.671   2.286  1.00  0.00    -0.085 SA
BRANCH   5   6
ATOM      6  C   UNL     1       3.046  -1.300   3.918  1.00  0.00     0.141 C 
ATOM      7  S   UNL     1       1.452  -1.166   4.402  1.00  0.00    -0.052 S 
BRANCH   6   8
ATOM      8  N   UNL     1       4.035  -1.273   4.892  1.00  0.00    -0.307 N 
ATOM      9  C   UNL     1       5.423  -1.321   4.852  1.00  0.00     0.256 C 
ATOM     10  H   UNL     1       3.677  -1.204   5.806  1.00  0.00     0.171 HD
ATOM     11  O   UNL     1       6.059  -1.999   5.652  1.00  0.00    -0.269 OA
BRANCH   9  12
ATOM     12  C   UNL     1       6.138  -0.504   3.844  1.00  0.00     0.040 A 
ATOM     13  C   UNL     1       7.249  -1.049   3.189  1.00  0.00     0.021 A 
ATOM     14  C   UNL     1       5.748   0.821   3.596  1.00  0.00     0.021 A 
ATOM     15  C   UNL     1       7.946  -0.288   2.246  1.00  0.00     0.086 A 
ATOM     16  C   UNL     1       6.443   1.587   2.657  1.00  0.00     0.086 A 
ATOM     17  C   UNL     1       7.535   1.026   1.978  1.00  0.00     0.269 A 
BRANCH  17  18
ATOM     18  N   UNL     1       8.245   1.821   0.967  1.00  0.00     0.062 N 
ATOM     19  O   UNL     1       9.261   1.330   0.458  1.00  0.00    -0.258 OA
ATOM     20  O   UNL     1       7.765   2.923   0.666  1.00  0.00    -0.258 OA
ENDBRANCH  17  18
ENDBRANCH   9  12
ENDBRANCH   6   8
ENDBRANCH   5   6
ENDBRANCH   4   5
ENDBRANCH   2   4
ENDBRANCH   1   2
BRANCH   1  21
ATOM     21  C   UNL     1       4.476  -0.615  -1.091  1.00  0.00     0.274 C 
BRANCH  21  22
ATOM     22  C   UNL     1       4.750   0.754  -1.719  1.00  0.00     0.275 C 
BRANCH  22  23
ATOM     23  O   UNL     1       4.229   1.812  -0.891  1.00  0.00    -0.458 OA
BRANCH  23  24
ATOM     24  C   UNL     1       3.015   2.286  -1.269  1.00  0.00     0.338 C 
ATOM     25  O   UNL     1       2.353   1.927  -2.229  1.00  0.00    -0.246 OA
BRANCH  24  26
ATOM     26  C   UNL     1       2.509   3.220  -0.248  1.00  0.00     0.060 A 
ATOM     27  C   UNL     1       1.215   3.019   0.245  1.00  0.00     0.016 A 
ATOM     28  C   UNL     1       3.266   4.316   0.176  1.00  0.00     0.016 A 
ATOM     29  C   UNL     1       0.662   3.937   1.139  1.00  0.00     0.010 A 
ATOM     30  C   UNL     1       2.707   5.236   1.072  1.00  0.00     0.010 A 
ATOM     31  C   UNL     1       1.391   5.068   1.538  1.00  0.00    -0.014 A 
BRANCH  31  32
ATOM     32  C   UNL     1       0.731   6.104   2.375  1.00  0.00     0.031 A 
ATOM     33  C   UNL     1       0.248   7.383   1.745  1.00  0.00     0.074 A 
ATOM     34  C   UNL     1       0.515   5.883   3.684  1.00  0.00     0.049 A 
ATOM     35  N   UNL     1      -0.401   8.383   2.289  1.00  0.00    -0.248 NA
ATOM     36  C   UNL     1       0.533   7.560   0.313  1.00  0.00     0.031 C 
ATOM     37  C   UNL     1       0.923   4.684   4.415  1.00  0.00     0.029 A 
ATOM     38  N   UNL     1      -0.105   6.659   4.632  1.00  0.00    -0.354 N 
ATOM     39  C   UNL     1      -0.622   9.295   1.264  1.00  0.00     0.074 A 
ATOM     40  C   UNL     1       0.013   8.757   0.079  1.00  0.00     0.031 C 
ATOM     41  C   UNL     1       0.541   4.804   5.697  1.00  0.00     0.029 A 
ATOM     42  C   UNL     1      -0.118   6.095   5.884  1.00  0.00     0.049 A 
ATOM     43  H   UNL     1      -0.504   7.537   4.433  1.00  0.00     0.167 HD
ATOM     44  C   UNL     1      -1.311  10.462   1.300  1.00  0.00     0.037 A 
ATOM     45  C   UNL     1      -0.599   6.569   7.050  1.00  0.00     0.037 A 
ATOM     46  C   UNL     1      -1.930  11.010   2.481  1.00  0.00     0.049 A 
ATOM     47  C   UNL     1      -1.302   7.903   7.075  1.00  0.00     0.074 A 
ATOM     48  C   UNL     1      -2.652  12.184   2.612  1.00  0.00     0.029 A 
ATOM     49  N   UNL     1      -1.893  10.425   3.738  1.00  0.00    -0.354 N 
ATOM     50  N   UNL     1      -1.547   8.732   6.090  1.00  0.00    -0.248 NA
ATOM     51  C   UNL     1      -1.812   8.357   8.377  1.00  0.00     0.031 C 
ATOM     52  C   UNL     1      -3.003  12.338   3.958  1.00  0.00     0.029 A 
ATOM     53  C   UNL     1      -2.557  11.228   4.655  1.00  0.00     0.049 A 
ATOM     54  H   UNL     1      -1.460   9.567   3.949  1.00  0.00     0.167 HD
ATOM     55  C   UNL     1      -2.261   9.788   6.646  1.00  0.00     0.074 A 
ATOM     56  C   UNL     1      -2.437   9.477   8.048  1.00  0.00     0.031 C 
ATOM     57  C   UNL     1      -2.725  10.915   6.051  1.00  0.00     0.037 A 
BRANCH  44  58
ATOM     58  C   UNL     1      -1.434  11.237   0.019  1.00  0.00     0.064 A 
ATOM     59  C   UNL     1      -2.233  10.780  -1.041  1.00  0.00     0.173 A 
ATOM     60  C   UNL     1      -0.796  12.478  -0.131  1.00  0.00     0.173 A 
ATOM     61  F   UNL     1      -2.857   9.595  -0.954  1.00  0.00    -0.203 F 
ATOM     62  C   UNL     1      -2.372  11.526  -2.208  1.00  0.00     0.198 A 
ATOM     63  C   UNL     1      -0.963  13.236  -1.287  1.00  0.00     0.198 A 
ATOM     64  F   UNL     1      -0.026  12.966   0.853  1.00  0.00    -0.203 F 
ATOM     65  F   UNL     1      -3.108  11.050  -3.222  1.00  0.00    -0.200 F 
ATOM     66  C   UNL     1      -1.745  12.757  -2.327  1.00  0.00     0.200 A 
ATOM     67  F   UNL     1      -0.369  14.433  -1.393  1.00  0.00    -0.200 F 
ATOM     68  F   UNL     1      -1.892  13.481  -3.445  1.00  0.00    -0.200 F 
ENDBRANCH  44  58
BRANCH  45  69
ATOM     69  C   UNL     1      -0.425   5.786   8.305  1.00  0.00     0.064 A 
ATOM     70  C   UNL     1      -1.525   5.267   9.002  1.00  0.00     0.173 A 
ATOM     71  C   UNL     1       0.849   5.588   8.859  1.00  0.00     0.173 A 
ATOM     72  F   UNL     1      -2.766   5.449   8.527  1.00  0.00    -0.203 F 
ATOM     73  C   UNL     1      -1.361   4.614  10.222  1.00  0.00     0.198 A 
ATOM     74  C   UNL     1       1.014   4.902  10.060  1.00  0.00     0.198 A 
ATOM     75  F   UNL     1       1.937   6.061   8.232  1.00  0.00    -0.203 F 
ATOM     76  F   UNL     1      -2.435   4.190  10.902  1.00  0.00    -0.200 F 
ATOM     77  C   UNL     1      -0.091   4.428  10.748  1.00  0.00     0.200 A 
ATOM     78  F   UNL     1       2.245   4.711  10.555  1.00  0.00    -0.200 F 
ATOM     79  F   UNL     1       0.065   3.804  11.923  1.00  0.00    -0.200 F 
ENDBRANCH  45  69
BRANCH  57  80
ATOM     80  C   UNL     1      -3.492  11.882   6.913  1.00  0.00     0.064 A 
ATOM     81  C   UNL     1      -2.873  12.605   7.945  1.00  0.00     0.173 A 
ATOM     82  C   UNL     1      -4.865  12.089   6.705  1.00  0.00     0.173 A 
ATOM     83  F   UNL     1      -1.565  12.439   8.196  1.00  0.00    -0.203 F 
ATOM     84  C   UNL     1      -3.608  13.457   8.766  1.00  0.00     0.198 A 
ATOM     85  C   UNL     1      -5.589  12.972   7.503  1.00  0.00     0.198 A 
ATOM     86  F   UNL     1      -5.508  11.435   5.726  1.00  0.00    -0.203 F 
ATOM     87  F   UNL     1      -3.008  14.078   9.792  1.00  0.00    -0.200 F 
ATOM     88  C   UNL     1      -4.963  13.643   8.542  1.00  0.00     0.200 A 
ATOM     89  F   UNL     1      -6.895  13.164   7.272  1.00  0.00    -0.200 F 
ATOM     90  F   UNL     1      -5.670  14.461   9.335  1.00  0.00    -0.200 F 
ENDBRANCH  57  80
ENDBRANCH  31  32
ENDBRANCH  24  26
ENDBRANCH  23  24
ENDBRANCH  22  23
ENDBRANCH  21  22
ENDBRANCH   1  21
TORSDOF 16
