REMARK SMILES C[C@H](NC(=O)c1ccc(NC(N)=O)cc1)C(=O)OCCOC(=O)c1ccc(-c2c3nc(c(-c4c(F)c(F)c(F)c(F)c4F)c4ccc([nH]4)c(-c4c(F)c(F)c(F)c(F)c4F)c4nc(c(-c5c(F)c(F)c(F)c(F)c5F)c5ccc2[nH]5)C=C4)C=C3)cc1
REMARK SMILES IDX 19 1 18 2 16 3 17 4 2 5 1 6 3 7 4 8 5 10 6 11 7 12 15 13
REMARK SMILES IDX 8 14 14 15 9 16 10 17 11 18 12 20 13 21 20 24 21 25 22 26
REMARK SMILES IDX 23 27 24 28 25 29 86 30 26 31 85 32 27 33 28 34 29 35 79 36
REMARK SMILES IDX 30 37 84 38 78 39 80 40 31 41 83 42 77 43 76 44 32 46 64 47
REMARK SMILES IDX 44 48 63 49 45 50 48 51 62 52 81 53 46 54 47 55 61 57 82 58
REMARK SMILES IDX 49 59 33 60 34 61 42 62 35 63 36 64 40 65 43 66 37 67 38 68
REMARK SMILES IDX 41 69 39 70 65 71 66 72 74 73 67 74 68 75 72 76 75 77 69 78
REMARK SMILES IDX 70 79 73 80 71 81 50 82 51 83 59 84 52 85 53 86 57 87 60 88
REMARK SMILES IDX 54 89 55 90 58 91 56 92
REMARK H PARENT 3 9 10 19 12 22 12 23 80 45 48 56
REMARK Flexibility Score: inf
ROOT
ATOM      1  C   UNL     1      -2.880   0.523  -0.793  1.00  0.00     0.274 C 
ENDROOT
BRANCH   1   2
ATOM      2  O   UNL     1      -1.446   0.619  -0.626  1.00  0.00    -0.461 OA
BRANCH   2   3
ATOM      3  C   UNL     1      -0.958   1.888  -0.568  1.00  0.00     0.328 C 
ATOM      4  O   UNL     1      -1.652   2.902  -0.572  1.00  0.00    -0.250 OA
BRANCH   3   5
ATOM      5  C   UNL     1       0.574   1.965  -0.632  1.00  0.00     0.189 C 
ATOM      6  C   UNL     1       0.966   2.377  -2.049  1.00  0.00     0.043 C 
BRANCH   5   7
ATOM      7  N   UNL     1       1.341   0.768  -0.259  1.00  0.00    -0.339 N 
ATOM      8  C   UNL     1       2.589   0.759   0.341  1.00  0.00     0.251 C 
ATOM      9  H   UNL     1       0.931  -0.106  -0.453  1.00  0.00     0.164 HD
ATOM     10  O   UNL     1       3.320  -0.221   0.290  1.00  0.00    -0.269 OA
BRANCH   8  11
ATOM     11  C   UNL     1       3.000   1.962   1.102  1.00  0.00     0.039 A 
ATOM     12  C   UNL     1       4.122   2.720   0.763  1.00  0.00     0.016 A 
ATOM     13  C   UNL     1       2.184   2.365   2.154  1.00  0.00     0.016 A 
ATOM     14  C   UNL     1       4.361   3.945   1.417  1.00  0.00     0.027 A 
ATOM     15  C   UNL     1       2.408   3.591   2.769  1.00  0.00     0.027 A 
ATOM     16  C   UNL     1       3.479   4.402   2.397  1.00  0.00     0.042 A 
BRANCH  16  17
ATOM     17  N   UNL     1       3.549   5.634   3.067  1.00  0.00    -0.308 N 
ATOM     18  C   UNL     1       4.460   6.638   2.919  1.00  0.00     0.316 C 
ATOM     19  H   UNL     1       2.844   5.795   3.735  1.00  0.00     0.171 HD
ATOM     20  N   UNL     1       4.186   7.690   3.745  1.00  0.00    -0.351 N 
ATOM     21  O   UNL     1       5.417   6.678   2.161  1.00  0.00    -0.249 OA
ATOM     22  H   UNL     1       3.412   7.650   4.353  1.00  0.00     0.161 HD
ATOM     23  H   UNL     1       4.761   8.489   3.732  1.00  0.00     0.161 HD
ENDBRANCH  16  17
ENDBRANCH   8  11
ENDBRANCH   5   7
ENDBRANCH   3   5
ENDBRANCH   2   3
ENDBRANCH   1   2
BRANCH   1  24
ATOM     24  C   UNL     1      -3.550  -0.090   0.431  1.00  0.00     0.275 C 
BRANCH  24  25
ATOM     25  O   UNL     1      -3.244   0.690   1.601  1.00  0.00    -0.458 OA
BRANCH  25  26
ATOM     26  C   UNL     1      -2.692   0.000   2.620  1.00  0.00     0.338 C 
ATOM     27  O   UNL     1      -2.468  -1.202   2.678  1.00  0.00    -0.246 OA
BRANCH  26  28
ATOM     28  C   UNL     1      -2.301   0.915   3.700  1.00  0.00     0.060 A 
ATOM     29  C   UNL     1      -1.283   1.825   3.452  1.00  0.00     0.016 A 
ATOM     30  C   UNL     1      -2.778   0.732   5.001  1.00  0.00     0.016 A 
ATOM     31  C   UNL     1      -0.668   2.455   4.530  1.00  0.00     0.010 A 
ATOM     32  C   UNL     1      -2.197   1.435   6.070  1.00  0.00     0.010 A 
ATOM     33  C   UNL     1      -1.085   2.262   5.853  1.00  0.00    -0.014 A 
BRANCH  33  34
ATOM     34  C   UNL     1      -0.243   2.812   6.964  1.00  0.00     0.031 A 
ATOM     35  C   UNL     1       0.428   1.869   7.937  1.00  0.00     0.074 A 
ATOM     36  C   UNL     1       0.063   4.126   7.034  1.00  0.00     0.049 A 
ATOM     37  N   UNL     1       1.120   2.142   9.017  1.00  0.00    -0.248 NA
ATOM     38  C   UNL     1       0.313   0.431   7.651  1.00  0.00     0.031 C 
ATOM     39  C   UNL     1      -0.402   5.157   6.106  1.00  0.00     0.029 A 
ATOM     40  N   UNL     1       0.875   4.815   7.907  1.00  0.00    -0.354 N 
ATOM     41  C   UNL     1       1.461   0.914   9.572  1.00  0.00     0.074 A 
ATOM     42  C   UNL     1       0.920  -0.106   8.699  1.00  0.00     0.031 C 
ATOM     43  C   UNL     1       0.179   6.328   6.418  1.00  0.00     0.029 A 
ATOM     44  C   UNL     1       0.984   6.156   7.625  1.00  0.00     0.049 A 
ATOM     45  H   UNL     1       1.335   4.386   8.664  1.00  0.00     0.167 HD
ATOM     46  C   UNL     1       2.152   0.654  10.708  1.00  0.00     0.037 A 
ATOM     47  C   UNL     1       1.626   7.144   8.279  1.00  0.00     0.037 A 
ATOM     48  C   UNL     1       2.758   1.654  11.548  1.00  0.00     0.049 A 
ATOM     49  C   UNL     1       2.344   6.840   9.569  1.00  0.00     0.074 A 
ATOM     50  C   UNL     1       3.442   1.485  12.740  1.00  0.00     0.029 A 
ATOM     51  N   UNL     1       2.778   3.010  11.267  1.00  0.00    -0.354 N 
ATOM     52  N   UNL     1       2.551   5.685  10.149  1.00  0.00    -0.248 NA
ATOM     53  C   UNL     1       2.886   7.990  10.310  1.00  0.00     0.031 C 
ATOM     54  C   UNL     1       3.852   2.744  13.195  1.00  0.00     0.029 A 
ATOM     55  C   UNL     1       3.454   3.691  12.267  1.00  0.00     0.049 A 
ATOM     56  H   UNL     1       2.372   3.429  10.474  1.00  0.00     0.167 HD
ATOM     57  C   UNL     1       3.250   5.966  11.317  1.00  0.00     0.074 A 
ATOM     58  C   UNL     1       3.459   7.398  11.348  1.00  0.00     0.031 C 
ATOM     59  C   UNL     1       3.667   5.114  12.285  1.00  0.00     0.037 A 
BRANCH  46  60
ATOM     60  C   UNL     1       2.233  -0.776  11.152  1.00  0.00     0.064 A 
ATOM     61  C   UNL     1       3.089  -1.703  10.542  1.00  0.00     0.173 A 
ATOM     62  C   UNL     1       1.446  -1.215  12.228  1.00  0.00     0.173 A 
ATOM     63  F   UNL     1       3.849  -1.335   9.500  1.00  0.00    -0.203 F 
ATOM     64  C   UNL     1       3.135  -3.026  10.978  1.00  0.00     0.198 A 
ATOM     65  C   UNL     1       1.512  -2.531  12.676  1.00  0.00     0.198 A 
ATOM     66  F   UNL     1       0.615  -0.364  12.848  1.00  0.00    -0.203 F 
ATOM     67  F   UNL     1       3.927  -3.908  10.354  1.00  0.00    -0.200 F 
ATOM     68  C   UNL     1       2.351  -3.437  12.046  1.00  0.00     0.200 A 
ATOM     69  F   UNL     1       0.760  -2.922  13.714  1.00  0.00    -0.200 F 
ATOM     70  F   UNL     1       2.397  -4.709  12.464  1.00  0.00    -0.200 F 
ENDBRANCH  46  60
BRANCH  47  71
ATOM     71  C   UNL     1       1.590   8.539   7.763  1.00  0.00     0.064 A 
ATOM     72  C   UNL     1       2.757   9.165   7.302  1.00  0.00     0.173 A 
ATOM     73  C   UNL     1       0.404   9.288   7.754  1.00  0.00     0.173 A 
ATOM     74  F   UNL     1       3.918   8.494   7.298  1.00  0.00    -0.203 F 
ATOM     75  C   UNL     1       2.743  10.490   6.870  1.00  0.00     0.198 A 
ATOM     76  C   UNL     1       0.384  10.602   7.292  1.00  0.00     0.198 A 
ATOM     77  F   UNL     1      -0.740   8.736   8.184  1.00  0.00    -0.203 F 
ATOM     78  F   UNL     1       3.881  11.072   6.471  1.00  0.00    -0.200 F 
ATOM     79  C   UNL     1       1.556  11.206   6.861  1.00  0.00     0.200 A 
ATOM     80  F   UNL     1      -0.769  11.282   7.265  1.00  0.00    -0.200 F 
ATOM     81  F   UNL     1       1.540  12.476   6.437  1.00  0.00    -0.200 F 
ENDBRANCH  47  71
BRANCH  59  82
ATOM     82  C   UNL     1       4.411   5.702  13.448  1.00  0.00     0.064 A 
ATOM     83  C   UNL     1       3.750   6.440  14.441  1.00  0.00     0.173 A 
ATOM     84  C   UNL     1       5.792   5.499  13.588  1.00  0.00     0.173 A 
ATOM     85  F   UNL     1       2.433   6.676  14.342  1.00  0.00    -0.203 F 
ATOM     86  C   UNL     1       4.450   6.974  15.520  1.00  0.00     0.198 A 
ATOM     87  C   UNL     1       6.484   6.014  14.681  1.00  0.00     0.198 A 
ATOM     88  F   UNL     1       6.468   4.797  12.667  1.00  0.00    -0.203 F 
ATOM     89  F   UNL     1       3.806   7.713  16.434  1.00  0.00    -0.200 F 
ATOM     90  C   UNL     1       5.814   6.756  15.642  1.00  0.00     0.200 A 
ATOM     91  F   UNL     1       7.801   5.796  14.802  1.00  0.00    -0.200 F 
ATOM     92  F   UNL     1       6.485   7.269  16.682  1.00  0.00    -0.200 F 
ENDBRANCH  59  82
ENDBRANCH  33  34
ENDBRANCH  26  28
ENDBRANCH  25  26
ENDBRANCH  24  25
ENDBRANCH   1  24
TORSDOF 14
