REMARK SMILES O=C(CC1(C[S@@](=O)C[C@H]2Cc3ccccc3S2)CC1)OCCOC(=O)c1ccc(-c2c3nc(c(-c4c(F)c(F)c(F)c(F)c4F)c4ccc([nH]4)c(-c4c(F)c(F)c(F)c(F)c4F)c4nc(c(-c5c(F)c(F)c(F)c(F)c5F)c5ccc2[nH]5)C=C4)C=C3)cc1
REMARK SMILES IDX 20 1 2 2 1 3 3 4 4 5 18 6 19 7 5 8 6 9 7 10 8 11 9 12 10 13
REMARK SMILES IDX 17 14 11 15 16 16 12 17 15 18 13 19 14 20 21 21 22 22 23 23
REMARK SMILES IDX 24 24 25 25 26 26 27 27 88 28 28 29 87 30 29 31 30 32 31 33
REMARK SMILES IDX 81 34 32 35 86 36 80 37 82 38 33 39 85 40 79 41 78 42 34 44
REMARK SMILES IDX 66 45 46 46 65 47 47 48 50 49 64 50 83 51 48 52 49 53 63 55
REMARK SMILES IDX 84 56 51 57 35 58 36 59 44 60 37 61 38 62 42 63 45 64 39 65
REMARK SMILES IDX 40 66 43 67 41 68 67 69 68 70 76 71 69 72 70 73 74 74 77 75
REMARK SMILES IDX 71 76 72 77 75 78 73 79 52 80 53 81 61 82 54 83 55 84 59 85
REMARK SMILES IDX 62 86 56 87 57 88 60 89 58 90
REMARK H PARENT 82 43 50 54
REMARK Flexibility Score: inf
ROOT
ATOM      1  O   UNL     1       5.249  -0.167   0.021  1.00  0.00    -0.462 OA
ENDROOT
BRANCH   1   2
ATOM      2  C   UNL     1       6.498  -0.546   0.318  1.00  0.00     0.306 C 
ATOM      3  O   UNL     1       6.827  -1.705   0.541  1.00  0.00    -0.252 OA
BRANCH   2   4
ATOM      4  C   UNL     1       7.360   0.643   0.676  1.00  0.00     0.130 C 
BRANCH   4   5
ATOM      5  C   UNL     1       7.474   1.977  -0.081  1.00  0.00    -0.008 C 
ATOM      6  C   UNL     1       8.553   2.809   0.654  1.00  0.00     0.009 C 
ATOM      7  C   UNL     1       8.768   2.441  -0.759  1.00  0.00     0.009 C 
BRANCH   5   8
ATOM      8  C   UNL     1       6.212   2.769  -0.422  1.00  0.00     0.112 C 
BRANCH   8   9
ATOM      9  S   UNL     1       4.759   2.033  -1.149  1.00  0.00     0.023 S 
ATOM     10  O   UNL     1       3.577   2.917  -0.888  1.00  0.00    -0.260 OA
BRANCH   9  11
ATOM     11  C   UNL     1       4.978   1.825  -2.909  1.00  0.00     0.120 C 
BRANCH  11  12
ATOM     12  C   UNL     1       5.871   0.735  -3.528  1.00  0.00     0.068 C 
ATOM     13  C   UNL     1       7.391   0.934  -3.436  1.00  0.00     0.052 C 
ATOM     14  S   UNL     1       5.503  -1.017  -3.132  1.00  0.00    -0.121 SA
ATOM     15  C   UNL     1       8.028  -0.299  -2.863  1.00  0.00    -0.033 A 
ATOM     16  C   UNL     1       7.183  -1.396  -2.722  1.00  0.00     0.011 A 
ATOM     17  C   UNL     1       9.370  -0.408  -2.497  1.00  0.00     0.005 A 
ATOM     18  C   UNL     1       7.658  -2.603  -2.217  1.00  0.00     0.015 A 
ATOM     19  C   UNL     1       9.837  -1.589  -1.915  1.00  0.00     0.000 A 
ATOM     20  C   UNL     1       8.985  -2.688  -1.785  1.00  0.00     0.001 A 
ENDBRANCH  11  12
ENDBRANCH   9  11
ENDBRANCH   8   9
ENDBRANCH   5   8
ENDBRANCH   4   5
ENDBRANCH   2   4
ENDBRANCH   1   2
BRANCH   1  21
ATOM     21  C   UNL     1       4.113  -0.995   0.317  1.00  0.00     0.274 C 
BRANCH  21  22
ATOM     22  C   UNL     1       3.569  -0.559   1.681  1.00  0.00     0.275 C 
BRANCH  22  23
ATOM     23  O   UNL     1       4.631  -0.273   2.612  1.00  0.00    -0.458 OA
BRANCH  23  24
ATOM     24  C   UNL     1       5.278  -1.343   3.128  1.00  0.00     0.338 C 
ATOM     25  O   UNL     1       4.934  -2.510   3.036  1.00  0.00    -0.246 OA
BRANCH  24  26
ATOM     26  C   UNL     1       6.577  -0.875   3.679  1.00  0.00     0.060 A 
ATOM     27  C   UNL     1       6.703   0.381   4.287  1.00  0.00     0.016 A 
ATOM     28  C   UNL     1       7.712  -1.679   3.505  1.00  0.00     0.016 A 
ATOM     29  C   UNL     1       7.951   0.810   4.746  1.00  0.00     0.010 A 
ATOM     30  C   UNL     1       8.957  -1.257   3.979  1.00  0.00     0.010 A 
ATOM     31  C   UNL     1       9.079  -0.023   4.633  1.00  0.00    -0.014 A 
BRANCH  31  32
ATOM     32  C   UNL     1      10.300   0.297   5.413  1.00  0.00     0.031 A 
ATOM     33  C   UNL     1      11.562   0.800   4.787  1.00  0.00     0.074 A 
ATOM     34  C   UNL     1      10.241   0.096   6.743  1.00  0.00     0.049 A 
ATOM     35  N   UNL     1      12.652   1.228   5.376  1.00  0.00    -0.248 NA
ATOM     36  C   UNL     1      11.622   0.818   3.321  1.00  0.00     0.031 C 
ATOM     37  C   UNL     1       9.081  -0.451   7.450  1.00  0.00     0.029 A 
ATOM     38  N   UNL     1      11.157   0.331   7.736  1.00  0.00    -0.354 N 
ATOM     39  C   UNL     1      13.520   1.593   4.357  1.00  0.00     0.074 A 
ATOM     40  C   UNL     1      12.848   1.285   3.109  1.00  0.00     0.031 C 
ATOM     41  C   UNL     1       9.337  -0.470   8.764  1.00  0.00     0.029 A 
ATOM     42  C   UNL     1      10.688   0.034   8.991  1.00  0.00     0.049 A 
ATOM     43  H   UNL     1      12.062   0.679   7.565  1.00  0.00     0.167 HD
ATOM     44  C   UNL     1      14.753   2.146   4.464  1.00  0.00     0.037 A 
ATOM     45  C   UNL     1      11.272   0.161  10.196  1.00  0.00     0.037 A 
ATOM     46  C   UNL     1      15.421   2.413   5.715  1.00  0.00     0.049 A 
ATOM     47  C   UNL     1      12.653   0.741  10.282  1.00  0.00     0.074 A 
ATOM     48  C   UNL     1      16.647   3.023   5.925  1.00  0.00     0.029 A 
ATOM     49  N   UNL     1      14.935   2.063   6.968  1.00  0.00    -0.354 N 
ATOM     50  N   UNL     1      13.418   1.194   9.319  1.00  0.00    -0.248 NA
ATOM     51  C   UNL     1      13.251   0.833  11.620  1.00  0.00     0.031 C 
ATOM     52  C   UNL     1      16.931   2.982   7.293  1.00  0.00     0.029 A 
ATOM     53  C   UNL     1      15.855   2.405   7.948  1.00  0.00     0.049 A 
ATOM     54  H   UNL     1      14.064   1.635   7.136  1.00  0.00     0.167 HD
ATOM     55  C   UNL     1      14.580   1.639   9.933  1.00  0.00     0.074 A 
ATOM     56  C   UNL     1      14.411   1.421  11.355  1.00  0.00     0.031 C 
ATOM     57  C   UNL     1      15.685   2.177   9.363  1.00  0.00     0.037 A 
BRANCH  44  58
ATOM     58  C   UNL     1      15.470   2.519   3.196  1.00  0.00     0.064 A 
ATOM     59  C   UNL     1      15.028   3.584   2.395  1.00  0.00     0.173 A 
ATOM     60  C   UNL     1      16.658   1.871   2.822  1.00  0.00     0.173 A 
ATOM     61  F   UNL     1      13.898   4.239   2.705  1.00  0.00    -0.203 F 
ATOM     62  C   UNL     1      15.735   3.971   1.259  1.00  0.00     0.198 A 
ATOM     63  C   UNL     1      17.378   2.280   1.702  1.00  0.00     0.198 A 
ATOM     64  F   UNL     1      17.135   0.856   3.558  1.00  0.00    -0.203 F 
ATOM     65  F   UNL     1      15.272   4.968   0.492  1.00  0.00    -0.200 F 
ATOM     66  C   UNL     1      16.913   3.326   0.919  1.00  0.00     0.200 A 
ATOM     67  F   UNL     1      18.527   1.668   1.385  1.00  0.00    -0.200 F 
ATOM     68  F   UNL     1      17.600   3.710  -0.166  1.00  0.00    -0.200 F 
ENDBRANCH  44  58
BRANCH  45  69
ATOM     69  C   UNL     1      10.510  -0.221  11.411  1.00  0.00     0.064 A 
ATOM     70  C   UNL     1      10.034   0.758  12.293  1.00  0.00     0.173 A 
ATOM     71  C   UNL     1      10.185  -1.559  11.679  1.00  0.00     0.173 A 
ATOM     72  F   UNL     1      10.329   2.049  12.083  1.00  0.00    -0.203 F 
ATOM     73  C   UNL     1       9.263   0.412  13.400  1.00  0.00     0.198 A 
ATOM     74  C   UNL     1       9.390  -1.900  12.770  1.00  0.00     0.198 A 
ATOM     75  F   UNL     1      10.607  -2.530  10.856  1.00  0.00    -0.203 F 
ATOM     76  F   UNL     1       8.838   1.365  14.241  1.00  0.00    -0.200 F 
ATOM     77  C   UNL     1       8.932  -0.915  13.631  1.00  0.00     0.200 A 
ATOM     78  F   UNL     1       9.054  -3.181  12.977  1.00  0.00    -0.200 F 
ATOM     79  F   UNL     1       8.172  -1.244  14.684  1.00  0.00    -0.200 F 
ENDBRANCH  45  69
BRANCH  57  80
ATOM     80  C   UNL     1      16.815   2.571  10.272  1.00  0.00     0.064 A 
ATOM     81  C   UNL     1      17.620   1.607  10.898  1.00  0.00     0.173 A 
ATOM     82  C   UNL     1      17.150   3.922  10.451  1.00  0.00     0.173 A 
ATOM     83  F   UNL     1      17.333   0.303  10.772  1.00  0.00    -0.203 F 
ATOM     84  C   UNL     1      18.713   1.982  11.675  1.00  0.00     0.198 A 
ATOM     85  C   UNL     1      18.262   4.292  11.203  1.00  0.00     0.198 A 
ATOM     86  F   UNL     1      16.415   4.884   9.872  1.00  0.00    -0.203 F 
ATOM     87  F   UNL     1      19.450   1.045  12.287  1.00  0.00    -0.200 F 
ATOM     88  C   UNL     1      19.041   3.322  11.816  1.00  0.00     0.200 A 
ATOM     89  F   UNL     1      18.586   5.586  11.325  1.00  0.00    -0.200 F 
ATOM     90  F   UNL     1      20.108   3.679  12.543  1.00  0.00    -0.200 F 
ENDBRANCH  57  80
ENDBRANCH  31  32
ENDBRANCH  24  26
ENDBRANCH  23  24
ENDBRANCH  22  23
ENDBRANCH  21  22
ENDBRANCH   1  21
TORSDOF 16
