REMARK SMILES Cc1cc2nc(NC(=O)[C@H]3[C@@H](C(=O)OCCOC(=O)c4ccc(-c5c6nc(c(-c7c(F)c(F)c(F)c(F)c7F)c7ccc([nH]7)c(-c7c(F)c(F)c(F)c(F)c7F)c7nc(c(-c8c(F)c(F)c(F)c(F)c8F)c8ccc5[nH]8)C=C7)C=C6)cc4)[C@@H]4C=C[C@H]3C4)sc2cc1C
REMARK SMILES IDX 15 1 14 2 12 3 13 4 11 5 10 6 86 7 83 8 85 9 87 10 84 11
REMARK SMILES IDX 8 12 7 13 9 15 6 16 1 17 2 18 3 19 91 20 4 21 90 22 92 23
REMARK SMILES IDX 5 24 89 25 88 26 16 27 17 28 18 29 19 30 20 31 21 32 82 33
REMARK SMILES IDX 22 34 81 35 23 36 24 37 25 38 75 39 26 40 80 41 74 42 76 43
REMARK SMILES IDX 27 44 79 45 73 46 72 47 28 49 60 50 40 51 59 52 41 53 44 54
REMARK SMILES IDX 58 55 77 56 42 57 43 58 57 60 78 61 45 62 29 63 30 64 38 65
REMARK SMILES IDX 31 66 32 67 36 68 39 69 33 70 34 71 37 72 35 73 61 74 62 75
REMARK SMILES IDX 70 76 63 77 64 78 68 79 71 80 65 81 66 82 69 83 67 84 46 85
REMARK SMILES IDX 47 86 55 87 48 88 49 89 53 90 56 91 50 92 51 93 54 94 52 95
REMARK H PARENT 7 14 76 48 44 59
REMARK Flexibility Score: inf
ROOT
ATOM      1  C   UNL     1       4.316   3.143  -3.998  1.00  0.00     0.274 C 
ENDROOT
BRANCH   1   2
ATOM      2  O   UNL     1       4.369   3.507  -2.599  1.00  0.00    -0.462 OA
BRANCH   2   3
ATOM      3  C   UNL     1       3.959   4.784  -2.470  1.00  0.00     0.310 C 
ATOM      4  O   UNL     1       3.757   5.466  -3.460  1.00  0.00    -0.252 OA
BRANCH   3   5
ATOM      5  C   UNL     1       3.562   5.223  -1.083  1.00  0.00     0.119 C 
ATOM      6  C   UNL     1       3.655   6.783  -0.941  1.00  0.00     0.100 C 
ATOM      7  C   UNL     1       4.274   6.941   0.454  1.00  0.00     0.025 C 
ATOM      8  C   UNL     1       4.312   4.718   0.171  1.00  0.00     0.027 C 
ATOM      9  C   UNL     1       3.346   6.334   1.499  1.00  0.00    -0.027 C 
ATOM     10  C   UNL     1       5.326   5.829   0.422  1.00  0.00     0.017 C 
ATOM     11  C   UNL     1       3.402   5.002   1.356  1.00  0.00    -0.027 C 
BRANCH   6  12
ATOM     12  C   UNL     1       4.187   7.472  -2.232  1.00  0.00     0.230 C 
ATOM     13  N   UNL     1       5.463   7.617  -2.653  1.00  0.00    -0.302 N 
ATOM     14  H   UNL     1       5.730   7.286  -3.541  1.00  0.00     0.172 HD
ATOM     15  O   UNL     1       3.397   7.872  -3.099  1.00  0.00    -0.274 OA
BRANCH  13  16
ATOM     16  C   UNL     1       6.369   8.215  -1.854  1.00  0.00     0.190 A 
ATOM     17  C   UNL     1       8.033  10.794   3.191  1.00  0.00     0.044 C 
ATOM     18  C   UNL     1       7.954  10.572   1.709  1.00  0.00    -0.046 A 
ATOM     19  C   UNL     1       7.120   9.545   1.281  1.00  0.00     0.033 A 
ATOM     20  C   UNL     1       8.661  11.323   0.751  1.00  0.00    -0.047 A 
ATOM     21  C   UNL     1       7.080   9.209  -0.071  1.00  0.00     0.084 A 
ATOM     22  C   UNL     1       8.587  11.008  -0.628  1.00  0.00     0.025 A 
ATOM     23  C   UNL     1       9.507  12.505   1.119  1.00  0.00     0.044 C 
ATOM     24  N   UNL     1       6.311   8.218  -0.567  1.00  0.00    -0.220 NA
ATOM     25  C   UNL     1       7.804   9.925  -1.016  1.00  0.00     0.057 A 
ATOM     26  S   UNL     1       7.487   9.258  -2.583  1.00  0.00    -0.097 S 
ENDBRANCH  13  16
ENDBRANCH   6  12
ENDBRANCH   3   5
ENDBRANCH   2   3
ENDBRANCH   1   2
BRANCH   1  27
ATOM     27  C   UNL     1       2.868   2.768  -4.409  1.00  0.00     0.275 C 
BRANCH  27  28
ATOM     28  O   UNL     1       1.945   3.908  -4.454  1.00  0.00    -0.458 OA
BRANCH  28  29
ATOM     29  C   UNL     1       1.058   4.061  -3.430  1.00  0.00     0.338 C 
ATOM     30  O   UNL     1       0.818   3.190  -2.587  1.00  0.00    -0.246 OA
BRANCH  29  31
ATOM     31  C   UNL     1       0.634   5.495  -3.220  1.00  0.00     0.060 A 
ATOM     32  C   UNL     1       0.662   6.489  -4.196  1.00  0.00     0.016 A 
ATOM     33  C   UNL     1       0.376   5.906  -1.907  1.00  0.00     0.016 A 
ATOM     34  C   UNL     1       0.770   7.856  -3.810  1.00  0.00     0.010 A 
ATOM     35  C   UNL     1       0.487   7.261  -1.538  1.00  0.00     0.010 A 
ATOM     36  C   UNL     1       0.905   8.242  -2.453  1.00  0.00    -0.014 A 
BRANCH  36  37
ATOM     37  C   UNL     1       1.137   9.693  -1.986  1.00  0.00     0.031 A 
ATOM     38  C   UNL     1      -0.217  10.253  -2.051  1.00  0.00     0.074 A 
ATOM     39  C   UNL     1       2.173  10.533  -1.585  1.00  0.00     0.049 A 
ATOM     40  N   UNL     1      -0.706  10.738  -3.144  1.00  0.00    -0.248 NA
ATOM     41  C   UNL     1      -1.228   9.909  -1.043  1.00  0.00     0.031 C 
ATOM     42  C   UNL     1       3.606  10.281  -1.480  1.00  0.00     0.029 A 
ATOM     43  N   UNL     1       2.188  11.901  -1.182  1.00  0.00    -0.354 N 
ATOM     44  C   UNL     1      -1.982  11.113  -2.796  1.00  0.00     0.074 A 
ATOM     45  C   UNL     1      -2.342  10.274  -1.689  1.00  0.00     0.031 C 
ATOM     46  C   UNL     1       4.287  11.212  -0.773  1.00  0.00     0.029 A 
ATOM     47  C   UNL     1       3.400  12.318  -0.507  1.00  0.00     0.049 A 
ATOM     48  H   UNL     1       1.434  12.512  -1.349  1.00  0.00     0.167 HD
ATOM     49  C   UNL     1      -2.339  12.392  -3.082  1.00  0.00     0.037 A 
ATOM     50  C   UNL     1       3.894  13.556  -0.144  1.00  0.00     0.037 A 
ATOM     51  C   UNL     1      -1.429  12.950  -4.065  1.00  0.00     0.049 A 
ATOM     52  C   UNL     1       3.194  14.550  -0.962  1.00  0.00     0.074 A 
ATOM     53  C   UNL     1      -1.120  12.702  -5.389  1.00  0.00     0.029 A 
ATOM     54  N   UNL     1      -0.308  13.504  -3.503  1.00  0.00    -0.354 N 
ATOM     55  N   UNL     1       3.448  14.728  -2.225  1.00  0.00    -0.248 NA
ATOM     56  C   UNL     1       1.892  14.971  -0.483  1.00  0.00     0.031 C 
ATOM     57  C   UNL     1       0.230  13.118  -5.584  1.00  0.00     0.029 A 
ATOM     58  C   UNL     1       0.683  13.719  -4.416  1.00  0.00     0.049 A 
ATOM     59  H   UNL     1      -0.227  13.722  -2.546  1.00  0.00     0.167 HD
ATOM     60  C   UNL     1       2.187  14.783  -2.776  1.00  0.00     0.074 A 
ATOM     61  C   UNL     1       1.273  15.049  -1.661  1.00  0.00     0.031 C 
ATOM     62  C   UNL     1       1.960  14.238  -4.002  1.00  0.00     0.037 A 
BRANCH  49  63
ATOM     63  C   UNL     1      -3.081  13.277  -2.107  1.00  0.00     0.064 A 
ATOM     64  C   UNL     1      -3.540  14.527  -2.556  1.00  0.00     0.173 A 
ATOM     65  C   UNL     1      -3.145  13.082  -0.706  1.00  0.00     0.173 A 
ATOM     66  F   UNL     1      -3.462  14.852  -3.855  1.00  0.00    -0.203 F 
ATOM     67  C   UNL     1      -4.022  15.497  -1.673  1.00  0.00     0.198 A 
ATOM     68  C   UNL     1      -3.676  14.028   0.164  1.00  0.00     0.198 A 
ATOM     69  F   UNL     1      -2.602  12.030  -0.089  1.00  0.00    -0.203 F 
ATOM     70  F   UNL     1      -4.367  16.705  -2.138  1.00  0.00    -0.200 F 
ATOM     71  C   UNL     1      -4.101  15.242  -0.316  1.00  0.00     0.200 A 
ATOM     72  F   UNL     1      -3.698  13.769   1.480  1.00  0.00    -0.200 F 
ATOM     73  F   UNL     1      -4.540  16.179   0.534  1.00  0.00    -0.200 F 
ENDBRANCH  49  63
BRANCH  50  74
ATOM     74  C   UNL     1       4.724  14.018   1.031  1.00  0.00     0.064 A 
ATOM     75  C   UNL     1       5.094  15.379   1.224  1.00  0.00     0.173 A 
ATOM     76  C   UNL     1       4.888  13.195   2.153  1.00  0.00     0.173 A 
ATOM     77  F   UNL     1       5.001  16.263   0.219  1.00  0.00    -0.203 F 
ATOM     78  C   UNL     1       5.493  15.883   2.477  1.00  0.00     0.198 A 
ATOM     79  C   UNL     1       5.276  13.701   3.403  1.00  0.00     0.198 A 
ATOM     80  F   UNL     1       4.590  11.892   2.081  1.00  0.00    -0.203 F 
ATOM     81  F   UNL     1       5.756  17.190   2.633  1.00  0.00    -0.200 F 
ATOM     82  C   UNL     1       5.551  15.046   3.574  1.00  0.00     0.200 A 
ATOM     83  F   UNL     1       5.321  12.880   4.462  1.00  0.00    -0.200 F 
ATOM     84  F   UNL     1       5.837  15.531   4.791  1.00  0.00    -0.200 F 
ENDBRANCH  50  74
BRANCH  62  85
ATOM     85  C   UNL     1       3.107  14.086  -4.950  1.00  0.00     0.064 A 
ATOM     86  C   UNL     1       4.112  13.112  -4.851  1.00  0.00     0.173 A 
ATOM     87  C   UNL     1       3.070  14.871  -6.110  1.00  0.00     0.173 A 
ATOM     88  F   UNL     1       4.182  12.297  -3.789  1.00  0.00    -0.203 F 
ATOM     89  C   UNL     1       5.030  12.926  -5.889  1.00  0.00     0.198 A 
ATOM     90  C   UNL     1       3.964  14.665  -7.152  1.00  0.00     0.198 A 
ATOM     91  F   UNL     1       2.110  15.797  -6.259  1.00  0.00    -0.203 F 
ATOM     92  F   UNL     1       5.972  11.976  -5.794  1.00  0.00    -0.200 F 
ATOM     93  C   UNL     1       4.944  13.693  -7.043  1.00  0.00     0.200 A 
ATOM     94  F   UNL     1       3.846  15.379  -8.280  1.00  0.00    -0.200 F 
ATOM     95  F   UNL     1       5.789  13.478  -8.062  1.00  0.00    -0.200 F 
ENDBRANCH  62  85
ENDBRANCH  36  37
ENDBRANCH  29  31
ENDBRANCH  28  29
ENDBRANCH  27  28
ENDBRANCH   1  27
TORSDOF 13
