REMARK SMILES O=C(OCCOC(=O)[C@H](NC(=O)[C@H]1CC(=O)N(CC2CC2)C1)c1ccccc1C(F)(F)F)c1ccc(-c2c3nc(c(-c4c(F)c(F)c(F)c(F)c4F)c4ccc([nH]4)c(-c4c(F)c(F)c(F)c(F)c4F)c4nc(c(-c5c(F)c(F)c(F)c(F)c5F)c5ccc2[nH]5)C=C4)C=C3)cc1
REMARK SMILES IDX 5 1 4 2 3 3 2 4 1 5 33 6 34 7 95 8 35 9 94 10 36 11 37 12
REMARK SMILES IDX 38 13 88 14 39 15 93 16 87 17 89 18 40 19 92 20 86 21 85 22
REMARK SMILES IDX 41 24 73 25 53 26 72 27 54 28 57 29 71 30 90 31 55 32 56 33
REMARK SMILES IDX 70 35 91 36 58 37 42 38 43 39 51 40 44 41 45 42 49 43 52 44
REMARK SMILES IDX 46 45 47 46 50 47 48 48 74 49 75 50 83 51 76 52 77 53 81 54
REMARK SMILES IDX 84 55 78 56 79 57 82 58 80 59 59 60 60 61 68 62 61 63 62 64
REMARK SMILES IDX 66 65 69 66 63 67 64 68 67 69 65 70 6 71 7 72 8 73 9 74
REMARK SMILES IDX 23 75 24 76 28 77 25 78 27 79 26 80 29 81 30 82 31 83 32 84
REMARK SMILES IDX 10 85 11 86 12 88 13 89 14 90 22 91 15 92 17 93 16 94 18 95
REMARK SMILES IDX 19 96 20 97 21 98
REMARK H PARENT 89 23 57 34 10 87
REMARK Flexibility Score: inf
ROOT
ATOM      1  C   UNL     1       3.874  -1.455   7.654  1.00  0.00     0.274 C 
ENDROOT
BRANCH   1   2
ATOM      2  C   UNL     1       4.006  -1.535   9.181  1.00  0.00     0.275 C 
BRANCH   2   3
ATOM      3  O   UNL     1       4.840  -0.541   9.782  1.00  0.00    -0.458 OA
BRANCH   3   4
ATOM      4  C   UNL     1       6.169  -0.356   9.646  1.00  0.00     0.338 C 
ATOM      5  O   UNL     1       6.633   0.742   9.946  1.00  0.00    -0.246 OA
BRANCH   4   6
ATOM      6  C   UNL     1       7.104  -1.379   9.061  1.00  0.00     0.060 A 
ATOM      7  C   UNL     1       6.846  -2.725   8.787  1.00  0.00     0.016 A 
ATOM      8  C   UNL     1       8.373  -0.902   8.730  1.00  0.00     0.016 A 
ATOM      9  C   UNL     1       7.791  -3.545   8.146  1.00  0.00     0.010 A 
ATOM     10  C   UNL     1       9.288  -1.693   8.032  1.00  0.00     0.010 A 
ATOM     11  C   UNL     1       9.022  -3.038   7.742  1.00  0.00    -0.014 A 
BRANCH  11  12
ATOM     12  C   UNL     1      10.114  -3.904   7.206  1.00  0.00     0.031 A 
ATOM     13  C   UNL     1      11.430  -3.894   7.945  1.00  0.00     0.074 A 
ATOM     14  C   UNL     1       9.979  -4.692   6.114  1.00  0.00     0.049 A 
ATOM     15  N   UNL     1      12.590  -4.376   7.585  1.00  0.00    -0.248 NA
ATOM     16  C   UNL     1      11.436  -3.265   9.282  1.00  0.00     0.031 C 
ATOM     17  C   UNL     1       8.744  -4.946   5.367  1.00  0.00     0.029 A 
ATOM     18  N   UNL     1      10.937  -5.369   5.382  1.00  0.00    -0.354 N 
ATOM     19  C   UNL     1      13.414  -4.193   8.686  1.00  0.00     0.074 A 
ATOM     20  C   UNL     1      12.708  -3.358   9.626  1.00  0.00     0.031 C 
ATOM     21  C   UNL     1       9.038  -5.612   4.234  1.00  0.00     0.029 A 
ATOM     22  C   UNL     1      10.485  -5.747   4.129  1.00  0.00     0.049 A 
ATOM     23  H   UNL     1      11.843  -5.562   5.715  1.00  0.00     0.167 HD
ATOM     24  C   UNL     1      14.587  -4.806   8.962  1.00  0.00     0.037 A 
ATOM     25  C   UNL     1      11.190  -6.009   3.006  1.00  0.00     0.037 A 
ATOM     26  C   UNL     1      15.275  -5.646   8.028  1.00  0.00     0.049 A 
ATOM     27  C   UNL     1      12.658  -6.258   3.147  1.00  0.00     0.074 A 
ATOM     28  C   UNL     1      16.421  -6.397   8.206  1.00  0.00     0.029 A 
ATOM     29  N   UNL     1      14.875  -5.822   6.712  1.00  0.00    -0.354 N 
ATOM     30  N   UNL     1      13.413  -6.147   4.208  1.00  0.00    -0.248 NA
ATOM     31  C   UNL     1      13.341  -6.788   1.960  1.00  0.00     0.031 C 
ATOM     32  C   UNL     1      16.739  -6.994   6.981  1.00  0.00     0.029 A 
ATOM     33  C   UNL     1      15.765  -6.653   6.057  1.00  0.00     0.049 A 
ATOM     34  H   UNL     1      14.076  -5.416   6.305  1.00  0.00     0.167 HD
ATOM     35  C   UNL     1      14.620  -6.728   3.861  1.00  0.00     0.074 A 
ATOM     36  C   UNL     1      14.530  -7.088   2.461  1.00  0.00     0.031 C 
ATOM     37  C   UNL     1      15.661  -7.029   4.672  1.00  0.00     0.037 A 
BRANCH  24  38
ATOM     38  C   UNL     1      15.103  -4.668  10.364  1.00  0.00     0.064 A 
ATOM     39  C   UNL     1      14.394  -5.228  11.444  1.00  0.00     0.173 A 
ATOM     40  C   UNL     1      16.284  -3.974  10.645  1.00  0.00     0.173 A 
ATOM     41  F   UNL     1      13.248  -5.895  11.229  1.00  0.00    -0.203 F 
ATOM     42  C   UNL     1      14.825  -5.055  12.755  1.00  0.00     0.198 A 
ATOM     43  C   UNL     1      16.729  -3.830  11.958  1.00  0.00     0.198 A 
ATOM     44  F   UNL     1      16.999  -3.424   9.653  1.00  0.00    -0.203 F 
ATOM     45  F   UNL     1      14.093  -5.538  13.768  1.00  0.00    -0.200 F 
ATOM     46  C   UNL     1      15.995  -4.359  13.011  1.00  0.00     0.200 A 
ATOM     47  F   UNL     1      17.866  -3.166  12.208  1.00  0.00    -0.200 F 
ATOM     48  F   UNL     1      16.409  -4.189  14.273  1.00  0.00    -0.200 F 
ENDBRANCH  24  38
BRANCH  25  49
ATOM     49  C   UNL     1      10.613  -5.983   1.629  1.00  0.00     0.064 A 
ATOM     50  C   UNL     1       9.997  -7.086   1.034  1.00  0.00     0.173 A 
ATOM     51  C   UNL     1      10.808  -4.844   0.822  1.00  0.00     0.173 A 
ATOM     52  F   UNL     1       9.867  -8.229   1.721  1.00  0.00    -0.203 F 
ATOM     53  C   UNL     1       9.571  -7.040  -0.298  1.00  0.00     0.198 A 
ATOM     54  C   UNL     1      10.338  -4.779  -0.489  1.00  0.00     0.198 A 
ATOM     55  F   UNL     1      11.475  -3.788   1.310  1.00  0.00    -0.203 F 
ATOM     56  F   UNL     1       9.034  -8.129  -0.864  1.00  0.00    -0.200 F 
ATOM     57  C   UNL     1       9.724  -5.883  -1.051  1.00  0.00     0.200 A 
ATOM     58  F   UNL     1      10.493  -3.656  -1.204  1.00  0.00    -0.200 F 
ATOM     59  F   UNL     1       9.305  -5.842  -2.324  1.00  0.00    -0.200 F 
ENDBRANCH  25  49
BRANCH  37  60
ATOM     60  C   UNL     1      16.694  -7.951   4.112  1.00  0.00     0.064 A 
ATOM     61  C   UNL     1      17.607  -7.557   3.130  1.00  0.00     0.173 A 
ATOM     62  C   UNL     1      16.743  -9.277   4.574  1.00  0.00     0.173 A 
ATOM     63  F   UNL     1      17.566  -6.313   2.629  1.00  0.00    -0.203 F 
ATOM     64  C   UNL     1      18.521  -8.467   2.608  1.00  0.00     0.198 A 
ATOM     65  C   UNL     1      17.685 -10.170   4.082  1.00  0.00     0.198 A 
ATOM     66  F   UNL     1      15.874  -9.705   5.504  1.00  0.00    -0.203 F 
ATOM     67  F   UNL     1      19.340  -8.093   1.616  1.00  0.00    -0.200 F 
ATOM     68  C   UNL     1      18.567  -9.767   3.092  1.00  0.00     0.200 A 
ATOM     69  F   UNL     1      17.731 -11.422   4.558  1.00  0.00    -0.200 F 
ATOM     70  F   UNL     1      19.453 -10.638   2.592  1.00  0.00    -0.200 F 
ENDBRANCH  37  60
ENDBRANCH  11  12
ENDBRANCH   4   6
ENDBRANCH   3   4
ENDBRANCH   2   3
ENDBRANCH   1   2
BRANCH   1  71
ATOM     71  O   UNL     1       5.069  -1.090   6.933  1.00  0.00    -0.460 OA
BRANCH  71  72
ATOM     72  C   UNL     1       5.250   0.249   6.668  1.00  0.00     0.333 C 
ATOM     73  O   UNL     1       4.522   1.137   7.087  1.00  0.00    -0.249 OA
BRANCH  72  74
ATOM     74  C   UNL     1       6.499   0.473   5.745  1.00  0.00     0.224 C 
BRANCH  74  75
ATOM     75  C   UNL     1       6.021   0.860   4.326  1.00  0.00    -0.002 A 
ATOM     76  C   UNL     1       5.111  -0.080   3.750  1.00  0.00     0.007 A 
ATOM     77  C   UNL     1       6.443   1.924   3.489  1.00  0.00     0.061 A 
ATOM     78  C   UNL     1       4.710  -0.039   2.414  1.00  0.00     0.000 A 
ATOM     79  C   UNL     1       6.080   1.890   2.112  1.00  0.00     0.013 A 
ATOM     80  C   UNL     1       5.234   0.925   1.579  1.00  0.00     0.001 A 
BRANCH  77  81
ATOM     81  C   UNL     1       7.329   3.109   3.826  1.00  0.00     0.416 C 
ATOM     82  F   UNL     1       8.573   2.957   3.288  1.00  0.00    -0.166 F 
ATOM     83  F   UNL     1       6.856   4.269   3.285  1.00  0.00    -0.166 F 
ATOM     84  F   UNL     1       7.505   3.381   5.137  1.00  0.00    -0.166 F 
ENDBRANCH  77  81
ENDBRANCH  74  75
BRANCH  74  85
ATOM     85  N   UNL     1       7.487   1.310   6.455  1.00  0.00    -0.339 N 
ATOM     86  C   UNL     1       8.856   1.379   6.481  1.00  0.00     0.226 C 
ATOM     87  H   UNL     1       7.064   1.973   7.047  1.00  0.00     0.164 HD
ATOM     88  O   UNL     1       9.376   1.829   7.507  1.00  0.00    -0.275 OA
BRANCH  86  89
ATOM     89  C   UNL     1       9.746   1.117   5.284  1.00  0.00     0.107 C 
ATOM     90  C   UNL     1      11.164   0.583   5.554  1.00  0.00     0.115 C 
ATOM     91  C   UNL     1       9.231   0.106   4.322  1.00  0.00     0.133 C 
ATOM     92  C   UNL     1      11.531  -0.039   4.218  1.00  0.00     0.223 C 
ATOM     93  N   UNL     1      10.354  -0.239   3.524  1.00  0.00    -0.342 N 
ATOM     94  O   UNL     1      12.663  -0.318   3.843  1.00  0.00    -0.275 OA
BRANCH  93  95
ATOM     95  C   UNL     1      10.206  -0.648   2.141  1.00  0.00     0.123 C 
BRANCH  95  96
ATOM     96  C   UNL     1       9.275  -1.803   1.919  1.00  0.00     0.008 C 
ATOM     97  C   UNL     1       9.218  -2.848   2.981  1.00  0.00     0.006 C 
ATOM     98  C   UNL     1       7.959  -2.146   2.607  1.00  0.00     0.006 C 
ENDBRANCH  95  96
ENDBRANCH  93  95
ENDBRANCH  86  89
ENDBRANCH  74  85
ENDBRANCH  72  74
ENDBRANCH  71  72
ENDBRANCH   1  71
TORSDOF 17
