REMARK SMILES CC(C)C(NS(=O)(=O)CCC(=O)OCCOC(=O)c1ccc(-c2c3nc(c(-c4c(F)c(F)c(F)c(F)c4F)c4ccc([nH]4)c(-c4c(F)c(F)c(F)c(F)c4F)c4nc(c(-c5c(F)c(F)c(F)c(F)c5F)c5ccc2[nH]5)C=C4)C=C3)cc1)c1ccccc1
REMARK SMILES IDX 13 1 11 2 12 3 10 4 9 5 6 6 7 7 8 8 5 9 4 11 2 12 1 13 3 14
REMARK SMILES IDX 82 15 83 16 87 17 84 18 86 19 85 20 14 21 15 22 16 23 17 24
REMARK SMILES IDX 18 25 19 26 20 27 81 28 21 29 80 30 22 31 23 32 24 33 74 34
REMARK SMILES IDX 25 35 79 36 73 37 75 38 26 39 78 40 72 41 71 42 27 44 59 45
REMARK SMILES IDX 39 46 58 47 40 48 43 49 57 50 76 51 41 52 42 53 56 55 77 56
REMARK SMILES IDX 44 57 28 58 29 59 37 60 30 61 31 62 35 63 38 64 32 65 33 66
REMARK SMILES IDX 36 67 34 68 60 69 61 70 69 71 62 72 63 73 67 74 70 75 64 76
REMARK SMILES IDX 65 77 68 78 66 79 45 80 46 81 54 82 47 83 48 84 52 85 55 86
REMARK SMILES IDX 49 87 50 88 53 89 51 90
REMARK H PARENT 5 10 75 43 43 54
REMARK Flexibility Score: inf
ROOT
ATOM      1  O   UNL     1      -3.030  -0.237   1.555  1.00  0.00    -0.462 OA
ENDROOT
BRANCH   1   2
ATOM      2  C   UNL     1      -3.075   1.086   1.134  1.00  0.00     0.306 C 
ATOM      3  O   UNL     1      -4.164   1.452   0.659  1.00  0.00    -0.252 OA
BRANCH   2   4
ATOM      4  C   UNL     1      -1.873   2.333   1.060  1.00  0.00     0.140 C 
BRANCH   4   5
ATOM      5  C   UNL     1      -0.483   2.829   1.730  1.00  0.00     0.165 C 
BRANCH   5   6
ATOM      6  S   UNL     1       1.032   1.929   1.550  1.00  0.00     0.212 S 
ATOM      7  O   UNL     1       2.071   2.568   2.339  1.00  0.00    -0.212 OA
ATOM      8  O   UNL     1       1.250   1.732   0.148  1.00  0.00    -0.212 OA
BRANCH   6   9
ATOM      9  N   UNL     1       0.683   0.493   2.365  1.00  0.00    -0.207 NA
ATOM     10  H   UNL     1       1.354  -0.206   2.046  1.00  0.00     0.141 HD
BRANCH   9  11
ATOM     11  C   UNL     1      -0.654  -0.088   2.211  1.00  0.00     0.102 C 
BRANCH  11  12
ATOM     12  C   UNL     1      -0.622  -1.131   0.669  1.00  0.00     0.005 C 
ATOM     13  C   UNL     1       0.280  -0.636  -0.486  1.00  0.00     0.009 C 
ATOM     14  C   UNL     1      -0.361  -2.678   0.571  1.00  0.00     0.009 C 
ENDBRANCH  11  12
BRANCH  11  15
ATOM     15  C   UNL     1      -1.860   0.383   3.553  1.00  0.00    -0.030 A 
ATOM     16  C   UNL     1      -2.207   1.695   3.936  1.00  0.00     0.005 A 
ATOM     17  C   UNL     1      -2.818  -0.455   4.264  1.00  0.00     0.005 A 
ATOM     18  C   UNL     1      -3.356   2.079   4.715  1.00  0.00     0.000 A 
ATOM     19  C   UNL     1      -3.919  -0.134   5.080  1.00  0.00     0.000 A 
ATOM     20  C   UNL     1      -4.238   1.165   5.239  1.00  0.00     0.000 A 
ENDBRANCH  11  15
ENDBRANCH   9  11
ENDBRANCH   6   9
ENDBRANCH   5   6
ENDBRANCH   4   5
ENDBRANCH   2   4
ENDBRANCH   1   2
BRANCH   1  21
ATOM     21  C   UNL     1      -2.686  -1.836   2.172  1.00  0.00     0.274 C 
BRANCH  21  22
ATOM     22  C   UNL     1      -1.262  -2.419   3.230  1.00  0.00     0.275 C 
BRANCH  22  23
ATOM     23  O   UNL     1      -1.063  -2.089   4.738  1.00  0.00    -0.458 OA
BRANCH  23  24
ATOM     24  C   UNL     1      -0.156  -1.180   5.280  1.00  0.00     0.338 C 
ATOM     25  O   UNL     1       0.908  -0.879   4.761  1.00  0.00    -0.246 OA
BRANCH  24  26
ATOM     26  C   UNL     1      -0.744  -0.410   6.491  1.00  0.00     0.060 A 
ATOM     27  C   UNL     1      -0.642   0.999   6.607  1.00  0.00     0.016 A 
ATOM     28  C   UNL     1      -1.530  -1.049   7.452  1.00  0.00     0.016 A 
ATOM     29  C   UNL     1      -1.398   1.742   7.572  1.00  0.00     0.010 A 
ATOM     30  C   UNL     1      -2.254  -0.311   8.435  1.00  0.00     0.010 A 
ATOM     31  C   UNL     1      -2.236   1.100   8.499  1.00  0.00    -0.014 A 
BRANCH  31  32
ATOM     32  C   UNL     1      -2.893   1.830   9.666  1.00  0.00     0.031 A 
ATOM     33  C   UNL     1      -2.090   1.974  10.934  1.00  0.00     0.074 A 
ATOM     34  C   UNL     1      -4.150   2.342   9.689  1.00  0.00     0.049 A 
ATOM     35  N   UNL     1      -2.428   2.482  12.095  1.00  0.00    -0.248 NA
ATOM     36  C   UNL     1      -0.708   1.481  10.872  1.00  0.00     0.031 C 
ATOM     37  C   UNL     1      -5.048   2.403   8.552  1.00  0.00     0.029 A 
ATOM     38  N   UNL     1      -4.907   2.910  10.705  1.00  0.00    -0.354 N 
ATOM     39  C   UNL     1      -1.298   2.380  12.893  1.00  0.00     0.074 A 
ATOM     40  C   UNL     1      -0.278   1.730  12.098  1.00  0.00     0.031 C 
ATOM     41  C   UNL     1      -6.238   2.912   8.917  1.00  0.00     0.029 A 
ATOM     42  C   UNL     1      -6.204   3.231  10.342  1.00  0.00     0.049 A 
ATOM     43  H   UNL     1      -4.551   3.071  11.608  1.00  0.00     0.167 HD
ATOM     44  C   UNL     1      -1.110   2.792  14.171  1.00  0.00     0.037 A 
ATOM     45  C   UNL     1      -7.246   3.722  11.054  1.00  0.00     0.037 A 
ATOM     46  C   UNL     1      -2.117   3.401  14.998  1.00  0.00     0.049 A 
ATOM     47  C   UNL     1      -7.052   4.064  12.515  1.00  0.00     0.074 A 
ATOM     48  C   UNL     1      -2.010   3.822  16.313  1.00  0.00     0.029 A 
ATOM     49  N   UNL     1      -3.421   3.657  14.603  1.00  0.00    -0.354 N 
ATOM     50  N   UNL     1      -5.965   3.983  13.242  1.00  0.00    -0.248 NA
ATOM     51  C   UNL     1      -8.220   4.579  13.252  1.00  0.00     0.031 C 
ATOM     52  C   UNL     1      -3.267   4.270  16.734  1.00  0.00     0.029 A 
ATOM     53  C   UNL     1      -4.138   4.198  15.660  1.00  0.00     0.049 A 
ATOM     54  H   UNL     1      -3.784   3.482  13.704  1.00  0.00     0.167 HD
ATOM     55  C   UNL     1      -6.304   4.472  14.498  1.00  0.00     0.074 A 
ATOM     56  C   UNL     1      -7.696   4.858  14.438  1.00  0.00     0.031 C 
ATOM     57  C   UNL     1      -5.523   4.593  15.599  1.00  0.00     0.037 A 
BRANCH  44  58
ATOM     58  C   UNL     1       0.244   2.534  14.766  1.00  0.00     0.064 A 
ATOM     59  C   UNL     1       1.384   3.230  14.335  1.00  0.00     0.173 A 
ATOM     60  C   UNL     1       0.405   1.560  15.762  1.00  0.00     0.173 A 
ATOM     61  F   UNL     1       1.284   4.157  13.370  1.00  0.00    -0.203 F 
ATOM     62  C   UNL     1       2.642   2.927  14.847  1.00  0.00     0.198 A 
ATOM     63  C   UNL     1       1.660   1.285  16.297  1.00  0.00     0.198 A 
ATOM     64  F   UNL     1      -0.653   0.868  16.211  1.00  0.00    -0.203 F 
ATOM     65  F   UNL     1       3.727   3.552  14.368  1.00  0.00    -0.200 F 
ATOM     66  C   UNL     1       2.779   1.958  15.830  1.00  0.00     0.200 A 
ATOM     67  F   UNL     1       1.789   0.356  17.254  1.00  0.00    -0.200 F 
ATOM     68  F   UNL     1       3.991   1.662  16.316  1.00  0.00    -0.200 F 
ENDBRANCH  44  58
BRANCH  45  69
ATOM     69  C   UNL     1      -8.592   3.929  10.425  1.00  0.00     0.064 A 
ATOM     70  C   UNL     1      -9.153   5.211  10.290  1.00  0.00     0.173 A 
ATOM     71  C   UNL     1      -9.383   2.842  10.019  1.00  0.00     0.173 A 
ATOM     72  F   UNL     1      -8.467   6.287  10.702  1.00  0.00    -0.203 F 
ATOM     73  C   UNL     1     -10.447   5.394   9.795  1.00  0.00     0.198 A 
ATOM     74  C   UNL     1     -10.666   3.029   9.496  1.00  0.00     0.198 A 
ATOM     75  F   UNL     1      -8.918   1.591  10.142  1.00  0.00    -0.203 F 
ATOM     76  F   UNL     1     -10.974   6.625   9.737  1.00  0.00    -0.200 F 
ATOM     77  C   UNL     1     -11.200   4.303   9.393  1.00  0.00     0.200 A 
ATOM     78  F   UNL     1     -11.390   1.969   9.108  1.00  0.00    -0.200 F 
ATOM     79  F   UNL     1     -12.443   4.478   8.922  1.00  0.00    -0.200 F 
ENDBRANCH  45  69
BRANCH  57  80
ATOM     80  C   UNL     1      -6.130   5.204  16.832  1.00  0.00     0.064 A 
ATOM     81  C   UNL     1      -7.099   4.535  17.593  1.00  0.00     0.173 A 
ATOM     82  C   UNL     1      -5.683   6.452  17.295  1.00  0.00     0.173 A 
ATOM     83  F   UNL     1      -7.571   3.345  17.191  1.00  0.00    -0.203 F 
ATOM     84  C   UNL     1      -7.613   5.101  18.758  1.00  0.00     0.198 A 
ATOM     85  C   UNL     1      -6.173   6.999  18.478  1.00  0.00     0.198 A 
ATOM     86  F   UNL     1      -4.752   7.134  16.611  1.00  0.00    -0.203 F 
ATOM     87  F   UNL     1      -8.570   4.462  19.446  1.00  0.00    -0.200 F 
ATOM     88  C   UNL     1      -7.142   6.326  19.205  1.00  0.00     0.200 A 
ATOM     89  F   UNL     1      -5.702   8.174  18.917  1.00  0.00    -0.200 F 
ATOM     90  F   UNL     1      -7.625   6.860  20.335  1.00  0.00    -0.200 F 
ENDBRANCH  57  80
ENDBRANCH  31  32
ENDBRANCH  24  26
ENDBRANCH  23  24
ENDBRANCH  22  23
ENDBRANCH  21  22
ENDBRANCH   1  21
TORSDOF 17
