REMARK SMILES O=C(OCCOC(=O)[C@@H]1CC[C@@H](CNC(=O)c2ccc(O)nn2)O1)c1ccc(-c2c3nc(c(-c4c(F)c(F)c(F)c(F)c4F)c4ccc([nH]4)c(-c4c(F)c(F)c(F)c(F)c4F)c4nc(c(-c5c(F)c(F)c(F)c(F)c5F)c5ccc2[nH]5)C=C4)C=C3)cc1
REMARK SMILES IDX 5 1 4 2 3 3 2 4 1 5 25 6 26 7 87 8 27 9 86 10 28 11 29 12
REMARK SMILES IDX 30 13 80 14 31 15 85 16 79 17 81 18 32 19 84 20 78 21 77 22
REMARK SMILES IDX 33 24 65 25 45 26 64 27 46 28 49 29 63 30 82 31 47 32 48 33
REMARK SMILES IDX 62 35 83 36 50 37 34 38 35 39 43 40 36 41 37 42 41 43 44 44
REMARK SMILES IDX 38 45 39 46 42 47 40 48 66 49 67 50 75 51 68 52 69 53 73 54
REMARK SMILES IDX 76 55 70 56 71 57 74 58 72 59 51 60 52 61 60 62 53 63 54 64
REMARK SMILES IDX 58 65 61 66 55 67 56 68 59 69 57 70 6 71 7 72 8 73 9 74
REMARK SMILES IDX 10 75 24 76 11 77 12 78 13 79 14 80 15 81 16 83 17 84 18 85
REMARK SMILES IDX 23 86 19 87 22 88 20 89 21 90
REMARK H PARENT 81 23 49 34 14 82 21 91
REMARK Flexibility Score: inf
ROOT
ATOM      1  C   UNL     1       4.108   0.718  -1.944  1.00  0.00     0.274 C 
ENDROOT
BRANCH   1   2
ATOM      2  C   UNL     1       4.302  -0.598  -1.181  1.00  0.00     0.275 C 
BRANCH   2   3
ATOM      3  O   UNL     1       3.147  -0.980  -0.410  1.00  0.00    -0.458 OA
BRANCH   3   4
ATOM      4  C   UNL     1       2.819  -0.745   0.881  1.00  0.00     0.338 C 
ATOM      5  O   UNL     1       1.871  -1.368   1.359  1.00  0.00    -0.246 OA
BRANCH   4   6
ATOM      6  C   UNL     1       3.452   0.303   1.754  1.00  0.00     0.060 A 
ATOM      7  C   UNL     1       4.641   0.989   1.499  1.00  0.00     0.016 A 
ATOM      8  C   UNL     1       2.745   0.651   2.928  1.00  0.00     0.016 A 
ATOM      9  C   UNL     1       5.090   2.006   2.344  1.00  0.00     0.010 A 
ATOM     10  C   UNL     1       3.200   1.658   3.793  1.00  0.00     0.010 A 
ATOM     11  C   UNL     1       4.385   2.335   3.501  1.00  0.00    -0.014 A 
BRANCH  11  12
ATOM     12  C   UNL     1       5.030   3.256   4.459  1.00  0.00     0.031 A 
ATOM     13  C   UNL     1       5.985   2.672   5.441  1.00  0.00     0.074 A 
ATOM     14  C   UNL     1       4.897   4.589   4.354  1.00  0.00     0.049 A 
ATOM     15  N   UNL     1       6.820   3.287   6.231  1.00  0.00    -0.248 NA
ATOM     16  C   UNL     1       6.047   1.203   5.505  1.00  0.00     0.031 C 
ATOM     17  C   UNL     1       4.066   5.242   3.360  1.00  0.00     0.029 A 
ATOM     18  N   UNL     1       5.455   5.629   5.052  1.00  0.00    -0.354 N 
ATOM     19  C   UNL     1       7.547   2.284   6.842  1.00  0.00     0.074 A 
ATOM     20  C   UNL     1       7.025   1.019   6.377  1.00  0.00     0.031 C 
ATOM     21  C   UNL     1       4.136   6.574   3.524  1.00  0.00     0.029 A 
ATOM     22  C   UNL     1       5.026   6.867   4.633  1.00  0.00     0.049 A 
ATOM     23  H   UNL     1       6.102   5.501   5.784  1.00  0.00     0.167 HD
ATOM     24  C   UNL     1       8.580   2.424   7.699  1.00  0.00     0.037 A 
ATOM     25  C   UNL     1       5.321   8.099   5.086  1.00  0.00     0.037 A 
ATOM     26  C   UNL     1       9.043   3.690   8.191  1.00  0.00     0.049 A 
ATOM     27  C   UNL     1       6.359   8.216   6.159  1.00  0.00     0.074 A 
ATOM     28  C   UNL     1      10.055   3.940   9.097  1.00  0.00     0.029 A 
ATOM     29  N   UNL     1       8.502   4.920   7.837  1.00  0.00    -0.354 N 
ATOM     30  N   UNL     1       7.069   7.264   6.712  1.00  0.00    -0.248 NA
ATOM     31  C   UNL     1       6.657   9.564   6.658  1.00  0.00     0.031 C 
ATOM     32  C   UNL     1      10.083   5.316   9.342  1.00  0.00     0.029 A 
ATOM     33  C   UNL     1       9.126   5.931   8.548  1.00  0.00     0.049 A 
ATOM     34  H   UNL     1       7.783   5.053   7.178  1.00  0.00     0.167 HD
ATOM     35  C   UNL     1       7.899   7.890   7.622  1.00  0.00     0.074 A 
ATOM     36  C   UNL     1       7.623   9.311   7.530  1.00  0.00     0.031 C 
ATOM     37  C   UNL     1       8.807   7.334   8.459  1.00  0.00     0.037 A 
BRANCH  24  38
ATOM     38  C   UNL     1       9.227   1.166   8.178  1.00  0.00     0.064 A 
ATOM     39  C   UNL     1      10.058   0.406   7.342  1.00  0.00     0.173 A 
ATOM     40  C   UNL     1       8.998   0.707   9.481  1.00  0.00     0.173 A 
ATOM     41  F   UNL     1      10.274   0.789   6.074  1.00  0.00    -0.203 F 
ATOM     42  C   UNL     1      10.630  -0.779   7.793  1.00  0.00     0.198 A 
ATOM     43  C   UNL     1       9.590  -0.467   9.936  1.00  0.00     0.198 A 
ATOM     44  F   UNL     1       8.192   1.391  10.307  1.00  0.00    -0.203 F 
ATOM     45  F   UNL     1      11.385  -1.515   6.966  1.00  0.00    -0.200 F 
ATOM     46  C   UNL     1      10.401  -1.210   9.092  1.00  0.00     0.200 A 
ATOM     47  F   UNL     1       9.364  -0.885  11.189  1.00  0.00    -0.200 F 
ATOM     48  F   UNL     1      10.953  -2.351   9.526  1.00  0.00    -0.200 F 
ENDBRANCH  24  38
BRANCH  25  49
ATOM     49  C   UNL     1       4.631   9.302   4.548  1.00  0.00     0.064 A 
ATOM     50  C   UNL     1       5.267  10.185   3.668  1.00  0.00     0.173 A 
ATOM     51  C   UNL     1       3.321   9.611   4.946  1.00  0.00     0.173 A 
ATOM     52  F   UNL     1       6.534   9.958   3.292  1.00  0.00    -0.203 F 
ATOM     53  C   UNL     1       4.621  11.335   3.208  1.00  0.00     0.198 A 
ATOM     54  C   UNL     1       2.669  10.749   4.472  1.00  0.00     0.198 A 
ATOM     55  F   UNL     1       2.687   8.824   5.826  1.00  0.00    -0.203 F 
ATOM     56  F   UNL     1       5.272  12.190   2.406  1.00  0.00    -0.200 F 
ATOM     57  C   UNL     1       3.322  11.614   3.607  1.00  0.00     0.200 A 
ATOM     58  F   UNL     1       1.421  11.022   4.878  1.00  0.00    -0.200 F 
ATOM     59  F   UNL     1       2.715  12.732   3.186  1.00  0.00    -0.200 F 
ENDBRANCH  25  49
BRANCH  37  60
ATOM     60  C   UNL     1       9.539   8.260   9.376  1.00  0.00     0.064 A 
ATOM     61  C   UNL     1       8.902   8.826  10.489  1.00  0.00     0.173 A 
ATOM     62  C   UNL     1      10.907   8.507   9.196  1.00  0.00     0.173 A 
ATOM     63  F   UNL     1       7.589   8.630  10.688  1.00  0.00    -0.203 F 
ATOM     64  C   UNL     1       9.612   9.607  11.393  1.00  0.00     0.198 A 
ATOM     65  C   UNL     1      11.620   9.263  10.119  1.00  0.00     0.198 A 
ATOM     66  F   UNL     1      11.557   7.983   8.145  1.00  0.00    -0.203 F 
ATOM     67  F   UNL     1       8.981  10.157  12.439  1.00  0.00    -0.200 F 
ATOM     68  C   UNL     1      10.972   9.812  11.216  1.00  0.00     0.200 A 
ATOM     69  F   UNL     1      12.937   9.448   9.956  1.00  0.00    -0.200 F 
ATOM     70  F   UNL     1      11.661  10.541  12.104  1.00  0.00    -0.200 F 
ENDBRANCH  37  60
ENDBRANCH  11  12
ENDBRANCH   4   6
ENDBRANCH   3   4
ENDBRANCH   2   3
ENDBRANCH   1   2
BRANCH   1  71
ATOM     71  O   UNL     1       3.603   1.770  -1.105  1.00  0.00    -0.460 OA
BRANCH  71  72
ATOM     72  C   UNL     1       2.247   1.972  -1.143  1.00  0.00     0.335 C 
ATOM     73  O   UNL     1       1.477   1.403  -1.897  1.00  0.00    -0.249 OA
BRANCH  72  74
ATOM     74  C   UNL     1       1.839   2.961  -0.043  1.00  0.00     0.228 C 
ATOM     75  C   UNL     1       0.395   2.793   0.391  1.00  0.00     0.047 C 
ATOM     76  O   UNL     1       1.975   4.344  -0.376  1.00  0.00    -0.361 OA
ATOM     77  C   UNL     1       0.179   4.066   1.170  1.00  0.00     0.037 C 
ATOM     78  C   UNL     1       0.976   5.093   0.365  1.00  0.00     0.138 C 
BRANCH  78  79
ATOM     79  C   UNL     1       1.697   6.106   1.258  1.00  0.00     0.148 C 
BRANCH  79  80
ATOM     80  N   UNL     1       1.319   7.496   1.099  1.00  0.00    -0.348 N 
ATOM     81  C   UNL     1       0.763   8.366   2.009  1.00  0.00     0.271 C 
ATOM     82  H   UNL     1       1.486   7.876   0.206  1.00  0.00     0.163 HD
ATOM     83  O   UNL     1       0.716   9.563   1.727  1.00  0.00    -0.267 OA
BRANCH  81  84
ATOM     84  C   UNL     1       0.182   7.910   3.298  1.00  0.00     0.151 A 
ATOM     85  C   UNL     1      -1.040   8.424   3.705  1.00  0.00     0.042 A 
ATOM     86  N   UNL     1       0.897   7.059   4.070  1.00  0.00    -0.142 NA
ATOM     87  C   UNL     1      -1.546   8.027   4.936  1.00  0.00     0.072 A 
ATOM     88  N   UNL     1       0.404   6.676   5.286  1.00  0.00    -0.112 NA
ATOM     89  C   UNL     1      -0.784   7.163   5.689  1.00  0.00     0.230 A 
BRANCH  89  90
ATOM     90  O   UNL     1      -1.209   6.763   6.915  1.00  0.00    -0.492 OA
ATOM     91  H   UNL     1      -2.029   7.069   7.250  1.00  0.00     0.295 HD
ENDBRANCH  89  90
ENDBRANCH  81  84
ENDBRANCH  79  80
ENDBRANCH  78  79
ENDBRANCH  72  74
ENDBRANCH  71  72
ENDBRANCH   1  71
TORSDOF 15
