REMARK SMILES C[C@@H](C(=O)OCCOC(=O)c1ccc(-c2c3nc(c(-c4c(F)c(F)c(F)c(F)c4F)c4ccc([nH]4)c(-c4c(F)c(F)c(F)c(F)c4F)c4nc(c(-c5c(F)c(F)c(F)c(F)c5F)c5ccc2[nH]5)C=C4)C=C3)cc1)c1ccc(-c2cccc(OC(=O)NCCC3CCCCC3)c2)c(F)c1
REMARK SMILES IDX 3 1 4 2 2 3 1 4 74 5 75 6 98 7 76 8 96 9 77 10 97 11 78 12
REMARK SMILES IDX 79 13 95 14 80 15 82 16 81 17 83 18 84 19 85 20 86 21 87 23
REMARK SMILES IDX 88 24 89 25 90 26 94 27 91 28 93 29 92 30 5 31 6 32 7 33
REMARK SMILES IDX 8 34 9 35 10 36 11 37 12 38 73 39 13 40 72 41 14 42 15 43
REMARK SMILES IDX 16 44 66 45 17 46 71 47 65 48 67 49 18 50 70 51 64 52 63 53
REMARK SMILES IDX 19 55 51 56 31 57 50 58 32 59 35 60 49 61 68 62 33 63 34 64
REMARK SMILES IDX 48 66 69 67 36 68 20 69 21 70 29 71 22 72 23 73 27 74 30 75
REMARK SMILES IDX 24 76 25 77 28 78 26 79 52 80 53 81 61 82 54 83 55 84 59 85
REMARK SMILES IDX 62 86 56 87 57 88 60 89 58 90 37 91 38 92 46 93 39 94 40 95
REMARK SMILES IDX 44 96 47 97 41 98 42 99 45 100 43 101
REMARK H PARENT 86 22 67 54 35 65
REMARK Flexibility Score: inf
ROOT
ATOM      1  C   UNL     1       1.270   2.287  -1.051  1.00  0.00     0.313 C 
ATOM      2  O   UNL     1       0.737   3.324  -1.434  1.00  0.00    -0.252 OA
ENDROOT
BRANCH   1   3
ATOM      3  C   UNL     1       0.853   1.535   0.225  1.00  0.00     0.126 C 
ATOM      4  C   UNL     1       1.542   0.170   0.355  1.00  0.00     0.025 C 
BRANCH   3   5
ATOM      5  C   UNL     1      -0.670   1.466   0.377  1.00  0.00    -0.031 A 
ATOM      6  C   UNL     1      -1.399   2.640   0.638  1.00  0.00     0.005 A 
ATOM      7  C   UNL     1      -1.396   0.277   0.230  1.00  0.00     0.044 A 
ATOM      8  C   UNL     1      -2.800   2.626   0.729  1.00  0.00     0.012 A 
ATOM      9  C   UNL     1      -2.791   0.271   0.326  1.00  0.00     0.131 A 
ATOM     10  C   UNL     1      -3.530   1.438   0.570  1.00  0.00     0.018 A 
ATOM     11  F   UNL     1      -3.417  -0.901   0.130  1.00  0.00    -0.206 F 
BRANCH  10  12
ATOM     12  C   UNL     1      -5.004   1.420   0.657  1.00  0.00    -0.012 A 
ATOM     13  C   UNL     1      -5.805   2.395   0.035  1.00  0.00     0.009 A 
ATOM     14  C   UNL     1      -5.657   0.429   1.404  1.00  0.00     0.056 A 
ATOM     15  C   UNL     1      -7.201   2.367   0.139  1.00  0.00     0.004 A 
ATOM     16  C   UNL     1      -7.040   0.455   1.575  1.00  0.00     0.133 A 
ATOM     17  C   UNL     1      -7.823   1.391   0.906  1.00  0.00     0.047 A 
BRANCH  16  18
ATOM     18  O   UNL     1      -7.725  -0.405   2.445  1.00  0.00    -0.410 OA
BRANCH  18  19
ATOM     19  C   UNL     1      -7.178  -0.576   3.711  1.00  0.00     0.412 C 
ATOM     20  O   UNL     1      -6.004  -0.478   4.030  1.00  0.00    -0.224 OA
ATOM     21  N   UNL     1      -8.113  -0.847   4.667  1.00  0.00    -0.321 N 
ATOM     22  H   UNL     1      -7.775  -0.989   5.580  1.00  0.00     0.167 HD
BRANCH  21  23
ATOM     23  C   UNL     1      -9.542  -0.951   4.491  1.00  0.00     0.119 C 
BRANCH  23  24
ATOM     24  C   UNL     1      -9.992  -2.409   4.457  1.00  0.00     0.025 C 
BRANCH  24  25
ATOM     25  C   UNL     1      -9.558  -3.227   5.691  1.00  0.00    -0.009 C 
ATOM     26  C   UNL     1     -10.191  -2.698   6.989  1.00  0.00     0.003 C 
ATOM     27  C   UNL     1      -9.897  -4.711   5.483  1.00  0.00     0.003 C 
ATOM     28  C   UNL     1      -9.821  -3.555   8.197  1.00  0.00     0.000 C 
ATOM     29  C   UNL     1      -9.503  -5.550   6.694  1.00  0.00     0.000 C 
ATOM     30  C   UNL     1     -10.153  -5.025   7.970  1.00  0.00     0.000 C 
ENDBRANCH  24  25
ENDBRANCH  23  24
ENDBRANCH  21  23
ENDBRANCH  18  19
ENDBRANCH  16  18
ENDBRANCH  10  12
ENDBRANCH   3   5
ENDBRANCH   1   3
BRANCH   1  31
ATOM     31  O   UNL     1       2.326   1.704  -1.683  1.00  0.00    -0.462 OA
BRANCH  31  32
ATOM     32  C   UNL     1       2.774   2.313  -2.910  1.00  0.00     0.274 C 
BRANCH  32  33
ATOM     33  C   UNL     1       2.337   1.478  -4.112  1.00  0.00     0.275 C 
BRANCH  33  34
ATOM     34  O   UNL     1       0.908   1.546  -4.277  1.00  0.00    -0.458 OA
BRANCH  34  35
ATOM     35  C   UNL     1       0.222   0.455  -3.870  1.00  0.00     0.338 C 
ATOM     36  O   UNL     1       0.669  -0.585  -3.419  1.00  0.00    -0.246 OA
BRANCH  35  37
ATOM     37  C   UNL     1      -1.219   0.717  -3.984  1.00  0.00     0.060 A 
ATOM     38  C   UNL     1      -1.818   1.521  -3.024  1.00  0.00     0.016 A 
ATOM     39  C   UNL     1      -1.999   0.059  -4.934  1.00  0.00     0.016 A 
ATOM     40  C   UNL     1      -3.205   1.587  -2.947  1.00  0.00     0.010 A 
ATOM     41  C   UNL     1      -3.395   0.199  -4.902  1.00  0.00     0.010 A 
ATOM     42  C   UNL     1      -4.021   0.928  -3.876  1.00  0.00    -0.014 A 
BRANCH  42  43
ATOM     43  C   UNL     1      -5.506   0.962  -3.707  1.00  0.00     0.031 A 
ATOM     44  C   UNL     1      -6.284  -0.318  -3.522  1.00  0.00     0.074 A 
ATOM     45  C   UNL     1      -6.159   2.141  -3.626  1.00  0.00     0.049 A 
ATOM     46  N   UNL     1      -7.581  -0.504  -3.470  1.00  0.00    -0.248 NA
ATOM     47  C   UNL     1      -5.502  -1.557  -3.395  1.00  0.00     0.031 C 
ATOM     48  C   UNL     1      -5.529   3.460  -3.681  1.00  0.00     0.029 A 
ATOM     49  N   UNL     1      -7.488   2.424  -3.409  1.00  0.00    -0.354 N 
ATOM     50  C   UNL     1      -7.767  -1.880  -3.392  1.00  0.00     0.074 A 
ATOM     51  C   UNL     1      -6.452  -2.482  -3.383  1.00  0.00     0.031 C 
ATOM     52  C   UNL     1      -6.440   4.397  -3.382  1.00  0.00     0.029 A 
ATOM     53  C   UNL     1      -7.745   3.763  -3.230  1.00  0.00     0.049 A 
ATOM     54  H   UNL     1      -8.188   1.733  -3.384  1.00  0.00     0.167 HD
ATOM     55  C   UNL     1      -8.931  -2.574  -3.354  1.00  0.00     0.037 A 
ATOM     56  C   UNL     1      -8.900   4.408  -2.970  1.00  0.00     0.037 A 
ATOM     57  C   UNL     1     -10.235  -1.965  -3.272  1.00  0.00     0.049 A 
ATOM     58  C   UNL     1     -10.179   3.615  -2.911  1.00  0.00     0.074 A 
ATOM     59  C   UNL     1     -11.477  -2.577  -3.265  1.00  0.00     0.029 A 
ATOM     60  N   UNL     1     -10.463  -0.602  -3.151  1.00  0.00    -0.354 N 
ATOM     61  N   UNL     1     -10.353   2.316  -2.938  1.00  0.00    -0.248 NA
ATOM     62  C   UNL     1     -11.428   4.384  -2.817  1.00  0.00     0.031 C 
ATOM     63  C   UNL     1     -12.457  -1.582  -3.192  1.00  0.00     0.029 A 
ATOM     64  C   UNL     1     -11.825  -0.353  -3.092  1.00  0.00     0.049 A 
ATOM     65  H   UNL     1      -9.760   0.087  -3.113  1.00  0.00     0.167 HD
ATOM     66  C   UNL     1     -11.725   2.114  -2.874  1.00  0.00     0.074 A 
ATOM     67  C   UNL     1     -12.334   3.420  -2.743  1.00  0.00     0.031 C 
ATOM     68  C   UNL     1     -12.420   0.952  -2.950  1.00  0.00     0.037 A 
BRANCH  55  69
ATOM     69  C   UNL     1      -8.861  -4.070  -3.487  1.00  0.00     0.064 A 
ATOM     70  C   UNL     1      -8.389  -4.902  -2.463  1.00  0.00     0.173 A 
ATOM     71  C   UNL     1      -9.318  -4.681  -4.667  1.00  0.00     0.173 A 
ATOM     72  F   UNL     1      -7.934  -4.373  -1.318  1.00  0.00    -0.203 F 
ATOM     73  C   UNL     1      -8.350  -6.287  -2.626  1.00  0.00     0.198 A 
ATOM     74  C   UNL     1      -9.309  -6.065  -4.814  1.00  0.00     0.198 A 
ATOM     75  F   UNL     1      -9.791  -3.934  -5.677  1.00  0.00    -0.203 F 
ATOM     76  F   UNL     1      -7.851  -7.061  -1.653  1.00  0.00    -0.200 F 
ATOM     77  C   UNL     1      -8.817  -6.867  -3.797  1.00  0.00     0.200 A 
ATOM     78  F   UNL     1      -9.780  -6.622  -5.938  1.00  0.00    -0.200 F 
ATOM     79  F   UNL     1      -8.789  -8.198  -3.947  1.00  0.00    -0.200 F 
ENDBRANCH  55  69
BRANCH  56  80
ATOM     80  C   UNL     1      -8.911   5.881  -2.740  1.00  0.00     0.064 A 
ATOM     81  C   UNL     1      -9.338   6.409  -1.512  1.00  0.00     0.173 A 
ATOM     82  C   UNL     1      -8.516   6.792  -3.731  1.00  0.00     0.173 A 
ATOM     83  F   UNL     1      -9.751   5.585  -0.536  1.00  0.00    -0.203 F 
ATOM     84  C   UNL     1      -9.385   7.784  -1.292  1.00  0.00     0.198 A 
ATOM     85  C   UNL     1      -8.518   8.165  -3.494  1.00  0.00     0.198 A 
ATOM     86  F   UNL     1      -8.107   6.349  -4.929  1.00  0.00    -0.203 F 
ATOM     87  F   UNL     1      -9.855   8.259  -0.130  1.00  0.00    -0.200 F 
ATOM     88  C   UNL     1      -8.964   8.661  -2.279  1.00  0.00     0.200 A 
ATOM     89  F   UNL     1      -8.089   9.006  -4.445  1.00  0.00    -0.200 F 
ATOM     90  F   UNL     1      -8.997   9.983  -2.064  1.00  0.00    -0.200 F 
ENDBRANCH  56  80
BRANCH  68  91
ATOM     91  C   UNL     1     -13.919   1.038  -2.889  1.00  0.00     0.064 A 
ATOM     92  C   UNL     1     -14.665   1.587  -3.944  1.00  0.00     0.173 A 
ATOM     93  C   UNL     1     -14.621   0.524  -1.788  1.00  0.00     0.173 A 
ATOM     94  F   UNL     1     -14.043   2.103  -5.015  1.00  0.00    -0.203 F 
ATOM     95  C   UNL     1     -16.055   1.647  -3.884  1.00  0.00     0.198 A 
ATOM     96  C   UNL     1     -16.012   0.555  -1.747  1.00  0.00     0.198 A 
ATOM     97  F   UNL     1     -13.958  -0.020  -0.757  1.00  0.00    -0.203 F 
ATOM     98  F   UNL     1     -16.742   2.224  -4.880  1.00  0.00    -0.200 F 
ATOM     99  C   UNL     1     -16.727   1.124  -2.790  1.00  0.00     0.200 A 
ATOM    100  F   UNL     1     -16.662   0.035  -0.697  1.00  0.00    -0.200 F 
ATOM    101  F   UNL     1     -18.066   1.175  -2.738  1.00  0.00    -0.200 F 
ENDBRANCH  68  91
ENDBRANCH  42  43
ENDBRANCH  35  37
ENDBRANCH  34  35
ENDBRANCH  33  34
ENDBRANCH  32  33
ENDBRANCH  31  32
ENDBRANCH   1  31
TORSDOF 18
