REMARK SMILES NS(=O)(=O)c1ccc(-n2nc(C(=O)OCCOC(=O)c3ccc(-c4c5nc(c(-c6c(F)c(F)c(F)c(F)c6F)c6ccc([nH]6)c(-c6c(F)c(F)c(F)c(F)c6F)c6nc(c(-c7c(F)c(F)c(F)c(F)c7F)c7ccc4[nH]7)C=C6)C=C5)cc3)c(Cl)c2-c2ccc(Cl)cc2)cc1
REMARK SMILES IDX 15 1 14 2 12 3 13 4 11 5 9 6 10 7 85 8 83 9 84 10 8 11 5 12
REMARK SMILES IDX 6 13 94 14 7 15 93 16 2 17 3 18 4 19 1 20 86 23 87 24 92 25
REMARK SMILES IDX 88 26 91 27 89 28 90 29 16 30 17 31 18 32 19 33 20 34 21 35
REMARK SMILES IDX 82 36 22 37 81 38 23 39 24 40 25 41 75 42 26 43 80 44 74 45
REMARK SMILES IDX 76 46 27 47 79 48 73 49 72 50 28 52 60 53 40 54 59 55 41 56
REMARK SMILES IDX 44 57 58 58 77 59 42 60 43 61 57 63 78 64 45 65 29 66 30 67
REMARK SMILES IDX 38 68 31 69 32 70 36 71 39 72 33 73 34 74 37 75 35 76 61 77
REMARK SMILES IDX 62 78 70 79 63 80 64 81 68 82 71 83 65 84 66 85 69 86 67 87
REMARK SMILES IDX 46 88 47 89 55 90 48 91 49 92 53 93 56 94 50 95 51 96 54 97
REMARK SMILES IDX 52 98
REMARK H PARENT 1 21 1 22 76 51 44 62
REMARK Flexibility Score: inf
ROOT
ATOM      1  C   UNL     1       4.267  -9.794   7.560  1.00  0.00     0.275 C 
ENDROOT
BRANCH   1   2
ATOM      2  O   UNL     1       3.500  -8.627   7.237  1.00  0.00    -0.457 OA
BRANCH   2   3
ATOM      3  C   UNL     1       3.813  -7.895   6.125  1.00  0.00     0.360 C 
ATOM      4  O   UNL     1       4.838  -8.060   5.471  1.00  0.00    -0.244 OA
BRANCH   3   5
ATOM      5  C   UNL     1       2.772  -6.894   5.824  1.00  0.00     0.190 A 
ATOM      6  N   UNL     1       1.789  -5.209   4.927  1.00  0.00    -0.231 N 
ATOM      7  N   UNL     1       2.814  -6.078   4.742  1.00  0.00    -0.159 NA
ATOM      8  C   UNL     1       1.071  -5.471   6.078  1.00  0.00     0.094 A 
ATOM      9  C   UNL     1       1.616  -6.623   6.598  1.00  0.00     0.102 A 
ATOM     10  Cl  UNL     1       1.028  -7.454   7.972  1.00  0.00    -0.079 Cl
BRANCH   6  11
ATOM     11  C   UNL     1       1.649  -4.064   4.107  1.00  0.00     0.065 A 
ATOM     12  C   UNL     1       0.995  -1.780   2.665  1.00  0.00     0.082 A 
ATOM     13  C   UNL     1       0.875  -3.039   2.059  1.00  0.00     0.024 A 
ATOM     14  C   UNL     1       1.488  -1.657   3.966  1.00  0.00     0.024 A 
ATOM     15  C   UNL     1       1.225  -4.193   2.777  1.00  0.00     0.030 A 
ATOM     16  C   UNL     1       1.800  -2.802   4.694  1.00  0.00     0.030 A 
BRANCH  12  17
ATOM     17  S   UNL     1       0.460  -0.318   1.823  1.00  0.00     0.238 S 
ATOM     18  O   UNL     1       1.051   0.838   2.462  1.00  0.00    -0.207 OA
ATOM     19  O   UNL     1      -0.956  -0.426   1.574  1.00  0.00    -0.207 OA
BRANCH  17  20
ATOM     20  N   UNL     1       1.214  -0.415   0.327  1.00  0.00    -0.225 NA
ATOM     21  H   UNL     1       0.960   0.397  -0.235  1.00  0.00     0.137 HD
ATOM     22  H   UNL     1       0.914  -1.265  -0.150  1.00  0.00     0.137 HD
ENDBRANCH  17  20
ENDBRANCH  12  17
ENDBRANCH   6  11
BRANCH   8  23
ATOM     23  C   UNL     1      -0.030  -4.690   6.627  1.00  0.00     0.002 A 
ATOM     24  C   UNL     1       0.116  -4.162   7.920  1.00  0.00     0.012 A 
ATOM     25  C   UNL     1      -1.255  -4.575   5.966  1.00  0.00     0.012 A 
ATOM     26  C   UNL     1      -0.964  -3.571   8.569  1.00  0.00     0.021 A 
ATOM     27  C   UNL     1      -2.337  -3.973   6.616  1.00  0.00     0.021 A 
ATOM     28  C   UNL     1      -2.191  -3.491   7.917  1.00  0.00     0.041 A 
ATOM     29  Cl  UNL     1      -3.542  -2.820   8.742  1.00  0.00    -0.084 Cl
ENDBRANCH   8  23
ENDBRANCH   3   5
ENDBRANCH   2   3
ENDBRANCH   1   2
BRANCH   1  30
ATOM     30  C   UNL     1       3.708 -11.012   6.847  1.00  0.00     0.275 C 
BRANCH  30  31
ATOM     31  O   UNL     1       4.089 -10.991   5.476  1.00  0.00    -0.458 OA
BRANCH  31  32
ATOM     32  C   UNL     1       3.188 -10.460   4.622  1.00  0.00     0.338 C 
ATOM     33  O   UNL     1       2.197  -9.806   4.897  1.00  0.00    -0.246 OA
BRANCH  32  34
ATOM     34  C   UNL     1       3.474 -10.980   3.285  1.00  0.00     0.060 A 
ATOM     35  C   UNL     1       2.757 -10.451   2.210  1.00  0.00     0.016 A 
ATOM     36  C   UNL     1       4.238 -12.152   3.166  1.00  0.00     0.016 A 
ATOM     37  C   UNL     1       2.676 -11.197   1.054  1.00  0.00     0.010 A 
ATOM     38  C   UNL     1       4.143 -12.901   2.022  1.00  0.00     0.010 A 
ATOM     39  C   UNL     1       3.307 -12.448   1.010  1.00  0.00    -0.014 A 
BRANCH  39  40
ATOM     40  C   UNL     1       3.173 -13.242  -0.189  1.00  0.00     0.031 A 
ATOM     41  C   UNL     1       3.935 -12.687  -1.327  1.00  0.00     0.074 A 
ATOM     42  C   UNL     1       2.520 -14.416  -0.222  1.00  0.00     0.049 A 
ATOM     43  N   UNL     1       3.455 -12.145  -2.394  1.00  0.00    -0.248 NA
ATOM     44  C   UNL     1       5.394 -12.564  -1.187  1.00  0.00     0.031 C 
ATOM     45  C   UNL     1       1.989 -15.206   0.891  1.00  0.00     0.029 A 
ATOM     46  N   UNL     1       2.262 -15.198  -1.302  1.00  0.00    -0.354 N 
ATOM     47  C   UNL     1       4.558 -11.772  -3.152  1.00  0.00     0.074 A 
ATOM     48  C   UNL     1       5.707 -11.890  -2.293  1.00  0.00     0.031 C 
ATOM     49  C   UNL     1       1.672 -16.446   0.445  1.00  0.00     0.029 A 
ATOM     50  C   UNL     1       1.845 -16.485  -0.998  1.00  0.00     0.049 A 
ATOM     51  H   UNL     1       2.364 -14.877  -2.227  1.00  0.00     0.167 HD
ATOM     52  C   UNL     1       4.457 -11.638  -4.501  1.00  0.00     0.037 A 
ATOM     53  C   UNL     1       1.723 -17.506  -1.882  1.00  0.00     0.037 A 
ATOM     54  C   UNL     1       3.081 -11.511  -4.910  1.00  0.00     0.049 A 
ATOM     55  C   UNL     1       1.628 -16.905  -3.240  1.00  0.00     0.074 A 
ATOM     56  C   UNL     1       2.077 -10.595  -4.660  1.00  0.00     0.029 A 
ATOM     57  N   UNL     1       2.451 -12.635  -5.385  1.00  0.00    -0.354 N 
ATOM     58  N   UNL     1       0.613 -16.197  -3.649  1.00  0.00    -0.248 NA
ATOM     59  C   UNL     1       2.868 -16.700  -3.975  1.00  0.00     0.031 C 
ATOM     60  C   UNL     1       0.886 -11.372  -4.545  1.00  0.00     0.029 A 
ATOM     61  C   UNL     1       1.217 -12.705  -4.792  1.00  0.00     0.049 A 
ATOM     62  H   UNL     1       2.819 -13.275  -6.036  1.00  0.00     0.167 HD
ATOM     63  C   UNL     1       1.177 -15.160  -4.378  1.00  0.00     0.074 A 
ATOM     64  C   UNL     1       2.559 -15.569  -4.615  1.00  0.00     0.031 C 
ATOM     65  C   UNL     1       0.555 -13.948  -4.469  1.00  0.00     0.037 A 
BRANCH  52  66
ATOM     66  C   UNL     1       5.551 -12.018  -5.463  1.00  0.00     0.064 A 
ATOM     67  C   UNL     1       5.397 -11.706  -6.827  1.00  0.00     0.173 A 
ATOM     68  C   UNL     1       6.580 -12.935  -5.157  1.00  0.00     0.173 A 
ATOM     69  F   UNL     1       4.435 -10.862  -7.230  1.00  0.00    -0.203 F 
ATOM     70  C   UNL     1       6.163 -12.329  -7.814  1.00  0.00     0.198 A 
ATOM     71  C   UNL     1       7.380 -13.512  -6.141  1.00  0.00     0.198 A 
ATOM     72  F   UNL     1       6.779 -13.404  -3.920  1.00  0.00    -0.203 F 
ATOM     73  F   UNL     1       5.892 -12.102  -9.106  1.00  0.00    -0.200 F 
ATOM     74  C   UNL     1       7.149 -13.236  -7.471  1.00  0.00     0.200 A 
ATOM     75  F   UNL     1       8.315 -14.405  -5.787  1.00  0.00    -0.200 F 
ATOM     76  F   UNL     1       7.840 -13.883  -8.418  1.00  0.00    -0.200 F 
ENDBRANCH  52  66
BRANCH  53  77
ATOM     77  C   UNL     1       2.051 -18.938  -1.676  1.00  0.00     0.064 A 
ATOM     78  C   UNL     1       1.622 -19.916  -2.589  1.00  0.00     0.173 A 
ATOM     79  C   UNL     1       3.035 -19.335  -0.750  1.00  0.00     0.173 A 
ATOM     80  F   UNL     1       0.724 -19.606  -3.535  1.00  0.00    -0.203 F 
ATOM     81  C   UNL     1       2.166 -21.205  -2.593  1.00  0.00     0.198 A 
ATOM     82  C   UNL     1       3.573 -20.623  -0.751  1.00  0.00     0.198 A 
ATOM     83  F   UNL     1       3.567 -18.455   0.110  1.00  0.00    -0.203 F 
ATOM     84  F   UNL     1       1.779 -22.092  -3.521  1.00  0.00    -0.200 F 
ATOM     85  C   UNL     1       3.149 -21.554  -1.682  1.00  0.00     0.200 A 
ATOM     86  F   UNL     1       4.552 -20.935   0.110  1.00  0.00    -0.200 F 
ATOM     87  F   UNL     1       3.717 -22.767  -1.727  1.00  0.00    -0.200 F 
ENDBRANCH  53  77
BRANCH  65  88
ATOM     88  C   UNL     1      -0.867 -13.855  -3.990  1.00  0.00     0.064 A 
ATOM     89  C   UNL     1      -1.270 -14.068  -2.659  1.00  0.00     0.173 A 
ATOM     90  C   UNL     1      -1.839 -13.399  -4.891  1.00  0.00     0.173 A 
ATOM     91  F   UNL     1      -0.384 -14.407  -1.715  1.00  0.00    -0.203 F 
ATOM     92  C   UNL     1      -2.594 -13.876  -2.265  1.00  0.00     0.198 A 
ATOM     93  C   UNL     1      -3.151 -13.171  -4.486  1.00  0.00     0.198 A 
ATOM     94  F   UNL     1      -1.501 -13.127  -6.161  1.00  0.00    -0.203 F 
ATOM     95  F   UNL     1      -2.957 -14.099  -0.993  1.00  0.00    -0.200 F 
ATOM     96  C   UNL     1      -3.531 -13.421  -3.177  1.00  0.00     0.200 A 
ATOM     97  F   UNL     1      -4.041 -12.683  -5.360  1.00  0.00    -0.200 F 
ATOM     98  F   UNL     1      -4.795 -13.196  -2.790  1.00  0.00    -0.200 F 
ENDBRANCH  65  88
ENDBRANCH  39  40
ENDBRANCH  32  34
ENDBRANCH  31  32
ENDBRANCH  30  31
ENDBRANCH   1  30
TORSDOF 15
