REMARK SMILES Cc1c(NC(=S)NC(=O)CSc2ccc(Cl)cc2)cccc1C(=O)OCCOC(=O)c1ccc(-c2c3nc(c(-c4c(F)c(F)c(F)c(F)c4F)c4ccc([nH]4)c(-c4c(F)c(F)c(F)c(F)c4F)c4nc(c(-c5c(F)c(F)c(F)c(F)c5F)c5ccc2[nH]5)C=C4)C=C3)cc1
REMARK SMILES IDX 23 1 24 2 22 3 1 4 2 5 3 6 19 7 21 8 20 9 4 10 5 12 6 13
REMARK SMILES IDX 7 14 8 15 9 17 10 18 11 19 12 20 13 21 18 22 14 23 17 24
REMARK SMILES IDX 15 25 16 26 25 27 26 28 27 29 28 30 29 31 30 32 31 33 32 34
REMARK SMILES IDX 93 35 33 36 92 37 34 38 35 39 36 40 86 41 37 42 91 43 85 44
REMARK SMILES IDX 87 45 38 46 90 47 84 48 83 49 39 51 71 52 51 53 70 54 52 55
REMARK SMILES IDX 55 56 69 57 88 58 53 59 54 60 68 62 89 63 56 64 40 65 41 66
REMARK SMILES IDX 49 67 42 68 43 69 47 70 50 71 44 72 45 73 48 74 46 75 72 76
REMARK SMILES IDX 73 77 81 78 74 79 75 80 79 81 82 82 76 83 77 84 80 85 78 86
REMARK SMILES IDX 57 87 58 88 66 89 59 90 60 91 64 92 67 93 61 94 62 95 65 96
REMARK SMILES IDX 63 97
REMARK H PARENT 4 11 7 16 87 50 55 61
REMARK Flexibility Score: inf
ROOT
ATOM      1  C   UNL     1       2.377   1.413  -1.179  1.00  0.00     0.338 C 
ATOM      2  O   UNL     1       3.027   1.503  -0.150  1.00  0.00    -0.246 OA
ENDROOT
BRANCH   1   3
ATOM      3  C   UNL     1       1.393   0.336  -1.419  1.00  0.00     0.065 A 
ATOM      4  C   UNL     1       3.046  -1.357  -0.472  1.00  0.00     0.047 C 
ATOM      5  C   UNL     1       1.687  -0.985  -1.023  1.00  0.00    -0.013 A 
ATOM      6  C   UNL     1       0.669  -1.961  -1.130  1.00  0.00     0.044 A 
ATOM      7  C   UNL     1      -0.525  -1.653  -1.784  1.00  0.00     0.026 A 
ATOM      8  C   UNL     1       0.148   0.655  -1.978  1.00  0.00     0.016 A 
ATOM      9  C   UNL     1      -0.798  -0.344  -2.183  1.00  0.00     0.003 A 
BRANCH   6  10
ATOM     10  N   UNL     1       0.910  -3.228  -0.575  1.00  0.00    -0.332 N 
ATOM     11  H   UNL     1       1.863  -3.379  -0.382  1.00  0.00     0.169 HD
BRANCH  10  12
ATOM     12  C   UNL     1       0.148  -4.276  -0.247  1.00  0.00     0.177 C 
ATOM     13  S   UNL     1       0.929  -5.758  -0.121  1.00  0.00    -0.040 S 
BRANCH  12  14
ATOM     14  N   UNL     1      -1.187  -4.264   0.034  1.00  0.00    -0.302 N 
ATOM     15  C   UNL     1      -2.259  -3.464   0.398  1.00  0.00     0.236 C 
ATOM     16  H   UNL     1      -1.519  -5.186  -0.059  1.00  0.00     0.172 HD
ATOM     17  O   UNL     1      -3.373  -3.999   0.296  1.00  0.00    -0.274 OA
BRANCH  15  18
ATOM     18  C   UNL     1      -2.179  -2.027   0.864  1.00  0.00     0.175 C 
BRANCH  18  19
ATOM     19  S   UNL     1      -0.759  -1.615   1.912  1.00  0.00    -0.116 SA
BRANCH  19  20
ATOM     20  C   UNL     1      -1.595  -1.473   3.468  1.00  0.00     0.008 A 
ATOM     21  C   UNL     1      -1.929  -0.217   3.983  1.00  0.00     0.016 A 
ATOM     22  C   UNL     1      -1.940  -2.631   4.169  1.00  0.00     0.016 A 
ATOM     23  C   UNL     1      -2.625  -0.122   5.190  1.00  0.00     0.021 A 
ATOM     24  C   UNL     1      -2.635  -2.536   5.374  1.00  0.00     0.021 A 
ATOM     25  C   UNL     1      -2.977  -1.282   5.878  1.00  0.00     0.041 A 
ATOM     26  Cl  UNL     1      -3.841  -1.170   7.361  1.00  0.00    -0.084 Cl
ENDBRANCH  19  20
ENDBRANCH  18  19
ENDBRANCH  15  18
ENDBRANCH  12  14
ENDBRANCH  10  12
ENDBRANCH   6  10
ENDBRANCH   1   3
BRANCH   1  27
ATOM     27  O   UNL     1       2.492   2.214  -2.268  1.00  0.00    -0.458 OA
BRANCH  27  28
ATOM     28  C   UNL     1       3.539   3.183  -2.154  1.00  0.00     0.275 C 
BRANCH  28  29
ATOM     29  C   UNL     1       3.233   4.468  -2.932  1.00  0.00     0.275 C 
BRANCH  29  30
ATOM     30  O   UNL     1       1.961   5.167  -2.798  1.00  0.00    -0.458 OA
BRANCH  30  31
ATOM     31  C   UNL     1       0.858   4.665  -2.184  1.00  0.00     0.338 C 
ATOM     32  O   UNL     1      -0.198   4.483  -2.737  1.00  0.00    -0.246 OA
BRANCH  31  33
ATOM     33  C   UNL     1       1.033   4.447  -0.733  1.00  0.00     0.060 A 
ATOM     34  C   UNL     1       0.141   3.599  -0.049  1.00  0.00     0.016 A 
ATOM     35  C   UNL     1       2.158   4.971  -0.107  1.00  0.00     0.016 A 
ATOM     36  C   UNL     1       0.429   3.198   1.248  1.00  0.00     0.010 A 
ATOM     37  C   UNL     1       2.532   4.446   1.097  1.00  0.00     0.010 A 
ATOM     38  C   UNL     1       1.635   3.622   1.797  1.00  0.00    -0.014 A 
BRANCH  38  39
ATOM     39  C   UNL     1       1.931   3.591   3.214  1.00  0.00     0.031 A 
ATOM     40  C   UNL     1       2.531   2.419   3.859  1.00  0.00     0.074 A 
ATOM     41  C   UNL     1       1.802   4.835   3.731  1.00  0.00     0.049 A 
ATOM     42  N   UNL     1       2.669   2.312   5.130  1.00  0.00    -0.248 NA
ATOM     43  C   UNL     1       3.005   1.235   3.150  1.00  0.00     0.031 C 
ATOM     44  C   UNL     1       2.307   5.452   4.940  1.00  0.00     0.029 A 
ATOM     45  N   UNL     1       0.988   5.841   3.162  1.00  0.00    -0.354 N 
ATOM     46  C   UNL     1       3.506   1.242   5.387  1.00  0.00     0.074 A 
ATOM     47  C   UNL     1       3.584   0.536   4.135  1.00  0.00     0.031 C 
ATOM     48  C   UNL     1       1.554   6.543   5.201  1.00  0.00     0.029 A 
ATOM     49  C   UNL     1       0.458   6.556   4.234  1.00  0.00     0.049 A 
ATOM     50  H   UNL     1       0.829   6.004   2.204  1.00  0.00     0.167 HD
ATOM     51  C   UNL     1       4.127   1.216   6.603  1.00  0.00     0.037 A 
ATOM     52  C   UNL     1      -0.863   6.347   4.517  1.00  0.00     0.037 A 
ATOM     53  C   UNL     1       3.574   2.292   7.429  1.00  0.00     0.049 A 
ATOM     54  C   UNL     1      -0.977   5.651   5.849  1.00  0.00     0.074 A 
ATOM     55  C   UNL     1       3.996   3.592   7.649  1.00  0.00     0.029 A 
ATOM     56  N   UNL     1       2.229   2.241   7.784  1.00  0.00    -0.354 N 
ATOM     57  N   UNL     1      -0.160   4.723   6.274  1.00  0.00    -0.248 NA
ATOM     58  C   UNL     1      -1.944   6.078   6.849  1.00  0.00     0.031 C 
ATOM     59  C   UNL     1       2.854   4.353   8.022  1.00  0.00     0.029 A 
ATOM     60  C   UNL     1       1.750   3.512   8.042  1.00  0.00     0.049 A 
ATOM     61  H   UNL     1       1.695   1.416   7.843  1.00  0.00     0.167 HD
ATOM     62  C   UNL     1      -0.402   4.511   7.606  1.00  0.00     0.074 A 
ATOM     63  C   UNL     1      -1.546   5.357   7.908  1.00  0.00     0.031 C 
ATOM     64  C   UNL     1       0.362   3.719   8.416  1.00  0.00     0.037 A 
BRANCH  51  65
ATOM     65  C   UNL     1       5.383   0.455   6.996  1.00  0.00     0.064 A 
ATOM     66  C   UNL     1       6.097   0.837   8.161  1.00  0.00     0.173 A 
ATOM     67  C   UNL     1       5.990  -0.584   6.265  1.00  0.00     0.173 A 
ATOM     68  F   UNL     1       5.625   1.774   8.995  1.00  0.00    -0.203 F 
ATOM     69  C   UNL     1       7.330   0.281   8.517  1.00  0.00     0.198 A 
ATOM     70  C   UNL     1       7.228  -1.140   6.622  1.00  0.00     0.198 A 
ATOM     71  F   UNL     1       5.415  -1.122   5.188  1.00  0.00    -0.203 F 
ATOM     72  F   UNL     1       7.964   0.716   9.616  1.00  0.00    -0.200 F 
ATOM     73  C   UNL     1       7.904  -0.701   7.740  1.00  0.00     0.200 A 
ATOM     74  F   UNL     1       7.763  -2.108   5.862  1.00  0.00    -0.200 F 
ATOM     75  F   UNL     1       9.091  -1.226   8.071  1.00  0.00    -0.200 F 
ENDBRANCH  51  65
BRANCH  52  76
ATOM     76  C   UNL     1      -1.722   6.099   3.306  1.00  0.00     0.064 A 
ATOM     77  C   UNL     1      -1.667   7.030   2.239  1.00  0.00     0.173 A 
ATOM     78  C   UNL     1      -2.366   4.885   3.039  1.00  0.00     0.173 A 
ATOM     79  F   UNL     1      -1.073   8.222   2.420  1.00  0.00    -0.203 F 
ATOM     80  C   UNL     1      -2.126   6.722   0.957  1.00  0.00     0.198 A 
ATOM     81  C   UNL     1      -2.851   4.588   1.755  1.00  0.00     0.198 A 
ATOM     82  F   UNL     1      -2.470   3.943   3.986  1.00  0.00    -0.203 F 
ATOM     83  F   UNL     1      -1.947   7.593  -0.047  1.00  0.00    -0.200 F 
ATOM     84  C   UNL     1      -2.707   5.493   0.712  1.00  0.00     0.200 A 
ATOM     85  F   UNL     1      -3.393   3.386   1.506  1.00  0.00    -0.200 F 
ATOM     86  F   UNL     1      -3.090   5.162  -0.530  1.00  0.00    -0.200 F 
ENDBRANCH  52  76
BRANCH  64  87
ATOM     87  C   UNL     1      -0.121   3.152   9.726  1.00  0.00     0.064 A 
ATOM     88  C   UNL     1      -1.480   2.933  10.005  1.00  0.00     0.173 A 
ATOM     89  C   UNL     1       0.791   2.640  10.678  1.00  0.00     0.173 A 
ATOM     90  F   UNL     1      -2.436   3.232   9.115  1.00  0.00    -0.203 F 
ATOM     91  C   UNL     1      -1.900   2.338  11.193  1.00  0.00     0.198 A 
ATOM     92  C   UNL     1       0.369   1.970  11.822  1.00  0.00     0.198 A 
ATOM     93  F   UNL     1       2.118   2.738  10.513  1.00  0.00    -0.203 F 
ATOM     94  F   UNL     1      -3.211   2.223  11.444  1.00  0.00    -0.200 F 
ATOM     95  C   UNL     1      -0.977   1.845  12.094  1.00  0.00     0.200 A 
ATOM     96  F   UNL     1       1.276   1.428  12.647  1.00  0.00    -0.200 F 
ATOM     97  F   UNL     1      -1.385   1.228  13.209  1.00  0.00    -0.200 F 
ENDBRANCH  64  87
ENDBRANCH  38  39
ENDBRANCH  31  33
ENDBRANCH  30  31
ENDBRANCH  29  30
ENDBRANCH  28  29
ENDBRANCH  27  28
ENDBRANCH   1  27
TORSDOF 17
