REMARK SMILES C[NH+]1CCN(c2nc3c(cc2F)c(=O)c(C(=O)OCCOC(=O)c2ccc(-c4c5nc(c(-c6c(F)c(F)c(F)c(F)c6F)c6ccc([nH]6)c(-c6c(F)c(F)c(F)c(F)c6F)c6nc(c(-c7c(F)c(F)c(F)c(F)c7F)c7ccc4[nH]7)C=C6)C=C5)cc2)cn3-c2ccc(F)cc2F)CC1
REMARK SMILES IDX 20 1 19 2 18 3 16 4 17 5 15 6 6 7 7 8 11 9 8 10 10 11 12 12
REMARK SMILES IDX 9 13 88 14 13 15 87 16 14 17 5 18 1 19 2 20 3 21 98 22 4 24
REMARK SMILES IDX 97 25 89 26 90 27 95 28 91 29 94 30 96 31 92 32 93 33 21 34
REMARK SMILES IDX 22 35 23 36 24 37 25 38 86 39 26 40 85 41 27 42 28 43 29 44
REMARK SMILES IDX 79 45 30 46 84 47 78 48 80 49 31 50 83 51 77 52 76 53 32 55
REMARK SMILES IDX 64 56 44 57 63 58 45 59 48 60 62 61 81 62 46 63 47 64 61 66
REMARK SMILES IDX 82 67 49 68 33 69 34 70 42 71 35 72 36 73 40 74 43 75 37 76
REMARK SMILES IDX 38 77 41 78 39 79 65 80 66 81 74 82 67 83 68 84 72 85 75 86
REMARK SMILES IDX 69 87 70 88 73 89 71 90 50 91 51 92 59 93 52 94 53 95 57 96
REMARK SMILES IDX 60 97 54 98 55 99 58 100 56 101
REMARK H PARENT 2 23 80 54 48 65
REMARK Flexibility Score: inf
ROOT
ATOM      1  C   UNL     1     -11.247   1.162   4.542  1.00  0.00     0.275 C 
ENDROOT
BRANCH   1   2
ATOM      2  C   UNL     1     -10.669  -0.224   4.273  1.00  0.00     0.275 C 
BRANCH   2   3
ATOM      3  O   UNL     1      -9.328  -0.113   3.762  1.00  0.00    -0.458 OA
BRANCH   3   4
ATOM      4  C   UNL     1      -9.161  -0.334   2.439  1.00  0.00     0.343 C 
ATOM      5  O   UNL     1     -10.043  -0.609   1.636  1.00  0.00    -0.246 OA
BRANCH   4   6
ATOM      6  C   UNL     1      -7.763  -0.104   2.038  1.00  0.00     0.124 A 
ATOM      7  C   UNL     1      -2.811  -0.172   0.996  1.00  0.00     0.167 A 
ATOM      8  N   UNL     1      -3.883   0.402   0.400  1.00  0.00    -0.209 NA
ATOM      9  C   UNL     1      -2.934  -0.843   2.219  1.00  0.00     0.166 A 
ATOM     10  C   UNL     1      -5.111   0.263   0.971  1.00  0.00     0.151 A 
ATOM     11  C   UNL     1      -4.159  -0.935   2.846  1.00  0.00     0.059 A 
ATOM     12  F   UNL     1      -1.863  -1.392   2.814  1.00  0.00    -0.203 F 
ATOM     13  C   UNL     1      -5.265  -0.387   2.206  1.00  0.00     0.069 A 
ATOM     14  N   UNL     1      -6.278   0.755   0.299  1.00  0.00    -0.297 N 
ATOM     15  C   UNL     1      -6.598  -0.547   2.822  1.00  0.00     0.205 A 
ATOM     16  C   UNL     1      -7.520   0.492   0.862  1.00  0.00     0.113 A 
ATOM     17  O   UNL     1      -6.707  -1.095   3.913  1.00  0.00    -0.288 OA
BRANCH   7  18
ATOM     18  N   UNL     1      -1.586  -0.093   0.382  1.00  0.00    -0.343 N 
ATOM     19  C   UNL     1       2.584   0.182  -0.035  1.00  0.00     0.332 C 
ATOM     20  N   UNL     1       1.179   0.049  -0.420  1.00  0.00    -0.334 N 
ATOM     21  C   UNL     1       0.410   1.251  -0.003  1.00  0.00     0.283 C 
ATOM     22  C   UNL     1       0.604  -1.167   0.204  1.00  0.00     0.283 C 
ATOM     23  H   UNL     1       1.120  -0.034  -1.435  1.00  0.00     0.347 HD
ATOM     24  C   UNL     1      -1.120   1.133  -0.250  1.00  0.00     0.179 C 
ATOM     25  C   UNL     1      -0.909  -1.316  -0.042  1.00  0.00     0.179 C 
ENDBRANCH   7  18
BRANCH  14  26
ATOM     26  C   UNL     1      -6.215   1.440  -0.953  1.00  0.00     0.083 A 
ATOM     27  C   UNL     1      -5.737   0.787  -2.102  1.00  0.00     0.033 A 
ATOM     28  C   UNL     1      -6.665   2.768  -1.084  1.00  0.00     0.150 A 
ATOM     29  C   UNL     1      -5.724   1.443  -3.336  1.00  0.00     0.041 A 
ATOM     30  C   UNL     1      -6.637   3.432  -2.306  1.00  0.00     0.080 A 
ATOM     31  F   UNL     1      -7.134   3.426  -0.012  1.00  0.00    -0.205 F 
ATOM     32  C   UNL     1      -6.170   2.758  -3.424  1.00  0.00     0.126 A 
ATOM     33  F   UNL     1      -6.149   3.381  -4.609  1.00  0.00    -0.207 F 
ENDBRANCH  14  26
ENDBRANCH   4   6
ENDBRANCH   3   4
ENDBRANCH   2   3
ENDBRANCH   1   2
BRANCH   1  34
ATOM     34  O   UNL     1     -11.459   1.851   3.295  1.00  0.00    -0.458 OA
BRANCH  34  35
ATOM     35  C   UNL     1     -10.607   2.868   3.037  1.00  0.00     0.338 C 
ATOM     36  O   UNL     1      -9.716   3.299   3.746  1.00  0.00    -0.246 OA
BRANCH  35  37
ATOM     37  C   UNL     1     -10.882   3.401   1.695  1.00  0.00     0.060 A 
ATOM     38  C   UNL     1     -10.576   2.626   0.579  1.00  0.00     0.016 A 
ATOM     39  C   UNL     1     -11.309   4.718   1.544  1.00  0.00     0.016 A 
ATOM     40  C   UNL     1     -10.597   3.192  -0.692  1.00  0.00     0.010 A 
ATOM     41  C   UNL     1     -11.420   5.259   0.260  1.00  0.00     0.010 A 
ATOM     42  C   UNL     1     -11.024   4.515  -0.867  1.00  0.00    -0.014 A 
BRANCH  42  43
ATOM     43  C   UNL     1     -11.001   5.141  -2.214  1.00  0.00     0.031 A 
ATOM     44  C   UNL     1     -10.104   6.319  -2.475  1.00  0.00     0.074 A 
ATOM     45  C   UNL     1     -11.754   4.641  -3.213  1.00  0.00     0.049 A 
ATOM     46  N   UNL     1     -10.062   7.114  -3.514  1.00  0.00    -0.248 NA
ATOM     47  C   UNL     1      -9.122   6.646  -1.429  1.00  0.00     0.031 C 
ATOM     48  C   UNL     1     -12.606   3.456  -3.121  1.00  0.00     0.029 A 
ATOM     49  N   UNL     1     -11.914   5.065  -4.509  1.00  0.00    -0.354 N 
ATOM     50  C   UNL     1      -9.083   8.057  -3.230  1.00  0.00     0.074 A 
ATOM     51  C   UNL     1      -8.555   7.739  -1.921  1.00  0.00     0.031 C 
ATOM     52  C   UNL     1     -13.168   3.224  -4.318  1.00  0.00     0.029 A 
ATOM     53  C   UNL     1     -12.782   4.289  -5.238  1.00  0.00     0.049 A 
ATOM     54  H   UNL     1     -11.450   5.850  -4.881  1.00  0.00     0.167 HD
ATOM     55  C   UNL     1      -8.665   9.094  -3.994  1.00  0.00     0.037 A 
ATOM     56  C   UNL     1     -13.244   4.440  -6.493  1.00  0.00     0.037 A 
ATOM     57  C   UNL     1      -9.171   9.390  -5.309  1.00  0.00     0.049 A 
ATOM     58  C   UNL     1     -12.819   5.638  -7.294  1.00  0.00     0.074 A 
ATOM     59  C   UNL     1      -8.846  10.444  -6.145  1.00  0.00     0.029 A 
ATOM     60  N   UNL     1     -10.095   8.611  -5.989  1.00  0.00    -0.354 N 
ATOM     61  N   UNL     1     -11.973   6.587  -6.976  1.00  0.00    -0.248 NA
ATOM     62  C   UNL     1     -13.435   5.801  -8.618  1.00  0.00     0.031 C 
ATOM     63  C   UNL     1      -9.588  10.315  -7.324  1.00  0.00     0.029 A 
ATOM     64  C   UNL     1     -10.351   9.162  -7.235  1.00  0.00     0.049 A 
ATOM     65  H   UNL     1     -10.508   7.789  -5.639  1.00  0.00     0.167 HD
ATOM     66  C   UNL     1     -11.949   7.454  -8.058  1.00  0.00     0.074 A 
ATOM     67  C   UNL     1     -12.851   6.910  -9.052  1.00  0.00     0.031 C 
ATOM     68  C   UNL     1     -11.248   8.604  -8.211  1.00  0.00     0.037 A 
BRANCH  55  69
ATOM     69  C   UNL     1      -7.622  10.004  -3.421  1.00  0.00     0.064 A 
ATOM     70  C   UNL     1      -6.276   9.623  -3.347  1.00  0.00     0.173 A 
ATOM     71  C   UNL     1      -7.968  11.293  -2.986  1.00  0.00     0.173 A 
ATOM     72  F   UNL     1      -5.900   8.395  -3.733  1.00  0.00    -0.203 F 
ATOM     73  C   UNL     1      -5.312  10.497  -2.850  1.00  0.00     0.198 A 
ATOM     74  C   UNL     1      -6.999  12.171  -2.509  1.00  0.00     0.198 A 
ATOM     75  F   UNL     1      -9.243  11.705  -3.038  1.00  0.00    -0.203 F 
ATOM     76  F   UNL     1      -4.034  10.103  -2.761  1.00  0.00    -0.200 F 
ATOM     77  C   UNL     1      -5.673  11.772  -2.439  1.00  0.00     0.200 A 
ATOM     78  F   UNL     1      -7.348  13.406  -2.121  1.00  0.00    -0.200 F 
ATOM     79  F   UNL     1      -4.742  12.615  -1.971  1.00  0.00    -0.200 F 
ENDBRANCH  55  69
BRANCH  56  80
ATOM     80  C   UNL     1     -14.186   3.442  -7.059  1.00  0.00     0.064 A 
ATOM     81  C   UNL     1     -13.780   2.575  -8.082  1.00  0.00     0.173 A 
ATOM     82  C   UNL     1     -15.502   3.328  -6.588  1.00  0.00     0.173 A 
ATOM     83  F   UNL     1     -12.540   2.666  -8.583  1.00  0.00    -0.203 F 
ATOM     84  C   UNL     1     -14.657   1.632  -8.614  1.00  0.00     0.198 A 
ATOM     85  C   UNL     1     -16.370   2.369  -7.103  1.00  0.00     0.198 A 
ATOM     86  F   UNL     1     -15.939   4.139  -5.613  1.00  0.00    -0.203 F 
ATOM     87  F   UNL     1     -14.254   0.836  -9.614  1.00  0.00    -0.200 F 
ATOM     88  C   UNL     1     -15.948   1.524  -8.119  1.00  0.00     0.200 A 
ATOM     89  F   UNL     1     -17.613   2.261  -6.615  1.00  0.00    -0.200 F 
ATOM     90  F   UNL     1     -16.788   0.611  -8.626  1.00  0.00    -0.200 F 
ENDBRANCH  56  80
BRANCH  68  91
ATOM     91  C   UNL     1     -11.412   9.339  -9.506  1.00  0.00     0.064 A 
ATOM     92  C   UNL     1     -12.558  10.102  -9.770  1.00  0.00     0.173 A 
ATOM     93  C   UNL     1     -10.394   9.317 -10.470  1.00  0.00     0.173 A 
ATOM     94  F   UNL     1     -13.563  10.140  -8.883  1.00  0.00    -0.203 F 
ATOM     95  C   UNL     1     -12.684  10.808 -10.963  1.00  0.00     0.198 A 
ATOM     96  C   UNL     1     -10.515  10.040 -11.653  1.00  0.00     0.198 A 
ATOM     97  F   UNL     1      -9.278   8.603 -10.258  1.00  0.00    -0.203 F 
ATOM     98  F   UNL     1     -13.800  11.507 -11.211  1.00  0.00    -0.200 F 
ATOM     99  C   UNL     1     -11.661  10.781 -11.900  1.00  0.00     0.200 A 
ATOM    100  F   UNL     1      -9.523  10.020 -12.553  1.00  0.00    -0.200 F 
ATOM    101  F   UNL     1     -11.782  11.466 -13.045  1.00  0.00    -0.200 F 
ENDBRANCH  68  91
ENDBRANCH  42  43
ENDBRANCH  35  37
ENDBRANCH  34  35
ENDBRANCH   1  34
TORSDOF 13
