REMARK SMILES O=C(OCCOC(=O)[C@@H]1CS[C@H](c2ncc(-c3ccccc3)s2)[NH2+]1)c1ccc(-c2c3nc(c(-c4c(F)c(F)c(F)c(F)c4F)c4ccc([nH]4)c(-c4c(F)c(F)c(F)c(F)c4F)c4nc(c(-c5c(F)c(F)c(F)c(F)c5F)c5ccc2[nH]5)C=C4)C=C3)cc1
REMARK SMILES IDX 4 1 3 2 2 3 1 4 25 5 26 6 87 7 27 8 86 9 28 10 29 11 30 12
REMARK SMILES IDX 80 13 31 14 85 15 79 16 81 17 32 18 84 19 78 20 77 21 33 23
REMARK SMILES IDX 65 24 45 25 64 26 46 27 49 28 63 29 82 30 47 31 48 32 62 34
REMARK SMILES IDX 83 35 50 36 34 37 35 38 43 39 36 40 37 41 41 42 44 43 38 44
REMARK SMILES IDX 39 45 42 46 40 47 66 48 67 49 75 50 68 51 69 52 73 53 76 54
REMARK SMILES IDX 70 55 71 56 74 57 72 58 51 59 52 60 60 61 53 62 54 63 58 64
REMARK SMILES IDX 61 65 55 66 56 67 59 68 57 69 5 70 6 71 7 72 8 73 9 74 10 75
REMARK SMILES IDX 24 76 11 77 12 78 13 81 14 82 23 83 15 84 16 85 17 86 18 87
REMARK SMILES IDX 22 88 19 89 21 90 20 91
REMARK H PARENT 81 22 49 33 24 79 24 80
REMARK Flexibility Score: inf
ROOT
ATOM      1  C   UNL     1       2.629  -0.879  -4.362  1.00  0.00     0.275 C 
ENDROOT
BRANCH   1   2
ATOM      2  O   UNL     1       3.878  -1.456  -3.932  1.00  0.00    -0.458 OA
BRANCH   2   3
ATOM      3  C   UNL     1       4.607  -1.243  -2.810  1.00  0.00     0.338 C 
ATOM      4  O   UNL     1       5.746  -1.703  -2.751  1.00  0.00    -0.246 OA
BRANCH   3   5
ATOM      5  C   UNL     1       4.044  -0.649  -1.555  1.00  0.00     0.060 A 
ATOM      6  C   UNL     1       2.965   0.234  -1.478  1.00  0.00     0.016 A 
ATOM      7  C   UNL     1       4.611  -1.100  -0.344  1.00  0.00     0.016 A 
ATOM      8  C   UNL     1       2.373   0.546  -0.251  1.00  0.00     0.010 A 
ATOM      9  C   UNL     1       4.026  -0.788   0.889  1.00  0.00     0.010 A 
ATOM     10  C   UNL     1       2.884   0.020   0.935  1.00  0.00    -0.014 A 
BRANCH  10  11
ATOM     11  C   UNL     1       2.312   0.461   2.225  1.00  0.00     0.031 A 
ATOM     12  C   UNL     1       3.024   1.551   2.962  1.00  0.00     0.074 A 
ATOM     13  C   UNL     1       1.160  -0.057   2.694  1.00  0.00     0.049 A 
ATOM     14  N   UNL     1       2.705   2.133   4.086  1.00  0.00    -0.248 NA
ATOM     15  C   UNL     1       4.243   2.082   2.328  1.00  0.00     0.031 C 
ATOM     16  C   UNL     1       0.331  -1.040   2.002  1.00  0.00     0.029 A 
ATOM     17  N   UNL     1       0.488   0.166   3.870  1.00  0.00    -0.354 N 
ATOM     18  C   UNL     1       3.665   3.114   4.278  1.00  0.00     0.074 A 
ATOM     19  C   UNL     1       4.607   3.021   3.186  1.00  0.00     0.031 C 
ATOM     20  C   UNL     1      -0.696  -1.396   2.794  1.00  0.00     0.029 A 
ATOM     21  C   UNL     1      -0.610  -0.644   4.042  1.00  0.00     0.049 A 
ATOM     22  H   UNL     1       0.767   0.843   4.529  1.00  0.00     0.167 HD
ATOM     23  C   UNL     1       3.734   4.030   5.268  1.00  0.00     0.037 A 
ATOM     24  C   UNL     1      -1.444  -0.759   5.094  1.00  0.00     0.037 A 
ATOM     25  C   UNL     1       2.800   4.099   6.356  1.00  0.00     0.049 A 
ATOM     26  C   UNL     1      -1.256   0.185   6.257  1.00  0.00     0.074 A 
ATOM     27  C   UNL     1       2.771   4.988   7.412  1.00  0.00     0.029 A 
ATOM     28  N   UNL     1       1.737   3.224   6.532  1.00  0.00    -0.354 N 
ATOM     29  N   UNL     1      -0.385   1.156   6.399  1.00  0.00    -0.248 NA
ATOM     30  C   UNL     1      -2.179   0.040   7.391  1.00  0.00     0.031 C 
ATOM     31  C   UNL     1       1.729   4.612   8.264  1.00  0.00     0.029 A 
ATOM     32  C   UNL     1       1.073   3.524   7.708  1.00  0.00     0.049 A 
ATOM     33  H   UNL     1       1.492   2.499   5.913  1.00  0.00     0.167 HD
ATOM     34  C   UNL     1      -0.679   1.761   7.613  1.00  0.00     0.074 A 
ATOM     35  C   UNL     1      -1.819   1.056   8.162  1.00  0.00     0.031 C 
ATOM     36  C   UNL     1      -0.067   2.806   8.221  1.00  0.00     0.037 A 
BRANCH  23  37
ATOM     37  C   UNL     1       4.875   4.997   5.228  1.00  0.00     0.064 A 
ATOM     38  C   UNL     1       4.923   6.040   4.291  1.00  0.00     0.173 A 
ATOM     39  C   UNL     1       5.929   4.883   6.144  1.00  0.00     0.173 A 
ATOM     40  F   UNL     1       3.951   6.172   3.375  1.00  0.00    -0.203 F 
ATOM     41  C   UNL     1       5.997   6.926   4.264  1.00  0.00     0.198 A 
ATOM     42  C   UNL     1       6.989   5.785   6.130  1.00  0.00     0.198 A 
ATOM     43  F   UNL     1       5.933   3.895   7.051  1.00  0.00    -0.203 F 
ATOM     44  F   UNL     1       6.046   7.889   3.333  1.00  0.00    -0.200 F 
ATOM     45  C   UNL     1       7.024   6.803   5.188  1.00  0.00     0.200 A 
ATOM     46  F   UNL     1       7.979   5.666   7.024  1.00  0.00    -0.200 F 
ATOM     47  F   UNL     1       8.055   7.659   5.163  1.00  0.00    -0.200 F 
ENDBRANCH  23  37
BRANCH  24  48
ATOM     48  C   UNL     1      -2.515  -1.795   5.120  1.00  0.00     0.064 A 
ATOM     49  C   UNL     1      -3.873  -1.448   5.152  1.00  0.00     0.173 A 
ATOM     50  C   UNL     1      -2.195  -3.160   5.194  1.00  0.00     0.173 A 
ATOM     51  F   UNL     1      -4.235  -0.158   5.104  1.00  0.00    -0.203 F 
ATOM     52  C   UNL     1      -4.865  -2.418   5.302  1.00  0.00     0.198 A 
ATOM     53  C   UNL     1      -3.189  -4.131   5.316  1.00  0.00     0.198 A 
ATOM     54  F   UNL     1      -0.913  -3.553   5.166  1.00  0.00    -0.203 F 
ATOM     55  F   UNL     1      -6.149  -2.049   5.402  1.00  0.00    -0.200 F 
ATOM     56  C   UNL     1      -4.522  -3.759   5.385  1.00  0.00     0.200 A 
ATOM     57  F   UNL     1      -2.852  -5.426   5.387  1.00  0.00    -0.200 F 
ATOM     58  F   UNL     1      -5.473  -4.688   5.549  1.00  0.00    -0.200 F 
ENDBRANCH  24  48
BRANCH  36  59
ATOM     59  C   UNL     1      -0.631   3.263   9.533  1.00  0.00     0.064 A 
ATOM     60  C   UNL     1      -0.482   2.501  10.700  1.00  0.00     0.173 A 
ATOM     61  C   UNL     1      -1.272   4.508   9.635  1.00  0.00     0.173 A 
ATOM     62  F   UNL     1       0.111   1.298  10.649  1.00  0.00    -0.203 F 
ATOM     63  C   UNL     1      -0.972   2.958  11.919  1.00  0.00     0.198 A 
ATOM     64  C   UNL     1      -1.730   4.977  10.861  1.00  0.00     0.198 A 
ATOM     65  F   UNL     1      -1.431   5.278   8.548  1.00  0.00    -0.203 F 
ATOM     66  F   UNL     1      -0.859   2.193  13.013  1.00  0.00    -0.200 F 
ATOM     67  C   UNL     1      -1.585   4.200  12.000  1.00  0.00     0.200 A 
ATOM     68  F   UNL     1      -2.304   6.185  10.942  1.00  0.00    -0.200 F 
ATOM     69  F   UNL     1      -2.042   4.646  13.178  1.00  0.00    -0.200 F 
ENDBRANCH  36  59
ENDBRANCH  10  11
ENDBRANCH   3   5
ENDBRANCH   2   3
ENDBRANCH   1   2
BRANCH   1  70
ATOM     70  C   UNL     1       1.382  -1.633  -3.886  1.00  0.00     0.274 C 
BRANCH  70  71
ATOM     71  O   UNL     1       1.482  -2.077  -2.523  1.00  0.00    -0.458 OA
BRANCH  71  72
ATOM     72  C   UNL     1       1.890  -3.375  -2.345  1.00  0.00     0.365 C 
ATOM     73  O   UNL     1       2.038  -4.176  -3.254  1.00  0.00    -0.245 OA
BRANCH  72  74
ATOM     74  C   UNL     1       2.243  -3.628  -0.871  1.00  0.00     0.304 C 
ATOM     75  C   UNL     1       3.217  -4.790  -0.681  1.00  0.00     0.153 C 
ATOM     76  N   UNL     1       1.062  -3.733   0.035  1.00  0.00    -0.317 N 
ATOM     77  S   UNL     1       2.436  -5.857   0.553  1.00  0.00    -0.085 SA
ATOM     78  C   UNL     1       0.785  -5.168   0.235  1.00  0.00     0.303 C 
ATOM     79  H   UNL     1       0.254  -3.279  -0.391  1.00  0.00     0.348 HD
ATOM     80  H   UNL     1       1.250  -3.275   0.927  1.00  0.00     0.348 HD
BRANCH  78  81
ATOM     81  C   UNL     1       0.082  -5.796  -0.948  1.00  0.00     0.162 A 
ATOM     82  N   UNL     1       0.395  -6.946  -1.514  1.00  0.00    -0.242 NA
ATOM     83  S   UNL     1      -1.207  -4.940  -1.726  1.00  0.00    -0.112 S 
ATOM     84  C   UNL     1      -0.221  -7.034  -2.746  1.00  0.00     0.132 A 
ATOM     85  C   UNL     1      -1.034  -5.973  -3.077  1.00  0.00     0.055 A 
BRANCH  85  86
ATOM     86  C   UNL     1      -1.661  -5.624  -4.337  1.00  0.00    -0.007 A 
ATOM     87  C   UNL     1      -0.959  -4.826  -5.252  1.00  0.00     0.009 A 
ATOM     88  C   UNL     1      -2.950  -6.059  -4.647  1.00  0.00     0.009 A 
ATOM     89  C   UNL     1      -1.549  -4.448  -6.457  1.00  0.00     0.001 A 
ATOM     90  C   UNL     1      -3.536  -5.687  -5.858  1.00  0.00     0.001 A 
ATOM     91  C   UNL     1      -2.839  -4.880  -6.758  1.00  0.00     0.000 A 
ENDBRANCH  85  86
ENDBRANCH  78  81
ENDBRANCH  72  74
ENDBRANCH  71  72
ENDBRANCH  70  71
ENDBRANCH   1  70
TORSDOF 13
