REMARK SMILES O=C(/C=C/c1ccc(C(=O)NC2CC2)cc1)NC1(C(=O)OCCOC(=O)c2ccc(-c3c4nc(c(-c5c(F)c(F)c(F)c(F)c5F)c5ccc([nH]5)c(-c5c(F)c(F)c(F)c(F)c5F)c5nc(c(-c6c(F)c(F)c(F)c(F)c6F)c6ccc3[nH]6)C=C5)C=C4)cc2)CCCC1
REMARK SMILES IDX 21 1 19 2 20 3 18 4 90 5 93 6 91 7 92 8 17 9 1 10 2 11 3 13
REMARK SMILES IDX 4 14 5 15 6 16 16 17 7 18 15 19 8 20 9 21 10 22 11 23 12 25
REMARK SMILES IDX 13 26 14 27 22 28 23 29 24 30 25 31 26 32 27 33 28 34 89 35
REMARK SMILES IDX 29 36 88 37 30 38 31 39 32 40 82 41 33 42 87 43 81 44 83 45
REMARK SMILES IDX 34 46 86 47 80 48 79 49 35 51 67 52 47 53 66 54 48 55 51 56
REMARK SMILES IDX 65 57 84 58 49 59 50 60 64 62 85 63 52 64 36 65 37 66 45 67
REMARK SMILES IDX 38 68 39 69 43 70 46 71 40 72 41 73 44 74 42 75 68 76 69 77
REMARK SMILES IDX 77 78 70 79 71 80 75 81 78 82 72 83 73 84 76 85 74 86 53 87
REMARK SMILES IDX 54 88 62 89 55 90 56 91 60 92 63 93 57 94 58 95 61 96 59 97
REMARK H PARENT 17 12 11 24 83 50 51 61
REMARK Flexibility Score: inf
ROOT
ATOM      1  O   UNL     1       1.761  -3.231   2.845  1.00  0.00    -0.460 OA
ENDROOT
BRANCH   1   2
ATOM      2  C   UNL     1       1.673  -2.174   1.988  1.00  0.00     0.331 C 
ATOM      3  O   UNL     1       1.414  -1.030   2.347  1.00  0.00    -0.249 OA
BRANCH   2   4
ATOM      4  C   UNL     1       1.922  -2.593   0.508  1.00  0.00     0.138 C 
ATOM      5  C   UNL     1       0.592  -2.965  -0.164  1.00  0.00     0.040 C 
ATOM      6  C   UNL     1       2.735  -3.893   0.367  1.00  0.00     0.040 C 
ATOM      7  C   UNL     1       0.345  -4.410   0.237  1.00  0.00     0.003 C 
ATOM      8  C   UNL     1       1.726  -5.042   0.339  1.00  0.00     0.003 C 
BRANCH   4   9
ATOM      9  N   UNL     1       2.661  -1.504  -0.167  1.00  0.00    -0.337 N 
ATOM     10  O   UNL     1       0.838  -0.245  -0.784  1.00  0.00    -0.270 OA
ATOM     11  C   UNL     1       2.050  -0.401  -0.699  1.00  0.00     0.244 C 
ATOM     12  H   UNL     1       3.640  -1.577  -0.238  1.00  0.00     0.164 HD
BRANCH  11  13
ATOM     13  C   UNL     1       2.932   0.711  -1.129  1.00  0.00     0.072 C 
ATOM     14  C   UNL     1       4.257   0.708  -1.344  1.00  0.00     0.014 C 
BRANCH  14  15
ATOM     15  C   UNL     1       4.974   1.954  -1.667  1.00  0.00    -0.025 A 
ATOM     16  C   UNL     1       6.088   1.954  -2.510  1.00  0.00     0.009 A 
ATOM     17  C   UNL     1       4.598   3.163  -1.068  1.00  0.00     0.009 A 
ATOM     18  C   UNL     1       6.745   3.156  -2.819  1.00  0.00     0.014 A 
ATOM     19  C   UNL     1       5.283   4.344  -1.337  1.00  0.00     0.014 A 
ATOM     20  C   UNL     1       6.315   4.371  -2.268  1.00  0.00     0.039 A 
BRANCH  20  21
ATOM     21  C   UNL     1       6.979   5.630  -2.708  1.00  0.00     0.251 C 
ATOM     22  O   UNL     1       8.133   5.585  -3.132  1.00  0.00    -0.269 OA
ATOM     23  N   UNL     1       6.308   6.837  -2.722  1.00  0.00    -0.349 N 
ATOM     24  H   UNL     1       6.830   7.596  -3.070  1.00  0.00     0.164 HD
BRANCH  23  25
ATOM     25  C   UNL     1       4.984   7.158  -2.315  1.00  0.00     0.082 C 
ATOM     26  C   UNL     1       4.138   8.105  -3.122  1.00  0.00     0.027 C 
ATOM     27  C   UNL     1       3.754   6.660  -3.016  1.00  0.00     0.027 C 
ENDBRANCH  23  25
ENDBRANCH  20  21
ENDBRANCH  14  15
ENDBRANCH  11  13
ENDBRANCH   4   9
ENDBRANCH   2   4
ENDBRANCH   1   2
BRANCH   1  28
ATOM     28  C   UNL     1       1.547  -2.959   4.244  1.00  0.00     0.274 C 
BRANCH  28  29
ATOM     29  C   UNL     1       2.873  -2.909   5.002  1.00  0.00     0.275 C 
BRANCH  29  30
ATOM     30  O   UNL     1       3.603  -1.712   4.677  1.00  0.00    -0.458 OA
BRANCH  30  31
ATOM     31  C   UNL     1       4.616  -1.866   3.797  1.00  0.00     0.338 C 
ATOM     32  O   UNL     1       4.996  -2.889   3.257  1.00  0.00    -0.246 OA
BRANCH  31  33
ATOM     33  C   UNL     1       5.194  -0.551   3.494  1.00  0.00     0.060 A 
ATOM     34  C   UNL     1       4.564   0.243   2.542  1.00  0.00     0.016 A 
ATOM     35  C   UNL     1       6.417  -0.164   4.043  1.00  0.00     0.016 A 
ATOM     36  C   UNL     1       5.192   1.399   2.089  1.00  0.00     0.010 A 
ATOM     37  C   UNL     1       7.021   1.026   3.612  1.00  0.00     0.010 A 
ATOM     38  C   UNL     1       6.434   1.799   2.595  1.00  0.00    -0.014 A 
BRANCH  38  39
ATOM     39  C   UNL     1       7.153   2.960   1.990  1.00  0.00     0.031 A 
ATOM     40  C   UNL     1       8.459   2.725   1.274  1.00  0.00     0.074 A 
ATOM     41  C   UNL     1       6.627   4.202   2.023  1.00  0.00     0.049 A 
ATOM     42  N   UNL     1       9.310   3.593   0.791  1.00  0.00    -0.248 NA
ATOM     43  C   UNL     1       8.867   1.323   1.085  1.00  0.00     0.031 C 
ATOM     44  C   UNL     1       5.317   4.537   2.576  1.00  0.00     0.029 A 
ATOM     45  N   UNL     1       7.101   5.405   1.551  1.00  0.00    -0.354 N 
ATOM     46  C   UNL     1      10.390   2.850   0.330  1.00  0.00     0.074 A 
ATOM     47  C   UNL     1      10.074   1.457   0.553  1.00  0.00     0.031 C 
ATOM     48  C   UNL     1       5.061   5.834   2.347  1.00  0.00     0.029 A 
ATOM     49  C   UNL     1       6.227   6.458   1.725  1.00  0.00     0.049 A 
ATOM     50  H   UNL     1       7.984   5.506   1.127  1.00  0.00     0.167 HD
ATOM     51  C   UNL     1      11.551   3.298  -0.203  1.00  0.00     0.037 A 
ATOM     52  C   UNL     1       6.356   7.769   1.419  1.00  0.00     0.037 A 
ATOM     53  C   UNL     1      11.819   4.679  -0.505  1.00  0.00     0.049 A 
ATOM     54  C   UNL     1       7.654   8.224   0.792  1.00  0.00     0.074 A 
ATOM     55  C   UNL     1      12.981   5.250  -0.994  1.00  0.00     0.029 A 
ATOM     56  N   UNL     1      10.888   5.701  -0.386  1.00  0.00    -0.354 N 
ATOM     57  N   UNL     1       8.666   7.507   0.365  1.00  0.00    -0.248 NA
ATOM     58  C   UNL     1       7.830   9.671   0.604  1.00  0.00     0.031 C 
ATOM     59  C   UNL     1      12.768   6.626  -1.125  1.00  0.00     0.029 A 
ATOM     60  C   UNL     1      11.464   6.906  -0.748  1.00  0.00     0.049 A 
ATOM     61  H   UNL     1       9.957   5.586  -0.088  1.00  0.00     0.167 HD
ATOM     62  C   UNL     1       9.567   8.407  -0.192  1.00  0.00     0.074 A 
ATOM     63  C   UNL     1       8.966   9.719  -0.077  1.00  0.00     0.031 C 
ATOM     64  C   UNL     1      10.795   8.180  -0.721  1.00  0.00     0.037 A 
BRANCH  51  65
ATOM     65  C   UNL     1      12.656   2.303  -0.408  1.00  0.00     0.064 A 
ATOM     66  C   UNL     1      12.655   1.376  -1.458  1.00  0.00     0.173 A 
ATOM     67  C   UNL     1      13.758   2.306   0.464  1.00  0.00     0.173 A 
ATOM     68  F   UNL     1      11.615   1.312  -2.303  1.00  0.00    -0.203 F 
ATOM     69  C   UNL     1      13.710   0.479  -1.620  1.00  0.00     0.198 A 
ATOM     70  C   UNL     1      14.822   1.427   0.284  1.00  0.00     0.198 A 
ATOM     71  F   UNL     1      13.808   3.172   1.488  1.00  0.00    -0.203 F 
ATOM     72  F   UNL     1      13.672  -0.427  -2.607  1.00  0.00    -0.200 F 
ATOM     73  C   UNL     1      14.795   0.510  -0.755  1.00  0.00     0.200 A 
ATOM     74  F   UNL     1      15.870   1.464   1.119  1.00  0.00    -0.200 F 
ATOM     75  F   UNL     1      15.809  -0.350  -0.916  1.00  0.00    -0.200 F 
ENDBRANCH  51  65
BRANCH  52  76
ATOM     76  C   UNL     1       5.215   8.724   1.622  1.00  0.00     0.064 A 
ATOM     77  C   UNL     1       4.698   9.472   0.550  1.00  0.00     0.173 A 
ATOM     78  C   UNL     1       4.579   8.893   2.862  1.00  0.00     0.173 A 
ATOM     79  F   UNL     1       5.306   9.449  -0.643  1.00  0.00    -0.203 F 
ATOM     80  C   UNL     1       3.573  10.283   0.687  1.00  0.00     0.198 A 
ATOM     81  C   UNL     1       3.435   9.683   2.996  1.00  0.00     0.198 A 
ATOM     82  F   UNL     1       5.046   8.263   3.950  1.00  0.00    -0.203 F 
ATOM     83  F   UNL     1       3.120  10.974  -0.368  1.00  0.00    -0.200 F 
ATOM     84  C   UNL     1       2.928  10.371   1.906  1.00  0.00     0.200 A 
ATOM     85  F   UNL     1       2.815   9.761   4.181  1.00  0.00    -0.200 F 
ATOM     86  F   UNL     1       1.826  11.123   2.032  1.00  0.00    -0.200 F 
ENDBRANCH  52  76
BRANCH  64  87
ATOM     87  C   UNL     1      11.539   9.356  -1.286  1.00  0.00     0.064 A 
ATOM     88  C   UNL     1      12.094  10.339  -0.454  1.00  0.00     0.173 A 
ATOM     89  C   UNL     1      11.755   9.464  -2.668  1.00  0.00     0.173 A 
ATOM     90  F   UNL     1      11.911  10.282   0.874  1.00  0.00    -0.203 F 
ATOM     91  C   UNL     1      12.809  11.407  -0.988  1.00  0.00     0.198 A 
ATOM     92  C   UNL     1      12.496  10.518  -3.196  1.00  0.00     0.198 A 
ATOM     93  F   UNL     1      11.258   8.543  -3.506  1.00  0.00    -0.203 F 
ATOM     94  F   UNL     1      13.290  12.360  -0.178  1.00  0.00    -0.200 F 
ATOM     95  C   UNL     1      13.015  11.492  -2.357  1.00  0.00     0.200 A 
ATOM     96  F   UNL     1      12.708  10.593  -4.517  1.00  0.00    -0.200 F 
ATOM     97  F   UNL     1      13.711  12.518  -2.867  1.00  0.00    -0.200 F 
ENDBRANCH  64  87
ENDBRANCH  38  39
ENDBRANCH  31  33
ENDBRANCH  30  31
ENDBRANCH  29  30
ENDBRANCH  28  29
ENDBRANCH   1  28
TORSDOF 16
