REMARK SMILES C#CCN(CC(=O)OCCOC(=O)c1ccc(-c2c3nc(c(-c4c(F)c(F)c(F)c(F)c4F)c4ccc([nH]4)c(-c4c(F)c(F)c(F)c(F)c4F)c4nc(c(-c5c(F)c(F)c(F)c(F)c5F)c5ccc2[nH]5)C=C4)C=C3)cc1)C(=O)[C@H]1C[NH2+]C[C@H]1C
REMARK SMILES IDX 9 1 8 2 6 3 7 4 5 5 4 6 3 7 2 8 1 9 77 10 78 11 79 12 80 13
REMARK SMILES IDX 83 14 81 15 82 16 84 17 10 20 11 21 12 22 13 23 14 24 15 25
REMARK SMILES IDX 76 26 16 27 75 28 17 29 18 30 19 31 69 32 20 33 74 34 68 35
REMARK SMILES IDX 70 36 21 37 73 38 67 39 66 40 22 42 54 43 34 44 53 45 35 46
REMARK SMILES IDX 38 47 52 48 71 49 36 50 37 51 51 53 72 54 39 55 23 56 24 57
REMARK SMILES IDX 32 58 25 59 26 60 30 61 33 62 27 63 28 64 31 65 29 66 55 67
REMARK SMILES IDX 56 68 64 69 57 70 58 71 62 72 65 73 59 74 60 75 63 76 61 77
REMARK SMILES IDX 40 78 41 79 49 80 42 81 43 82 47 83 50 84 44 85 45 86 48 87
REMARK SMILES IDX 46 88
REMARK H PARENT 81 18 81 19 70 41 38 52
REMARK Flexibility Score: inf
ROOT
ATOM      1  C   UNL     1      -6.407   0.610  -1.830  1.00  0.00     0.274 C 
ENDROOT
BRANCH   1   2
ATOM      2  O   UNL     1      -4.967   0.607  -1.696  1.00  0.00    -0.461 OA
BRANCH   2   3
ATOM      3  C   UNL     1      -4.332  -0.575  -1.944  1.00  0.00     0.325 C 
ATOM      4  O   UNL     1      -4.894  -1.642  -2.161  1.00  0.00    -0.250 OA
BRANCH   3   5
ATOM      5  C   UNL     1      -2.824  -0.399  -2.160  1.00  0.00     0.243 C 
BRANCH   5   6
ATOM      6  N   UNL     1      -2.183   0.533  -1.242  1.00  0.00    -0.320 N 
BRANCH   6   7
ATOM      7  C   UNL     1      -1.744  -0.057   0.016  1.00  0.00     0.210 C 
BRANCH   7   8
ATOM      8  C   UNL     1      -0.224  -0.057   0.016  1.00  0.00    -0.085 C 
ATOM      9  C   UNL     1       1.080  -0.057   0.016  1.00  0.00     0.006 C 
ENDBRANCH   7   8
ENDBRANCH   6   7
BRANCH   6  10
ATOM     10  C   UNL     1      -1.978   1.902  -1.432  1.00  0.00     0.233 C 
ATOM     11  O   UNL     1      -1.729   2.629  -0.470  1.00  0.00    -0.274 OA
BRANCH  10  12
ATOM     12  C   UNL     1      -1.998   2.451  -2.866  1.00  0.00     0.142 C 
ATOM     13  C   UNL     1      -3.414   2.628  -3.371  1.00  0.00     0.274 C 
ATOM     14  C   UNL     1      -1.354   3.820  -3.206  1.00  0.00     0.059 C 
ATOM     15  N   UNL     1      -3.304   3.501  -4.541  1.00  0.00    -0.345 N 
ATOM     16  C   UNL     1      -2.390   4.543  -4.082  1.00  0.00     0.264 C 
ATOM     17  C   UNL     1      -0.916   4.734  -2.072  1.00  0.00     0.015 C 
ATOM     18  H   UNL     1      -4.210   3.893  -4.794  1.00  0.00     0.346 HD
ATOM     19  H   UNL     1      -2.976   3.017  -5.377  1.00  0.00     0.346 HD
ENDBRANCH  10  12
ENDBRANCH   6  10
ENDBRANCH   5   6
ENDBRANCH   3   5
ENDBRANCH   2   3
ENDBRANCH   1   2
BRANCH   1  20
ATOM     20  C   UNL     1      -6.859   1.576  -2.940  1.00  0.00     0.275 C 
BRANCH  20  21
ATOM     21  O   UNL     1      -6.106   1.466  -4.162  1.00  0.00    -0.458 OA
BRANCH  21  22
ATOM     22  C   UNL     1      -6.101   0.274  -4.793  1.00  0.00     0.338 C 
ATOM     23  O   UNL     1      -6.794  -0.694  -4.541  1.00  0.00    -0.246 OA
BRANCH  22  24
ATOM     24  C   UNL     1      -4.947   0.257  -5.718  1.00  0.00     0.060 A 
ATOM     25  C   UNL     1      -3.953  -0.707  -5.516  1.00  0.00     0.016 A 
ATOM     26  C   UNL     1      -4.843   1.160  -6.778  1.00  0.00     0.016 A 
ATOM     27  C   UNL     1      -2.867  -0.791  -6.389  1.00  0.00     0.010 A 
ATOM     28  C   UNL     1      -3.807   1.014  -7.709  1.00  0.00     0.010 A 
ATOM     29  C   UNL     1      -2.846  -0.001  -7.551  1.00  0.00    -0.014 A 
BRANCH  29  30
ATOM     30  C   UNL     1      -2.076  -0.473  -8.736  1.00  0.00     0.031 A 
ATOM     31  C   UNL     1      -0.919   0.275  -9.321  1.00  0.00     0.074 A 
ATOM     32  C   UNL     1      -2.526  -1.595  -9.336  1.00  0.00     0.049 A 
ATOM     33  N   UNL     1      -0.265   0.031 -10.430  1.00  0.00    -0.248 NA
ATOM     34  C   UNL     1      -0.425   1.439  -8.575  1.00  0.00     0.031 C 
ATOM     35  C   UNL     1      -3.652  -2.407  -8.862  1.00  0.00     0.029 A 
ATOM     36  N   UNL     1      -2.116  -2.240 -10.476  1.00  0.00    -0.354 N 
ATOM     37  C   UNL     1       0.715   1.009 -10.524  1.00  0.00     0.074 A 
ATOM     38  C   UNL     1       0.563   1.860  -9.358  1.00  0.00     0.031 C 
ATOM     39  C   UNL     1      -3.839  -3.438  -9.693  1.00  0.00     0.029 A 
ATOM     40  C   UNL     1      -2.902  -3.319 -10.800  1.00  0.00     0.049 A 
ATOM     41  H   UNL     1      -1.338  -1.957 -11.008  1.00  0.00     0.167 HD
ATOM     42  C   UNL     1       1.647   1.173 -11.495  1.00  0.00     0.037 A 
ATOM     43  C   UNL     1      -2.916  -4.104 -11.891  1.00  0.00     0.037 A 
ATOM     44  C   UNL     1       1.782   0.323 -12.655  1.00  0.00     0.049 A 
ATOM     45  C   UNL     1      -1.931  -3.845 -12.986  1.00  0.00     0.074 A 
ATOM     46  C   UNL     1       2.727   0.387 -13.667  1.00  0.00     0.029 A 
ATOM     47  N   UNL     1       0.940  -0.735 -12.969  1.00  0.00    -0.354 N 
ATOM     48  N   UNL     1      -0.997  -2.930 -13.050  1.00  0.00    -0.248 NA
ATOM     49  C   UNL     1      -2.009  -4.717 -14.163  1.00  0.00     0.031 C 
ATOM     50  C   UNL     1       2.428  -0.598 -14.615  1.00  0.00     0.029 A 
ATOM     51  C   UNL     1       1.323  -1.307 -14.174  1.00  0.00     0.049 A 
ATOM     52  H   UNL     1       0.182  -1.035 -12.417  1.00  0.00     0.167 HD
ATOM     53  C   UNL     1      -0.366  -3.119 -14.268  1.00  0.00     0.074 A 
ATOM     54  C   UNL     1      -1.015  -4.247 -14.905  1.00  0.00     0.031 C 
ATOM     55  C   UNL     1       0.659  -2.417 -14.807  1.00  0.00     0.037 A 
BRANCH  42  56
ATOM     56  C   UNL     1       2.598   2.328 -11.372  1.00  0.00     0.064 A 
ATOM     57  C   UNL     1       3.664   2.307 -10.461  1.00  0.00     0.173 A 
ATOM     58  C   UNL     1       2.499   3.426 -12.240  1.00  0.00     0.173 A 
ATOM     59  F   UNL     1       3.803   1.281  -9.608  1.00  0.00    -0.203 F 
ATOM     60  C   UNL     1       4.590   3.348 -10.417  1.00  0.00     0.198 A 
ATOM     61  C   UNL     1       3.437   4.456 -12.207  1.00  0.00     0.198 A 
ATOM     62  F   UNL     1       1.505   3.489 -13.139  1.00  0.00    -0.203 F 
ATOM     63  F   UNL     1       5.590   3.317  -9.525  1.00  0.00    -0.200 F 
ATOM     64  C   UNL     1       4.480   4.417 -11.295  1.00  0.00     0.200 A 
ATOM     65  F   UNL     1       3.337   5.480 -13.065  1.00  0.00    -0.200 F 
ATOM     66  F   UNL     1       5.379   5.410 -11.260  1.00  0.00    -0.200 F 
ENDBRANCH  42  56
BRANCH  43  67
ATOM     67  C   UNL     1      -3.933  -5.179 -11.997  1.00  0.00     0.064 A 
ATOM     68  C   UNL     1      -3.571  -6.524 -11.867  1.00  0.00     0.173 A 
ATOM     69  C   UNL     1      -5.292  -4.875 -12.171  1.00  0.00     0.173 A 
ATOM     70  F   UNL     1      -2.282  -6.860 -11.716  1.00  0.00    -0.203 F 
ATOM     71  C   UNL     1      -4.534  -7.530 -11.909  1.00  0.00     0.198 A 
ATOM     72  C   UNL     1      -6.255  -5.879 -12.184  1.00  0.00     0.198 A 
ATOM     73  F   UNL     1      -5.685  -3.598 -12.289  1.00  0.00    -0.203 F 
ATOM     74  F   UNL     1      -4.162  -8.813 -11.806  1.00  0.00    -0.200 F 
ATOM     75  C   UNL     1      -5.875  -7.207 -12.057  1.00  0.00     0.200 A 
ATOM     76  F   UNL     1      -7.551  -5.561 -12.308  1.00  0.00    -0.200 F 
ATOM     77  F   UNL     1      -6.801  -8.175 -12.079  1.00  0.00    -0.200 F 
ENDBRANCH  43  67
BRANCH  55  78
ATOM     78  C   UNL     1       1.146  -2.864 -16.152  1.00  0.00     0.064 A 
ATOM     79  C   UNL     1       0.410  -2.604 -17.318  1.00  0.00     0.173 A 
ATOM     80  C   UNL     1       2.359  -3.555 -16.277  1.00  0.00     0.173 A 
ATOM     81  F   UNL     1      -0.769  -1.969 -17.244  1.00  0.00    -0.203 F 
ATOM     82  C   UNL     1       0.864  -3.039 -18.560  1.00  0.00     0.198 A 
ATOM     83  C   UNL     1       2.821  -3.968 -17.523  1.00  0.00     0.198 A 
ATOM     84  F   UNL     1       3.096  -3.830 -15.191  1.00  0.00    -0.203 F 
ATOM     85  F   UNL     1       0.124  -2.821 -19.656  1.00  0.00    -0.200 F 
ATOM     86  C   UNL     1       2.071  -3.716 -18.662  1.00  0.00     0.200 A 
ATOM     87  F   UNL     1       3.990  -4.617 -17.622  1.00  0.00    -0.200 F 
ATOM     88  F   UNL     1       2.506  -4.134 -19.859  1.00  0.00    -0.200 F 
ENDBRANCH  55  78
ENDBRANCH  29  30
ENDBRANCH  22  24
ENDBRANCH  21  22
ENDBRANCH  20  21
ENDBRANCH   1  20
TORSDOF 16
