REMARK SMILES O=C(OCCOC(=O)[C@H](C[NH+]1CCCC1)c1ccc(Br)cc1)c1ccc(-c2c3nc(c(-c4c(F)c(F)c(F)c(F)c4F)c4ccc([nH]4)c(-c4c(F)c(F)c(F)c(F)c4F)c4nc(c(-c5c(F)c(F)c(F)c(F)c5F)c5ccc2[nH]5)C=C4)C=C3)cc1
REMARK SMILES IDX 4 1 3 2 2 3 1 4 23 5 24 6 85 7 25 8 84 9 26 10 27 11 28 12
REMARK SMILES IDX 78 13 29 14 83 15 77 16 79 17 30 18 82 19 76 20 75 21 31 23
REMARK SMILES IDX 63 24 43 25 62 26 44 27 47 28 61 29 80 30 45 31 46 32 60 34
REMARK SMILES IDX 81 35 48 36 32 37 33 38 41 39 34 40 35 41 39 42 42 43 36 44
REMARK SMILES IDX 37 45 40 46 38 47 64 48 65 49 73 50 66 51 67 52 71 53 74 54
REMARK SMILES IDX 68 55 69 56 72 57 70 58 49 59 50 60 58 61 51 62 52 63 56 64
REMARK SMILES IDX 59 65 53 66 54 67 57 68 55 69 5 70 6 71 7 72 8 73 9 74 16 75
REMARK SMILES IDX 17 76 22 77 18 78 21 79 19 80 20 81 10 82 11 83 12 84 15 85
REMARK SMILES IDX 13 87 14 88
REMARK H PARENT 79 22 47 33 11 86
REMARK Flexibility Score: inf
ROOT
ATOM      1  C   UNL     1       3.612   0.539   5.441  1.00  0.00     0.275 C 
ENDROOT
BRANCH   1   2
ATOM      2  O   UNL     1       3.493  -0.573   4.544  1.00  0.00    -0.458 OA
BRANCH   2   3
ATOM      3  C   UNL     1       2.514  -0.851   3.659  1.00  0.00     0.338 C 
ATOM      4  O   UNL     1       2.622  -1.858   2.959  1.00  0.00    -0.246 OA
BRANCH   3   5
ATOM      5  C   UNL     1       1.367   0.070   3.375  1.00  0.00     0.060 A 
ATOM      6  C   UNL     1       0.743   0.971   4.239  1.00  0.00     0.016 A 
ATOM      7  C   UNL     1       0.888   0.007   2.065  1.00  0.00     0.016 A 
ATOM      8  C   UNL     1      -0.277   1.825   3.782  1.00  0.00     0.010 A 
ATOM      9  C   UNL     1      -0.058   0.911   1.579  1.00  0.00     0.010 A 
ATOM     10  C   UNL     1      -0.688   1.801   2.447  1.00  0.00    -0.014 A 
BRANCH  10  11
ATOM     11  C   UNL     1      -1.884   2.550   1.987  1.00  0.00     0.031 A 
ATOM     12  C   UNL     1      -3.101   1.766   1.560  1.00  0.00     0.074 A 
ATOM     13  C   UNL     1      -1.891   3.897   1.935  1.00  0.00     0.049 A 
ATOM     14  N   UNL     1      -4.294   2.195   1.236  1.00  0.00    -0.248 NA
ATOM     15  C   UNL     1      -2.957   0.301   1.471  1.00  0.00     0.031 C 
ATOM     16  C   UNL     1      -0.765   4.766   2.274  1.00  0.00     0.029 A 
ATOM     17  N   UNL     1      -2.881   4.773   1.565  1.00  0.00    -0.354 N 
ATOM     18  C   UNL     1      -5.032   1.055   0.946  1.00  0.00     0.074 A 
ATOM     19  C   UNL     1      -4.130  -0.067   0.989  1.00  0.00     0.031 C 
ATOM     20  C   UNL     1      -1.119   6.048   2.080  1.00  0.00     0.029 A 
ATOM     21  C   UNL     1      -2.508   6.094   1.635  1.00  0.00     0.049 A 
ATOM     22  H   UNL     1      -3.777   4.482   1.277  1.00  0.00     0.167 HD
ATOM     23  C   UNL     1      -6.364   0.937   0.741  1.00  0.00     0.037 A 
ATOM     24  C   UNL     1      -3.226   7.211   1.401  1.00  0.00     0.037 A 
ATOM     25  C   UNL     1      -7.255   2.059   0.700  1.00  0.00     0.049 A 
ATOM     26  C   UNL     1      -4.699   7.068   1.111  1.00  0.00     0.074 A 
ATOM     27  C   UNL     1      -8.629   2.073   0.558  1.00  0.00     0.029 A 
ATOM     28  N   UNL     1      -6.840   3.380   0.786  1.00  0.00    -0.354 N 
ATOM     29  N   UNL     1      -5.422   5.978   1.004  1.00  0.00    -0.248 NA
ATOM     30  C   UNL     1      -5.468   8.312   0.967  1.00  0.00     0.031 C 
ATOM     31  C   UNL     1      -9.039   3.410   0.501  1.00  0.00     0.029 A 
ATOM     32  C   UNL     1      -7.928   4.224   0.667  1.00  0.00     0.049 A 
ATOM     33  H   UNL     1      -5.909   3.673   0.912  1.00  0.00     0.167 HD
ATOM     34  C   UNL     1      -6.735   6.401   0.847  1.00  0.00     0.074 A 
ATOM     35  C   UNL     1      -6.707   7.850   0.867  1.00  0.00     0.031 C 
ATOM     36  C   UNL     1      -7.866   5.663   0.716  1.00  0.00     0.037 A 
BRANCH  23  37
ATOM     37  C   UNL     1      -6.905  -0.455   0.577  1.00  0.00     0.064 A 
ATOM     38  C   UNL     1      -6.881  -1.379   1.637  1.00  0.00     0.173 A 
ATOM     39  C   UNL     1      -7.407  -0.890  -0.657  1.00  0.00     0.173 A 
ATOM     40  F   UNL     1      -6.390  -1.021   2.834  1.00  0.00    -0.203 F 
ATOM     41  C   UNL     1      -7.288  -2.697   1.452  1.00  0.00     0.198 A 
ATOM     42  C   UNL     1      -7.847  -2.201  -0.828  1.00  0.00     0.198 A 
ATOM     43  F   UNL     1      -7.453  -0.051  -1.702  1.00  0.00    -0.203 F 
ATOM     44  F   UNL     1      -7.176  -3.579   2.456  1.00  0.00    -0.200 F 
ATOM     45  C   UNL     1      -7.773  -3.106   0.220  1.00  0.00     0.200 A 
ATOM     46  F   UNL     1      -8.322  -2.595  -2.018  1.00  0.00    -0.200 F 
ATOM     47  F   UNL     1      -8.153  -4.378   0.038  1.00  0.00    -0.200 F 
ENDBRANCH  23  37
BRANCH  24  48
ATOM     48  C   UNL     1      -2.599   8.554   1.538  1.00  0.00     0.064 A 
ATOM     49  C   UNL     1      -2.928   9.400   2.608  1.00  0.00     0.173 A 
ATOM     50  C   UNL     1      -1.675   9.031   0.597  1.00  0.00     0.173 A 
ATOM     51  F   UNL     1      -3.817   8.997   3.529  1.00  0.00    -0.203 F 
ATOM     52  C   UNL     1      -2.384  10.679   2.715  1.00  0.00     0.198 A 
ATOM     53  C   UNL     1      -1.115  10.304   0.716  1.00  0.00     0.198 A 
ATOM     54  F   UNL     1      -1.317   8.263  -0.442  1.00  0.00    -0.203 F 
ATOM     55  F   UNL     1      -2.756  11.481   3.722  1.00  0.00    -0.200 F 
ATOM     56  C   UNL     1      -1.476  11.130   1.770  1.00  0.00     0.200 A 
ATOM     57  F   UNL     1      -0.230  10.733  -0.195  1.00  0.00    -0.200 F 
ATOM     58  F   UNL     1      -0.958  12.362   1.869  1.00  0.00    -0.200 F 
ENDBRANCH  24  48
BRANCH  36  59
ATOM     59  C   UNL     1      -9.168   6.404   0.646  1.00  0.00     0.064 A 
ATOM     60  C   UNL     1      -9.531   7.159  -0.477  1.00  0.00     0.173 A 
ATOM     61  C   UNL     1     -10.087   6.307   1.703  1.00  0.00     0.173 A 
ATOM     62  F   UNL     1      -8.681   7.290  -1.507  1.00  0.00    -0.203 F 
ATOM     63  C   UNL     1     -10.758   7.815  -0.528  1.00  0.00     0.198 A 
ATOM     64  C   UNL     1     -11.327   6.934   1.632  1.00  0.00     0.198 A 
ATOM     65  F   UNL     1      -9.790   5.587   2.795  1.00  0.00    -0.203 F 
ATOM     66  F   UNL     1     -11.064   8.574  -1.589  1.00  0.00    -0.200 F 
ATOM     67  C   UNL     1     -11.657   7.694   0.521  1.00  0.00     0.200 A 
ATOM     68  F   UNL     1     -12.202   6.799   2.638  1.00  0.00    -0.200 F 
ATOM     69  F   UNL     1     -12.842   8.316   0.463  1.00  0.00    -0.200 F 
ENDBRANCH  36  59
ENDBRANCH  10  11
ENDBRANCH   3   5
ENDBRANCH   2   3
ENDBRANCH   1   2
BRANCH   1  70
ATOM     70  C   UNL     1       4.112   1.834   4.797  1.00  0.00     0.274 C 
BRANCH  70  71
ATOM     71  O   UNL     1       3.437   2.186   3.576  1.00  0.00    -0.461 OA
BRANCH  71  72
ATOM     72  C   UNL     1       4.116   1.933   2.414  1.00  0.00     0.319 C 
ATOM     73  O   UNL     1       5.216   1.390   2.363  1.00  0.00    -0.251 OA
BRANCH  72  74
ATOM     74  C   UNL     1       3.362   2.474   1.192  1.00  0.00     0.184 C 
BRANCH  74  75
ATOM     75  C   UNL     1       3.689   3.950   0.990  1.00  0.00    -0.028 A 
ATOM     76  C   UNL     1       2.655   4.883   0.827  1.00  0.00     0.006 A 
ATOM     77  C   UNL     1       5.011   4.421   1.045  1.00  0.00     0.006 A 
ATOM     78  C   UNL     1       2.923   6.255   0.806  1.00  0.00     0.016 A 
ATOM     79  C   UNL     1       5.284   5.792   1.016  1.00  0.00     0.016 A 
ATOM     80  C   UNL     1       4.236   6.703   0.917  1.00  0.00     0.017 A 
ATOM     81  Br  UNL     1       4.598   8.558   0.947  1.00  0.00    -0.051 Br
ENDBRANCH  74  75
BRANCH  74  82
ATOM     82  C   UNL     1       3.654   1.555  -0.031  1.00  0.00     0.282 C 
BRANCH  82  83
ATOM     83  N   UNL     1       2.617   1.637  -1.101  1.00  0.00    -0.334 N 
ATOM     84  C   UNL     1       1.888   0.366  -1.275  1.00  0.00     0.262 C 
ATOM     85  C   UNL     1       3.210   1.833  -2.441  1.00  0.00     0.262 C 
ATOM     86  H   UNL     1       2.023   2.409  -0.798  1.00  0.00     0.348 HD
ATOM     87  C   UNL     1       2.786  -0.524  -2.101  1.00  0.00     0.067 C 
ATOM     88  C   UNL     1       3.394   0.453  -3.081  1.00  0.00     0.067 C 
ENDBRANCH  82  83
ENDBRANCH  74  82
ENDBRANCH  72  74
ENDBRANCH  71  72
ENDBRANCH  70  71
ENDBRANCH   1  70
TORSDOF 14
