REMARK SMILES O=C(OCCOC(=O)c1cc(NC(=S)NC(=O)c2ccccc2F)ccc1Cl)c1ccc(-c2c3nc(c(-c4c(F)c(F)c(F)c(F)c4F)c4ccc([nH]4)c(-c4c(F)c(F)c(F)c(F)c4F)c4nc(c(-c5c(F)c(F)c(F)c(F)c5F)c5ccc2[nH]5)C=C4)C=C3)cc1
REMARK SMILES IDX 5 1 4 2 3 3 2 4 1 5 29 6 30 7 91 8 31 9 90 10 32 11 33 12
REMARK SMILES IDX 34 13 84 14 35 15 89 16 83 17 85 18 36 19 88 20 82 21 81 22
REMARK SMILES IDX 37 24 69 25 49 26 68 27 50 28 53 29 67 30 86 31 51 32 52 33
REMARK SMILES IDX 66 35 87 36 54 37 38 38 39 39 47 40 40 41 41 42 45 43 48 44
REMARK SMILES IDX 42 45 43 46 46 47 44 48 70 49 71 50 79 51 72 52 73 53 77 54
REMARK SMILES IDX 80 55 74 56 75 57 78 58 76 59 55 60 56 61 64 62 57 63 58 64
REMARK SMILES IDX 62 65 65 66 59 67 60 68 63 69 61 70 6 71 7 72 8 73 9 74
REMARK SMILES IDX 10 75 27 76 11 77 26 78 28 79 25 80 12 81 13 83 14 84 15 85
REMARK SMILES IDX 16 86 17 88 18 89 19 90 23 91 20 92 22 93 24 94 21 95
REMARK H PARENT 85 23 53 34 12 82 15 87
REMARK Flexibility Score: inf
ROOT
ATOM      1  C   UNL     1       4.137  -0.927   1.997  1.00  0.00     0.275 C 
ENDROOT
BRANCH   1   2
ATOM      2  C   UNL     1       4.709   0.466   1.697  1.00  0.00     0.275 C 
BRANCH   2   3
ATOM      3  O   UNL     1       4.006   1.170   0.675  1.00  0.00    -0.458 OA
BRANCH   3   4
ATOM      4  C   UNL     1       4.145   1.048  -0.661  1.00  0.00     0.338 C 
ATOM      5  O   UNL     1       3.429   1.753  -1.373  1.00  0.00    -0.246 OA
BRANCH   4   6
ATOM      6  C   UNL     1       5.014   0.017  -1.337  1.00  0.00     0.060 A 
ATOM      7  C   UNL     1       5.949  -0.854  -0.763  1.00  0.00     0.016 A 
ATOM      8  C   UNL     1       4.735  -0.177  -2.688  1.00  0.00     0.016 A 
ATOM      9  C   UNL     1       6.404  -2.004  -1.429  1.00  0.00     0.010 A 
ATOM     10  C   UNL     1       5.131  -1.350  -3.329  1.00  0.00     0.010 A 
ATOM     11  C   UNL     1       5.921  -2.325  -2.690  1.00  0.00    -0.014 A 
BRANCH  11  12
ATOM     12  C   UNL     1       6.225  -3.630  -3.363  1.00  0.00     0.031 A 
ATOM     13  C   UNL     1       6.723  -3.584  -4.782  1.00  0.00     0.074 A 
ATOM     14  C   UNL     1       6.000  -4.841  -2.790  1.00  0.00     0.049 A 
ATOM     15  N   UNL     1       6.946  -4.571  -5.610  1.00  0.00    -0.248 NA
ATOM     16  C   UNL     1       6.971  -2.252  -5.366  1.00  0.00     0.031 C 
ATOM     17  C   UNL     1       5.512  -5.083  -1.430  1.00  0.00     0.029 A 
ATOM     18  N   UNL     1       6.128  -6.122  -3.299  1.00  0.00    -0.354 N 
ATOM     19  C   UNL     1       7.389  -3.963  -6.772  1.00  0.00     0.074 A 
ATOM     20  C   UNL     1       7.185  -2.545  -6.635  1.00  0.00     0.031 C 
ATOM     21  C   UNL     1       5.341  -6.404  -1.232  1.00  0.00     0.029 A 
ATOM     22  C   UNL     1       5.711  -7.123  -2.443  1.00  0.00     0.049 A 
ATOM     23  H   UNL     1       6.487  -6.304  -4.197  1.00  0.00     0.167 HD
ATOM     24  C   UNL     1       8.072  -4.508  -7.798  1.00  0.00     0.037 A 
ATOM     25  C   UNL     1       5.644  -8.464  -2.606  1.00  0.00     0.037 A 
ATOM     26  C   UNL     1       8.388  -5.896  -7.900  1.00  0.00     0.049 A 
ATOM     27  C   UNL     1       6.256  -9.073  -3.842  1.00  0.00     0.074 A 
ATOM     28  C   UNL     1       9.177  -6.524  -8.842  1.00  0.00     0.029 A 
ATOM     29  N   UNL     1       7.935  -6.868  -7.026  1.00  0.00    -0.354 N 
ATOM     30  N   UNL     1       6.826  -8.467  -4.854  1.00  0.00    -0.248 NA
ATOM     31  C   UNL     1       6.282 -10.543  -3.936  1.00  0.00     0.031 C 
ATOM     32  C   UNL     1       9.148  -7.892  -8.578  1.00  0.00     0.029 A 
ATOM     33  C   UNL     1       8.383  -8.107  -7.442  1.00  0.00     0.049 A 
ATOM     34  H   UNL     1       7.379  -6.702  -6.231  1.00  0.00     0.167 HD
ATOM     35  C   UNL     1       7.341  -9.473  -5.659  1.00  0.00     0.074 A 
ATOM     36  C   UNL     1       6.997 -10.732  -5.037  1.00  0.00     0.031 C 
ATOM     37  C   UNL     1       8.059  -9.352  -6.799  1.00  0.00     0.037 A 
BRANCH  24  38
ATOM     38  C   UNL     1       8.628  -3.567  -8.815  1.00  0.00     0.064 A 
ATOM     39  C   UNL     1       8.117  -3.535 -10.116  1.00  0.00     0.173 A 
ATOM     40  C   UNL     1       9.695  -2.710  -8.495  1.00  0.00     0.173 A 
ATOM     41  F   UNL     1       7.092  -4.330 -10.459  1.00  0.00    -0.203 F 
ATOM     42  C   UNL     1       8.663  -2.683 -11.069  1.00  0.00     0.198 A 
ATOM     43  C   UNL     1      10.217  -1.838  -9.441  1.00  0.00     0.198 A 
ATOM     44  F   UNL     1      10.196  -2.689  -7.249  1.00  0.00    -0.203 F 
ATOM     45  F   UNL     1       8.176  -2.680 -12.317  1.00  0.00    -0.200 F 
ATOM     46  C   UNL     1       9.708  -1.833 -10.730  1.00  0.00     0.200 A 
ATOM     47  F   UNL     1      11.201  -0.994  -9.101  1.00  0.00    -0.200 F 
ATOM     48  F   UNL     1      10.222  -1.004 -11.648  1.00  0.00    -0.200 F 
ENDBRANCH  24  38
BRANCH  25  49
ATOM     49  C   UNL     1       5.023  -9.354  -1.579  1.00  0.00     0.064 A 
ATOM     50  C   UNL     1       3.628  -9.441  -1.454  1.00  0.00     0.173 A 
ATOM     51  C   UNL     1       5.794 -10.211  -0.780  1.00  0.00     0.173 A 
ATOM     52  F   UNL     1       2.836  -8.663  -2.206  1.00  0.00    -0.203 F 
ATOM     53  C   UNL     1       3.032 -10.347  -0.573  1.00  0.00     0.198 A 
ATOM     54  C   UNL     1       5.197 -11.133   0.083  1.00  0.00     0.198 A 
ATOM     55  F   UNL     1       7.130 -10.203  -0.890  1.00  0.00    -0.203 F 
ATOM     56  F   UNL     1       1.696 -10.404  -0.478  1.00  0.00    -0.200 F 
ATOM     57  C   UNL     1       3.817 -11.200   0.187  1.00  0.00     0.200 A 
ATOM     58  F   UNL     1       5.960 -11.982   0.786  1.00  0.00    -0.200 F 
ATOM     59  F   UNL     1       3.243 -12.095   1.004  1.00  0.00    -0.200 F 
ENDBRANCH  25  49
BRANCH  37  60
ATOM     60  C   UNL     1       8.566 -10.594  -7.463  1.00  0.00     0.064 A 
ATOM     61  C   UNL     1       9.946 -10.846  -7.521  1.00  0.00     0.173 A 
ATOM     62  C   UNL     1       7.708 -11.430  -8.187  1.00  0.00     0.173 A 
ATOM     63  F   UNL     1      10.805 -10.063  -6.851  1.00  0.00    -0.203 F 
ATOM     64  C   UNL     1      10.452 -11.858  -8.328  1.00  0.00     0.198 A 
ATOM     65  C   UNL     1       8.216 -12.464  -8.966  1.00  0.00     0.198 A 
ATOM     66  F   UNL     1       6.381 -11.234  -8.147  1.00  0.00    -0.203 F 
ATOM     67  F   UNL     1      11.777 -12.030  -8.432  1.00  0.00    -0.200 F 
ATOM     68  C   UNL     1       9.587 -12.663  -9.053  1.00  0.00     0.200 A 
ATOM     69  F   UNL     1       7.379 -13.255  -9.651  1.00  0.00    -0.200 F 
ATOM     70  F   UNL     1      10.075 -13.627  -9.846  1.00  0.00    -0.200 F 
ENDBRANCH  37  60
ENDBRANCH  11  12
ENDBRANCH   4   6
ENDBRANCH   3   4
ENDBRANCH   2   3
ENDBRANCH   1   2
BRANCH   1  71
ATOM     71  O   UNL     1       3.688  -1.693   0.843  1.00  0.00    -0.458 OA
BRANCH  71  72
ATOM     72  C   UNL     1       2.354  -1.980   0.820  1.00  0.00     0.339 C 
ATOM     73  O   UNL     1       1.554  -1.557   1.641  1.00  0.00    -0.246 OA
BRANCH  72  74
ATOM     74  C   UNL     1       1.997  -3.042  -0.245  1.00  0.00     0.080 A 
ATOM     75  C   UNL     1       0.740  -3.157  -1.812  1.00  0.00     0.043 A 
ATOM     76  C   UNL     1       2.473  -4.668   0.407  1.00  0.00     0.055 A 
ATOM     77  C   UNL     1       0.139  -4.545  -2.517  1.00  0.00     0.041 A 
ATOM     78  C   UNL     1       1.784  -6.128  -0.387  1.00  0.00     0.023 A 
ATOM     79  Cl  UNL     1       3.484  -4.866   1.782  1.00  0.00    -0.083 Cl
ATOM     80  C   UNL     1       0.660  -6.046  -1.806  1.00  0.00     0.028 A 
BRANCH  77  81
ATOM     81  N   UNL     1      -0.733  -4.134  -3.570  1.00  0.00    -0.332 N 
ATOM     82  H   UNL     1      -1.137  -4.874  -4.079  1.00  0.00     0.169 HD
BRANCH  81  83
ATOM     83  C   UNL     1      -1.115  -2.836  -4.008  1.00  0.00     0.177 C 
ATOM     84  S   UNL     1      -1.778  -2.726  -5.549  1.00  0.00    -0.040 S 
BRANCH  83  85
ATOM     85  N   UNL     1      -1.057  -1.562  -3.249  1.00  0.00    -0.299 N 
ATOM     86  C   UNL     1      -0.673  -0.711  -1.992  1.00  0.00     0.260 C 
ATOM     87  H   UNL     1      -1.484  -0.911  -3.851  1.00  0.00     0.172 HD
ATOM     88  O   UNL     1      -1.202   0.383  -1.827  1.00  0.00    -0.269 OA
BRANCH  86  89
ATOM     89  C   UNL     1       0.425  -1.232  -0.956  1.00  0.00     0.075 A 
ATOM     90  C   UNL     1      -0.200  -2.652  -0.036  1.00  0.00     0.017 A 
ATOM     91  C   UNL     1       1.869  -1.356  -1.989  1.00  0.00     0.135 A 
ATOM     92  C   UNL     1       0.542  -4.285  -0.355  1.00  0.00     0.001 A 
ATOM     93  C   UNL     1       2.716  -2.855  -2.353  1.00  0.00     0.040 A 
ATOM     94  F   UNL     1       1.960  -0.429  -2.964  1.00  0.00    -0.206 F 
ATOM     95  C   UNL     1       2.126  -4.371  -1.627  1.00  0.00     0.003 A 
ENDBRANCH  86  89
ENDBRANCH  83  85
ENDBRANCH  81  83
ENDBRANCH  77  81
ENDBRANCH  72  74
ENDBRANCH  71  72
ENDBRANCH   1  71
TORSDOF 15
