REMARK SMILES COc1ccc([C@@H](CC(=O)OCCOC(=O)c2ccc(-c3c4nc(c(-c5c(F)c(F)c(F)c(F)c5F)c5ccc([nH]5)c(-c5c(F)c(F)c(F)c(F)c5F)c5nc(c(-c6c(F)c(F)c(F)c(F)c6F)c6ccc3[nH]6)C=C5)C=C4)cc2)NC(=O)c2ccc(Cl)c([N+](=O)[O-])c2)cc1
REMARK SMILES IDX 12 1 11 2 9 3 10 4 8 5 7 6 6 7 3 8 4 9 94 10 5 11 93 12 2 13
REMARK SMILES IDX 1 14 80 15 81 16 82 18 83 19 84 20 92 21 85 22 88 23 86 24
REMARK SMILES IDX 87 25 89 26 90 27 91 28 13 29 14 30 15 31 16 32 17 33 18 34
REMARK SMILES IDX 79 35 19 36 78 37 20 38 21 39 22 40 72 41 23 42 77 43 71 44
REMARK SMILES IDX 73 45 24 46 76 47 70 48 69 49 25 51 57 52 37 53 56 54 38 55
REMARK SMILES IDX 41 56 55 57 74 58 39 59 40 60 54 62 75 63 42 64 26 65 27 66
REMARK SMILES IDX 35 67 28 68 29 69 33 70 36 71 30 72 31 73 34 74 32 75 58 76
REMARK SMILES IDX 59 77 67 78 60 79 61 80 65 81 68 82 62 83 63 84 66 85 64 86
REMARK SMILES IDX 43 87 44 88 52 89 45 90 46 91 50 92 53 93 47 94 48 95 51 96
REMARK SMILES IDX 49 97
REMARK H PARENT 80 17 73 50 41 61
REMARK Flexibility Score: inf
ROOT
ATOM      1  C   UNL     1      -1.398   4.926  -4.936  1.00  0.00     0.274 C 
ENDROOT
BRANCH   1   2
ATOM      2  O   UNL     1      -0.146   4.916  -4.217  1.00  0.00    -0.462 OA
BRANCH   2   3
ATOM      3  C   UNL     1       0.848   5.696  -4.696  1.00  0.00     0.308 C 
ATOM      4  O   UNL     1       0.748   6.404  -5.693  1.00  0.00    -0.252 OA
BRANCH   3   5
ATOM      5  C   UNL     1       2.158   5.557  -3.954  1.00  0.00     0.152 C 
BRANCH   5   6
ATOM      6  C   UNL     1       2.168   5.524  -2.416  1.00  0.00     0.123 C 
BRANCH   6   7
ATOM      7  C   UNL     1       1.697   4.196  -1.849  1.00  0.00    -0.025 A 
ATOM      8  C   UNL     1       0.873   1.623  -1.078  1.00  0.00     0.118 A 
ATOM      9  C   UNL     1      -0.057   2.652  -1.180  1.00  0.00     0.047 A 
ATOM     10  C   UNL     1       2.218   1.866  -1.343  1.00  0.00     0.047 A 
ATOM     11  C   UNL     1       0.356   3.938  -1.534  1.00  0.00     0.010 A 
ATOM     12  C   UNL     1       2.626   3.146  -1.725  1.00  0.00     0.010 A 
BRANCH   8  13
ATOM     13  O   UNL     1       0.393   0.370  -0.814  1.00  0.00    -0.497 OA
ATOM     14  C   UNL     1       0.975  -0.192   0.359  1.00  0.00     0.278 C 
ENDBRANCH   8  13
ENDBRANCH   6   7
BRANCH   6  15
ATOM     15  N   UNL     1       1.542   6.685  -1.788  1.00  0.00    -0.345 N 
ATOM     16  C   UNL     1       2.067   7.646  -0.961  1.00  0.00     0.252 C 
ATOM     17  H   UNL     1       0.586   6.797  -1.992  1.00  0.00     0.164 HD
ATOM     18  O   UNL     1       1.350   8.456  -0.383  1.00  0.00    -0.269 OA
BRANCH  16  19
ATOM     19  C   UNL     1       3.524   7.737  -0.748  1.00  0.00     0.046 A 
ATOM     20  C   UNL     1       4.019   7.736   0.559  1.00  0.00     0.016 A 
ATOM     21  C   UNL     1       4.393   7.893  -1.827  1.00  0.00     0.101 A 
ATOM     22  C   UNL     1       5.397   7.819   0.785  1.00  0.00     0.028 A 
ATOM     23  C   UNL     1       5.775   7.964  -1.588  1.00  0.00     0.288 A 
ATOM     24  C   UNL     1       6.290   7.913  -0.290  1.00  0.00     0.118 A 
ATOM     25  Cl  UNL     1       7.974   7.896   0.087  1.00  0.00    -0.077 Cl
BRANCH  23  26
ATOM     26  N   UNL     1       6.640   8.053  -2.751  1.00  0.00     0.064 N 
ATOM     27  O   UNL     1       7.542   8.898  -2.746  1.00  0.00    -0.258 OA
ATOM     28  O   UNL     1       6.365   7.304  -3.700  1.00  0.00    -0.258 OA
ENDBRANCH  23  26
ENDBRANCH  16  19
ENDBRANCH   6  15
ENDBRANCH   5   6
ENDBRANCH   3   5
ENDBRANCH   2   3
ENDBRANCH   1   2
BRANCH   1  29
ATOM     29  C   UNL     1      -2.432   5.843  -4.277  1.00  0.00     0.275 C 
BRANCH  29  30
ATOM     30  O   UNL     1      -2.076   7.230  -4.423  1.00  0.00    -0.458 OA
BRANCH  30  31
ATOM     31  C   UNL     1      -1.365   7.741  -3.393  1.00  0.00     0.338 C 
ATOM     32  O   UNL     1      -1.047   7.166  -2.366  1.00  0.00    -0.246 OA
BRANCH  31  33
ATOM     33  C   UNL     1      -0.878   9.082  -3.747  1.00  0.00     0.060 A 
ATOM     34  C   UNL     1       0.475   9.242  -4.061  1.00  0.00     0.016 A 
ATOM     35  C   UNL     1      -1.732  10.181  -3.699  1.00  0.00     0.016 A 
ATOM     36  C   UNL     1       0.984  10.506  -4.338  1.00  0.00     0.010 A 
ATOM     37  C   UNL     1      -1.222  11.451  -3.982  1.00  0.00     0.010 A 
ATOM     38  C   UNL     1       0.138  11.620  -4.297  1.00  0.00    -0.014 A 
BRANCH  38  39
ATOM     39  C   UNL     1       0.680  12.974  -4.548  1.00  0.00     0.031 A 
ATOM     40  C   UNL     1       0.874  13.920  -3.403  1.00  0.00     0.074 A 
ATOM     41  C   UNL     1       0.983  13.350  -5.803  1.00  0.00     0.049 A 
ATOM     42  N   UNL     1       1.195  15.188  -3.422  1.00  0.00    -0.248 NA
ATOM     43  C   UNL     1       0.675  13.365  -2.055  1.00  0.00     0.031 C 
ATOM     44  C   UNL     1       0.886  12.496  -6.987  1.00  0.00     0.029 A 
ATOM     45  N   UNL     1       1.420  14.555  -6.292  1.00  0.00    -0.354 N 
ATOM     46  C   UNL     1       1.209  15.592  -2.095  1.00  0.00     0.074 A 
ATOM     47  C   UNL     1       0.858  14.436  -1.296  1.00  0.00     0.031 C 
ATOM     48  C   UNL     1       1.243  13.208  -8.068  1.00  0.00     0.029 A 
ATOM     49  C   UNL     1       1.544  14.577  -7.658  1.00  0.00     0.049 A 
ATOM     50  H   UNL     1       1.624  15.329  -5.718  1.00  0.00     0.167 HD
ATOM     51  C   UNL     1       1.486  16.819  -1.594  1.00  0.00     0.037 A 
ATOM     52  C   UNL     1       1.832  15.598  -8.487  1.00  0.00     0.037 A 
ATOM     53  C   UNL     1       1.851  17.958  -2.396  1.00  0.00     0.049 A 
ATOM     54  C   UNL     1       2.080  16.965  -7.910  1.00  0.00     0.074 A 
ATOM     55  C   UNL     1       2.167  19.241  -1.983  1.00  0.00     0.029 A 
ATOM     56  N   UNL     1       1.948  17.949  -3.780  1.00  0.00    -0.354 N 
ATOM     57  N   UNL     1       2.078  17.346  -6.656  1.00  0.00    -0.248 NA
ATOM     58  C   UNL     1       2.362  18.046  -8.865  1.00  0.00     0.031 C 
ATOM     59  C   UNL     1       2.418  20.017  -3.120  1.00  0.00     0.029 A 
ATOM     60  C   UNL     1       2.301  19.208  -4.239  1.00  0.00     0.049 A 
ATOM     61  H   UNL     1       1.790  17.163  -4.352  1.00  0.00     0.167 HD
ATOM     62  C   UNL     1       2.380  18.701  -6.667  1.00  0.00     0.074 A 
ATOM     63  C   UNL     1       2.568  19.074  -8.054  1.00  0.00     0.031 C 
ATOM     64  C   UNL     1       2.491  19.558  -5.623  1.00  0.00     0.037 A 
BRANCH  51  65
ATOM     65  C   UNL     1       1.370  17.001  -0.111  1.00  0.00     0.064 A 
ATOM     66  C   UNL     1       2.316  16.468   0.776  1.00  0.00     0.173 A 
ATOM     67  C   UNL     1       0.308  17.744   0.428  1.00  0.00     0.173 A 
ATOM     68  F   UNL     1       3.342  15.739   0.311  1.00  0.00    -0.203 F 
ATOM     69  C   UNL     1       2.190  16.651   2.151  1.00  0.00     0.198 A 
ATOM     70  C   UNL     1       0.199  17.945   1.801  1.00  0.00     0.198 A 
ATOM     71  F   UNL     1      -0.621  18.278  -0.379  1.00  0.00    -0.203 F 
ATOM     72  F   UNL     1       3.082  16.097   2.984  1.00  0.00    -0.200 F 
ATOM     73  C   UNL     1       1.135  17.394   2.662  1.00  0.00     0.200 A 
ATOM     74  F   UNL     1      -0.815  18.672   2.291  1.00  0.00    -0.200 F 
ATOM     75  F   UNL     1       1.018  17.572   3.985  1.00  0.00    -0.200 F 
ENDBRANCH  51  65
BRANCH  52  76
ATOM     76  C   UNL     1       1.879  15.368  -9.953  1.00  0.00     0.064 A 
ATOM     77  C   UNL     1       3.095  15.406 -10.648  1.00  0.00     0.173 A 
ATOM     78  C   UNL     1       0.714  15.104 -10.687  1.00  0.00     0.173 A 
ATOM     79  F   UNL     1       4.232  15.682  -9.993  1.00  0.00    -0.203 F 
ATOM     80  C   UNL     1       3.143  15.197 -12.025  1.00  0.00     0.198 A 
ATOM     81  C   UNL     1       0.765  14.870 -12.059  1.00  0.00     0.198 A 
ATOM     82  F   UNL     1      -0.475  15.060 -10.067  1.00  0.00    -0.203 F 
ATOM     83  F   UNL     1       4.313  15.276 -12.672  1.00  0.00    -0.200 F 
ATOM     84  C   UNL     1       1.979  14.922 -12.728  1.00  0.00     0.200 A 
ATOM     85  F   UNL     1      -0.360  14.595 -12.733  1.00  0.00    -0.200 F 
ATOM     86  F   UNL     1       2.026  14.716 -14.051  1.00  0.00    -0.200 F 
ENDBRANCH  52  76
BRANCH  64  87
ATOM     87  C   UNL     1       2.870  20.974  -5.938  1.00  0.00     0.064 A 
ATOM     88  C   UNL     1       1.954  21.871  -6.505  1.00  0.00     0.173 A 
ATOM     89  C   UNL     1       4.154  21.449  -5.631  1.00  0.00     0.173 A 
ATOM     90  F   UNL     1       0.720  21.459  -6.832  1.00  0.00    -0.203 F 
ATOM     91  C   UNL     1       2.316  23.188  -6.773  1.00  0.00     0.198 A 
ATOM     92  C   UNL     1       4.505  22.773  -5.877  1.00  0.00     0.198 A 
ATOM     93  F   UNL     1       5.064  20.630  -5.082  1.00  0.00    -0.203 F 
ATOM     94  F   UNL     1       1.438  24.018  -7.353  1.00  0.00    -0.200 F 
ATOM     95  C   UNL     1       3.588  23.640  -6.452  1.00  0.00     0.200 A 
ATOM     96  F   UNL     1       5.731  23.210  -5.557  1.00  0.00    -0.200 F 
ATOM     97  F   UNL     1       3.933  24.910  -6.705  1.00  0.00    -0.200 F 
ENDBRANCH  64  87
ENDBRANCH  38  39
ENDBRANCH  31  33
ENDBRANCH  30  31
ENDBRANCH  29  30
ENDBRANCH   1  29
TORSDOF 17
