REMARK SMILES CCCc1cc(=O)[nH]c(S[C@@H]2CC[C@@]([NH2+]C)(C(=O)OCCOC(=O)c3ccc(-c4c5nc(c(-c6c(F)c(F)c(F)c(F)c6F)c6ccc([nH]6)c(-c6c(F)c(F)c(F)c(F)c6F)c6nc(c(-c7c(F)c(F)c(F)c(F)c7F)c7ccc4[nH]7)C=C6)C=C5)cc3)C2)n1
REMARK SMILES IDX 20 1 19 2 17 3 18 4 14 5 11 6 12 7 88 8 13 9 10 10 9 11 4 12
REMARK SMILES IDX 5 13 89 14 6 15 7 16 8 17 3 19 2 20 1 21 15 22 16 23 21 26
REMARK SMILES IDX 22 27 23 28 24 29 25 30 26 31 87 32 27 33 86 34 28 35 29 36
REMARK SMILES IDX 30 37 80 38 31 39 85 40 79 41 81 42 32 43 84 44 78 45 77 46
REMARK SMILES IDX 33 48 65 49 45 50 64 51 46 52 49 53 63 54 82 55 47 56 48 57
REMARK SMILES IDX 62 59 83 60 50 61 34 62 35 63 43 64 36 65 37 66 41 67 44 68
REMARK SMILES IDX 38 69 39 70 42 71 40 72 66 73 67 74 75 75 68 76 69 77 73 78
REMARK SMILES IDX 76 79 70 80 71 81 74 82 72 83 51 84 52 85 60 86 53 87 54 88
REMARK SMILES IDX 58 89 61 90 55 91 56 92 59 93 57 94
REMARK H PARENT 8 18 15 24 15 25 81 47 49 58
REMARK Flexibility Score: inf
ROOT
ATOM      1  C   UNL     1      -2.426  -9.916   2.816  1.00  0.00     0.274 C 
ENDROOT
BRANCH   1   2
ATOM      2  O   UNL     1      -1.466  -8.864   2.590  1.00  0.00    -0.457 OA
BRANCH   2   3
ATOM      3  C   UNL     1      -1.979  -7.623   2.373  1.00  0.00     0.368 C 
ATOM      4  O   UNL     1      -3.182  -7.370   2.404  1.00  0.00    -0.245 OA
BRANCH   3   5
ATOM      5  C   UNL     1      -0.898  -6.547   2.032  1.00  0.00     0.195 C 
ATOM      6  C   UNL     1      -0.304  -5.369   4.071  1.00  0.00     0.062 C 
ATOM      7  C   UNL     1       1.000  -5.910   3.515  1.00  0.00     0.022 C 
ATOM      8  C   UNL     1      -1.192  -5.250   2.834  1.00  0.00     0.096 C 
ATOM      9  C   UNL     1       0.546  -6.935   2.469  1.00  0.00     0.082 C 
BRANCH   6  10
ATOM     10  S   UNL     1      -0.163  -3.923   5.159  1.00  0.00    -0.084 SA
BRANCH  10  11
ATOM     11  C   UNL     1       0.250  -2.603   4.117  1.00  0.00     0.168 A 
ATOM     12  C   UNL     1       0.926  -1.618   2.175  1.00  0.00     0.049 A 
ATOM     13  C   UNL     1       0.855  -0.386   2.699  1.00  0.00     0.095 A 
ATOM     14  N   UNL     1       0.637  -2.752   2.898  1.00  0.00    -0.229 NA
ATOM     15  C   UNL     1       0.410  -0.239   4.094  1.00  0.00     0.251 A 
ATOM     16  O   UNL     1       0.311   0.863   4.617  1.00  0.00    -0.269 OA
ATOM     17  N   UNL     1       0.122  -1.402   4.735  1.00  0.00    -0.301 N 
ATOM     18  H   UNL     1      -0.186  -1.372   5.670  1.00  0.00     0.172 HD
BRANCH  12  19
ATOM     19  C   UNL     1       1.367  -1.890   0.750  1.00  0.00     0.056 C 
BRANCH  19  20
ATOM     20  C   UNL     1       0.582  -1.196  -0.371  1.00  0.00     0.003 C 
ATOM     21  C   UNL     1       0.970   0.257  -0.603  1.00  0.00     0.004 C 
ENDBRANCH  19  20
ENDBRANCH  12  19
ENDBRANCH  10  11
ENDBRANCH   6  10
BRANCH   5  22
ATOM     22  N   UNL     1      -0.898  -6.293   0.562  1.00  0.00    -0.335 N 
ATOM     23  C   UNL     1      -2.193  -5.890   0.018  1.00  0.00     0.331 C 
ATOM     24  H   UNL     1      -0.606  -7.148   0.090  1.00  0.00     0.347 HD
ATOM     25  H   UNL     1      -0.261  -5.512   0.403  1.00  0.00     0.347 HD
ENDBRANCH   5  22
ENDBRANCH   3   5
ENDBRANCH   2   3
ENDBRANCH   1   2
BRANCH   1  26
ATOM     26  C   UNL     1      -2.595 -10.198   4.308  1.00  0.00     0.275 C 
BRANCH  26  27
ATOM     27  O   UNL     1      -3.160  -9.047   4.962  1.00  0.00    -0.458 OA
BRANCH  27  28
ATOM     28  C   UNL     1      -2.499  -8.601   6.054  1.00  0.00     0.338 C 
ATOM     29  O   UNL     1      -1.521  -9.102   6.582  1.00  0.00    -0.246 OA
BRANCH  28  30
ATOM     30  C   UNL     1      -3.083  -7.328   6.526  1.00  0.00     0.060 A 
ATOM     31  C   UNL     1      -3.315  -6.300   5.620  1.00  0.00     0.016 A 
ATOM     32  C   UNL     1      -3.211  -7.080   7.892  1.00  0.00     0.016 A 
ATOM     33  C   UNL     1      -3.502  -4.997   6.074  1.00  0.00     0.010 A 
ATOM     34  C   UNL     1      -3.537  -5.792   8.340  1.00  0.00     0.010 A 
ATOM     35  C   UNL     1      -3.614  -4.712   7.442  1.00  0.00    -0.014 A 
BRANCH  35  36
ATOM     36  C   UNL     1      -3.720  -3.295   7.918  1.00  0.00     0.031 A 
ATOM     37  C   UNL     1      -2.769  -2.764   8.968  1.00  0.00     0.074 A 
ATOM     38  C   UNL     1      -4.622  -2.444   7.384  1.00  0.00     0.049 A 
ATOM     39  N   UNL     1      -2.819  -1.640   9.642  1.00  0.00    -0.248 NA
ATOM     40  C   UNL     1      -1.621  -3.613   9.320  1.00  0.00     0.031 C 
ATOM     41  C   UNL     1      -5.580  -2.772   6.328  1.00  0.00     0.029 A 
ATOM     42  N   UNL     1      -4.863  -1.114   7.639  1.00  0.00    -0.354 N 
ATOM     43  C   UNL     1      -1.776  -1.695  10.559  1.00  0.00     0.074 A 
ATOM     44  C   UNL     1      -1.095  -2.954  10.343  1.00  0.00     0.031 C 
ATOM     45  C   UNL     1      -6.240  -1.663   5.968  1.00  0.00     0.029 A 
ATOM     46  C   UNL     1      -5.844  -0.569   6.846  1.00  0.00     0.049 A 
ATOM     47  H   UNL     1      -4.378  -0.601   8.325  1.00  0.00     0.167 HD
ATOM     48  C   UNL     1      -1.422  -0.784  11.499  1.00  0.00     0.037 A 
ATOM     49  C   UNL     1      -6.402   0.657   6.847  1.00  0.00     0.037 A 
ATOM     50  C   UNL     1      -2.032   0.513  11.650  1.00  0.00     0.049 A 
ATOM     51  C   UNL     1      -5.974   1.664   7.876  1.00  0.00     0.074 A 
ATOM     52  C   UNL     1      -1.734   1.507  12.568  1.00  0.00     0.029 A 
ATOM     53  N   UNL     1      -3.038   1.013  10.837  1.00  0.00    -0.354 N 
ATOM     54  N   UNL     1      -5.066   1.552   8.813  1.00  0.00    -0.248 NA
ATOM     55  C   UNL     1      -6.673   2.956   7.866  1.00  0.00     0.031 C 
ATOM     56  C   UNL     1      -2.575   2.599  12.325  1.00  0.00     0.029 A 
ATOM     57  C   UNL     1      -3.368   2.301  11.230  1.00  0.00     0.049 A 
ATOM     58  H   UNL     1      -3.456   0.525  10.091  1.00  0.00     0.167 HD
ATOM     59  C   UNL     1      -5.082   2.757   9.502  1.00  0.00     0.074 A 
ATOM     60  C   UNL     1      -6.070   3.596   8.857  1.00  0.00     0.031 C 
ATOM     61  C   UNL     1      -4.351   3.128  10.581  1.00  0.00     0.037 A 
BRANCH  48  62
ATOM     62  C   UNL     1      -0.345  -1.167  12.474  1.00  0.00     0.064 A 
ATOM     63  C   UNL     1       1.006  -1.235  12.109  1.00  0.00     0.173 A 
ATOM     64  C   UNL     1      -0.675  -1.422  13.815  1.00  0.00     0.173 A 
ATOM     65  F   UNL     1       1.374  -1.015  10.838  1.00  0.00    -0.203 F 
ATOM     66  C   UNL     1       1.984  -1.568  13.045  1.00  0.00     0.198 A 
ATOM     67  C   UNL     1       0.307  -1.725  14.754  1.00  0.00     0.198 A 
ATOM     68  F   UNL     1      -1.953  -1.361  14.220  1.00  0.00    -0.203 F 
ATOM     69  F   UNL     1       3.265  -1.671  12.664  1.00  0.00    -0.200 F 
ATOM     70  C   UNL     1       1.635  -1.804  14.366  1.00  0.00     0.200 A 
ATOM     71  F   UNL     1      -0.032  -1.938  16.033  1.00  0.00    -0.200 F 
ATOM     72  F   UNL     1       2.579  -2.115  15.266  1.00  0.00    -0.200 F 
ENDBRANCH  48  62
BRANCH  49  73
ATOM     73  C   UNL     1      -7.463   0.986   5.858  1.00  0.00     0.064 A 
ATOM     74  C   UNL     1      -7.232   1.915   4.835  1.00  0.00     0.173 A 
ATOM     75  C   UNL     1      -8.722   0.369   5.907  1.00  0.00     0.173 A 
ATOM     76  F   UNL     1      -6.054   2.553   4.763  1.00  0.00    -0.203 F 
ATOM     77  C   UNL     1      -8.220   2.216   3.900  1.00  0.00     0.198 A 
ATOM     78  C   UNL     1      -9.697   0.645   4.953  1.00  0.00     0.198 A 
ATOM     79  F   UNL     1      -8.995  -0.525   6.869  1.00  0.00    -0.203 F 
ATOM     80  F   UNL     1      -7.987   3.135   2.954  1.00  0.00    -0.200 F 
ATOM     81  C   UNL     1      -9.448   1.573   3.953  1.00  0.00     0.200 A 
ATOM     82  F   UNL     1     -10.875   0.008   4.998  1.00  0.00    -0.200 F 
ATOM     83  F   UNL     1     -10.392   1.850   3.044  1.00  0.00    -0.200 F 
ENDBRANCH  49  73
BRANCH  61  84
ATOM     84  C   UNL     1      -4.577   4.511  11.113  1.00  0.00     0.064 A 
ATOM     85  C   UNL     1      -5.740   4.844  11.824  1.00  0.00     0.173 A 
ATOM     86  C   UNL     1      -3.615   5.514  10.917  1.00  0.00     0.173 A 
ATOM     87  F   UNL     1      -6.695   3.923  12.022  1.00  0.00    -0.203 F 
ATOM     88  C   UNL     1      -5.946   6.139  12.292  1.00  0.00     0.198 A 
ATOM     89  C   UNL     1      -3.814   6.801  11.409  1.00  0.00     0.198 A 
ATOM     90  F   UNL     1      -2.484   5.245  10.249  1.00  0.00    -0.203 F 
ATOM     91  F   UNL     1      -7.087   6.447  12.924  1.00  0.00    -0.200 F 
ATOM     92  C   UNL     1      -4.981   7.115  12.088  1.00  0.00     0.200 A 
ATOM     93  F   UNL     1      -2.878   7.742  11.217  1.00  0.00    -0.200 F 
ATOM     94  F   UNL     1      -5.183   8.361  12.536  1.00  0.00    -0.200 F 
ENDBRANCH  61  84
ENDBRANCH  35  36
ENDBRANCH  28  30
ENDBRANCH  27  28
ENDBRANCH  26  27
ENDBRANCH   1  26
TORSDOF 16
