REMARK SMILES C[N@@H+]1CCN(C(=O)c2cc(-n3cccn3)ccc2Cl)C[C@H]1C(=O)OCCOC(=O)c1ccc(-c2c3nc(c(-c4c(F)c(F)c(F)c(F)c4F)c4ccc([nH]4)c(-c4c(F)c(F)c(F)c(F)c4F)c4nc(c(-c5c(F)c(F)c(F)c(F)c5F)c5ccc2[nH]5)C=C4)C=C3)cc1
REMARK SMILES IDX 25 1 24 2 22 3 23 4 21 5 1 6 2 7 3 8 4 10 20 11 5 12 6 13
REMARK SMILES IDX 7 14 8 15 9 16 18 17 10 18 17 19 19 20 16 21 11 22 12 23
REMARK SMILES IDX 15 24 13 25 14 26 26 27 27 28 28 29 29 30 30 31 31 32 92 33
REMARK SMILES IDX 32 34 91 35 33 36 34 37 35 38 85 39 36 40 90 41 84 42 86 43
REMARK SMILES IDX 37 44 89 45 83 46 82 47 38 49 70 50 50 51 69 52 51 53 54 54
REMARK SMILES IDX 68 55 87 56 52 57 53 58 67 60 88 61 55 62 39 63 40 64 48 65
REMARK SMILES IDX 41 66 42 67 46 68 49 69 43 70 44 71 47 72 45 73 71 74 72 75
REMARK SMILES IDX 80 76 73 77 74 78 78 79 81 80 75 81 76 82 79 83 77 84 56 85
REMARK SMILES IDX 57 86 65 87 58 88 59 89 63 90 66 91 60 92 61 93 64 94 62 95
REMARK H PARENT 2 9 86 48 54 59
REMARK Flexibility Score: inf
ROOT
ATOM      1  C   UNL     1       1.249  -3.654  -2.486  1.00  0.00     0.274 C 
ENDROOT
BRANCH   1   2
ATOM      2  O   UNL     1       0.959  -2.333  -1.972  1.00  0.00    -0.458 OA
BRANCH   2   3
ATOM      3  C   UNL     1       0.545  -2.293  -0.679  1.00  0.00     0.366 C 
ATOM      4  O   UNL     1       0.473  -3.288   0.044  1.00  0.00    -0.245 OA
BRANCH   3   5
ATOM      5  C   UNL     1       0.007  -0.958  -0.194  1.00  0.00     0.314 C 
ATOM      6  C   UNL     1       1.993   0.469  -0.574  1.00  0.00     0.333 C 
ATOM      7  N   UNL     1       0.553   0.317  -0.767  1.00  0.00    -0.323 N 
ATOM      8  C   UNL     1      -0.136   1.444  -0.080  1.00  0.00     0.284 C 
ATOM      9  H   UNL     1       0.389   0.304  -1.773  1.00  0.00     0.348 HD
ATOM     10  C   UNL     1      -1.664   1.399  -0.263  1.00  0.00     0.181 C 
ATOM     11  C   UNL     1      -1.506  -1.045  -0.470  1.00  0.00     0.197 C 
ATOM     12  N   UNL     1      -2.213   0.097   0.110  1.00  0.00    -0.326 N 
BRANCH  12  13
ATOM     13  C   UNL     1      -3.356   0.030   0.887  1.00  0.00     0.255 C 
ATOM     14  O   UNL     1      -3.977   1.014   1.280  1.00  0.00    -0.269 OA
BRANCH  13  15
ATOM     15  C   UNL     1      -3.895  -1.291   1.252  1.00  0.00     0.060 A 
ATOM     16  C   UNL     1      -5.075  -1.700   0.617  1.00  0.00     0.043 A 
ATOM     17  C   UNL     1      -3.327  -2.067   2.268  1.00  0.00     0.053 A 
ATOM     18  C   UNL     1      -5.717  -2.872   1.038  1.00  0.00     0.065 A 
ATOM     19  C   UNL     1      -3.942  -3.264   2.643  1.00  0.00     0.023 A 
ATOM     20  Cl  UNL     1      -1.887  -1.604   3.100  1.00  0.00    -0.083 Cl
ATOM     21  C   UNL     1      -5.145  -3.658   2.048  1.00  0.00     0.030 A 
BRANCH  18  22
ATOM     22  N   UNL     1      -6.962  -3.228   0.461  1.00  0.00    -0.241 N 
ATOM     23  C   UNL     1      -7.940  -4.030   1.008  1.00  0.00     0.115 A 
ATOM     24  N   UNL     1      -7.333  -2.755  -0.755  1.00  0.00    -0.177 NA
ATOM     25  C   UNL     1      -8.967  -4.090   0.097  1.00  0.00     0.042 A 
ATOM     26  C   UNL     1      -8.524  -3.311  -0.982  1.00  0.00     0.135 A 
ENDBRANCH  18  22
ENDBRANCH  13  15
ENDBRANCH  12  13
ENDBRANCH   3   5
ENDBRANCH   2   3
ENDBRANCH   1   2
BRANCH   1  27
ATOM     27  C   UNL     1       2.684  -4.132  -2.246  1.00  0.00     0.275 C 
BRANCH  27  28
ATOM     28  O   UNL     1       2.973  -4.285  -0.853  1.00  0.00    -0.458 OA
BRANCH  28  29
ATOM     29  C   UNL     1       3.408  -3.134  -0.301  1.00  0.00     0.338 C 
ATOM     30  O   UNL     1       3.570  -2.069  -0.870  1.00  0.00    -0.246 OA
BRANCH  29  31
ATOM     31  C   UNL     1       3.842  -3.300   1.084  1.00  0.00     0.060 A 
ATOM     32  C   UNL     1       3.817  -2.131   1.858  1.00  0.00     0.016 A 
ATOM     33  C   UNL     1       4.767  -4.321   1.296  1.00  0.00     0.016 A 
ATOM     34  C   UNL     1       4.911  -1.842   2.642  1.00  0.00     0.010 A 
ATOM     35  C   UNL     1       5.859  -4.030   2.078  1.00  0.00     0.010 A 
ATOM     36  C   UNL     1       5.963  -2.754   2.650  1.00  0.00    -0.014 A 
BRANCH  36  37
ATOM     37  C   UNL     1       7.231  -2.331   3.216  1.00  0.00     0.031 A 
ATOM     38  C   UNL     1       7.349  -2.461   4.689  1.00  0.00     0.074 A 
ATOM     39  C   UNL     1       8.271  -2.064   2.401  1.00  0.00     0.049 A 
ATOM     40  N   UNL     1       7.826  -1.620   5.549  1.00  0.00    -0.248 NA
ATOM     41  C   UNL     1       6.803  -3.691   5.287  1.00  0.00     0.031 C 
ATOM     42  C   UNL     1       8.336  -2.241   0.945  1.00  0.00     0.029 A 
ATOM     43  N   UNL     1       9.551  -1.749   2.730  1.00  0.00    -0.354 N 
ATOM     44  C   UNL     1       7.762  -2.266   6.782  1.00  0.00     0.074 A 
ATOM     45  C   UNL     1       7.015  -3.479   6.582  1.00  0.00     0.031 C 
ATOM     46  C   UNL     1       9.633  -2.293   0.570  1.00  0.00     0.029 A 
ATOM     47  C   UNL     1      10.467  -2.056   1.737  1.00  0.00     0.049 A 
ATOM     48  H   UNL     1       9.804  -1.342   3.591  1.00  0.00     0.167 HD
ATOM     49  C   UNL     1       8.483  -1.865   7.861  1.00  0.00     0.037 A 
ATOM     50  C   UNL     1      11.798  -2.245   1.911  1.00  0.00     0.037 A 
ATOM     51  C   UNL     1       8.916  -0.503   7.751  1.00  0.00     0.049 A 
ATOM     52  C   UNL     1      12.171  -1.679   3.235  1.00  0.00     0.074 A 
ATOM     53  C   UNL     1       8.260   0.708   7.639  1.00  0.00     0.029 A 
ATOM     54  N   UNL     1      10.224  -0.243   7.426  1.00  0.00    -0.354 N 
ATOM     55  N   UNL     1      12.174  -0.407   3.525  1.00  0.00    -0.248 NA
ATOM     56  C   UNL     1      12.135  -2.579   4.381  1.00  0.00     0.031 C 
ATOM     57  C   UNL     1       9.085   1.501   6.791  1.00  0.00     0.029 A 
ATOM     58  C   UNL     1      10.195   0.727   6.456  1.00  0.00     0.049 A 
ATOM     59  H   UNL     1      11.023  -0.668   7.812  1.00  0.00     0.167 HD
ATOM     60  C   UNL     1      11.743  -0.341   4.843  1.00  0.00     0.074 A 
ATOM     61  C   UNL     1      11.823  -1.708   5.344  1.00  0.00     0.031 C 
ATOM     62  C   UNL     1      11.092   0.758   5.326  1.00  0.00     0.037 A 
BRANCH  49  63
ATOM     63  C   UNL     1       9.014  -2.815   8.899  1.00  0.00     0.064 A 
ATOM     64  C   UNL     1       9.509  -2.316  10.117  1.00  0.00     0.173 A 
ATOM     65  C   UNL     1       9.288  -4.176   8.638  1.00  0.00     0.173 A 
ATOM     66  F   UNL     1       9.343  -1.026  10.445  1.00  0.00    -0.203 F 
ATOM     67  C   UNL     1      10.255  -3.113  10.989  1.00  0.00     0.198 A 
ATOM     68  C   UNL     1       9.976  -4.984   9.538  1.00  0.00     0.198 A 
ATOM     69  F   UNL     1       8.996  -4.744   7.460  1.00  0.00    -0.203 F 
ATOM     70  F   UNL     1      10.801  -2.568  12.084  1.00  0.00    -0.200 F 
ATOM     71  C   UNL     1      10.483  -4.447  10.702  1.00  0.00     0.200 A 
ATOM     72  F   UNL     1      10.204  -6.269   9.231  1.00  0.00    -0.200 F 
ATOM     73  F   UNL     1      11.233  -5.200  11.516  1.00  0.00    -0.200 F 
ENDBRANCH  49  63
BRANCH  50  74
ATOM     74  C   UNL     1      12.665  -3.191   1.168  1.00  0.00     0.064 A 
ATOM     75  C   UNL     1      14.060  -3.049   1.165  1.00  0.00     0.173 A 
ATOM     76  C   UNL     1      12.160  -4.391   0.623  1.00  0.00     0.173 A 
ATOM     77  F   UNL     1      14.628  -1.970   1.723  1.00  0.00    -0.203 F 
ATOM     78  C   UNL     1      14.897  -4.041   0.641  1.00  0.00     0.198 A 
ATOM     79  C   UNL     1      12.993  -5.370   0.083  1.00  0.00     0.198 A 
ATOM     80  F   UNL     1      10.852  -4.681   0.683  1.00  0.00    -0.203 F 
ATOM     81  F   UNL     1      16.228  -3.893   0.702  1.00  0.00    -0.200 F 
ATOM     82  C   UNL     1      14.363  -5.199   0.100  1.00  0.00     0.200 A 
ATOM     83  F   UNL     1      12.460  -6.500  -0.403  1.00  0.00    -0.200 F 
ATOM     84  F   UNL     1      15.165  -6.165  -0.368  1.00  0.00    -0.200 F 
ENDBRANCH  50  74
BRANCH  62  85
ATOM     85  C   UNL     1      11.052   1.992   4.473  1.00  0.00     0.064 A 
ATOM     86  C   UNL     1      10.418   2.040   3.219  1.00  0.00     0.173 A 
ATOM     87  C   UNL     1      11.505   3.203   5.013  1.00  0.00     0.173 A 
ATOM     88  F   UNL     1       9.854   0.948   2.692  1.00  0.00    -0.203 F 
ATOM     89  C   UNL     1      10.287   3.237   2.519  1.00  0.00     0.198 A 
ATOM     90  C   UNL     1      11.339   4.405   4.328  1.00  0.00     0.198 A 
ATOM     91  F   UNL     1      12.057   3.230   6.236  1.00  0.00    -0.203 F 
ATOM     92  F   UNL     1       9.682   3.252   1.322  1.00  0.00    -0.200 F 
ATOM     93  C   UNL     1      10.740   4.420   3.078  1.00  0.00     0.200 A 
ATOM     94  F   UNL     1      11.728   5.555   4.895  1.00  0.00    -0.200 F 
ATOM     95  F   UNL     1      10.570   5.579   2.427  1.00  0.00    -0.200 F 
ENDBRANCH  62  85
ENDBRANCH  36  37
ENDBRANCH  29  31
ENDBRANCH  28  29
ENDBRANCH  27  28
ENDBRANCH   1  27
TORSDOF 14
