REMARK SMILES COCCS(=O)(=O)Cc1ccc(C(=O)OCCOC(=O)c2ccc(-c3c4nc(c(-c5c(F)c(F)c(F)c(F)c5F)c5ccc([nH]5)c(-c5c(F)c(F)c(F)c(F)c5F)c5nc(c(-c6c(F)c(F)c(F)c(F)c6F)c6ccc3[nH]6)C=C5)C=C4)cc2)cn1
REMARK SMILES IDX 15 1 13 2 14 3 12 4 9 5 10 6 85 7 11 8 84 9 8 10 5 11 6 12
REMARK SMILES IDX 7 13 4 14 3 15 2 16 1 17 16 18 17 19 18 20 19 21 20 22 21 23
REMARK SMILES IDX 22 24 83 25 23 26 82 27 24 28 25 29 26 30 76 31 27 32 81 33
REMARK SMILES IDX 75 34 77 35 28 36 80 37 74 38 73 39 29 41 61 42 41 43 60 44
REMARK SMILES IDX 42 45 45 46 59 47 78 48 43 49 44 50 58 52 79 53 46 54 30 55
REMARK SMILES IDX 31 56 39 57 32 58 33 59 37 60 40 61 34 62 35 63 38 64 36 65
REMARK SMILES IDX 62 66 63 67 71 68 64 69 65 70 69 71 72 72 66 73 67 74 70 75
REMARK SMILES IDX 68 76 47 77 48 78 56 79 49 80 50 81 54 82 57 83 51 84 52 85
REMARK SMILES IDX 55 86 53 87
REMARK H PARENT 77 40 45 51
REMARK Flexibility Score: inf
ROOT
ATOM      1  O   UNL     1      -5.823  -2.226   1.139  1.00  0.00    -0.458 OA
ENDROOT
BRANCH   1   2
ATOM      2  C   UNL     1      -5.043  -1.429   0.372  1.00  0.00     0.339 C 
ATOM      3  O   UNL     1      -5.429  -0.614  -0.454  1.00  0.00    -0.246 OA
BRANCH   2   4
ATOM      4  C   UNL     1      -3.619  -1.562   0.741  1.00  0.00     0.078 A 
ATOM      5  C   UNL     1      -0.949  -1.491   1.484  1.00  0.00     0.055 A 
ATOM      6  C   UNL     1      -1.710  -2.632   1.748  1.00  0.00     0.026 A 
ATOM      7  N   UNL     1      -1.468  -0.456   0.797  1.00  0.00    -0.259 NA
ATOM      8  C   UNL     1      -3.063  -2.664   1.382  1.00  0.00     0.019 A 
ATOM      9  C   UNL     1      -2.773  -0.507   0.442  1.00  0.00     0.127 A 
BRANCH   5  10
ATOM     10  C   UNL     1       0.518  -1.442   1.784  1.00  0.00     0.193 C 
BRANCH  10  11
ATOM     11  S   UNL     1       0.979  -0.028   2.770  1.00  0.00     0.158 S 
ATOM     12  O   UNL     1       2.433   0.036   2.722  1.00  0.00    -0.228 OA
ATOM     13  O   UNL     1       0.342  -0.190   4.069  1.00  0.00    -0.228 OA
BRANCH  11  14
ATOM     14  C   UNL     1       0.370   1.508   2.083  1.00  0.00     0.165 C 
BRANCH  14  15
ATOM     15  C   UNL     1       1.152   2.044   0.897  1.00  0.00     0.176 C 
BRANCH  15  16
ATOM     16  O   UNL     1       0.521   1.793  -0.358  1.00  0.00    -0.384 OA
ATOM     17  C   UNL     1       1.067   0.701  -1.080  1.00  0.00     0.194 C 
ENDBRANCH  15  16
ENDBRANCH  14  15
ENDBRANCH  11  14
ENDBRANCH  10  11
ENDBRANCH   5  10
ENDBRANCH   2   4
ENDBRANCH   1   2
BRANCH   1  18
ATOM     18  C   UNL     1      -7.247  -2.049   0.989  1.00  0.00     0.275 C 
BRANCH  18  19
ATOM     19  C   UNL     1      -7.837  -1.276   2.170  1.00  0.00     0.275 C 
BRANCH  19  20
ATOM     20  O   UNL     1      -7.409   0.101   2.150  1.00  0.00    -0.458 OA
BRANCH  20  21
ATOM     21  C   UNL     1      -6.446   0.419   3.044  1.00  0.00     0.338 C 
ATOM     22  O   UNL     1      -5.923  -0.311   3.866  1.00  0.00    -0.246 OA
BRANCH  21  23
ATOM     23  C   UNL     1      -6.004   1.805   2.830  1.00  0.00     0.060 A 
ATOM     24  C   UNL     1      -4.981   2.021   1.912  1.00  0.00     0.016 A 
ATOM     25  C   UNL     1      -6.459   2.849   3.632  1.00  0.00     0.016 A 
ATOM     26  C   UNL     1      -4.349   3.258   1.840  1.00  0.00     0.010 A 
ATOM     27  C   UNL     1      -5.878   4.119   3.499  1.00  0.00     0.010 A 
ATOM     28  C   UNL     1      -4.794   4.331   2.625  1.00  0.00    -0.014 A 
BRANCH  28  29
ATOM     29  C   UNL     1      -4.098   5.648   2.550  1.00  0.00     0.031 A 
ATOM     30  C   UNL     1      -3.451   6.240   3.775  1.00  0.00     0.074 A 
ATOM     31  C   UNL     1      -4.016   6.308   1.377  1.00  0.00     0.049 A 
ATOM     32  N   UNL     1      -2.924   7.429   3.945  1.00  0.00    -0.248 NA
ATOM     33  C   UNL     1      -3.396   5.387   4.971  1.00  0.00     0.031 C 
ATOM     34  C   UNL     1      -4.552   5.834   0.100  1.00  0.00     0.029 A 
ATOM     35  N   UNL     1      -3.443   7.517   1.064  1.00  0.00    -0.354 N 
ATOM     36  C   UNL     1      -2.526   7.483   5.275  1.00  0.00     0.074 A 
ATOM     37  C   UNL     1      -2.878   6.212   5.871  1.00  0.00     0.031 C 
ATOM     38  C   UNL     1      -4.252   6.719  -0.861  1.00  0.00     0.029 A 
ATOM     39  C   UNL     1      -3.583   7.866  -0.258  1.00  0.00     0.049 A 
ATOM     40  H   UNL     1      -2.976   8.080   1.723  1.00  0.00     0.167 HD
ATOM     41  C   UNL     1      -1.920   8.500   5.936  1.00  0.00     0.037 A 
ATOM     42  C   UNL     1      -3.252   8.998  -0.909  1.00  0.00     0.037 A 
ATOM     43  C   UNL     1      -1.522   9.744   5.328  1.00  0.00     0.049 A 
ATOM     44  C   UNL     1      -2.620  10.127  -0.143  1.00  0.00     0.074 A 
ATOM     45  C   UNL     1      -0.880  10.824   5.910  1.00  0.00     0.029 A 
ATOM     46  N   UNL     1      -1.718  10.071   3.994  1.00  0.00    -0.354 N 
ATOM     47  N   UNL     1      -2.284  10.183   1.122  1.00  0.00    -0.248 NA
ATOM     48  C   UNL     1      -2.337  11.358  -0.895  1.00  0.00     0.031 C 
ATOM     49  C   UNL     1      -0.730  11.821   4.941  1.00  0.00     0.029 A 
ATOM     50  C   UNL     1      -1.229  11.343   3.740  1.00  0.00     0.049 A 
ATOM     51  H   UNL     1      -2.143   9.485   3.325  1.00  0.00     0.167 HD
ATOM     52  C   UNL     1      -1.738  11.444   1.316  1.00  0.00     0.074 A 
ATOM     53  C   UNL     1      -1.767  12.114   0.033  1.00  0.00     0.031 C 
ATOM     54  C   UNL     1      -1.261  11.998   2.458  1.00  0.00     0.037 A 
BRANCH  41  55
ATOM     55  C   UNL     1      -1.678   8.328   7.410  1.00  0.00     0.064 A 
ATOM     56  C   UNL     1      -0.708   7.447   7.910  1.00  0.00     0.173 A 
ATOM     57  C   UNL     1      -2.406   9.093   8.336  1.00  0.00     0.173 A 
ATOM     58  F   UNL     1       0.009   6.686   7.070  1.00  0.00    -0.203 F 
ATOM     59  C   UNL     1      -0.497   7.316   9.281  1.00  0.00     0.198 A 
ATOM     60  C   UNL     1      -2.171   8.982   9.704  1.00  0.00     0.198 A 
ATOM     61  F   UNL     1      -3.339   9.959   7.913  1.00  0.00    -0.203 F 
ATOM     62  F   UNL     1       0.401   6.432   9.738  1.00  0.00    -0.200 F 
ATOM     63  C   UNL     1      -1.223   8.088  10.176  1.00  0.00     0.200 A 
ATOM     64  F   UNL     1      -2.862   9.742  10.565  1.00  0.00    -0.200 F 
ATOM     65  F   UNL     1      -1.013   7.966  11.494  1.00  0.00    -0.200 F 
ENDBRANCH  41  55
BRANCH  42  66
ATOM     66  C   UNL     1      -3.554   9.134  -2.359  1.00  0.00     0.064 A 
ATOM     67  C   UNL     1      -2.527   9.210  -3.309  1.00  0.00     0.173 A 
ATOM     68  C   UNL     1      -4.878   9.192  -2.824  1.00  0.00     0.173 A 
ATOM     69  F   UNL     1      -1.246   9.189  -2.913  1.00  0.00    -0.203 F 
ATOM     70  C   UNL     1      -2.811   9.347  -4.666  1.00  0.00     0.198 A 
ATOM     71  C   UNL     1      -5.160   9.294  -4.184  1.00  0.00     0.198 A 
ATOM     72  F   UNL     1      -5.898   9.128  -1.956  1.00  0.00    -0.203 F 
ATOM     73  F   UNL     1      -1.810   9.462  -5.550  1.00  0.00    -0.200 F 
ATOM     74  C   UNL     1      -4.127   9.380  -5.103  1.00  0.00     0.200 A 
ATOM     75  F   UNL     1      -6.434   9.310  -4.601  1.00  0.00    -0.200 F 
ATOM     76  F   UNL     1      -4.399   9.502  -6.410  1.00  0.00    -0.200 F 
ENDBRANCH  42  66
BRANCH  54  77
ATOM     77  C   UNL     1      -0.702  13.388   2.362  1.00  0.00     0.064 A 
ATOM     78  C   UNL     1      -1.532  14.504   2.179  1.00  0.00     0.173 A 
ATOM     79  C   UNL     1       0.678  13.608   2.482  1.00  0.00     0.173 A 
ATOM     80  F   UNL     1      -2.857  14.345   2.041  1.00  0.00    -0.203 F 
ATOM     81  C   UNL     1      -0.997  15.787   2.093  1.00  0.00     0.198 A 
ATOM     82  C   UNL     1       1.207  14.894   2.425  1.00  0.00     0.198 A 
ATOM     83  F   UNL     1       1.515  12.575   2.663  1.00  0.00    -0.203 F 
ATOM     84  F   UNL     1      -1.803  16.833   1.867  1.00  0.00    -0.200 F 
ATOM     85  C   UNL     1       0.370  15.981   2.223  1.00  0.00     0.200 A 
ATOM     86  F   UNL     1       2.527  15.082   2.563  1.00  0.00    -0.200 F 
ATOM     87  F   UNL     1       0.883  17.217   2.144  1.00  0.00    -0.200 F 
ENDBRANCH  54  77
ENDBRANCH  28  29
ENDBRANCH  21  23
ENDBRANCH  20  21
ENDBRANCH  19  20
ENDBRANCH  18  19
ENDBRANCH   1  18
TORSDOF 16
