REMARK SMILES COc1cc(NC(=O)[C@@H]2CC=CC[C@H]2C(=O)OCCOC(=O)c2ccc(-c3c4nc(c(-c5c(F)c(F)c(F)c(F)c5F)c5ccc([nH]5)c(-c5c(F)c(F)c(F)c(F)c5F)c5nc(c(-c6c(F)c(F)c(F)c(F)c6F)c6ccc3[nH]6)C=C5)C=C4)cc2)c(OC)cc1Cl
REMARK SMILES IDX 18 1 17 2 15 3 16 4 14 5 9 6 10 7 11 8 13 9 12 10 7 11 6 12
REMARK SMILES IDX 8 14 5 15 3 16 4 17 90 18 89 19 91 20 86 21 2 22 1 23 87 24
REMARK SMILES IDX 88 25 19 26 20 27 21 28 22 29 23 30 24 31 85 32 25 33 84 34
REMARK SMILES IDX 26 35 27 36 28 37 78 38 29 39 83 40 77 41 79 42 30 43 82 44
REMARK SMILES IDX 76 45 75 46 31 48 63 49 43 50 62 51 44 52 47 53 61 54 80 55
REMARK SMILES IDX 45 56 46 57 60 59 81 60 48 61 32 62 33 63 41 64 34 65 35 66
REMARK SMILES IDX 39 67 42 68 36 69 37 70 40 71 38 72 64 73 65 74 73 75 66 76
REMARK SMILES IDX 67 77 71 78 74 79 68 80 69 81 72 82 70 83 49 84 50 85 58 86
REMARK SMILES IDX 51 87 52 88 56 89 59 90 53 91 54 92 57 93 55 94
REMARK H PARENT 6 13 79 47 47 58
REMARK Flexibility Score: inf
ROOT
ATOM      1  C   UNL     1      -0.585  -3.661   5.482  1.00  0.00     0.274 C 
ENDROOT
BRANCH   1   2
ATOM      2  O   UNL     1      -0.987  -3.944   4.128  1.00  0.00    -0.462 OA
BRANCH   2   3
ATOM      3  C   UNL     1      -2.193  -4.533   3.970  1.00  0.00     0.310 C 
ATOM      4  O   UNL     1      -2.929  -4.873   4.891  1.00  0.00    -0.252 OA
BRANCH   3   5
ATOM      5  C   UNL     1      -2.571  -4.789   2.518  1.00  0.00     0.116 C 
ATOM      6  C   UNL     1      -1.696  -4.102   1.455  1.00  0.00     0.097 C 
ATOM      7  C   UNL     1      -1.846  -4.615   0.011  1.00  0.00     0.041 C 
ATOM      8  C   UNL     1      -2.392  -6.004  -0.114  1.00  0.00    -0.030 C 
ATOM      9  C   UNL     1      -2.597  -6.315   2.351  1.00  0.00     0.043 C 
ATOM     10  C   UNL     1      -2.722  -6.769   0.932  1.00  0.00    -0.030 C 
BRANCH   6  11
ATOM     11  C   UNL     1      -1.764  -2.580   1.511  1.00  0.00     0.228 C 
ATOM     12  N   UNL     1      -2.789  -1.794   1.099  1.00  0.00    -0.323 N 
ATOM     13  H   UNL     1      -2.591  -0.847   1.281  1.00  0.00     0.170 HD
ATOM     14  O   UNL     1      -0.766  -1.980   1.940  1.00  0.00    -0.274 OA
BRANCH  12  15
ATOM     15  C   UNL     1      -4.055  -1.921   0.486  1.00  0.00     0.087 A 
ATOM     16  C   UNL     1      -5.988  -3.119  -0.357  1.00  0.00     0.139 A 
ATOM     17  C   UNL     1      -4.760  -3.107   0.315  1.00  0.00     0.078 A 
ATOM     18  C   UNL     1      -6.544  -1.938  -0.845  1.00  0.00     0.086 A 
ATOM     19  C   UNL     1      -5.862  -0.735  -0.673  1.00  0.00     0.073 A 
ATOM     20  Cl  UNL     1      -8.061  -1.922  -1.665  1.00  0.00    -0.080 Cl
ATOM     21  C   UNL     1      -4.630  -0.719  -0.006  1.00  0.00     0.144 A 
BRANCH  16  22
ATOM     22  O   UNL     1      -6.646  -4.319  -0.444  1.00  0.00    -0.495 OA
ATOM     23  C   UNL     1      -6.278  -5.015  -1.636  1.00  0.00     0.278 C 
ENDBRANCH  16  22
BRANCH  21  24
ATOM     24  O   UNL     1      -3.883   0.419   0.204  1.00  0.00    -0.495 OA
ATOM     25  C   UNL     1      -4.365   1.637  -0.356  1.00  0.00     0.278 C 
ENDBRANCH  21  24
ENDBRANCH  12  15
ENDBRANCH   6  11
ENDBRANCH   3   5
ENDBRANCH   2   3
ENDBRANCH   1   2
BRANCH   1  26
ATOM     26  C   UNL     1      -0.998  -2.251   5.904  1.00  0.00     0.275 C 
BRANCH  26  27
ATOM     27  O   UNL     1      -2.432  -2.147   5.971  1.00  0.00    -0.458 OA
BRANCH  27  28
ATOM     28  C   UNL     1      -3.003  -1.288   5.102  1.00  0.00     0.338 C 
ATOM     29  O   UNL     1      -2.461  -0.537   4.308  1.00  0.00    -0.246 OA
BRANCH  28  30
ATOM     30  C   UNL     1      -4.461  -1.374   5.221  1.00  0.00     0.060 A 
ATOM     31  C   UNL     1      -5.161  -2.283   4.424  1.00  0.00     0.016 A 
ATOM     32  C   UNL     1      -5.138  -0.457   6.024  1.00  0.00     0.016 A 
ATOM     33  C   UNL     1      -6.553  -2.262   4.406  1.00  0.00     0.010 A 
ATOM     34  C   UNL     1      -6.534  -0.447   6.019  1.00  0.00     0.010 A 
ATOM     35  C   UNL     1      -7.247  -1.333   5.192  1.00  0.00    -0.014 A 
BRANCH  35  36
ATOM     36  C   UNL     1      -8.720  -1.234   5.105  1.00  0.00     0.031 A 
ATOM     37  C   UNL     1      -9.343  -0.100   4.345  1.00  0.00     0.074 A 
ATOM     38  C   UNL     1      -9.492  -2.149   5.718  1.00  0.00     0.049 A 
ATOM     39  N   UNL     1     -10.602   0.241   4.249  1.00  0.00    -0.248 NA
ATOM     40  C   UNL     1      -8.423   0.772   3.596  1.00  0.00     0.031 C 
ATOM     41  C   UNL     1      -8.998  -3.313   6.451  1.00  0.00     0.029 A 
ATOM     42  N   UNL     1     -10.856  -2.233   5.828  1.00  0.00    -0.354 N 
ATOM     43  C   UNL     1     -10.625   1.380   3.457  1.00  0.00     0.074 A 
ATOM     44  C   UNL     1      -9.255   1.677   3.098  1.00  0.00     0.031 C 
ATOM     45  C   UNL     1     -10.046  -3.996   6.941  1.00  0.00     0.029 A 
ATOM     46  C   UNL     1     -11.278  -3.292   6.591  1.00  0.00     0.049 A 
ATOM     47  H   UNL     1     -11.473  -1.595   5.402  1.00  0.00     0.167 HD
ATOM     48  C   UNL     1     -11.697   2.111   3.069  1.00  0.00     0.037 A 
ATOM     49  C   UNL     1     -12.518  -3.637   6.984  1.00  0.00     0.037 A 
ATOM     50  C   UNL     1     -13.060   1.795   3.403  1.00  0.00     0.049 A 
ATOM     51  C   UNL     1     -13.686  -2.787   6.569  1.00  0.00     0.074 A 
ATOM     52  C   UNL     1     -14.218   2.453   3.026  1.00  0.00     0.029 A 
ATOM     53  N   UNL     1     -13.447   0.723   4.193  1.00  0.00    -0.354 N 
ATOM     54  N   UNL     1     -13.700  -1.709   5.824  1.00  0.00    -0.248 NA
ATOM     55  C   UNL     1     -15.010  -3.195   7.060  1.00  0.00     0.031 C 
ATOM     56  C   UNL     1     -15.305   1.796   3.614  1.00  0.00     0.029 A 
ATOM     57  C   UNL     1     -14.825   0.712   4.332  1.00  0.00     0.049 A 
ATOM     58  H   UNL     1     -12.834   0.067   4.596  1.00  0.00     0.167 HD
ATOM     59  C   UNL     1     -15.029  -1.319   5.742  1.00  0.00     0.074 A 
ATOM     60  C   UNL     1     -15.795  -2.282   6.506  1.00  0.00     0.031 C 
ATOM     61  C   UNL     1     -15.566  -0.258   5.093  1.00  0.00     0.037 A 
BRANCH  48  62
ATOM     62  C   UNL     1     -11.438   3.344   2.260  1.00  0.00     0.064 A 
ATOM     63  C   UNL     1     -11.116   3.276   0.897  1.00  0.00     0.173 A 
ATOM     64  C   UNL     1     -11.559   4.612   2.848  1.00  0.00     0.173 A 
ATOM     65  F   UNL     1     -10.972   2.086   0.296  1.00  0.00    -0.203 F 
ATOM     66  C   UNL     1     -10.912   4.436   0.154  1.00  0.00     0.198 A 
ATOM     67  C   UNL     1     -11.372   5.769   2.097  1.00  0.00     0.198 A 
ATOM     68  F   UNL     1     -11.864   4.727   4.149  1.00  0.00    -0.203 F 
ATOM     69  F   UNL     1     -10.574   4.349  -1.141  1.00  0.00    -0.200 F 
ATOM     70  C   UNL     1     -11.047   5.680   0.752  1.00  0.00     0.200 A 
ATOM     71  F   UNL     1     -11.507   6.971   2.675  1.00  0.00    -0.200 F 
ATOM     72  F   UNL     1     -10.855   6.795   0.033  1.00  0.00    -0.200 F 
ENDBRANCH  48  62
BRANCH  49  73
ATOM     73  C   UNL     1     -12.714  -4.836   7.836  1.00  0.00     0.064 A 
ATOM     74  C   UNL     1     -13.305  -5.996   7.319  1.00  0.00     0.173 A 
ATOM     75  C   UNL     1     -12.318  -4.844   9.181  1.00  0.00     0.173 A 
ATOM     76  F   UNL     1     -13.723  -6.022   6.045  1.00  0.00    -0.203 F 
ATOM     77  C   UNL     1     -13.499  -7.120   8.118  1.00  0.00     0.198 A 
ATOM     78  C   UNL     1     -12.493  -5.976   9.974  1.00  0.00     0.198 A 
ATOM     79  F   UNL     1     -11.753  -3.755   9.722  1.00  0.00    -0.203 F 
ATOM     80  F   UNL     1     -14.098  -8.205   7.610  1.00  0.00    -0.200 F 
ATOM     81  C   UNL     1     -13.088  -7.111   9.443  1.00  0.00     0.200 A 
ATOM     82  F   UNL     1     -12.090  -5.966  11.252  1.00  0.00    -0.200 F 
ATOM     83  F   UNL     1     -13.273  -8.193  10.211  1.00  0.00    -0.200 F 
ENDBRANCH  49  73
BRANCH  61  84
ATOM     84  C   UNL     1     -17.054  -0.100   5.165  1.00  0.00     0.064 A 
ATOM     85  C   UNL     1     -17.677   0.410   6.312  1.00  0.00     0.173 A 
ATOM     86  C   UNL     1     -17.858  -0.429   4.065  1.00  0.00     0.173 A 
ATOM     87  F   UNL     1     -16.948   0.723   7.394  1.00  0.00    -0.203 F 
ATOM     88  C   UNL     1     -19.059   0.569   6.361  1.00  0.00     0.198 A 
ATOM     89  C   UNL     1     -19.237  -0.251   4.110  1.00  0.00     0.198 A 
ATOM     90  F   UNL     1     -17.304  -0.917   2.945  1.00  0.00    -0.203 F 
ATOM     91  F   UNL     1     -19.640   1.026   7.479  1.00  0.00    -0.200 F 
ATOM     92  C   UNL     1     -19.837   0.243   5.259  1.00  0.00     0.200 A 
ATOM     93  F   UNL     1     -19.987  -0.561   3.043  1.00  0.00    -0.200 F 
ATOM     94  F   UNL     1     -21.167   0.399   5.307  1.00  0.00    -0.200 F 
ENDBRANCH  61  84
ENDBRANCH  35  36
ENDBRANCH  28  30
ENDBRANCH  27  28
ENDBRANCH  26  27
ENDBRANCH   1  26
TORSDOF 15
