REMARK SMILES C#CC[NH2+]CC(=O)Nc1ccc(F)cc1C(=O)OCCOC(=O)c1ccc(-c2c3nc(c(-c4c(F)c(F)c(F)c(F)c4F)c4ccc([nH]4)c(-c4c(F)c(F)c(F)c(F)c4F)c4nc(c(-c5c(F)c(F)c(F)c(F)c5F)c5ccc2[nH]5)C=C4)C=C3)cc1
REMARK SMILES IDX 18 1 16 2 17 3 15 4 9 5 10 6 11 7 14 8 12 9 13 10 8 11 6 12
REMARK SMILES IDX 7 13 5 15 4 16 3 19 2 20 1 21 19 22 20 23 21 24 22 25 23 26
REMARK SMILES IDX 24 27 25 28 86 29 26 30 85 31 27 32 28 33 29 34 79 35 30 36
REMARK SMILES IDX 84 37 78 38 80 39 31 40 83 41 77 42 76 43 32 45 64 46 44 47
REMARK SMILES IDX 63 48 45 49 48 50 62 51 81 52 46 53 47 54 61 56 82 57 49 58
REMARK SMILES IDX 33 59 34 60 42 61 35 62 36 63 40 64 43 65 37 66 38 67 41 68
REMARK SMILES IDX 39 69 65 70 66 71 74 72 67 73 68 74 72 75 75 76 69 77 70 78
REMARK SMILES IDX 73 79 71 80 50 81 51 82 59 83 52 84 53 85 57 86 60 87 54 88
REMARK SMILES IDX 55 89 58 90 56 91
REMARK H PARENT 8 14 4 17 4 18 80 44 48 55
REMARK Flexibility Score: inf
ROOT
ATOM      1  O   UNL     1      -5.972  -2.776   0.815  1.00  0.00    -0.458 OA
ENDROOT
BRANCH   1   2
ATOM      2  C   UNL     1      -4.904  -3.544   0.529  1.00  0.00     0.340 C 
ATOM      3  O   UNL     1      -4.813  -4.758   0.656  1.00  0.00    -0.246 OA
BRANCH   2   4
ATOM      4  C   UNL     1      -3.732  -2.741   0.147  1.00  0.00     0.086 A 
ATOM      5  C   UNL     1      -2.979  -2.452   1.278  1.00  0.00     0.056 A 
ATOM      6  C   UNL     1      -1.643  -2.886   1.334  1.00  0.00     0.030 A 
ATOM      7  C   UNL     1      -1.022  -3.345   0.160  1.00  0.00     0.041 A 
ATOM      8  C   UNL     1      -3.094  -3.090  -1.047  1.00  0.00     0.057 A 
ATOM      9  C   UNL     1      -1.738  -3.382  -1.033  1.00  0.00     0.124 A 
ATOM     10  F   UNL     1      -1.125  -3.722  -2.173  1.00  0.00    -0.207 F 
BRANCH   5  11
ATOM     11  N   UNL     1      -3.454  -1.510   2.219  1.00  0.00    -0.320 N 
ATOM     12  C   UNL     1      -4.006  -0.253   1.996  1.00  0.00     0.279 C 
ATOM     13  O   UNL     1      -4.470   0.337   2.979  1.00  0.00    -0.268 OA
ATOM     14  H   UNL     1      -3.383  -1.780   3.163  1.00  0.00     0.170 HD
BRANCH  12  15
ATOM     15  C   UNL     1      -3.946   0.492   0.615  1.00  0.00     0.363 C 
BRANCH  15  16
ATOM     16  N   UNL     1      -2.589   1.083   0.299  1.00  0.00    -0.328 N 
ATOM     17  H   UNL     1      -2.659   1.731  -0.486  1.00  0.00     0.347 HD
ATOM     18  H   UNL     1      -2.216   1.606   1.091  1.00  0.00     0.347 HD
BRANCH  16  19
ATOM     19  C   UNL     1      -1.740  -0.031  -0.045  1.00  0.00     0.352 C 
BRANCH  19  20
ATOM     20  C   UNL     1      -0.220  -0.031  -0.045  1.00  0.00    -0.047 C 
ATOM     21  C   UNL     1       1.084  -0.031  -0.045  1.00  0.00     0.010 C 
ENDBRANCH  19  20
ENDBRANCH  16  19
ENDBRANCH  15  16
ENDBRANCH  12  15
ENDBRANCH   5  11
ENDBRANCH   2   4
ENDBRANCH   1   2
BRANCH   1  22
ATOM     22  C   UNL     1      -7.098  -3.544   1.274  1.00  0.00     0.275 C 
BRANCH  22  23
ATOM     23  C   UNL     1      -8.032  -3.885   0.112  1.00  0.00     0.275 C 
BRANCH  23  24
ATOM     24  O   UNL     1      -7.406  -4.752  -0.860  1.00  0.00    -0.458 OA
BRANCH  24  25
ATOM     25  C   UNL     1      -6.817  -4.115  -1.900  1.00  0.00     0.338 C 
ATOM     26  O   UNL     1      -6.763  -2.914  -2.099  1.00  0.00    -0.246 OA
BRANCH  25  27
ATOM     27  C   UNL     1      -6.114  -5.066  -2.776  1.00  0.00     0.060 A 
ATOM     28  C   UNL     1      -4.809  -5.423  -2.458  1.00  0.00     0.016 A 
ATOM     29  C   UNL     1      -6.638  -5.413  -4.016  1.00  0.00     0.016 A 
ATOM     30  C   UNL     1      -3.976  -5.994  -3.406  1.00  0.00     0.010 A 
ATOM     31  C   UNL     1      -5.852  -6.155  -4.907  1.00  0.00     0.010 A 
ATOM     32  C   UNL     1      -4.506  -6.444  -4.614  1.00  0.00    -0.014 A 
BRANCH  32  33
ATOM     33  C   UNL     1      -3.666  -7.273  -5.518  1.00  0.00     0.031 A 
ATOM     34  C   UNL     1      -3.486  -6.884  -6.956  1.00  0.00     0.074 A 
ATOM     35  C   UNL     1      -3.075  -8.389  -5.039  1.00  0.00     0.049 A 
ATOM     36  N   UNL     1      -3.036  -7.603  -7.951  1.00  0.00    -0.248 NA
ATOM     37  C   UNL     1      -3.868  -5.512  -7.332  1.00  0.00     0.031 C 
ATOM     38  C   UNL     1      -3.102  -8.836  -3.641  1.00  0.00     0.029 A 
ATOM     39  N   UNL     1      -2.336  -9.360  -5.670  1.00  0.00    -0.354 N 
ATOM     40  C   UNL     1      -3.129  -6.794  -9.076  1.00  0.00     0.074 A 
ATOM     41  C   UNL     1      -3.674  -5.525  -8.645  1.00  0.00     0.031 C 
ATOM     42  C   UNL     1      -2.382  -9.957  -3.515  1.00  0.00     0.029 A 
ATOM     43  C   UNL     1      -1.963 -10.390  -4.838  1.00  0.00     0.049 A 
ATOM     44  H   UNL     1      -2.097  -9.322  -6.624  1.00  0.00     0.167 HD
ATOM     45  C   UNL     1      -2.791  -7.102 -10.349  1.00  0.00     0.037 A 
ATOM     46  C   UNL     1      -1.417 -11.590  -5.110  1.00  0.00     0.037 A 
ATOM     47  C   UNL     1      -2.202  -8.356 -10.742  1.00  0.00     0.049 A 
ATOM     48  C   UNL     1      -1.155 -11.944  -6.544  1.00  0.00     0.074 A 
ATOM     49  C   UNL     1      -1.815  -8.766 -12.005  1.00  0.00     0.029 A 
ATOM     50  N   UNL     1      -1.901  -9.395  -9.872  1.00  0.00    -0.354 N 
ATOM     51  N   UNL     1      -1.309 -11.205  -7.615  1.00  0.00    -0.248 NA
ATOM     52  C   UNL     1      -0.679 -13.307  -6.816  1.00  0.00     0.031 C 
ATOM     53  C   UNL     1      -1.324 -10.069 -11.909  1.00  0.00     0.029 A 
ATOM     54  C   UNL     1      -1.359 -10.455 -10.579  1.00  0.00     0.049 A 
ATOM     55  H   UNL     1      -2.051  -9.380  -8.899  1.00  0.00     0.167 HD
ATOM     56  C   UNL     1      -0.939 -12.004  -8.684  1.00  0.00     0.074 A 
ATOM     57  C   UNL     1      -0.533 -13.280  -8.133  1.00  0.00     0.031 C 
ATOM     58  C   UNL     1      -0.945 -11.709 -10.005  1.00  0.00     0.037 A 
BRANCH  45  59
ATOM     59  C   UNL     1      -3.055  -6.097 -11.430  1.00  0.00     0.064 A 
ATOM     60  C   UNL     1      -4.051  -6.344 -12.389  1.00  0.00     0.173 A 
ATOM     61  C   UNL     1      -2.244  -4.968 -11.601  1.00  0.00     0.173 A 
ATOM     62  F   UNL     1      -4.849  -7.416 -12.274  1.00  0.00    -0.203 F 
ATOM     63  C   UNL     1      -4.201  -5.515 -13.497  1.00  0.00     0.198 A 
ATOM     64  C   UNL     1      -2.413  -4.127 -12.698  1.00  0.00     0.198 A 
ATOM     65  F   UNL     1      -1.285  -4.684 -10.707  1.00  0.00    -0.203 F 
ATOM     66  F   UNL     1      -5.124  -5.800 -14.426  1.00  0.00    -0.200 F 
ATOM     67  C   UNL     1      -3.380  -4.409 -13.652  1.00  0.00     0.200 A 
ATOM     68  F   UNL     1      -1.629  -3.049 -12.841  1.00  0.00    -0.200 F 
ATOM     69  F   UNL     1      -3.516  -3.618 -14.726  1.00  0.00    -0.200 F 
ENDBRANCH  45  59
BRANCH  46  70
ATOM     70  C   UNL     1      -1.162 -12.561  -4.012  1.00  0.00     0.064 A 
ATOM     71  C   UNL     1      -2.211 -13.111  -3.256  1.00  0.00     0.173 A 
ATOM     72  C   UNL     1       0.144 -12.947  -3.685  1.00  0.00     0.173 A 
ATOM     73  F   UNL     1      -3.482 -12.778  -3.526  1.00  0.00    -0.203 F 
ATOM     74  C   UNL     1      -1.961 -13.983  -2.199  1.00  0.00     0.198 A 
ATOM     75  C   UNL     1       0.391 -13.850  -2.652  1.00  0.00     0.198 A 
ATOM     76  F   UNL     1       1.180 -12.471  -4.392  1.00  0.00    -0.203 F 
ATOM     77  F   UNL     1      -2.979 -14.454  -1.466  1.00  0.00    -0.200 F 
ATOM     78  C   UNL     1      -0.660 -14.358  -1.903  1.00  0.00     0.200 A 
ATOM     79  F   UNL     1       1.647 -14.235  -2.388  1.00  0.00    -0.200 F 
ATOM     80  F   UNL     1      -0.420 -15.214  -0.900  1.00  0.00    -0.200 F 
ENDBRANCH  46  70
BRANCH  58  81
ATOM     81  C   UNL     1      -0.478 -12.768 -10.953  1.00  0.00     0.064 A 
ATOM     82  C   UNL     1       0.745 -12.629 -11.626  1.00  0.00     0.173 A 
ATOM     83  C   UNL     1      -1.291 -13.863 -11.276  1.00  0.00     0.173 A 
ATOM     84  F   UNL     1       1.553 -11.593 -11.353  1.00  0.00    -0.203 F 
ATOM     85  C   UNL     1       1.122 -13.532 -12.614  1.00  0.00     0.198 A 
ATOM     86  C   UNL     1      -0.898 -14.780 -12.245  1.00  0.00     0.198 A 
ATOM     87  F   UNL     1      -2.461 -14.044 -10.644  1.00  0.00    -0.203 F 
ATOM     88  F   UNL     1       2.271 -13.353 -13.280  1.00  0.00    -0.200 F 
ATOM     89  C   UNL     1       0.300 -14.605 -12.923  1.00  0.00     0.200 A 
ATOM     90  F   UNL     1      -1.681 -15.829 -12.528  1.00  0.00    -0.200 F 
ATOM     91  F   UNL     1       0.663 -15.473 -13.878  1.00  0.00    -0.200 F 
ENDBRANCH  58  81
ENDBRANCH  32  33
ENDBRANCH  25  27
ENDBRANCH  24  25
ENDBRANCH  23  24
ENDBRANCH  22  23
ENDBRANCH   1  22
TORSDOF 16
