REMARK SMILES O=C(OCCOC(=O)c1[nH]ncc1C[N@H+]1CCC[C@@H](C(=O)c2ccc(Oc3ccccc3)cc2)C1)c1ccc(-c2c3nc(c(-c4c(F)c(F)c(F)c(F)c4F)c4ccc([nH]4)c(-c4c(F)c(F)c(F)c(F)c4F)c4nc(c(-c5c(F)c(F)c(F)c(F)c5F)c5ccc2[nH]5)C=C4)C=C3)cc1
REMARK SMILES IDX 7 1 8 2 6 3 5 4 4 5 3 6 2 7 1 8 36 9 37 10 98 11 38 12 97 13
REMARK SMILES IDX 39 14 40 15 41 16 91 17 42 18 96 19 90 20 92 21 43 22 95 23
REMARK SMILES IDX 89 24 88 25 44 27 76 28 56 29 75 30 57 31 60 32 74 33 93 34
REMARK SMILES IDX 58 35 59 36 73 38 94 39 61 40 45 41 46 42 54 43 47 44 48 45
REMARK SMILES IDX 52 46 55 47 49 48 50 49 53 50 51 51 77 52 78 53 86 54 79 55
REMARK SMILES IDX 80 56 84 57 87 58 81 59 82 60 85 61 83 62 62 63 63 64 71 65
REMARK SMILES IDX 64 66 65 67 69 68 72 69 66 70 67 71 70 72 68 73 9 74 10 75
REMARK SMILES IDX 13 76 11 77 12 79 14 80 15 81 16 82 35 83 17 85 19 86 18 87
REMARK SMILES IDX 20 88 21 89 22 90 23 91 34 92 24 93 33 94 25 95 26 96 27 97
REMARK SMILES IDX 28 98 32 99 29 100 31 101 30 102
REMARK H PARENT 92 26 60 37 10 78 15 84
REMARK Flexibility Score: inf
ROOT
ATOM      1  C   UNL     1       2.035  -1.046   1.588  1.00  0.00     0.356 C 
ATOM      2  O   UNL     1       1.349  -0.177   2.106  1.00  0.00    -0.244 OA
ENDROOT
BRANCH   1   3
ATOM      3  O   UNL     1       3.399  -1.102   1.614  1.00  0.00    -0.457 OA
BRANCH   3   4
ATOM      4  C   UNL     1       4.046   0.081   2.099  1.00  0.00     0.275 C 
BRANCH   4   5
ATOM      5  C   UNL     1       4.470   0.999   0.949  1.00  0.00     0.275 C 
BRANCH   5   6
ATOM      6  O   UNL     1       3.429   1.181  -0.030  1.00  0.00    -0.458 OA
BRANCH   6   7
ATOM      7  C   UNL     1       3.087   0.512  -1.154  1.00  0.00     0.338 C 
ATOM      8  O   UNL     1       2.081   0.906  -1.747  1.00  0.00    -0.246 OA
BRANCH   7   9
ATOM      9  C   UNL     1       3.791  -0.691  -1.730  1.00  0.00     0.060 A 
ATOM     10  C   UNL     1       4.985  -1.264  -1.290  1.00  0.00     0.016 A 
ATOM     11  C   UNL     1       3.163  -1.304  -2.837  1.00  0.00     0.016 A 
ATOM     12  C   UNL     1       5.544  -2.378  -1.941  1.00  0.00     0.010 A 
ATOM     13  C   UNL     1       3.699  -2.433  -3.473  1.00  0.00     0.010 A 
ATOM     14  C   UNL     1       4.909  -2.973  -3.038  1.00  0.00    -0.014 A 
BRANCH  14  15
ATOM     15  C   UNL     1       5.523  -4.140  -3.724  1.00  0.00     0.031 A 
ATOM     16  C   UNL     1       6.255  -3.950  -5.014  1.00  0.00     0.074 A 
ATOM     17  C   UNL     1       5.484  -5.360  -3.159  1.00  0.00     0.049 A 
ATOM     18  N   UNL     1       6.887  -4.838  -5.737  1.00  0.00    -0.248 NA
ATOM     19  C   UNL     1       6.299  -2.584  -5.556  1.00  0.00     0.031 C 
ATOM     20  C   UNL     1       4.848  -5.644  -1.886  1.00  0.00     0.029 A 
ATOM     21  N   UNL     1       5.998  -6.573  -3.539  1.00  0.00    -0.354 N 
ATOM     22  C   UNL     1       7.417  -4.141  -6.809  1.00  0.00     0.074 A 
ATOM     23  C   UNL     1       7.006  -2.759  -6.664  1.00  0.00     0.031 C 
ATOM     24  C   UNL     1       5.074  -6.917  -1.532  1.00  0.00     0.029 A 
ATOM     25  C   UNL     1       5.788  -7.574  -2.616  1.00  0.00     0.049 A 
ATOM     26  H   UNL     1       6.471  -6.715  -4.390  1.00  0.00     0.167 HD
ATOM     27  C   UNL     1       8.192  -4.615  -7.812  1.00  0.00     0.037 A 
ATOM     28  C   UNL     1       6.106  -8.881  -2.660  1.00  0.00     0.037 A 
ATOM     29  C   UNL     1       8.590  -5.989  -7.952  1.00  0.00     0.049 A 
ATOM     30  C   UNL     1       6.732  -9.403  -3.919  1.00  0.00     0.074 A 
ATOM     31  C   UNL     1       9.432  -6.560  -8.890  1.00  0.00     0.029 A 
ATOM     32  N   UNL     1       8.150  -7.019  -7.133  1.00  0.00    -0.354 N 
ATOM     33  N   UNL     1       7.249  -8.737  -4.920  1.00  0.00    -0.248 NA
ATOM     34  C   UNL     1       6.767 -10.863  -4.079  1.00  0.00     0.031 C 
ATOM     35  C   UNL     1       9.466  -7.943  -8.664  1.00  0.00     0.029 A 
ATOM     36  C   UNL     1       8.663  -8.228  -7.572  1.00  0.00     0.049 A 
ATOM     37  H   UNL     1       7.559  -6.906  -6.353  1.00  0.00     0.167 HD
ATOM     38  C   UNL     1       7.710  -9.691  -5.811  1.00  0.00     0.074 A 
ATOM     39  C   UNL     1       7.396 -10.986  -5.239  1.00  0.00     0.031 C 
ATOM     40  C   UNL     1       8.349  -9.507  -6.991  1.00  0.00     0.037 A 
BRANCH  27  41
ATOM     41  C   UNL     1       8.647  -3.626  -8.837  1.00  0.00     0.064 A 
ATOM     42  C   UNL     1       9.695  -2.734  -8.572  1.00  0.00     0.173 A 
ATOM     43  C   UNL     1       8.028  -3.567 -10.093  1.00  0.00     0.173 A 
ATOM     44  F   UNL     1      10.302  -2.743  -7.375  1.00  0.00    -0.203 F 
ATOM     45  C   UNL     1      10.098  -1.803  -9.525  1.00  0.00     0.198 A 
ATOM     46  C   UNL     1       8.442  -2.644 -11.049  1.00  0.00     0.198 A 
ATOM     47  F   UNL     1       7.015  -4.396 -10.387  1.00  0.00    -0.203 F 
ATOM     48  F   UNL     1      11.079  -0.936  -9.240  1.00  0.00    -0.200 F 
ATOM     49  C   UNL     1       9.473  -1.761 -10.763  1.00  0.00     0.200 A 
ATOM     50  F   UNL     1       7.837  -2.601 -12.244  1.00  0.00    -0.200 F 
ATOM     51  F   UNL     1       9.857  -0.860 -11.677  1.00  0.00    -0.200 F 
ENDBRANCH  27  41
BRANCH  28  52
ATOM     52  C   UNL     1       5.825  -9.797  -1.522  1.00  0.00     0.064 A 
ATOM     53  C   UNL     1       6.879 -10.434  -0.849  1.00  0.00     0.173 A 
ATOM     54  C   UNL     1       4.521 -10.096  -1.107  1.00  0.00     0.173 A 
ATOM     55  F   UNL     1       8.146 -10.210  -1.226  1.00  0.00    -0.203 F 
ATOM     56  C   UNL     1       6.637 -11.334   0.189  1.00  0.00     0.198 A 
ATOM     57  C   UNL     1       4.284 -10.969  -0.047  1.00  0.00     0.198 A 
ATOM     58  F   UNL     1       3.471  -9.540  -1.728  1.00  0.00    -0.203 F 
ATOM     59  F   UNL     1       7.661 -11.960   0.785  1.00  0.00    -0.200 F 
ATOM     60  C   UNL     1       5.339 -11.595   0.594  1.00  0.00     0.200 A 
ATOM     61  F   UNL     1       3.030 -11.207   0.357  1.00  0.00    -0.200 F 
ATOM     62  F   UNL     1       5.102 -12.457   1.592  1.00  0.00    -0.200 F 
ENDBRANCH  28  52
BRANCH  40  63
ATOM     63  C   UNL     1       8.807 -10.743  -7.697  1.00  0.00     0.064 A 
ATOM     64  C   UNL     1       7.917 -11.540  -8.427  1.00  0.00     0.173 A 
ATOM     65  C   UNL     1      10.148 -11.145  -7.616  1.00  0.00     0.173 A 
ATOM     66  F   UNL     1       6.619 -11.210  -8.501  1.00  0.00    -0.203 F 
ATOM     67  C   UNL     1       8.351 -12.713  -9.038  1.00  0.00     0.198 A 
ATOM     68  C   UNL     1      10.582 -12.307  -8.244  1.00  0.00     0.198 A 
ATOM     69  F   UNL     1      11.031 -10.415  -6.918  1.00  0.00    -0.203 F 
ATOM     70  F   UNL     1       7.476 -13.490  -9.692  1.00  0.00    -0.200 F 
ATOM     71  C   UNL     1       9.683 -13.093  -8.949  1.00  0.00     0.200 A 
ATOM     72  F   UNL     1      11.868 -12.674  -8.155  1.00  0.00    -0.200 F 
ATOM     73  F   UNL     1      10.097 -14.227  -9.529  1.00  0.00    -0.200 F 
ENDBRANCH  40  63
ENDBRANCH  14  15
ENDBRANCH   7   9
ENDBRANCH   6   7
ENDBRANCH   5   6
ENDBRANCH   4   5
ENDBRANCH   3   4
ENDBRANCH   1   3
BRANCH   1  74
ATOM     74  C   UNL     1       1.542  -2.043   0.688  1.00  0.00     0.152 A 
ATOM     75  N   UNL     1       0.505  -1.765  -0.161  1.00  0.00    -0.271 N 
ATOM     76  C   UNL     1       1.968  -3.328   0.374  1.00  0.00     0.059 A 
ATOM     77  N   UNL     1       0.332  -2.690  -1.113  1.00  0.00    -0.183 NA
ATOM     78  H   UNL     1      -0.059  -0.962  -0.080  1.00  0.00     0.190 HD
ATOM     79  C   UNL     1       1.240  -3.617  -0.813  1.00  0.00     0.145 A 
BRANCH  76  80
ATOM     80  C   UNL     1       3.057  -4.119   1.032  1.00  0.00     0.303 C 
BRANCH  80  81
ATOM     81  N   UNL     1       2.739  -5.501   1.436  1.00  0.00    -0.330 N 
ATOM     82  C   UNL     1       2.248  -5.576   2.811  1.00  0.00     0.262 C 
ATOM     83  C   UNL     1       1.899  -6.276   0.512  1.00  0.00     0.274 C 
ATOM     84  H   UNL     1       3.643  -5.971   1.386  1.00  0.00     0.348 HD
ATOM     85  C   UNL     1       2.207  -7.032   3.268  1.00  0.00     0.062 C 
ATOM     86  C   UNL     1       1.738  -7.760   0.894  1.00  0.00     0.116 C 
ATOM     87  C   UNL     1       1.310  -7.863   2.360  1.00  0.00     0.023 C 
BRANCH  86  88
ATOM     88  C   UNL     1       0.799  -8.412  -0.142  1.00  0.00     0.171 C 
ATOM     89  O   UNL     1       0.714  -8.004  -1.300  1.00  0.00    -0.294 OA
BRANCH  88  90
ATOM     90  C   UNL     1       0.068  -9.658   0.183  1.00  0.00     0.018 A 
ATOM     91  C   UNL     1       0.301 -10.806  -0.582  1.00  0.00     0.015 A 
ATOM     92  C   UNL     1      -0.877  -9.688   1.206  1.00  0.00     0.015 A 
ATOM     93  C   UNL     1      -0.347 -12.003  -0.261  1.00  0.00     0.048 A 
ATOM     94  C   UNL     1      -1.497 -10.887   1.546  1.00  0.00     0.048 A 
ATOM     95  C   UNL     1      -1.243 -12.049   0.810  1.00  0.00     0.127 A 
BRANCH  95  96
ATOM     96  O   UNL     1      -1.816 -13.278   1.075  1.00  0.00    -0.457 OA
BRANCH  96  97
ATOM     97  C   UNL     1      -2.918 -13.284   1.899  1.00  0.00     0.127 A 
ATOM     98  C   UNL     1      -2.801 -13.863   3.162  1.00  0.00     0.047 A 
ATOM     99  C   UNL     1      -4.121 -12.706   1.486  1.00  0.00     0.047 A 
ATOM    100  C   UNL     1      -3.879 -13.802   4.045  1.00  0.00     0.004 A 
ATOM    101  C   UNL     1      -5.191 -12.638   2.376  1.00  0.00     0.004 A 
ATOM    102  C   UNL     1      -5.067 -13.179   3.656  1.00  0.00     0.000 A 
ENDBRANCH  96  97
ENDBRANCH  95  96
ENDBRANCH  88  90
ENDBRANCH  86  88
ENDBRANCH  80  81
ENDBRANCH  76  80
ENDBRANCH   1  74
TORSDOF 17
