REMARK SMILES O=C(CC[N@H+]1CCC[C@H](c2nccn2Cc2cscn2)C1)OCCOC(=O)c1ccc(-c2c3nc(c(-c4c(F)c(F)c(F)c(F)c4F)c4ccc([nH]4)c(-c4c(F)c(F)c(F)c(F)c4F)c4nc(c(-c5c(F)c(F)c(F)c(F)c5F)c5ccc2[nH]5)C=C4)C=C3)cc1
REMARK SMILES IDX 22 1 2 2 1 3 3 4 4 5 5 6 6 7 21 8 7 10 9 11 8 12 10 13 11 14
REMARK SMILES IDX 14 15 12 16 13 17 15 18 16 19 17 20 20 21 18 22 19 23 23 24
REMARK SMILES IDX 24 25 25 26 26 27 27 28 28 29 29 30 90 31 30 32 89 33 31 34
REMARK SMILES IDX 32 35 33 36 83 37 34 38 88 39 82 40 84 41 35 42 87 43 81 44
REMARK SMILES IDX 80 45 36 47 68 48 48 49 67 50 49 51 52 52 66 53 85 54 50 55
REMARK SMILES IDX 51 56 65 58 86 59 53 60 37 61 38 62 46 63 39 64 40 65 44 66
REMARK SMILES IDX 47 67 41 68 42 69 45 70 43 71 69 72 70 73 78 74 71 75 72 76
REMARK SMILES IDX 76 77 79 78 73 79 74 80 77 81 75 82 54 83 55 84 63 85 56 86
REMARK SMILES IDX 57 87 61 88 64 89 58 90 59 91 62 92 60 93
REMARK H PARENT 5 9 84 46 52 57
REMARK Flexibility Score: inf
ROOT
ATOM      1  O   UNL     1       1.492   1.147   0.233  1.00  0.00    -0.462 OA
ENDROOT
BRANCH   1   2
ATOM      2  C   UNL     1       1.549   0.240  -0.773  1.00  0.00     0.311 C 
ATOM      3  O   UNL     1       0.663   0.212  -1.626  1.00  0.00    -0.252 OA
BRANCH   2   4
ATOM      4  C   UNL     1       2.650  -0.792  -0.797  1.00  0.00     0.184 C 
BRANCH   4   5
ATOM      5  C   UNL     1       3.475  -0.797  -2.096  1.00  0.00     0.274 C 
BRANCH   5   6
ATOM      6  N   UNL     1       4.686   0.025  -1.995  1.00  0.00    -0.334 N 
ATOM      7  C   UNL     1       5.788  -0.409  -2.872  1.00  0.00     0.262 C 
ATOM      8  C   UNL     1       4.472   1.466  -2.057  1.00  0.00     0.273 C 
ATOM      9  H   UNL     1       4.989  -0.156  -1.038  1.00  0.00     0.348 HD
ATOM     10  C   UNL     1       7.095   0.373  -2.618  1.00  0.00     0.062 C 
ATOM     11  C   UNL     1       5.729   2.255  -1.650  1.00  0.00     0.111 C 
ATOM     12  C   UNL     1       6.880   1.880  -2.584  1.00  0.00     0.023 C 
BRANCH  11  13
ATOM     13  C   UNL     1       6.165   2.321  -0.175  1.00  0.00     0.117 A 
ATOM     14  N   UNL     1       6.458   3.497   0.365  1.00  0.00    -0.241 NA
ATOM     15  N   UNL     1       6.392   1.315   0.779  1.00  0.00    -0.328 N 
ATOM     16  C   UNL     1       6.850   3.273   1.649  1.00  0.00     0.131 A 
ATOM     17  C   UNL     1       6.780   1.938   1.941  1.00  0.00     0.108 A 
BRANCH  15  18
ATOM     18  C   UNL     1       5.927  -0.062   0.727  1.00  0.00     0.180 C 
BRANCH  18  19
ATOM     19  C   UNL     1       6.677  -1.226   1.283  1.00  0.00     0.071 A 
ATOM     20  C   UNL     1       7.233  -1.441   2.528  1.00  0.00     0.092 A 
ATOM     21  N   UNL     1       6.583  -2.393   0.509  1.00  0.00    -0.248 NA
ATOM     22  S   UNL     1       7.760  -3.075   2.678  1.00  0.00    -0.130 S 
ATOM     23  C   UNL     1       7.091  -3.422   1.143  1.00  0.00     0.175 A 
ENDBRANCH  18  19
ENDBRANCH  15  18
ENDBRANCH  11  13
ENDBRANCH   5   6
ENDBRANCH   4   5
ENDBRANCH   2   4
ENDBRANCH   1   2
BRANCH   1  24
ATOM     24  C   UNL     1       2.615   1.662   0.978  1.00  0.00     0.274 C 
BRANCH  24  25
ATOM     25  C   UNL     1       2.636   1.211   2.426  1.00  0.00     0.275 C 
BRANCH  25  26
ATOM     26  O   UNL     1       2.848  -0.195   2.493  1.00  0.00    -0.458 OA
BRANCH  26  27
ATOM     27  C   UNL     1       1.745  -0.986   2.439  1.00  0.00     0.338 C 
ATOM     28  O   UNL     1       0.598  -0.654   2.272  1.00  0.00    -0.246 OA
BRANCH  27  29
ATOM     29  C   UNL     1       2.204  -2.321   2.855  1.00  0.00     0.060 A 
ATOM     30  C   UNL     1       1.295  -3.117   3.542  1.00  0.00     0.016 A 
ATOM     31  C   UNL     1       3.571  -2.622   2.830  1.00  0.00     0.016 A 
ATOM     32  C   UNL     1       1.799  -4.059   4.415  1.00  0.00     0.010 A 
ATOM     33  C   UNL     1       4.074  -3.532   3.724  1.00  0.00     0.010 A 
ATOM     34  C   UNL     1       3.189  -4.173   4.574  1.00  0.00    -0.014 A 
BRANCH  34  35
ATOM     35  C   UNL     1       3.714  -5.163   5.489  1.00  0.00     0.031 A 
ATOM     36  C   UNL     1       3.501  -6.515   4.941  1.00  0.00     0.074 A 
ATOM     37  C   UNL     1       4.369  -4.890   6.634  1.00  0.00     0.049 A 
ATOM     38  N   UNL     1       2.530  -7.304   5.251  1.00  0.00    -0.248 NA
ATOM     39  C   UNL     1       4.248  -6.922   3.741  1.00  0.00     0.031 C 
ATOM     40  C   UNL     1       4.864  -3.603   7.123  1.00  0.00     0.029 A 
ATOM     41  N   UNL     1       4.778  -5.759   7.604  1.00  0.00    -0.354 N 
ATOM     42  C   UNL     1       2.716  -8.433   4.469  1.00  0.00     0.074 A 
ATOM     43  C   UNL     1       3.594  -8.036   3.402  1.00  0.00     0.031 C 
ATOM     44  C   UNL     1       5.681  -3.807   8.186  1.00  0.00     0.029 A 
ATOM     45  C   UNL     1       5.657  -5.215   8.541  1.00  0.00     0.049 A 
ATOM     46  H   UNL     1       4.476  -6.696   7.639  1.00  0.00     0.167 HD
ATOM     47  C   UNL     1       2.435  -9.651   5.004  1.00  0.00     0.037 A 
ATOM     48  C   UNL     1       6.327  -5.905   9.505  1.00  0.00     0.037 A 
ATOM     49  C   UNL     1       1.557  -9.500   6.149  1.00  0.00     0.049 A 
ATOM     50  C   UNL     1       5.594  -7.178   9.720  1.00  0.00     0.074 A 
ATOM     51  C   UNL     1       0.308  -8.950   6.368  1.00  0.00     0.029 A 
ATOM     52  N   UNL     1       2.145  -9.589   7.386  1.00  0.00    -0.354 N 
ATOM     53  N   UNL     1       4.409  -7.245  10.258  1.00  0.00    -0.248 NA
ATOM     54  C   UNL     1       5.975  -8.317   8.900  1.00  0.00     0.031 C 
ATOM     55  C   UNL     1       0.382  -8.342   7.660  1.00  0.00     0.029 A 
ATOM     56  C   UNL     1       1.636  -8.620   8.203  1.00  0.00     0.049 A 
ATOM     57  H   UNL     1       2.829 -10.249   7.644  1.00  0.00     0.167 HD
ATOM     58  C   UNL     1       3.728  -8.168   9.480  1.00  0.00     0.074 A 
ATOM     59  C   UNL     1       4.768  -8.859   8.717  1.00  0.00     0.031 C 
ATOM     60  C   UNL     1       2.376  -8.062   9.311  1.00  0.00     0.037 A 
BRANCH  47  61
ATOM     61  C   UNL     1       3.356 -10.850   4.856  1.00  0.00     0.064 A 
ATOM     62  C   UNL     1       2.991 -12.043   5.513  1.00  0.00     0.173 A 
ATOM     63  C   UNL     1       4.699 -10.796   4.415  1.00  0.00     0.173 A 
ATOM     64  F   UNL     1       1.744 -12.213   5.975  1.00  0.00    -0.203 F 
ATOM     65  C   UNL     1       3.926 -13.034   5.822  1.00  0.00     0.198 A 
ATOM     66  C   UNL     1       5.618 -11.808   4.686  1.00  0.00     0.198 A 
ATOM     67  F   UNL     1       5.227  -9.736   3.799  1.00  0.00    -0.203 F 
ATOM     68  F   UNL     1       3.563 -14.072   6.586  1.00  0.00    -0.200 F 
ATOM     69  C   UNL     1       5.243 -12.907   5.423  1.00  0.00     0.200 A 
ATOM     70  F   UNL     1       6.893 -11.654   4.302  1.00  0.00    -0.200 F 
ATOM     71  F   UNL     1       6.158 -13.815   5.784  1.00  0.00    -0.200 F 
ENDBRANCH  47  61
BRANCH  48  72
ATOM     72  C   UNL     1       7.712  -5.720  10.014  1.00  0.00     0.064 A 
ATOM     73  C   UNL     1       8.170  -6.418  11.150  1.00  0.00     0.173 A 
ATOM     74  C   UNL     1       8.703  -5.107   9.225  1.00  0.00     0.173 A 
ATOM     75  F   UNL     1       7.303  -7.075  11.934  1.00  0.00    -0.203 F 
ATOM     76  C   UNL     1       9.534  -6.525  11.452  1.00  0.00     0.198 A 
ATOM     77  C   UNL     1      10.063  -5.212   9.530  1.00  0.00     0.198 A 
ATOM     78  F   UNL     1       8.381  -4.481   8.085  1.00  0.00    -0.203 F 
ATOM     79  F   UNL     1       9.932  -7.259  12.501  1.00  0.00    -0.200 F 
ATOM     80  C   UNL     1      10.479  -5.933  10.634  1.00  0.00     0.200 A 
ATOM     81  F   UNL     1      10.970  -4.669   8.706  1.00  0.00    -0.200 F 
ATOM     82  F   UNL     1      11.787  -6.092  10.881  1.00  0.00    -0.200 F 
ENDBRANCH  48  72
BRANCH  60  83
ATOM     83  C   UNL     1       1.626  -7.161  10.252  1.00  0.00     0.064 A 
ATOM     84  C   UNL     1       1.818  -5.772  10.361  1.00  0.00     0.173 A 
ATOM     85  C   UNL     1       0.591  -7.730  11.006  1.00  0.00     0.173 A 
ATOM     86  F   UNL     1       2.724  -5.137   9.605  1.00  0.00    -0.203 F 
ATOM     87  C   UNL     1       1.037  -5.004  11.226  1.00  0.00     0.198 A 
ATOM     88  C   UNL     1      -0.212  -6.956  11.837  1.00  0.00     0.198 A 
ATOM     89  F   UNL     1       0.332  -9.044  10.907  1.00  0.00    -0.203 F 
ATOM     90  F   UNL     1       1.251  -3.684  11.332  1.00  0.00    -0.200 F 
ATOM     91  C   UNL     1       0.020  -5.596  11.958  1.00  0.00     0.200 A 
ATOM     92  F   UNL     1      -1.223  -7.527  12.505  1.00  0.00    -0.200 F 
ATOM     93  F   UNL     1      -0.753  -4.853  12.763  1.00  0.00    -0.200 F 
ENDBRANCH  60  83
ENDBRANCH  34  35
ENDBRANCH  27  29
ENDBRANCH  26  27
ENDBRANCH  25  26
ENDBRANCH  24  25
ENDBRANCH   1  24
TORSDOF 16
