REMARK SMILES COc1ccc(CCn2cc(C(=O)OCCOC(=O)c3ccc(-c4c5nc(c(-c6c(F)c(F)c(F)c(F)c6F)c6ccc([nH]6)c(-c6c(F)c(F)c(F)c(F)c6F)c6nc(c(-c7c(F)c(F)c(F)c(F)c7F)c7ccc4[nH]7)C=C6)C=C5)cc3)ccc2=O)cc1OC
REMARK SMILES IDX 15 1 14 2 12 3 13 4 11 5 9 6 10 7 85 8 84 9 86 10 83 11 8 12
REMARK SMILES IDX 7 13 6 14 3 15 4 16 88 17 5 18 87 19 2 20 1 21 89 22 90 23
REMARK SMILES IDX 16 24 17 25 18 26 19 27 20 28 21 29 82 30 22 31 81 32 23 33
REMARK SMILES IDX 24 34 25 35 75 36 26 37 80 38 74 39 76 40 27 41 79 42 73 43
REMARK SMILES IDX 72 44 28 46 60 47 40 48 59 49 41 50 44 51 58 52 77 53 42 54
REMARK SMILES IDX 43 55 57 57 78 58 45 59 29 60 30 61 38 62 31 63 32 64 36 65
REMARK SMILES IDX 39 66 33 67 34 68 37 69 35 70 61 71 62 72 70 73 63 74 64 75
REMARK SMILES IDX 68 76 71 77 65 78 66 79 69 80 67 81 46 82 47 83 55 84 48 85
REMARK SMILES IDX 49 86 53 87 56 88 50 89 51 90 54 91 52 92
REMARK H PARENT 76 45 44 56
REMARK Flexibility Score: inf
ROOT
ATOM      1  C   UNL     1      -2.823   2.435   2.868  1.00  0.00     0.275 C 
ENDROOT
BRANCH   1   2
ATOM      2  O   UNL     1      -2.271   3.554   3.589  1.00  0.00    -0.458 OA
BRANCH   2   3
ATOM      3  C   UNL     1      -2.046   4.655   2.832  1.00  0.00     0.339 C 
ATOM      4  O   UNL     1      -2.315   4.779   1.644  1.00  0.00    -0.246 OA
BRANCH   3   5
ATOM      5  C   UNL     1      -1.327   5.717   3.573  1.00  0.00     0.076 A 
ATOM      6  N   UNL     1       0.892   6.266   4.203  1.00  0.00    -0.314 N 
ATOM      7  C   UNL     1      -0.133   5.344   4.055  1.00  0.00     0.104 A 
ATOM      8  C   UNL     1       0.672   7.644   4.071  1.00  0.00     0.250 A 
ATOM      9  C   UNL     1      -0.703   8.052   3.678  1.00  0.00     0.072 A 
ATOM     10  O   UNL     1       1.536   8.506   4.201  1.00  0.00    -0.269 OA
ATOM     11  C   UNL     1      -1.625   7.120   3.409  1.00  0.00     0.023 A 
BRANCH   6  12
ATOM     12  C   UNL     1       2.295   5.845   4.260  1.00  0.00     0.130 C 
BRANCH  12  13
ATOM     13  C   UNL     1       2.654   4.352   4.137  1.00  0.00     0.057 C 
BRANCH  13  14
ATOM     14  C   UNL     1       2.412   3.587   2.842  1.00  0.00    -0.042 A 
ATOM     15  C   UNL     1       1.811   1.869   0.680  1.00  0.00     0.160 A 
ATOM     16  C   UNL     1       1.235   3.136   0.756  1.00  0.00     0.051 A 
ATOM     17  C   UNL     1       2.767   1.483   1.621  1.00  0.00     0.160 A 
ATOM     18  C   UNL     1       1.563   4.001   1.808  1.00  0.00     0.008 A 
ATOM     19  C   UNL     1       3.021   2.324   2.714  1.00  0.00     0.054 A 
BRANCH  15  20
ATOM     20  O   UNL     1       1.435   1.064  -0.361  1.00  0.00    -0.493 OA
ATOM     21  C   UNL     1       0.359   0.207   0.027  1.00  0.00     0.278 C 
ENDBRANCH  15  20
BRANCH  17  22
ATOM     22  O   UNL     1       3.477   0.312   1.637  1.00  0.00    -0.493 OA
ATOM     23  C   UNL     1       3.778  -0.255   0.366  1.00  0.00     0.278 C 
ENDBRANCH  17  22
ENDBRANCH  13  14
ENDBRANCH  12  13
ENDBRANCH   6  12
ENDBRANCH   3   5
ENDBRANCH   2   3
ENDBRANCH   1   2
BRANCH   1  24
ATOM     24  C   UNL     1      -4.334   2.341   3.064  1.00  0.00     0.275 C 
BRANCH  24  25
ATOM     25  O   UNL     1      -4.968   3.549   2.607  1.00  0.00    -0.458 OA
BRANCH  25  26
ATOM     26  C   UNL     1      -5.514   4.322   3.570  1.00  0.00     0.338 C 
ATOM     27  O   UNL     1      -5.601   4.074   4.765  1.00  0.00    -0.246 OA
BRANCH  26  28
ATOM     28  C   UNL     1      -5.992   5.590   2.995  1.00  0.00     0.060 A 
ATOM     29  C   UNL     1      -5.111   6.409   2.294  1.00  0.00     0.016 A 
ATOM     30  C   UNL     1      -7.279   6.039   3.280  1.00  0.00     0.016 A 
ATOM     31  C   UNL     1      -5.467   7.714   1.972  1.00  0.00     0.010 A 
ATOM     32  C   UNL     1      -7.677   7.309   2.850  1.00  0.00     0.010 A 
ATOM     33  C   UNL     1      -6.762   8.176   2.225  1.00  0.00    -0.014 A 
BRANCH  33  34
ATOM     34  C   UNL     1      -7.143   9.571   1.875  1.00  0.00     0.031 A 
ATOM     35  C   UNL     1      -7.661  10.496   2.942  1.00  0.00     0.074 A 
ATOM     36  C   UNL     1      -7.012  10.021   0.611  1.00  0.00     0.049 A 
ATOM     37  N   UNL     1      -8.258  11.654   2.817  1.00  0.00    -0.248 NA
ATOM     38  C   UNL     1      -7.500  10.052   4.335  1.00  0.00     0.031 C 
ATOM     39  C   UNL     1      -6.461   9.257  -0.510  1.00  0.00     0.029 A 
ATOM     40  N   UNL     1      -7.329  11.236   0.057  1.00  0.00    -0.354 N 
ATOM     41  C   UNL     1      -8.609  12.039   4.105  1.00  0.00     0.074 A 
ATOM     42  C   UNL     1      -8.147  10.999   4.999  1.00  0.00     0.031 C 
ATOM     43  C   UNL     1      -6.436  10.033  -1.603  1.00  0.00     0.029 A 
ATOM     44  C   UNL     1      -7.068  11.309  -1.290  1.00  0.00     0.049 A 
ATOM     45  H   UNL     1      -7.706  11.984   0.575  1.00  0.00     0.167 HD
ATOM     46  C   UNL     1      -9.267  13.156   4.497  1.00  0.00     0.037 A 
ATOM     47  C   UNL     1      -7.355  12.270  -2.188  1.00  0.00     0.037 A 
ATOM     48  C   UNL     1      -9.661  14.217   3.607  1.00  0.00     0.049 A 
ATOM     49  C   UNL     1      -8.108  13.487  -1.735  1.00  0.00     0.074 A 
ATOM     50  C   UNL     1     -10.316  15.399   3.904  1.00  0.00     0.029 A 
ATOM     51  N   UNL     1      -9.413  14.230   2.241  1.00  0.00    -0.354 N 
ATOM     52  N   UNL     1      -8.519  13.803  -0.531  1.00  0.00    -0.248 NA
ATOM     53  C   UNL     1      -8.466  14.465  -2.771  1.00  0.00     0.031 C 
ATOM     54  C   UNL     1     -10.492  16.114   2.714  1.00  0.00     0.029 A 
ATOM     55  C   UNL     1      -9.913  15.394   1.681  1.00  0.00     0.049 A 
ATOM     56  H   UNL     1      -8.950  13.518   1.744  1.00  0.00     0.167 HD
ATOM     57  C   UNL     1      -9.187  15.011  -0.663  1.00  0.00     0.074 A 
ATOM     58  C   UNL     1      -9.101  15.386  -2.060  1.00  0.00     0.031 C 
ATOM     59  C   UNL     1      -9.824  15.740   0.286  1.00  0.00     0.037 A 
BRANCH  46  60
ATOM     60  C   UNL     1      -9.643  13.268   5.945  1.00  0.00     0.064 A 
ATOM     61  C   UNL     1      -8.698  13.534   6.945  1.00  0.00     0.173 A 
ATOM     62  C   UNL     1     -10.986  13.129   6.332  1.00  0.00     0.173 A 
ATOM     63  F   UNL     1      -7.400  13.658   6.630  1.00  0.00    -0.203 F 
ATOM     64  C   UNL     1      -9.079  13.634   8.282  1.00  0.00     0.198 A 
ATOM     65  C   UNL     1     -11.367  13.256   7.665  1.00  0.00     0.198 A 
ATOM     66  F   UNL     1     -11.931  12.876   5.414  1.00  0.00    -0.203 F 
ATOM     67  F   UNL     1      -8.152  13.844   9.227  1.00  0.00    -0.200 F 
ATOM     68  C   UNL     1     -10.412  13.501   8.640  1.00  0.00     0.200 A 
ATOM     69  F   UNL     1     -12.657  13.136   8.007  1.00  0.00    -0.200 F 
ATOM     70  F   UNL     1     -10.776  13.601   9.926  1.00  0.00    -0.200 F 
ENDBRANCH  46  60
BRANCH  47  71
ATOM     71  C   UNL     1      -6.979  12.082  -3.613  1.00  0.00     0.064 A 
ATOM     72  C   UNL     1      -5.977  12.863  -4.202  1.00  0.00     0.173 A 
ATOM     73  C   UNL     1      -7.594  11.101  -4.406  1.00  0.00     0.173 A 
ATOM     74  F   UNL     1      -5.380  13.832  -3.492  1.00  0.00    -0.203 F 
ATOM     75  C   UNL     1      -5.602  12.669  -5.530  1.00  0.00     0.198 A 
ATOM     76  C   UNL     1      -7.198  10.887  -5.724  1.00  0.00     0.198 A 
ATOM     77  F   UNL     1      -8.561  10.328  -3.889  1.00  0.00    -0.203 F 
ATOM     78  F   UNL     1      -4.661  13.449  -6.079  1.00  0.00    -0.200 F 
ATOM     79  C   UNL     1      -6.205  11.674  -6.286  1.00  0.00     0.200 A 
ATOM     80  F   UNL     1      -7.773   9.915  -6.444  1.00  0.00    -0.200 F 
ATOM     81  F   UNL     1      -5.832  11.477  -7.558  1.00  0.00    -0.200 F 
ENDBRANCH  47  71
BRANCH  59  82
ATOM     82  C   UNL     1     -10.468  17.017  -0.162  1.00  0.00     0.064 A 
ATOM     83  C   UNL     1     -11.668  17.011  -0.888  1.00  0.00     0.173 A 
ATOM     84  C   UNL     1      -9.894  18.255   0.158  1.00  0.00     0.173 A 
ATOM     85  F   UNL     1     -12.243  15.849  -1.232  1.00  0.00    -0.203 F 
ATOM     86  C   UNL     1     -12.259  18.203  -1.298  1.00  0.00     0.198 A 
ATOM     87  C   UNL     1     -10.500  19.445  -0.234  1.00  0.00     0.198 A 
ATOM     88  F   UNL     1      -8.748  18.309   0.853  1.00  0.00    -0.203 F 
ATOM     89  F   UNL     1     -13.382  18.175  -2.028  1.00  0.00    -0.200 F 
ATOM     90  C   UNL     1     -11.678  19.418  -0.966  1.00  0.00     0.200 A 
ATOM     91  F   UNL     1      -9.942  20.619   0.094  1.00  0.00    -0.200 F 
ATOM     92  F   UNL     1     -12.248  20.564  -1.361  1.00  0.00    -0.200 F 
ENDBRANCH  59  82
ENDBRANCH  33  34
ENDBRANCH  26  28
ENDBRANCH  25  26
ENDBRANCH  24  25
ENDBRANCH   1  24
TORSDOF 16
