REMARK SMILES Cc1cscc1-c1nc(C)c(C(=O)OCCOC(=O)c2ccc(-c3c4nc(c(-c5c(F)c(F)c(F)c(F)c5F)c5ccc([nH]5)c(-c5c(F)c(F)c(F)c(F)c5F)c5nc(c(-c6c(F)c(F)c(F)c(F)c6F)c6ccc3[nH]6)C=C5)C=C4)cc2)c(C)n1
REMARK SMILES IDX 16 1 15 2 14 3 12 4 13 5 11 6 7 7 8 8 85 9 9 10 83 11 10 12
REMARK SMILES IDX 84 13 6 14 1 15 2 16 3 17 4 18 5 19 17 20 18 21 19 22 20 23
REMARK SMILES IDX 21 24 82 25 22 26 81 27 23 28 24 29 25 30 75 31 26 32 80 33
REMARK SMILES IDX 74 34 76 35 27 36 79 37 73 38 72 39 28 41 60 42 40 43 59 44
REMARK SMILES IDX 41 45 44 46 58 47 77 48 42 49 43 50 57 52 78 53 45 54 29 55
REMARK SMILES IDX 30 56 38 57 31 58 32 59 36 60 39 61 33 62 34 63 37 64 35 65
REMARK SMILES IDX 61 66 62 67 70 68 63 69 64 70 68 71 71 72 65 73 66 74 69 75
REMARK SMILES IDX 67 76 46 77 47 78 55 79 48 80 49 81 53 82 56 83 50 84 51 85
REMARK SMILES IDX 54 86 52 87
REMARK H PARENT 76 40 44 51
REMARK Flexibility Score: inf
ROOT
ATOM      1  C   UNL     1       4.375   8.557  -0.911  1.00  0.00     0.275 C 
ENDROOT
BRANCH   1   2
ATOM      2  C   UNL     1       5.048   7.188  -0.854  1.00  0.00     0.275 C 
BRANCH   2   3
ATOM      3  O   UNL     1       4.069   6.129  -0.975  1.00  0.00    -0.458 OA
BRANCH   3   4
ATOM      4  C   UNL     1       3.937   5.293   0.085  1.00  0.00     0.341 C 
ATOM      5  O   UNL     1       4.509   5.401   1.153  1.00  0.00    -0.246 OA
BRANCH   4   6
ATOM      6  C   UNL     1       2.978   4.203  -0.205  1.00  0.00     0.102 A 
ATOM      7  C   UNL     1       1.330   2.085  -0.599  1.00  0.00     0.160 A 
ATOM      8  N   UNL     1       2.218   2.357  -1.567  1.00  0.00    -0.232 NA
ATOM      9  N   UNL     1       1.201   2.768   0.537  1.00  0.00    -0.232 NA
ATOM     10  C   UNL     1       3.025   3.437  -1.369  1.00  0.00     0.056 A 
ATOM     11  C   UNL     1       2.047   3.794   0.743  1.00  0.00     0.056 A 
ATOM     12  C   UNL     1       3.997   3.712  -2.481  1.00  0.00     0.068 C 
ATOM     13  C   UNL     1       1.797   4.448   2.054  1.00  0.00     0.068 C 
BRANCH   7  14
ATOM     14  C   UNL     1       0.607   0.831  -0.603  1.00  0.00     0.033 A 
ATOM     15  C   UNL     1       2.632  -0.733  -0.203  1.00  0.00     0.046 C 
ATOM     16  C   UNL     1       1.170  -0.472  -0.357  1.00  0.00    -0.029 A 
ATOM     17  C   UNL     1       0.176  -1.421  -0.215  1.00  0.00     0.069 A 
ATOM     18  S   UNL     1      -1.397  -0.760  -0.339  1.00  0.00    -0.151 S 
ATOM     19  C   UNL     1      -0.774   0.815  -0.559  1.00  0.00     0.077 A 
ENDBRANCH   7  14
ENDBRANCH   4   6
ENDBRANCH   3   4
ENDBRANCH   2   3
ENDBRANCH   1   2
BRANCH   1  20
ATOM     20  O   UNL     1       3.665   8.798   0.318  1.00  0.00    -0.458 OA
BRANCH  20  21
ATOM     21  C   UNL     1       2.326   8.638   0.253  1.00  0.00     0.338 C 
ATOM     22  O   UNL     1       1.650   8.389  -0.733  1.00  0.00    -0.246 OA
BRANCH  21  23
ATOM     23  C   UNL     1       1.755   8.671   1.606  1.00  0.00     0.060 A 
ATOM     24  C   UNL     1       2.089   7.638   2.466  1.00  0.00     0.016 A 
ATOM     25  C   UNL     1       0.721   9.543   1.940  1.00  0.00     0.016 A 
ATOM     26  C   UNL     1       1.262   7.357   3.552  1.00  0.00     0.010 A 
ATOM     27  C   UNL     1       0.003   9.348   3.132  1.00  0.00     0.010 A 
ATOM     28  C   UNL     1       0.211   8.205   3.927  1.00  0.00    -0.014 A 
BRANCH  28  29
ATOM     29  C   UNL     1      -0.683   7.852   5.085  1.00  0.00     0.031 A 
ATOM     30  C   UNL     1      -2.191   7.948   4.959  1.00  0.00     0.074 A 
ATOM     31  C   UNL     1      -0.177   7.390   6.252  1.00  0.00     0.049 A 
ATOM     32  N   UNL     1      -3.107   7.946   5.899  1.00  0.00    -0.248 NA
ATOM     33  C   UNL     1      -2.742   8.079   3.601  1.00  0.00     0.031 C 
ATOM     34  C   UNL     1       1.240   7.149   6.536  1.00  0.00     0.029 A 
ATOM     35  N   UNL     1      -0.801   7.018   7.422  1.00  0.00    -0.354 N 
ATOM     36  C   UNL     1      -4.322   8.162   5.255  1.00  0.00     0.074 A 
ATOM     37  C   UNL     1      -4.029   8.284   3.843  1.00  0.00     0.031 C 
ATOM     38  C   UNL     1       1.368   6.594   7.746  1.00  0.00     0.029 A 
ATOM     39  C   UNL     1       0.070   6.604   8.403  1.00  0.00     0.049 A 
ATOM     40  H   UNL     1      -1.778   7.045   7.545  1.00  0.00     0.167 HD
ATOM     41  C   UNL     1      -5.563   8.258   5.794  1.00  0.00     0.037 A 
ATOM     42  C   UNL     1      -0.117   6.345   9.712  1.00  0.00     0.037 A 
ATOM     43  C   UNL     1      -5.862   8.047   7.190  1.00  0.00     0.049 A 
ATOM     44  C   UNL     1      -1.484   6.528  10.303  1.00  0.00     0.074 A 
ATOM     45  C   UNL     1      -7.087   8.118   7.832  1.00  0.00     0.029 A 
ATOM     46  N   UNL     1      -4.928   7.699   8.155  1.00  0.00    -0.354 N 
ATOM     47  N   UNL     1      -2.605   6.852   9.710  1.00  0.00    -0.248 NA
ATOM     48  C   UNL     1      -1.603   6.342  11.756  1.00  0.00     0.031 C 
ATOM     49  C   UNL     1      -6.887   7.864   9.193  1.00  0.00     0.029 A 
ATOM     50  C   UNL     1      -5.548   7.571   9.389  1.00  0.00     0.049 A 
ATOM     51  H   UNL     1      -3.968   7.562   7.989  1.00  0.00     0.167 HD
ATOM     52  C   UNL     1      -3.566   6.893  10.710  1.00  0.00     0.074 A 
ATOM     53  C   UNL     1      -2.900   6.537  11.945  1.00  0.00     0.031 C 
ATOM     54  C   UNL     1      -4.881   7.205  10.612  1.00  0.00     0.037 A 
BRANCH  41  55
ATOM     55  C   UNL     1      -6.700   8.656   4.891  1.00  0.00     0.064 A 
ATOM     56  C   UNL     1      -7.221   7.801   3.909  1.00  0.00     0.173 A 
ATOM     57  C   UNL     1      -7.316   9.909   5.056  1.00  0.00     0.173 A 
ATOM     58  F   UNL     1      -6.670   6.597   3.701  1.00  0.00    -0.203 F 
ATOM     59  C   UNL     1      -8.295   8.195   3.111  1.00  0.00     0.198 A 
ATOM     60  C   UNL     1      -8.410  10.285   4.281  1.00  0.00     0.198 A 
ATOM     61  F   UNL     1      -6.869  10.765   5.988  1.00  0.00    -0.203 F 
ATOM     62  F   UNL     1      -8.745   7.380   2.146  1.00  0.00    -0.200 F 
ATOM     63  C   UNL     1      -8.893   9.432   3.303  1.00  0.00     0.200 A 
ATOM     64  F   UNL     1      -8.998  11.473   4.484  1.00  0.00    -0.200 F 
ATOM     65  F   UNL     1      -9.932   9.803   2.542  1.00  0.00    -0.200 F 
ENDBRANCH  41  55
BRANCH  42  66
ATOM     66  C   UNL     1       1.045   5.983  10.573  1.00  0.00     0.064 A 
ATOM     67  C   UNL     1       1.124   4.731  11.197  1.00  0.00     0.173 A 
ATOM     68  C   UNL     1       2.098   6.886  10.795  1.00  0.00     0.173 A 
ATOM     69  F   UNL     1       0.131   3.843  11.045  1.00  0.00    -0.203 F 
ATOM     70  C   UNL     1       2.204   4.401  12.015  1.00  0.00     0.198 A 
ATOM     71  C   UNL     1       3.197   6.539  11.576  1.00  0.00     0.198 A 
ATOM     72  F   UNL     1       2.072   8.102  10.230  1.00  0.00    -0.203 F 
ATOM     73  F   UNL     1       2.228   3.217  12.643  1.00  0.00    -0.200 F 
ATOM     74  C   UNL     1       3.244   5.300  12.194  1.00  0.00     0.200 A 
ATOM     75  F   UNL     1       4.209   7.404  11.725  1.00  0.00    -0.200 F 
ATOM     76  F   UNL     1       4.288   4.977  12.969  1.00  0.00    -0.200 F 
ENDBRANCH  42  66
BRANCH  54  77
ATOM     77  C   UNL     1      -5.699   7.120  11.868  1.00  0.00     0.064 A 
ATOM     78  C   UNL     1      -5.550   8.044  12.912  1.00  0.00     0.173 A 
ATOM     79  C   UNL     1      -6.656   6.105  12.019  1.00  0.00     0.173 A 
ATOM     80  F   UNL     1      -4.634   9.021  12.825  1.00  0.00    -0.203 F 
ATOM     81  C   UNL     1      -6.308   7.937  14.075  1.00  0.00     0.198 A 
ATOM     82  C   UNL     1      -7.436   6.021  13.169  1.00  0.00     0.198 A 
ATOM     83  F   UNL     1      -6.841   5.198  11.049  1.00  0.00    -0.203 F 
ATOM     84  F   UNL     1      -6.108   8.795  15.085  1.00  0.00    -0.200 F 
ATOM     85  C   UNL     1      -7.255   6.931  14.200  1.00  0.00     0.200 A 
ATOM     86  F   UNL     1      -8.360   5.057  13.281  1.00  0.00    -0.200 F 
ATOM     87  F   UNL     1      -7.986   6.832  15.318  1.00  0.00    -0.200 F 
ENDBRANCH  54  77
ENDBRANCH  28  29
ENDBRANCH  21  23
ENDBRANCH  20  21
ENDBRANCH   1  20
TORSDOF 12
