REMARK SMILES Cc1nc(S[C@@H](C(=O)OCCOC(=O)c2ccc(-c3c4nc(c(-c5c(F)c(F)c(F)c(F)c5F)c5ccc([nH]5)c(-c5c(F)c(F)c(F)c(F)c5F)c5nc(c(-c6c(F)c(F)c(F)c(F)c6F)c6ccc3[nH]6)C=C5)C=C4)cc2)c2ccccc2)nc2ccccc12
REMARK SMILES IDX 10 1 9 2 7 3 8 4 6 5 5 6 4 7 1 8 2 9 3 10 90 11 85 12 89 13
REMARK SMILES IDX 84 14 86 15 88 16 87 17 78 18 79 19 83 20 80 21 82 22 81 23
REMARK SMILES IDX 11 24 12 25 13 26 14 27 15 28 16 29 77 30 17 31 76 32 18 33
REMARK SMILES IDX 19 34 20 35 70 36 21 37 75 38 69 39 71 40 22 41 74 42 68 43
REMARK SMILES IDX 67 44 23 46 55 47 35 48 54 49 36 50 39 51 53 52 72 53 37 54
REMARK SMILES IDX 38 55 52 57 73 58 40 59 24 60 25 61 33 62 26 63 27 64 31 65
REMARK SMILES IDX 34 66 28 67 29 68 32 69 30 70 56 71 57 72 65 73 58 74 59 75
REMARK SMILES IDX 63 76 66 77 60 78 61 79 64 80 62 81 41 82 42 83 50 84 43 85
REMARK SMILES IDX 44 86 48 87 51 88 45 89 46 90 49 91 47 92
REMARK H PARENT 71 45 39 56
REMARK Flexibility Score: inf
ROOT
ATOM      1  C   UNL     1      -0.628  -0.030   5.522  1.00  0.00     0.274 C 
ENDROOT
BRANCH   1   2
ATOM      2  O   UNL     1      -1.221  -0.989   4.618  1.00  0.00    -0.461 OA
BRANCH   2   3
ATOM      3  C   UNL     1      -2.274  -0.531   3.879  1.00  0.00     0.324 C 
ATOM      4  O   UNL     1      -2.661   0.634   3.956  1.00  0.00    -0.251 OA
BRANCH   3   5
ATOM      5  C   UNL     1      -3.033  -1.622   3.099  1.00  0.00     0.194 C 
BRANCH   5   6
ATOM      6  S   UNL     1      -2.157  -3.222   3.007  1.00  0.00    -0.066 SA
BRANCH   6   7
ATOM      7  C   UNL     1      -0.877  -3.036   1.789  1.00  0.00     0.189 A 
ATOM      8  C   UNL     1       0.520  -0.659  -0.618  1.00  0.00     0.067 C 
ATOM      9  C   UNL     1       0.310  -1.922   0.171  1.00  0.00     0.050 A 
ATOM     10  N   UNL     1      -0.645  -1.884   1.147  1.00  0.00    -0.227 NA
ATOM     11  C   UNL     1       1.063  -3.068  -0.137  1.00  0.00     0.022 A 
ATOM     12  C   UNL     1       0.696  -4.208   0.576  1.00  0.00     0.075 A 
ATOM     13  C   UNL     1       2.112  -3.151  -1.093  1.00  0.00     0.012 A 
ATOM     14  N   UNL     1      -0.253  -4.196   1.514  1.00  0.00    -0.222 NA
ATOM     15  C   UNL     1       1.331  -5.410   0.283  1.00  0.00     0.029 A 
ATOM     16  C   UNL     1       2.746  -4.363  -1.359  1.00  0.00     0.001 A 
ATOM     17  C   UNL     1       2.343  -5.500  -0.677  1.00  0.00     0.002 A 
ENDBRANCH   6   7
ENDBRANCH   5   6
BRANCH   5  18
ATOM     18  C   UNL     1      -3.828  -1.145   1.869  1.00  0.00    -0.023 A 
ATOM     19  C   UNL     1      -3.833  -1.809   0.631  1.00  0.00     0.005 A 
ATOM     20  C   UNL     1      -4.665  -0.012   1.978  1.00  0.00     0.005 A 
ATOM     21  C   UNL     1      -4.572  -1.325  -0.457  1.00  0.00     0.000 A 
ATOM     22  C   UNL     1      -5.397   0.478   0.892  1.00  0.00     0.000 A 
ATOM     23  C   UNL     1      -5.342  -0.175  -0.331  1.00  0.00     0.000 A 
ENDBRANCH   5  18
ENDBRANCH   3   5
ENDBRANCH   2   3
ENDBRANCH   1   2
BRANCH   1  24
ATOM     24  C   UNL     1       0.531   0.718   4.867  1.00  0.00     0.275 C 
BRANCH  24  25
ATOM     25  O   UNL     1       0.043   1.473   3.746  1.00  0.00    -0.458 OA
BRANCH  25  26
ATOM     26  C   UNL     1       0.714   1.321   2.587  1.00  0.00     0.338 C 
ATOM     27  O   UNL     1       1.764   0.721   2.402  1.00  0.00    -0.246 OA
BRANCH  26  28
ATOM     28  C   UNL     1      -0.005   2.032   1.516  1.00  0.00     0.060 A 
ATOM     29  C   UNL     1       0.645   3.030   0.791  1.00  0.00     0.016 A 
ATOM     30  C   UNL     1      -1.283   1.615   1.141  1.00  0.00     0.016 A 
ATOM     31  C   UNL     1       0.000   3.624  -0.299  1.00  0.00     0.010 A 
ATOM     32  C   UNL     1      -1.916   2.183   0.039  1.00  0.00     0.010 A 
ATOM     33  C   UNL     1      -1.282   3.199  -0.681  1.00  0.00    -0.014 A 
BRANCH  33  34
ATOM     34  C   UNL     1      -1.996   3.833  -1.810  1.00  0.00     0.031 A 
ATOM     35  C   UNL     1      -2.999   4.911  -1.531  1.00  0.00     0.074 A 
ATOM     36  C   UNL     1      -1.810   3.392  -3.067  1.00  0.00     0.049 A 
ATOM     37  N   UNL     1      -3.654   5.666  -2.374  1.00  0.00    -0.248 NA
ATOM     38  C   UNL     1      -3.320   5.162  -0.117  1.00  0.00     0.031 C 
ATOM     39  C   UNL     1      -0.953   2.273  -3.456  1.00  0.00     0.029 A 
ATOM     40  N   UNL     1      -2.360   3.821  -4.250  1.00  0.00    -0.354 N 
ATOM     41  C   UNL     1      -4.434   6.506  -1.594  1.00  0.00     0.074 A 
ATOM     42  C   UNL     1      -4.226   6.126  -0.214  1.00  0.00     0.031 C 
ATOM     43  C   UNL     1      -1.048   2.091  -4.785  1.00  0.00     0.029 A 
ATOM     44  C   UNL     1      -1.952   3.096  -5.341  1.00  0.00     0.049 A 
ATOM     45  H   UNL     1      -2.986   4.578  -4.309  1.00  0.00     0.167 HD
ATOM     46  C   UNL     1      -5.229   7.524  -1.997  1.00  0.00     0.037 A 
ATOM     47  C   UNL     1      -2.262   3.244  -6.644  1.00  0.00     0.037 A 
ATOM     48  C   UNL     1      -5.453   7.882  -3.371  1.00  0.00     0.049 A 
ATOM     49  C   UNL     1      -3.128   4.399  -7.072  1.00  0.00     0.074 A 
ATOM     50  C   UNL     1      -6.182   8.942  -3.880  1.00  0.00     0.029 A 
ATOM     51  N   UNL     1      -4.966   7.171  -4.457  1.00  0.00    -0.354 N 
ATOM     52  N   UNL     1      -3.726   5.302  -6.334  1.00  0.00    -0.248 NA
ATOM     53  C   UNL     1      -3.329   4.580  -8.517  1.00  0.00     0.031 C 
ATOM     54  C   UNL     1      -6.167   8.852  -5.275  1.00  0.00     0.029 A 
ATOM     55  C   UNL     1      -5.393   7.761  -5.635  1.00  0.00     0.049 A 
ATOM     56  H   UNL     1      -4.401   6.367  -4.399  1.00  0.00     0.167 HD
ATOM     57  C   UNL     1      -4.334   6.180  -7.222  1.00  0.00     0.074 A 
ATOM     58  C   UNL     1      -4.035   5.702  -8.555  1.00  0.00     0.031 C 
ATOM     59  C   UNL     1      -5.066   7.288  -6.954  1.00  0.00     0.037 A 
BRANCH  46  60
ATOM     60  C   UNL     1      -5.883   8.355  -0.938  1.00  0.00     0.064 A 
ATOM     61  C   UNL     1      -5.136   9.268  -0.178  1.00  0.00     0.173 A 
ATOM     62  C   UNL     1      -7.269   8.305  -0.736  1.00  0.00     0.173 A 
ATOM     63  F   UNL     1      -3.805   9.345  -0.332  1.00  0.00    -0.203 F 
ATOM     64  C   UNL     1      -5.754  10.099   0.751  1.00  0.00     0.198 A 
ATOM     65  C   UNL     1      -7.886   9.153   0.180  1.00  0.00     0.198 A 
ATOM     66  F   UNL     1      -8.025   7.450  -1.440  1.00  0.00    -0.203 F 
ATOM     67  F   UNL     1      -5.019  10.951   1.478  1.00  0.00    -0.200 F 
ATOM     68  C   UNL     1      -7.129  10.048   0.922  1.00  0.00     0.200 A 
ATOM     69  F   UNL     1      -9.216   9.111   0.338  1.00  0.00    -0.200 F 
ATOM     70  F   UNL     1      -7.725  10.863   1.802  1.00  0.00    -0.200 F 
ENDBRANCH  46  60
BRANCH  47  71
ATOM     71  C   UNL     1      -1.688   2.318  -7.651  1.00  0.00     0.064 A 
ATOM     72  C   UNL     1      -0.654   2.733  -8.501  1.00  0.00     0.173 A 
ATOM     73  C   UNL     1      -2.170   1.010  -7.795  1.00  0.00     0.173 A 
ATOM     74  F   UNL     1      -0.176   3.983  -8.412  1.00  0.00    -0.203 F 
ATOM     75  C   UNL     1      -0.139   1.881  -9.475  1.00  0.00     0.198 A 
ATOM     76  C   UNL     1      -1.640   0.152  -8.757  1.00  0.00     0.198 A 
ATOM     77  F   UNL     1      -3.157   0.567  -7.002  1.00  0.00    -0.203 F 
ATOM     78  F   UNL     1       0.820   2.317 -10.304  1.00  0.00    -0.200 F 
ATOM     79  C   UNL     1      -0.630   0.591  -9.601  1.00  0.00     0.200 A 
ATOM     80  F   UNL     1      -2.112  -1.097  -8.871  1.00  0.00    -0.200 F 
ATOM     81  F   UNL     1      -0.137  -0.227 -10.540  1.00  0.00    -0.200 F 
ENDBRANCH  47  71
BRANCH  59  82
ATOM     82  C   UNL     1      -5.557   8.096  -8.118  1.00  0.00     0.064 A 
ATOM     83  C   UNL     1      -6.618   7.659  -8.923  1.00  0.00     0.173 A 
ATOM     84  C   UNL     1      -5.000   9.356  -8.387  1.00  0.00     0.173 A 
ATOM     85  F   UNL     1      -7.175   6.458  -8.712  1.00  0.00    -0.203 F 
ATOM     86  C   UNL     1      -7.092   8.448  -9.969  1.00  0.00     0.198 A 
ATOM     87  C   UNL     1      -5.493  10.152  -9.416  1.00  0.00     0.198 A 
ATOM     88  F   UNL     1      -3.988   9.822  -7.639  1.00  0.00    -0.203 F 
ATOM     89  F   UNL     1      -8.084   7.997 -10.748  1.00  0.00    -0.200 F 
ATOM     90  C   UNL     1      -6.535   9.696 -10.209  1.00  0.00     0.200 A 
ATOM     91  F   UNL     1      -4.963  11.362  -9.639  1.00  0.00    -0.200 F 
ATOM     92  F   UNL     1      -7.001  10.457 -11.208  1.00  0.00    -0.200 F 
ENDBRANCH  59  82
ENDBRANCH  33  34
ENDBRANCH  26  28
ENDBRANCH  25  26
ENDBRANCH  24  25
ENDBRANCH   1  24
TORSDOF 14
