REMARK SMILES CC[C@H](C(=O)OCCOC(=O)c1ccc(-c2c3nc(c(-c4c(F)c(F)c(F)c(F)c4F)c4ccc([nH]4)c(-c4c(F)c(F)c(F)c(F)c4F)c4nc(c(-c5c(F)c(F)c(F)c(F)c5F)c5ccc2[nH]5)C=C4)C=C3)cc1)[N@H+](C)[C@H]1CC[C@H]([NH3+])CC1
REMARK SMILES IDX 7 1 6 2 4 3 5 4 3 5 2 6 1 7 75 8 76 9 77 11 78 12 83 13
REMARK SMILES IDX 79 14 82 15 80 16 81 17 8 21 9 22 10 23 11 24 12 25 13 26
REMARK SMILES IDX 74 27 14 28 73 29 15 30 16 31 17 32 67 33 18 34 72 35 66 36
REMARK SMILES IDX 68 37 19 38 71 39 65 40 64 41 20 43 52 44 32 45 51 46 33 47
REMARK SMILES IDX 36 48 50 49 69 50 34 51 35 52 49 54 70 55 37 56 21 57 22 58
REMARK SMILES IDX 30 59 23 60 24 61 28 62 31 63 25 64 26 65 29 66 27 67 53 68
REMARK SMILES IDX 54 69 62 70 55 71 56 72 60 73 63 74 57 75 58 76 61 77 59 78
REMARK SMILES IDX 38 79 39 80 47 81 40 82 41 83 45 84 48 85 42 86 43 87 46 88
REMARK SMILES IDX 44 89
REMARK H PARENT 75 10 81 18 81 19 81 20 68 42 36 53
REMARK Flexibility Score: inf
ROOT
ATOM      1  C   UNL     1       0.839   1.003   1.197  1.00  0.00     0.274 C 
ENDROOT
BRANCH   1   2
ATOM      2  O   UNL     1       1.219   0.782  -0.179  1.00  0.00    -0.458 OA
BRANCH   2   3
ATOM      3  C   UNL     1       0.197   0.747  -1.089  1.00  0.00     0.365 C 
ATOM      4  O   UNL     1      -0.980   0.941  -0.809  1.00  0.00    -0.245 OA
BRANCH   3   5
ATOM      5  C   UNL     1       0.728   0.343  -2.493  1.00  0.00     0.294 C 
BRANCH   5   6
ATOM      6  C   UNL     1       0.448  -1.168  -2.684  1.00  0.00     0.074 C 
ATOM      7  C   UNL     1      -1.002  -1.632  -2.767  1.00  0.00     0.011 C 
ENDBRANCH   5   6
BRANCH   5   8
ATOM      8  N   UNL     1       0.303   1.333  -3.527  1.00  0.00    -0.323 N 
ATOM      9  C   UNL     1      -1.093   1.231  -3.943  1.00  0.00     0.333 C 
ATOM     10  H   UNL     1       0.340   2.215  -3.016  1.00  0.00     0.348 HD
BRANCH   8  11
ATOM     11  C   UNL     1       1.264   1.541  -4.643  1.00  0.00     0.184 C 
ATOM     12  C   UNL     1       0.989   2.888  -5.368  1.00  0.00     0.071 C 
ATOM     13  C   UNL     1       1.376   0.340  -5.605  1.00  0.00     0.071 C 
ATOM     14  C   UNL     1       1.783   3.078  -6.660  1.00  0.00     0.071 C 
ATOM     15  C   UNL     1       2.121   0.630  -6.907  1.00  0.00     0.071 C 
ATOM     16  C   UNL     1       1.568   1.880  -7.585  1.00  0.00     0.181 C 
BRANCH  16  17
ATOM     17  N   UNL     1       2.219   2.078  -8.875  1.00  0.00    -0.355 N 
ATOM     18  H   UNL     1       3.224   2.188  -8.736  1.00  0.00     0.344 HD
ATOM     19  H   UNL     1       1.844   2.916  -9.320  1.00  0.00     0.344 HD
ATOM     20  H   UNL     1       2.045   1.269  -9.472  1.00  0.00     0.344 HD
ENDBRANCH  16  17
ENDBRANCH   8  11
ENDBRANCH   5   8
ENDBRANCH   3   5
ENDBRANCH   2   3
ENDBRANCH   1   2
BRANCH   1  21
ATOM     21  C   UNL     1       0.966   2.476   1.584  1.00  0.00     0.275 C 
BRANCH  21  22
ATOM     22  O   UNL     1      -0.002   3.231   0.843  1.00  0.00    -0.458 OA
BRANCH  22  23
ATOM     23  C   UNL     1       0.404   4.423   0.352  1.00  0.00     0.338 C 
ATOM     24  O   UNL     1       1.444   5.014   0.570  1.00  0.00    -0.246 OA
BRANCH  23  25
ATOM     25  C   UNL     1      -0.650   4.896  -0.559  1.00  0.00     0.060 A 
ATOM     26  C   UNL     1      -0.896   4.169  -1.722  1.00  0.00     0.016 A 
ATOM     27  C   UNL     1      -1.374   6.055  -0.283  1.00  0.00     0.016 A 
ATOM     28  C   UNL     1      -1.888   4.577  -2.604  1.00  0.00     0.010 A 
ATOM     29  C   UNL     1      -2.388   6.454  -1.163  1.00  0.00     0.010 A 
ATOM     30  C   UNL     1      -2.654   5.711  -2.326  1.00  0.00    -0.014 A 
BRANCH  30  31
ATOM     31  C   UNL     1      -3.671   6.145  -3.312  1.00  0.00     0.031 A 
ATOM     32  C   UNL     1      -3.385   7.328  -4.184  1.00  0.00     0.074 A 
ATOM     33  C   UNL     1      -4.794   5.429  -3.504  1.00  0.00     0.049 A 
ATOM     34  N   UNL     1      -4.179   7.966  -5.003  1.00  0.00    -0.248 NA
ATOM     35  C   UNL     1      -2.010   7.849  -4.143  1.00  0.00     0.031 C 
ATOM     36  C   UNL     1      -5.117   4.168  -2.838  1.00  0.00     0.029 A 
ATOM     37  N   UNL     1      -5.864   5.653  -4.335  1.00  0.00    -0.354 N 
ATOM     38  C   UNL     1      -3.413   8.985  -5.549  1.00  0.00     0.074 A 
ATOM     39  C   UNL     1      -2.087   8.874  -4.980  1.00  0.00     0.031 C 
ATOM     40  C   UNL     1      -6.298   3.721  -3.298  1.00  0.00     0.029 A 
ATOM     41  C   UNL     1      -6.852   4.706  -4.224  1.00  0.00     0.049 A 
ATOM     42  H   UNL     1      -5.918   6.419  -4.951  1.00  0.00     0.167 HD
ATOM     43  C   UNL     1      -3.793   9.934  -6.436  1.00  0.00     0.037 A 
ATOM     44  C   UNL     1      -8.086   4.670  -4.765  1.00  0.00     0.037 A 
ATOM     45  C   UNL     1      -5.109  10.027  -7.008  1.00  0.00     0.049 A 
ATOM     46  C   UNL     1      -8.541   5.823  -5.619  1.00  0.00     0.074 A 
ATOM     47  C   UNL     1      -5.609  10.973  -7.884  1.00  0.00     0.029 A 
ATOM     48  N   UNL     1      -6.137   9.129  -6.759  1.00  0.00    -0.354 N 
ATOM     49  N   UNL     1      -7.856   6.854  -6.050  1.00  0.00    -0.248 NA
ATOM     50  C   UNL     1      -9.954   5.830  -6.025  1.00  0.00     0.031 C 
ATOM     51  C   UNL     1      -6.953  10.672  -8.132  1.00  0.00     0.029 A 
ATOM     52  C   UNL     1      -7.279   9.516  -7.439  1.00  0.00     0.049 A 
ATOM     53  H   UNL     1      -6.064   8.333  -6.184  1.00  0.00     0.167 HD
ATOM     54  C   UNL     1      -8.751   7.635  -6.768  1.00  0.00     0.074 A 
ATOM     55  C   UNL     1     -10.024   6.944  -6.741  1.00  0.00     0.031 C 
ATOM     56  C   UNL     1      -8.541   8.824  -7.385  1.00  0.00     0.037 A 
BRANCH  43  57
ATOM     57  C   UNL     1      -2.787  10.989  -6.777  1.00  0.00     0.064 A 
ATOM     58  C   UNL     1      -1.706  10.737  -7.632  1.00  0.00     0.173 A 
ATOM     59  C   UNL     1      -2.914  12.277  -6.235  1.00  0.00     0.173 A 
ATOM     60  F   UNL     1      -1.530   9.514  -8.156  1.00  0.00    -0.203 F 
ATOM     61  C   UNL     1      -0.773  11.732  -7.915  1.00  0.00     0.198 A 
ATOM     62  C   UNL     1      -1.994  13.275  -6.538  1.00  0.00     0.198 A 
ATOM     63  F   UNL     1      -3.931  12.565  -5.409  1.00  0.00    -0.203 F 
ATOM     64  F   UNL     1       0.279  11.459  -8.699  1.00  0.00    -0.200 F 
ATOM     65  C   UNL     1      -0.921  13.001  -7.372  1.00  0.00     0.200 A 
ATOM     66  F   UNL     1      -2.140  14.501  -6.016  1.00  0.00    -0.200 F 
ATOM     67  F   UNL     1      -0.021  13.956  -7.644  1.00  0.00    -0.200 F 
ENDBRANCH  43  57
BRANCH  44  68
ATOM     68  C   UNL     1      -9.011   3.551  -4.442  1.00  0.00     0.064 A 
ATOM     69  C   UNL     1      -9.432   2.651  -5.430  1.00  0.00     0.173 A 
ATOM     70  C   UNL     1      -9.506   3.370  -3.141  1.00  0.00     0.173 A 
ATOM     71  F   UNL     1      -9.017   2.804  -6.696  1.00  0.00    -0.203 F 
ATOM     72  C   UNL     1     -10.313   1.613  -5.128  1.00  0.00     0.198 A 
ATOM     73  C   UNL     1     -10.363   2.316  -2.835  1.00  0.00     0.198 A 
ATOM     74  F   UNL     1      -9.150   4.215  -2.162  1.00  0.00    -0.203 F 
ATOM     75  F   UNL     1     -10.732   0.789  -6.099  1.00  0.00    -0.200 F 
ATOM     76  C   UNL     1     -10.770   1.441  -3.830  1.00  0.00     0.200 A 
ATOM     77  F   UNL     1     -10.796   2.151  -1.578  1.00  0.00    -0.200 F 
ATOM     78  F   UNL     1     -11.612   0.439  -3.540  1.00  0.00    -0.200 F 
ENDBRANCH  44  68
BRANCH  56  79
ATOM     79  C   UNL     1      -9.713   9.459  -8.069  1.00  0.00     0.064 A 
ATOM     80  C   UNL     1     -10.724  10.095  -7.333  1.00  0.00     0.173 A 
ATOM     81  C   UNL     1      -9.800   9.482  -9.468  1.00  0.00     0.173 A 
ATOM     82  F   UNL     1     -10.692  10.083  -5.992  1.00  0.00    -0.203 F 
ATOM     83  C   UNL     1     -11.787  10.723  -7.976  1.00  0.00     0.198 A 
ATOM     84  C   UNL     1     -10.853  10.131 -10.108  1.00  0.00     0.198 A 
ATOM     85  F   UNL     1      -8.855   8.891 -10.214  1.00  0.00    -0.203 F 
ATOM     86  F   UNL     1     -12.759  11.298  -7.255  1.00  0.00    -0.200 F 
ATOM     87  C   UNL     1     -11.847  10.747  -9.362  1.00  0.00     0.200 A 
ATOM     88  F   UNL     1     -10.904  10.162 -11.447  1.00  0.00    -0.200 F 
ATOM     89  F   UNL     1     -12.866  11.361  -9.979  1.00  0.00    -0.200 F 
ENDBRANCH  56  79
ENDBRANCH  30  31
ENDBRANCH  23  25
ENDBRANCH  22  23
ENDBRANCH  21  22
ENDBRANCH   1  21
TORSDOF 15
