REMARK SMILES O=C(OCCOC(=O)[C@H]1CC[C@@H](CNc2ncccn2)O1)c1ccc(-c2c3nc(c(-c4c(F)c(F)c(F)c(F)c4F)c4ccc([nH]4)c(-c4c(F)c(F)c(F)c(F)c4F)c4nc(c(-c5c(F)c(F)c(F)c(F)c5F)c5ccc2[nH]5)C=C4)C=C3)cc1
REMARK SMILES IDX 5 1 4 2 3 3 2 4 1 5 22 6 23 7 84 8 24 9 83 10 25 11 26 12
REMARK SMILES IDX 27 13 77 14 28 15 82 16 76 17 78 18 29 19 81 20 75 21 74 22
REMARK SMILES IDX 30 24 62 25 42 26 61 27 43 28 46 29 60 30 79 31 44 32 45 33
REMARK SMILES IDX 59 35 80 36 47 37 31 38 32 39 40 40 33 41 34 42 38 43 41 44
REMARK SMILES IDX 35 45 36 46 39 47 37 48 63 49 64 50 72 51 65 52 66 53 70 54
REMARK SMILES IDX 73 55 67 56 68 57 71 58 69 59 48 60 49 61 57 62 50 63 51 64
REMARK SMILES IDX 55 65 58 66 52 67 53 68 56 69 54 70 6 71 7 72 8 73 9 74
REMARK SMILES IDX 10 75 21 76 11 77 12 78 13 79 14 80 15 82 16 83 20 84 17 85
REMARK SMILES IDX 19 86 18 87
REMARK H PARENT 78 23 46 34 14 81
REMARK Flexibility Score: inf
ROOT
ATOM      1  C   UNL     1      -0.775  -1.730  -4.226  1.00  0.00     0.274 C 
ENDROOT
BRANCH   1   2
ATOM      2  C   UNL     1      -1.559  -1.587  -2.918  1.00  0.00     0.275 C 
BRANCH   2   3
ATOM      3  O   UNL     1      -1.355  -0.313  -2.276  1.00  0.00    -0.458 OA
BRANCH   3   4
ATOM      4  C   UNL     1      -0.580  -0.026  -1.200  1.00  0.00     0.338 C 
ATOM      5  O   UNL     1      -0.887   0.915  -0.472  1.00  0.00    -0.246 OA
BRANCH   4   6
ATOM      6  C   UNL     1       0.752  -0.674  -0.977  1.00  0.00     0.060 A 
ATOM      7  C   UNL     1       1.073  -2.008  -1.249  1.00  0.00     0.016 A 
ATOM      8  C   UNL     1       1.770   0.157  -0.468  1.00  0.00     0.016 A 
ATOM      9  C   UNL     1       2.384  -2.479  -1.119  1.00  0.00     0.010 A 
ATOM     10  C   UNL     1       3.080  -0.311  -0.318  1.00  0.00     0.010 A 
ATOM     11  C   UNL     1       3.393  -1.633  -0.657  1.00  0.00    -0.014 A 
BRANCH  11  12
ATOM     12  C   UNL     1       4.720  -2.195  -0.336  1.00  0.00     0.031 A 
ATOM     13  C   UNL     1       4.952  -2.629   1.075  1.00  0.00     0.074 A 
ATOM     14  C   UNL     1       5.674  -2.338  -1.272  1.00  0.00     0.049 A 
ATOM     15  N   UNL     1       6.019  -3.143   1.622  1.00  0.00    -0.248 NA
ATOM     16  C   UNL     1       3.811  -2.473   1.992  1.00  0.00     0.031 C 
ATOM     17  C   UNL     1       5.518  -2.020  -2.687  1.00  0.00     0.029 A 
ATOM     18  N   UNL     1       6.972  -2.771  -1.170  1.00  0.00    -0.354 N 
ATOM     19  C   UNL     1       5.673  -3.383   2.943  1.00  0.00     0.074 A 
ATOM     20  C   UNL     1       4.318  -2.917   3.128  1.00  0.00     0.031 C 
ATOM     21  C   UNL     1       6.693  -2.206  -3.314  1.00  0.00     0.029 A 
ATOM     22  C   UNL     1       7.683  -2.656  -2.340  1.00  0.00     0.049 A 
ATOM     23  H   UNL     1       7.357  -3.130  -0.338  1.00  0.00     0.167 HD
ATOM     24  C   UNL     1       6.423  -3.953   3.912  1.00  0.00     0.037 A 
ATOM     25  C   UNL     1       8.991  -2.873  -2.582  1.00  0.00     0.037 A 
ATOM     26  C   UNL     1       7.786  -4.360   3.719  1.00  0.00     0.049 A 
ATOM     27  C   UNL     1       9.848  -3.400  -1.459  1.00  0.00     0.074 A 
ATOM     28  C   UNL     1       8.655  -4.931   4.627  1.00  0.00     0.029 A 
ATOM     29  N   UNL     1       8.486  -4.204   2.528  1.00  0.00    -0.354 N 
ATOM     30  N   UNL     1       9.507  -3.673  -0.222  1.00  0.00    -0.248 NA
ATOM     31  C   UNL     1      11.260  -3.670  -1.763  1.00  0.00     0.031 C 
ATOM     32  C   UNL     1       9.902  -5.057   4.006  1.00  0.00     0.029 A 
ATOM     33  C   UNL     1       9.791  -4.633   2.689  1.00  0.00     0.049 A 
ATOM     34  H   UNL     1       8.110  -3.841   1.694  1.00  0.00     0.167 HD
ATOM     35  C   UNL     1      10.645  -4.181   0.390  1.00  0.00     0.074 A 
ATOM     36  C   UNL     1      11.691  -4.174  -0.614  1.00  0.00     0.031 C 
ATOM     37  C   UNL     1      10.806  -4.624   1.662  1.00  0.00     0.037 A 
BRANCH  24  38
ATOM     38  C   UNL     1       5.782  -4.086   5.261  1.00  0.00     0.064 A 
ATOM     39  C   UNL     1       4.696  -4.950   5.481  1.00  0.00     0.173 A 
ATOM     40  C   UNL     1       6.202  -3.276   6.325  1.00  0.00     0.173 A 
ATOM     41  F   UNL     1       4.237  -5.726   4.487  1.00  0.00    -0.203 F 
ATOM     42  C   UNL     1       4.018  -4.952   6.698  1.00  0.00     0.198 A 
ATOM     43  C   UNL     1       5.544  -3.307   7.551  1.00  0.00     0.198 A 
ATOM     44  F   UNL     1       7.231  -2.430   6.166  1.00  0.00    -0.203 F 
ATOM     45  F   UNL     1       2.928  -5.715   6.854  1.00  0.00    -0.200 F 
ATOM     46  C   UNL     1       4.443  -4.130   7.731  1.00  0.00     0.200 A 
ATOM     47  F   UNL     1       5.959  -2.516   8.550  1.00  0.00    -0.200 F 
ATOM     48  F   UNL     1       3.777  -4.116   8.894  1.00  0.00    -0.200 F 
ENDBRANCH  24  38
BRANCH  25  49
ATOM     49  C   UNL     1       9.556  -2.587  -3.928  1.00  0.00     0.064 A 
ATOM     50  C   UNL     1       9.986  -3.615  -4.778  1.00  0.00     0.173 A 
ATOM     51  C   UNL     1       9.665  -1.269  -4.399  1.00  0.00     0.173 A 
ATOM     52  F   UNL     1       9.921  -4.891  -4.371  1.00  0.00    -0.203 F 
ATOM     53  C   UNL     1      10.510  -3.337  -6.041  1.00  0.00     0.198 A 
ATOM     54  C   UNL     1      10.168  -0.993  -5.670  1.00  0.00     0.198 A 
ATOM     55  F   UNL     1       9.268  -0.246  -3.629  1.00  0.00    -0.203 F 
ATOM     56  F   UNL     1      10.941  -4.338  -6.821  1.00  0.00    -0.200 F 
ATOM     57  C   UNL     1      10.595  -2.027  -6.488  1.00  0.00     0.200 A 
ATOM     58  F   UNL     1      10.235   0.274  -6.102  1.00  0.00    -0.200 F 
ATOM     59  F   UNL     1      11.089  -1.762  -7.705  1.00  0.00    -0.200 F 
ENDBRANCH  25  49
BRANCH  37  60
ATOM     60  C   UNL     1      12.145  -5.184   2.040  1.00  0.00     0.064 A 
ATOM     61  C   UNL     1      13.257  -4.358   2.253  1.00  0.00     0.173 A 
ATOM     62  C   UNL     1      12.280  -6.556   2.304  1.00  0.00     0.173 A 
ATOM     63  F   UNL     1      13.180  -3.043   2.001  1.00  0.00    -0.203 F 
ATOM     64  C   UNL     1      14.457  -4.887   2.719  1.00  0.00     0.198 A 
ATOM     65  C   UNL     1      13.471  -7.075   2.800  1.00  0.00     0.198 A 
ATOM     66  F   UNL     1      11.241  -7.385   2.121  1.00  0.00    -0.203 F 
ATOM     67  F   UNL     1      15.516  -4.084   2.897  1.00  0.00    -0.200 F 
ATOM     68  C   UNL     1      14.559  -6.241   3.006  1.00  0.00     0.200 A 
ATOM     69  F   UNL     1      13.560  -8.379   3.095  1.00  0.00    -0.200 F 
ATOM     70  F   UNL     1      15.706  -6.741   3.485  1.00  0.00    -0.200 F 
ENDBRANCH  37  60
ENDBRANCH  11  12
ENDBRANCH   4   6
ENDBRANCH   3   4
ENDBRANCH   2   3
ENDBRANCH   1   2
BRANCH   1  71
ATOM     71  O   UNL     1       0.604  -1.368  -4.060  1.00  0.00    -0.460 OA
BRANCH  71  72
ATOM     72  C   UNL     1       0.940  -0.105  -4.471  1.00  0.00     0.335 C 
ATOM     73  O   UNL     1       0.241   0.610  -5.170  1.00  0.00    -0.249 OA
BRANCH  72  74
ATOM     74  C   UNL     1       2.294   0.299  -3.868  1.00  0.00     0.228 C 
ATOM     75  C   UNL     1       3.422   0.340  -4.870  1.00  0.00     0.047 C 
ATOM     76  O   UNL     1       2.228   1.603  -3.276  1.00  0.00    -0.361 OA
ATOM     77  C   UNL     1       3.331   1.751  -5.373  1.00  0.00     0.037 C 
ATOM     78  C   UNL     1       2.924   2.534  -4.129  1.00  0.00     0.138 C 
BRANCH  78  79
ATOM     79  C   UNL     1       2.054   3.782  -4.382  1.00  0.00     0.148 C 
BRANCH  79  80
ATOM     80  N   UNL     1       2.516   4.540  -5.535  1.00  0.00    -0.352 N 
ATOM     81  H   UNL     1       3.278   5.160  -5.485  1.00  0.00     0.163 HD
BRANCH  80  82
ATOM     82  C   UNL     1       1.810   4.328  -6.703  1.00  0.00     0.222 A 
ATOM     83  N   UNL     1       2.544   4.003  -7.777  1.00  0.00    -0.222 NA
ATOM     84  N   UNL     1       0.472   4.359  -6.691  1.00  0.00    -0.222 NA
ATOM     85  C   UNL     1       1.866   3.636  -8.881  1.00  0.00     0.117 A 
ATOM     86  C   UNL     1      -0.160   4.013  -7.825  1.00  0.00     0.117 A 
ATOM     87  C   UNL     1       0.496   3.622  -8.964  1.00  0.00     0.040 A 
ENDBRANCH  80  82
ENDBRANCH  79  80
ENDBRANCH  78  79
ENDBRANCH  72  74
ENDBRANCH  71  72
ENDBRANCH   1  71
TORSDOF 14
