REMARK SMILES O=C(C[C@]12CSc3[nH]c(=O)sc3[C@H]1c1cc(Cl)ccc1OC2=O)OCCOC(=O)c1ccc(-c2c3nc(c(-c4c(F)c(F)c(F)c(F)c4F)c4ccc([nH]4)c(-c4c(F)c(F)c(F)c(F)c4F)c4nc(c(-c5c(F)c(F)c(F)c(F)c5F)c5ccc2[nH]5)C=C4)C=C3)cc1
REMARK SMILES IDX 26 1 25 2 24 3 2 4 1 5 3 6 4 7 5 8 13 9 22 10 6 11 12 12
REMARK SMILES IDX 14 13 21 14 23 15 7 16 11 17 15 18 20 19 8 20 9 21 16 22
REMARK SMILES IDX 19 23 10 25 17 26 18 27 27 28 28 29 29 30 30 31 31 32 92 33
REMARK SMILES IDX 32 34 91 35 33 36 34 37 35 38 85 39 36 40 90 41 84 42 86 43
REMARK SMILES IDX 37 44 89 45 83 46 82 47 38 49 70 50 50 51 69 52 51 53 54 54
REMARK SMILES IDX 68 55 87 56 52 57 53 58 67 60 88 61 55 62 39 63 40 64 48 65
REMARK SMILES IDX 41 66 42 67 46 68 49 69 43 70 44 71 47 72 45 73 71 74 72 75
REMARK SMILES IDX 80 76 73 77 74 78 78 79 81 80 75 81 76 82 79 83 77 84 56 85
REMARK SMILES IDX 57 86 65 87 58 88 59 89 63 90 66 91 60 92 61 93 64 94 62 95
REMARK H PARENT 8 24 86 48 54 59
REMARK Flexibility Score: inf
ROOT
ATOM      1  C   UNL     1       3.275  -0.379  -2.846  1.00  0.00     0.275 C 
ENDROOT
BRANCH   1   2
ATOM      2  C   UNL     1       4.109  -1.393  -2.045  1.00  0.00     0.274 C 
BRANCH   2   3
ATOM      3  O   UNL     1       3.314  -2.164  -1.114  1.00  0.00    -0.462 OA
BRANCH   3   4
ATOM      4  C   UNL     1       3.227  -1.901   0.212  1.00  0.00     0.307 C 
ATOM      5  O   UNL     1       2.705  -2.707   0.976  1.00  0.00    -0.252 OA
BRANCH   4   6
ATOM      6  C   UNL     1       3.595  -0.523   0.677  1.00  0.00     0.143 C 
BRANCH   6   7
ATOM      7  C   UNL     1       4.644  -0.236   1.783  1.00  0.00     0.100 C 
ATOM      8  C   UNL     1       4.428  -1.151   3.012  1.00  0.00     0.097 C 
ATOM      9  C   UNL     1       4.477   1.317   2.042  1.00  0.00     0.085 C 
ATOM     10  C   UNL     1       6.104  -0.448   1.384  1.00  0.00     0.319 C 
ATOM     11  S   UNL     1       3.078  -0.591   4.073  1.00  0.00    -0.106 SA
ATOM     12  C   UNL     1       4.400   1.714   3.488  1.00  0.00     0.049 A 
ATOM     13  C   UNL     1       5.131   2.126   0.905  1.00  0.00     0.006 A 
ATOM     14  O   UNL     1       6.533   0.218   0.265  1.00  0.00    -0.426 OA
ATOM     15  O   UNL     1       6.891  -1.163   1.993  1.00  0.00    -0.251 OA
ATOM     16  C   UNL     1       3.728   0.955   4.375  1.00  0.00     0.090 A 
ATOM     17  S   UNL     1       4.720   3.280   4.181  1.00  0.00    -0.077 S 
ATOM     18  C   UNL     1       4.586   3.345   0.464  1.00  0.00     0.028 A 
ATOM     19  C   UNL     1       5.997   1.480   0.009  1.00  0.00     0.134 A 
ATOM     20  N   UNL     1       3.482   1.535   5.572  1.00  0.00    -0.307 N 
ATOM     21  C   UNL     1       3.916   2.823   5.710  1.00  0.00     0.305 A 
ATOM     22  C   UNL     1       4.821   3.806  -0.846  1.00  0.00     0.041 A 
ATOM     23  C   UNL     1       6.292   1.968  -1.270  1.00  0.00     0.049 A 
ATOM     24  H   UNL     1       3.018   1.058   6.298  1.00  0.00     0.171 HD
ATOM     25  O   UNL     1       3.788   3.542   6.684  1.00  0.00    -0.257 OA
ATOM     26  Cl  UNL     1       3.936   5.155  -1.447  1.00  0.00    -0.084 Cl
ATOM     27  C   UNL     1       5.666   3.120  -1.716  1.00  0.00     0.024 A 
ENDBRANCH   6   7
ENDBRANCH   4   6
ENDBRANCH   3   4
ENDBRANCH   2   3
ENDBRANCH   1   2
BRANCH   1  28
ATOM     28  O   UNL     1       2.611   0.540  -1.962  1.00  0.00    -0.458 OA
BRANCH  28  29
ATOM     29  C   UNL     1       1.297   0.783  -2.220  1.00  0.00     0.338 C 
ATOM     30  O   UNL     1       0.690   0.533  -3.233  1.00  0.00    -0.246 OA
BRANCH  29  31
ATOM     31  C   UNL     1       0.670   1.143  -0.927  1.00  0.00     0.060 A 
ATOM     32  C   UNL     1       1.247   2.067  -0.056  1.00  0.00     0.016 A 
ATOM     33  C   UNL     1      -0.454   0.418  -0.534  1.00  0.00     0.016 A 
ATOM     34  C   UNL     1       0.784   2.164   1.258  1.00  0.00     0.010 A 
ATOM     35  C   UNL     1      -0.940   0.550   0.765  1.00  0.00     0.010 A 
ATOM     36  C   UNL     1      -0.281   1.363   1.698  1.00  0.00    -0.014 A 
BRANCH  36  37
ATOM     37  C   UNL     1      -0.746   1.481   3.101  1.00  0.00     0.031 A 
ATOM     38  C   UNL     1      -1.026   2.868   3.593  1.00  0.00     0.074 A 
ATOM     39  C   UNL     1      -1.101   0.423   3.871  1.00  0.00     0.049 A 
ATOM     40  N   UNL     1      -0.715   3.398   4.736  1.00  0.00    -0.248 NA
ATOM     41  C   UNL     1      -1.716   3.794   2.676  1.00  0.00     0.031 C 
ATOM     42  C   UNL     1      -1.105  -0.986   3.466  1.00  0.00     0.029 A 
ATOM     43  N   UNL     1      -1.678   0.381   5.122  1.00  0.00    -0.354 N 
ATOM     44  C   UNL     1      -1.308   4.661   4.745  1.00  0.00     0.074 A 
ATOM     45  C   UNL     1      -1.813   4.897   3.419  1.00  0.00     0.031 C 
ATOM     46  C   UNL     1      -1.899  -1.686   4.300  1.00  0.00     0.029 A 
ATOM     47  C   UNL     1      -2.345  -0.814   5.374  1.00  0.00     0.049 A 
ATOM     48  H   UNL     1      -1.625   1.121   5.769  1.00  0.00     0.167 HD
ATOM     49  C   UNL     1      -1.573   5.333   5.897  1.00  0.00     0.037 A 
ATOM     50  C   UNL     1      -3.256  -1.085   6.341  1.00  0.00     0.037 A 
ATOM     51  C   UNL     1      -0.856   4.835   7.031  1.00  0.00     0.049 A 
ATOM     52  C   UNL     1      -3.086  -0.136   7.463  1.00  0.00     0.074 A 
ATOM     53  C   UNL     1       0.324   5.088   7.689  1.00  0.00     0.029 A 
ATOM     54  N   UNL     1      -1.387   3.703   7.571  1.00  0.00    -0.354 N 
ATOM     55  N   UNL     1      -2.065  -0.132   8.272  1.00  0.00    -0.248 NA
ATOM     56  C   UNL     1      -3.998   0.998   7.597  1.00  0.00     0.031 C 
ATOM     57  C   UNL     1       0.513   4.020   8.618  1.00  0.00     0.029 A 
ATOM     58  C   UNL     1      -0.554   3.140   8.496  1.00  0.00     0.049 A 
ATOM     59  H   UNL     1      -2.266   3.335   7.324  1.00  0.00     0.167 HD
ATOM     60  C   UNL     1      -1.991   1.171   8.710  1.00  0.00     0.074 A 
ATOM     61  C   UNL     1      -3.289   1.763   8.429  1.00  0.00     0.031 C 
ATOM     62  C   UNL     1      -0.784   1.775   8.893  1.00  0.00     0.037 A 
BRANCH  49  63
ATOM     63  C   UNL     1      -2.833   6.140   6.117  1.00  0.00     0.064 A 
ATOM     64  C   UNL     1      -2.923   7.019   7.215  1.00  0.00     0.173 A 
ATOM     65  C   UNL     1      -4.055   5.810   5.493  1.00  0.00     0.173 A 
ATOM     66  F   UNL     1      -1.826   7.362   7.907  1.00  0.00    -0.203 F 
ATOM     67  C   UNL     1      -4.155   7.498   7.675  1.00  0.00     0.198 A 
ATOM     68  C   UNL     1      -5.275   6.331   5.921  1.00  0.00     0.198 A 
ATOM     69  F   UNL     1      -4.122   4.883   4.528  1.00  0.00    -0.203 F 
ATOM     70  F   UNL     1      -4.208   8.246   8.786  1.00  0.00    -0.200 F 
ATOM     71  C   UNL     1      -5.328   7.154   7.027  1.00  0.00     0.200 A 
ATOM     72  F   UNL     1      -6.404   5.962   5.300  1.00  0.00    -0.200 F 
ATOM     73  F   UNL     1      -6.512   7.572   7.494  1.00  0.00    -0.200 F 
ENDBRANCH  49  63
BRANCH  50  74
ATOM     74  C   UNL     1      -4.396  -2.038   6.304  1.00  0.00     0.064 A 
ATOM     75  C   UNL     1      -5.050  -2.432   7.485  1.00  0.00     0.173 A 
ATOM     76  C   UNL     1      -5.037  -2.382   5.097  1.00  0.00     0.173 A 
ATOM     77  F   UNL     1      -4.537  -2.113   8.683  1.00  0.00    -0.203 F 
ATOM     78  C   UNL     1      -6.280  -3.097   7.461  1.00  0.00     0.198 A 
ATOM     79  C   UNL     1      -6.255  -3.064   5.074  1.00  0.00     0.198 A 
ATOM     80  F   UNL     1      -4.547  -1.980   3.916  1.00  0.00    -0.203 F 
ATOM     81  F   UNL     1      -6.906  -3.385   8.611  1.00  0.00    -0.200 F 
ATOM     82  C   UNL     1      -6.885  -3.406   6.255  1.00  0.00     0.200 A 
ATOM     83  F   UNL     1      -6.843  -3.332   3.899  1.00  0.00    -0.200 F 
ATOM     84  F   UNL     1      -8.090  -3.991   6.231  1.00  0.00    -0.200 F 
ENDBRANCH  50  74
BRANCH  62  85
ATOM     85  C   UNL     1       0.384   0.924   9.252  1.00  0.00     0.064 A 
ATOM     86  C   UNL     1       0.947  -0.029   8.393  1.00  0.00     0.173 A 
ATOM     87  C   UNL     1       1.007   1.140  10.489  1.00  0.00     0.173 A 
ATOM     88  F   UNL     1       0.464  -0.212   7.156  1.00  0.00    -0.203 F 
ATOM     89  C   UNL     1       2.061  -0.770   8.780  1.00  0.00     0.198 A 
ATOM     90  C   UNL     1       2.142   0.427  10.857  1.00  0.00     0.198 A 
ATOM     91  F   UNL     1       0.532   2.075  11.328  1.00  0.00    -0.203 F 
ATOM     92  F   UNL     1       2.579  -1.683   7.947  1.00  0.00    -0.200 F 
ATOM     93  C   UNL     1       2.661  -0.537  10.008  1.00  0.00     0.200 A 
ATOM     94  F   UNL     1       2.746   0.688  12.025  1.00  0.00    -0.200 F 
ATOM     95  F   UNL     1       3.756  -1.224  10.361  1.00  0.00    -0.200 F 
ENDBRANCH  62  85
ENDBRANCH  36  37
ENDBRANCH  29  31
ENDBRANCH  28  29
ENDBRANCH   1  28
TORSDOF 12
