REMARK SMILES CC[C@@H](Nc1ccn(C)n1)C(=O)OCCOC(=O)c1ccc(-c2c3nc(c(-c4c(F)c(F)c(F)c(F)c4F)c4ccc([nH]4)c(-c4c(F)c(F)c(F)c(F)c4F)c4nc(c(-c5c(F)c(F)c(F)c(F)c5F)c5ccc2[nH]5)C=C4)C=C3)cc1
REMARK SMILES IDX 14 1 13 2 11 3 12 4 3 5 2 6 1 7 4 8 5 10 6 11 10 12 7 13
REMARK SMILES IDX 8 14 9 15 15 16 16 17 17 18 18 19 19 20 20 21 81 22 21 23
REMARK SMILES IDX 80 24 22 25 23 26 24 27 74 28 25 29 79 30 73 31 75 32 26 33
REMARK SMILES IDX 78 34 72 35 71 36 27 38 59 39 39 40 58 41 40 42 43 43 57 44
REMARK SMILES IDX 76 45 41 46 42 47 56 49 77 50 44 51 28 52 29 53 37 54 30 55
REMARK SMILES IDX 31 56 35 57 38 58 32 59 33 60 36 61 34 62 60 63 61 64 69 65
REMARK SMILES IDX 62 66 63 67 67 68 70 69 64 70 65 71 68 72 66 73 45 74 46 75
REMARK SMILES IDX 54 76 47 77 48 78 52 79 55 80 49 81 50 82 53 83 51 84
REMARK H PARENT 4 9 75 37 43 48
REMARK Flexibility Score: inf
ROOT
ATOM      1  C   UNL     1      -1.089  -0.535   5.296  1.00  0.00     0.274 C 
ENDROOT
BRANCH   1   2
ATOM      2  O   UNL     1      -0.784  -0.135   3.947  1.00  0.00    -0.461 OA
BRANCH   2   3
ATOM      3  C   UNL     1       0.384   0.546   3.781  1.00  0.00     0.328 C 
ATOM      4  O   UNL     1       1.189   0.767   4.683  1.00  0.00    -0.250 OA
BRANCH   3   5
ATOM      5  C   UNL     1       0.593   1.045   2.340  1.00  0.00     0.191 C 
BRANCH   5   6
ATOM      6  C   UNL     1       0.240  -0.061   1.327  1.00  0.00     0.033 C 
ATOM      7  C   UNL     1       0.916   0.136  -0.024  1.00  0.00     0.007 C 
ENDBRANCH   5   6
BRANCH   5   8
ATOM      8  N   UNL     1      -0.154   2.259   2.006  1.00  0.00    -0.356 N 
ATOM      9  H   UNL     1      -0.269   2.464   1.050  1.00  0.00     0.163 HD
BRANCH   8  10
ATOM     10  C   UNL     1      -0.698   3.119   2.882  1.00  0.00     0.148 A 
ATOM     11  C   UNL     1      -0.191   3.512   4.139  1.00  0.00     0.068 A 
ATOM     12  N   UNL     1      -1.852   3.721   2.612  1.00  0.00    -0.156 NA
ATOM     13  C   UNL     1      -1.165   4.320   4.680  1.00  0.00     0.110 A 
ATOM     14  N   UNL     1      -2.140   4.396   3.734  1.00  0.00    -0.274 N 
ATOM     15  C   UNL     1      -3.407   5.075   3.835  1.00  0.00     0.173 C 
ENDBRANCH   8  10
ENDBRANCH   5   8
ENDBRANCH   3   5
ENDBRANCH   2   3
ENDBRANCH   1   2
BRANCH   1  16
ATOM     16  C   UNL     1      -0.592  -1.949   5.622  1.00  0.00     0.275 C 
BRANCH  16  17
ATOM     17  O   UNL     1       0.845  -2.013   5.699  1.00  0.00    -0.458 OA
BRANCH  17  18
ATOM     18  C   UNL     1       1.464  -2.372   4.551  1.00  0.00     0.338 C 
ATOM     19  O   UNL     1       0.939  -2.718   3.507  1.00  0.00    -0.246 OA
BRANCH  18  20
ATOM     20  C   UNL     1       2.913  -2.134   4.663  1.00  0.00     0.060 A 
ATOM     21  C   UNL     1       3.506  -1.276   3.730  1.00  0.00     0.016 A 
ATOM     22  C   UNL     1       3.691  -2.793   5.615  1.00  0.00     0.016 A 
ATOM     23  C   UNL     1       4.881  -1.067   3.746  1.00  0.00     0.010 A 
ATOM     24  C   UNL     1       5.076  -2.598   5.619  1.00  0.00     0.010 A 
ATOM     25  C   UNL     1       5.676  -1.743   4.678  1.00  0.00    -0.014 A 
BRANCH  25  26
ATOM     26  C   UNL     1       7.149  -1.619   4.599  1.00  0.00     0.031 A 
ATOM     27  C   UNL     1       7.943  -2.704   3.935  1.00  0.00     0.074 A 
ATOM     28  C   UNL     1       7.762  -0.526   5.085  1.00  0.00     0.049 A 
ATOM     29  N   UNL     1       9.240  -2.832   3.820  1.00  0.00    -0.248 NA
ATOM     30  C   UNL     1       7.170  -3.791   3.314  1.00  0.00     0.031 C 
ATOM     31  C   UNL     1       7.087   0.619   5.694  1.00  0.00     0.029 A 
ATOM     32  N   UNL     1       9.094  -0.203   5.145  1.00  0.00    -0.354 N 
ATOM     33  C   UNL     1       9.440  -4.017   3.125  1.00  0.00     0.074 A 
ATOM     34  C   UNL     1       8.133  -4.580   2.858  1.00  0.00     0.031 C 
ATOM     35  C   UNL     1       8.010   1.515   6.079  1.00  0.00     0.029 A 
ATOM     36  C   UNL     1       9.340   0.989   5.779  1.00  0.00     0.049 A 
ATOM     37  H   UNL     1       9.805  -0.772   4.770  1.00  0.00     0.167 HD
ATOM     38  C   UNL     1      10.611  -4.580   2.744  1.00  0.00     0.037 A 
ATOM     39  C   UNL     1      10.509   1.572   6.105  1.00  0.00     0.037 A 
ATOM     40  C   UNL     1      11.906  -4.014   3.011  1.00  0.00     0.049 A 
ATOM     41  C   UNL     1      11.799   0.890   5.732  1.00  0.00     0.074 A 
ATOM     42  C   UNL     1      13.153  -4.510   2.675  1.00  0.00     0.029 A 
ATOM     43  N   UNL     1      12.119  -2.820   3.685  1.00  0.00    -0.354 N 
ATOM     44  N   UNL     1      11.983  -0.237   5.088  1.00  0.00    -0.248 NA
ATOM     45  C   UNL     1      13.044   1.560   6.135  1.00  0.00     0.031 C 
ATOM     46  C   UNL     1      14.122  -3.636   3.179  1.00  0.00     0.029 A 
ATOM     47  C   UNL     1      13.478  -2.572   3.791  1.00  0.00     0.049 A 
ATOM     48  H   UNL     1      11.409  -2.235   4.036  1.00  0.00     0.167 HD
ATOM     49  C   UNL     1      13.358  -0.403   4.991  1.00  0.00     0.074 A 
ATOM     50  C   UNL     1      13.963   0.749   5.630  1.00  0.00     0.031 C 
ATOM     51  C   UNL     1      14.058  -1.417   4.426  1.00  0.00     0.037 A 
BRANCH  38  52
ATOM     52  C   UNL     1      10.541  -5.894   2.025  1.00  0.00     0.064 A 
ATOM     53  C   UNL     1      10.104  -5.985   0.696  1.00  0.00     0.173 A 
ATOM     54  C   UNL     1      10.938  -7.075   2.669  1.00  0.00     0.173 A 
ATOM     55  F   UNL     1       9.697  -4.887   0.042  1.00  0.00    -0.203 F 
ATOM     56  C   UNL     1      10.046  -7.215   0.044  1.00  0.00     0.198 A 
ATOM     57  C   UNL     1      10.903  -8.300   2.007  1.00  0.00     0.198 A 
ATOM     58  F   UNL     1      11.365  -7.042   3.941  1.00  0.00    -0.203 F 
ATOM     59  F   UNL     1       9.584  -7.285  -1.212  1.00  0.00    -0.200 F 
ATOM     60  C   UNL     1      10.451  -8.369   0.698  1.00  0.00     0.200 A 
ATOM     61  F   UNL     1      11.302  -9.413   2.638  1.00  0.00    -0.200 F 
ATOM     62  F   UNL     1      10.398  -9.551   0.069  1.00  0.00    -0.200 F 
ENDBRANCH  38  52
BRANCH  39  63
ATOM     63  C   UNL     1      10.513   2.857   6.850  1.00  0.00     0.064 A 
ATOM     64  C   UNL     1      10.948   4.044   6.246  1.00  0.00     0.173 A 
ATOM     65  C   UNL     1      10.089   2.920   8.186  1.00  0.00     0.173 A 
ATOM     66  F   UNL     1      11.389   4.028   4.979  1.00  0.00    -0.203 F 
ATOM     67  C   UNL     1      10.971   5.244   6.954  1.00  0.00     0.198 A 
ATOM     68  C   UNL     1      10.087   4.125   8.884  1.00  0.00     0.198 A 
ATOM     69  F   UNL     1       9.669   1.811   8.811  1.00  0.00    -0.203 F 
ATOM     70  F   UNL     1      11.432   6.357   6.367  1.00  0.00    -0.200 F 
ATOM     71  C   UNL     1      10.534   5.285   8.270  1.00  0.00     0.200 A 
ATOM     72  F   UNL     1       9.656   4.162  10.152  1.00  0.00    -0.200 F 
ATOM     73  F   UNL     1      10.554   6.440   8.949  1.00  0.00    -0.200 F 
ENDBRANCH  39  63
BRANCH  51  74
ATOM     74  C   UNL     1      15.555  -1.312   4.448  1.00  0.00     0.064 A 
ATOM     75  C   UNL     1      16.287  -1.518   5.626  1.00  0.00     0.173 A 
ATOM     76  C   UNL     1      16.265  -1.044   3.268  1.00  0.00     0.173 A 
ATOM     77  F   UNL     1      15.652  -1.763   6.782  1.00  0.00    -0.203 F 
ATOM     78  C   UNL     1      17.677  -1.438   5.625  1.00  0.00     0.198 A 
ATOM     79  C   UNL     1      17.655  -0.991   3.266  1.00  0.00     0.198 A 
ATOM     80  F   UNL     1      15.609  -0.846   2.115  1.00  0.00    -0.203 F 
ATOM     81  F   UNL     1      18.356  -1.598   6.770  1.00  0.00    -0.200 F 
ATOM     82  C   UNL     1      18.360  -1.181   4.445  1.00  0.00     0.200 A 
ATOM     83  F   UNL     1      18.314  -0.753   2.123  1.00  0.00    -0.200 F 
ATOM     84  F   UNL     1      19.698  -1.111   4.446  1.00  0.00    -0.200 F 
ENDBRANCH  51  74
ENDBRANCH  25  26
ENDBRANCH  18  20
ENDBRANCH  17  18
ENDBRANCH  16  17
ENDBRANCH   1  16
TORSDOF 14
