REMARK SMILES Cn1nc(-c2cccs2)cc1C(=O)N1CC[C@@H](c2ccccc2C(=O)OCCOC(=O)c2ccc(-c3c4nc(c(-c5c(F)c(F)c(F)c(F)c5F)c5ccc([nH]5)c(-c5c(F)c(F)c(F)c(F)c5F)c5nc(c(-c6c(F)c(F)c(F)c(F)c6F)c6ccc3[nH]6)C=C5)C=C4)cc2)C1
REMARK SMILES IDX 27 1 26 2 24 3 25 4 23 5 18 6 19 7 20 8 22 9 21 10 17 11
REMARK SMILES IDX 14 12 15 13 95 14 16 15 12 16 13 17 11 18 1 19 2 20 3 21
REMARK SMILES IDX 4 22 10 23 5 24 6 25 9 26 7 27 8 28 28 29 29 30 30 31 31 32
REMARK SMILES IDX 32 33 33 34 94 35 34 36 93 37 35 38 36 39 37 40 87 41 38 42
REMARK SMILES IDX 92 43 86 44 88 45 39 46 91 47 85 48 84 49 40 51 72 52 52 53
REMARK SMILES IDX 71 54 53 55 56 56 70 57 89 58 54 59 55 60 69 62 90 63 57 64
REMARK SMILES IDX 41 65 42 66 50 67 43 68 44 69 48 70 51 71 45 72 46 73 49 74
REMARK SMILES IDX 47 75 73 76 74 77 82 78 75 79 76 80 80 81 83 82 77 83 78 84
REMARK SMILES IDX 81 85 79 86 58 87 59 88 67 89 60 90 61 91 65 92 68 93 62 94
REMARK SMILES IDX 63 95 66 96 64 97
REMARK H PARENT 88 50 56 61
REMARK Flexibility Score: inf
ROOT
ATOM      1  C   UNL     1      -6.370  -4.141   3.785  1.00  0.00     0.275 C 
ENDROOT
BRANCH   1   2
ATOM      2  O   UNL     1      -5.973  -4.267   2.399  1.00  0.00    -0.458 OA
BRANCH   2   3
ATOM      3  C   UNL     1      -5.760  -5.535   1.963  1.00  0.00     0.338 C 
ATOM      4  O   UNL     1      -6.012  -6.550   2.583  1.00  0.00    -0.246 OA
BRANCH   3   5
ATOM      5  C   UNL     1      -5.220  -5.604   0.572  1.00  0.00     0.063 A 
ATOM      6  C   UNL     1      -4.090  -4.903   0.108  1.00  0.00    -0.029 A 
ATOM      7  C   UNL     1      -3.531  -5.306  -1.125  1.00  0.00     0.005 A 
ATOM      8  C   UNL     1      -4.141  -6.259  -1.939  1.00  0.00     0.000 A 
ATOM      9  C   UNL     1      -5.814  -6.577  -0.257  1.00  0.00     0.016 A 
ATOM     10  C   UNL     1      -5.311  -6.867  -1.522  1.00  0.00     0.001 A 
BRANCH   6  11
ATOM     11  C   UNL     1      -3.520  -3.688   0.814  1.00  0.00     0.041 C 
ATOM     12  N   UNL     1      -1.539  -2.558   0.124  1.00  0.00    -0.337 N 
ATOM     13  C   UNL     1      -2.583  -2.125  -0.782  1.00  0.00     0.120 C 
ATOM     14  C   UNL     1      -1.993  -3.652   0.966  1.00  0.00     0.128 C 
ATOM     15  C   UNL     1      -3.852  -2.408   0.007  1.00  0.00     0.032 C 
BRANCH  12  16
ATOM     16  C   UNL     1      -0.212  -2.196   0.142  1.00  0.00     0.272 C 
ATOM     17  O   UNL     1       0.638  -3.032   0.453  1.00  0.00    -0.267 OA
BRANCH  16  18
ATOM     18  C   UNL     1       0.160  -0.820  -0.100  1.00  0.00     0.126 A 
ATOM     19  C   UNL     1      -1.817   0.535   0.793  1.00  0.00     0.174 C 
ATOM     20  N   UNL     1      -0.496   0.340   0.243  1.00  0.00    -0.262 N 
ATOM     21  N   UNL     1       0.275   1.439   0.155  1.00  0.00    -0.172 NA
ATOM     22  C   UNL     1       1.462   0.991  -0.256  1.00  0.00     0.103 A 
ATOM     23  C   UNL     1       1.417  -0.393  -0.511  1.00  0.00     0.065 A 
BRANCH  22  24
ATOM     24  C   UNL     1       2.667   1.876  -0.329  1.00  0.00     0.055 A 
ATOM     25  C   UNL     1       3.836   1.567  -0.992  1.00  0.00     0.022 A 
ATOM     26  S   UNL     1       2.766   3.393   0.458  1.00  0.00    -0.142 S 
ATOM     27  C   UNL     1       4.827   2.583  -0.835  1.00  0.00     0.012 A 
ATOM     28  C   UNL     1       4.390   3.611  -0.030  1.00  0.00     0.065 A 
ENDBRANCH  22  24
ENDBRANCH  16  18
ENDBRANCH  12  16
ENDBRANCH   6  11
ENDBRANCH   3   5
ENDBRANCH   2   3
ENDBRANCH   1   2
BRANCH   1  29
ATOM     29  C   UNL     1      -7.778  -3.566   3.912  1.00  0.00     0.275 C 
BRANCH  29  30
ATOM     30  O   UNL     1      -8.722  -4.473   3.321  1.00  0.00    -0.458 OA
BRANCH  30  31
ATOM     31  C   UNL     1      -9.205  -4.093   2.121  1.00  0.00     0.338 C 
ATOM     32  O   UNL     1      -9.025  -3.031   1.538  1.00  0.00    -0.246 OA
BRANCH  31  33
ATOM     33  C   UNL     1      -9.940  -5.206   1.512  1.00  0.00     0.060 A 
ATOM     34  C   UNL     1      -9.215  -6.310   1.081  1.00  0.00     0.016 A 
ATOM     35  C   UNL     1     -11.290  -5.089   1.201  1.00  0.00     0.016 A 
ATOM     36  C   UNL     1      -9.795  -7.236   0.221  1.00  0.00     0.010 A 
ATOM     37  C   UNL     1     -11.907  -6.092   0.443  1.00  0.00     0.010 A 
ATOM     38  C   UNL     1     -11.156  -7.152  -0.101  1.00  0.00    -0.014 A 
BRANCH  38  39
ATOM     39  C   UNL     1     -11.775  -8.136  -1.039  1.00  0.00     0.031 A 
ATOM     40  C   UNL     1     -12.513  -7.652  -2.263  1.00  0.00     0.074 A 
ATOM     41  C   UNL     1     -11.670  -9.462  -0.818  1.00  0.00     0.049 A 
ATOM     42  N   UNL     1     -13.301  -8.313  -3.075  1.00  0.00    -0.248 NA
ATOM     43  C   UNL     1     -12.358  -6.231  -2.611  1.00  0.00     0.031 C 
ATOM     44  C   UNL     1     -10.940 -10.085   0.288  1.00  0.00     0.029 A 
ATOM     45  N   UNL     1     -12.173 -10.532  -1.520  1.00  0.00    -0.354 N 
ATOM     46  C   UNL     1     -13.792  -7.377  -3.977  1.00  0.00     0.074 A 
ATOM     47  C   UNL     1     -13.211  -6.101  -3.618  1.00  0.00     0.031 C 
ATOM     48  C   UNL     1     -10.999 -11.419   0.163  1.00  0.00     0.029 A 
ATOM     49  C   UNL     1     -11.864 -11.749  -0.962  1.00  0.00     0.049 A 
ATOM     50  H   UNL     1     -12.704 -10.435  -2.343  1.00  0.00     0.167 HD
ATOM     51  C   UNL     1     -14.652  -7.567  -5.006  1.00  0.00     0.037 A 
ATOM     52  C   UNL     1     -12.274 -12.992  -1.278  1.00  0.00     0.037 A 
ATOM     53  C   UNL     1     -15.169  -8.852  -5.404  1.00  0.00     0.049 A 
ATOM     54  C   UNL     1     -13.250 -13.175  -2.406  1.00  0.00     0.074 A 
ATOM     55  C   UNL     1     -16.030  -9.153  -6.446  1.00  0.00     0.029 A 
ATOM     56  N   UNL     1     -14.852 -10.054  -4.788  1.00  0.00    -0.354 N 
ATOM     57  N   UNL     1     -13.768 -12.275  -3.204  1.00  0.00    -0.248 NA
ATOM     58  C   UNL     1     -13.717 -14.544  -2.659  1.00  0.00     0.031 C 
ATOM     59  C   UNL     1     -16.264 -10.532  -6.437  1.00  0.00     0.029 A 
ATOM     60  C   UNL     1     -15.511 -11.097  -5.421  1.00  0.00     0.049 A 
ATOM     61  H   UNL     1     -14.249 -10.152  -4.016  1.00  0.00     0.167 HD
ATOM     62  C   UNL     1     -14.613 -12.966  -4.061  1.00  0.00     0.074 A 
ATOM     63  C   UNL     1     -14.520 -14.366  -3.699  1.00  0.00     0.031 C 
ATOM     64  C   UNL     1     -15.401 -12.485  -5.052  1.00  0.00     0.037 A 
BRANCH  51  65
ATOM     65  C   UNL     1     -15.125  -6.354  -5.758  1.00  0.00     0.064 A 
ATOM     66  C   UNL     1     -14.290  -5.640  -6.628  1.00  0.00     0.173 A 
ATOM     67  C   UNL     1     -16.458  -5.928  -5.632  1.00  0.00     0.173 A 
ATOM     68  F   UNL     1     -13.005  -5.997  -6.776  1.00  0.00    -0.203 F 
ATOM     69  C   UNL     1     -14.763  -4.530  -7.326  1.00  0.00     0.198 A 
ATOM     70  C   UNL     1     -16.935  -4.837  -6.354  1.00  0.00     0.198 A 
ATOM     71  F   UNL     1     -17.302  -6.579  -4.818  1.00  0.00    -0.203 F 
ATOM     72  F   UNL     1     -13.935  -3.835  -8.117  1.00  0.00    -0.200 F 
ATOM     73  C   UNL     1     -16.086  -4.134  -7.194  1.00  0.00     0.200 A 
ATOM     74  F   UNL     1     -18.218  -4.466  -6.235  1.00  0.00    -0.200 F 
ATOM     75  F   UNL     1     -16.541  -3.072  -7.873  1.00  0.00    -0.200 F 
ENDBRANCH  51  65
BRANCH  52  76
ATOM     76  C   UNL     1     -11.802 -14.154  -0.479  1.00  0.00     0.064 A 
ATOM     77  C   UNL     1     -10.960 -15.122  -1.041  1.00  0.00     0.173 A 
ATOM     78  C   UNL     1     -12.175 -14.316   0.865  1.00  0.00     0.173 A 
ATOM     79  F   UNL     1     -10.598 -15.028  -2.329  1.00  0.00    -0.203 F 
ATOM     80  C   UNL     1     -10.513 -16.210  -0.293  1.00  0.00     0.198 A 
ATOM     81  C   UNL     1     -11.700 -15.384   1.622  1.00  0.00     0.198 A 
ATOM     82  F   UNL     1     -12.982 -13.419   1.451  1.00  0.00    -0.203 F 
ATOM     83  F   UNL     1      -9.741 -17.143  -0.866  1.00  0.00    -0.200 F 
ATOM     84  C   UNL     1     -10.875 -16.334   1.040  1.00  0.00     0.200 A 
ATOM     85  F   UNL     1     -12.038 -15.489   2.914  1.00  0.00    -0.200 F 
ATOM     86  F   UNL     1     -10.434 -17.372   1.763  1.00  0.00    -0.200 F 
ENDBRANCH  52  76
BRANCH  64  87
ATOM     87  C   UNL     1     -16.194 -13.486  -5.839  1.00  0.00     0.064 A 
ATOM     88  C   UNL     1     -17.315 -14.128  -5.295  1.00  0.00     0.173 A 
ATOM     89  C   UNL     1     -15.839 -13.788  -7.162  1.00  0.00     0.173 A 
ATOM     90  F   UNL     1     -17.682 -13.885  -4.027  1.00  0.00    -0.203 F 
ATOM     91  C   UNL     1     -18.037 -15.057  -6.038  1.00  0.00     0.198 A 
ATOM     92  C   UNL     1     -16.579 -14.696  -7.912  1.00  0.00     0.198 A 
ATOM     93  F   UNL     1     -14.777 -13.196  -7.730  1.00  0.00    -0.203 F 
ATOM     94  F   UNL     1     -19.075 -15.697  -5.482  1.00  0.00    -0.200 F 
ATOM     95  C   UNL     1     -17.673 -15.336  -7.348  1.00  0.00     0.200 A 
ATOM     96  F   UNL     1     -16.233 -14.956  -9.180  1.00  0.00    -0.200 F 
ATOM     97  F   UNL     1     -18.370 -16.229  -8.062  1.00  0.00    -0.200 F 
ENDBRANCH  64  87
ENDBRANCH  38  39
ENDBRANCH  31  33
ENDBRANCH  30  31
ENDBRANCH  29  30
ENDBRANCH   1  29
TORSDOF 15
