REMARK SMILES CC(=O)Oc1c(Cl)cc(-c2ccccc2)cc1C(=O)OCCOC(=O)c1ccc(-c2c3nc(c(-c4c(F)c(F)c(F)c(F)c4F)c4ccc([nH]4)c(-c4c(F)c(F)c(F)c(F)c4F)c4nc(c(-c5c(F)c(F)c(F)c(F)c5F)c5ccc2[nH]5)C=C4)C=C3)cc1
REMARK SMILES IDX 21 1 20 2 18 3 19 4 17 5 5 6 6 7 7 8 8 9 16 10 9 11 4 12
REMARK SMILES IDX 2 13 1 14 3 15 10 16 11 17 15 18 12 19 14 20 13 21 22 22
REMARK SMILES IDX 23 23 24 24 25 25 26 26 27 27 88 28 28 29 87 30 29 31 30 32
REMARK SMILES IDX 31 33 81 34 32 35 86 36 80 37 82 38 33 39 85 40 79 41 78 42
REMARK SMILES IDX 34 44 66 45 46 46 65 47 47 48 50 49 64 50 83 51 48 52 49 53
REMARK SMILES IDX 63 55 84 56 51 57 35 58 36 59 44 60 37 61 38 62 42 63 45 64
REMARK SMILES IDX 39 65 40 66 43 67 41 68 67 69 68 70 76 71 69 72 70 73 74 74
REMARK SMILES IDX 77 75 71 76 72 77 75 78 73 79 52 80 53 81 61 82 54 83 55 84
REMARK SMILES IDX 59 85 62 86 56 87 57 88 60 89 58 90
REMARK H PARENT 82 43 50 54
REMARK Flexibility Score: inf
ROOT
ATOM      1  C   UNL     1       4.101   2.505   2.763  1.00  0.00     0.275 C 
ENDROOT
BRANCH   1   2
ATOM      2  O   UNL     1       2.745   2.778   2.348  1.00  0.00    -0.458 OA
BRANCH   2   3
ATOM      3  C   UNL     1       1.973   3.435   3.249  1.00  0.00     0.342 C 
ATOM      4  O   UNL     1       2.317   3.822   4.351  1.00  0.00    -0.246 OA
BRANCH   3   5
ATOM      5  C   UNL     1       0.639   3.757   2.690  1.00  0.00     0.105 A 
ATOM      6  C   UNL     1      -0.136   2.864   1.951  1.00  0.00     0.164 A 
ATOM      7  C   UNL     1      -1.432   3.232   1.557  1.00  0.00     0.085 A 
ATOM      8  Cl  UNL     1      -2.490   2.109   0.778  1.00  0.00    -0.080 Cl
ATOM      9  C   UNL     1      -1.917   4.520   1.819  1.00  0.00     0.033 A 
ATOM     10  C   UNL     1       0.117   5.025   2.991  1.00  0.00     0.028 A 
ATOM     11  C   UNL     1      -1.135   5.443   2.520  1.00  0.00    -0.016 A 
BRANCH   6  12
ATOM     12  O   UNL     1       0.336   1.574   1.695  1.00  0.00    -0.424 OA
BRANCH  12  13
ATOM     13  C   UNL     1       0.739   1.418   0.373  1.00  0.00     0.308 C 
ATOM     14  C   UNL     1       1.188   0.005   0.152  1.00  0.00     0.139 C 
ATOM     15  O   UNL     1       0.773   2.291  -0.484  1.00  0.00    -0.252 OA
ENDBRANCH  12  13
ENDBRANCH   6  12
BRANCH  11  16
ATOM     16  C   UNL     1      -1.586   6.817   2.770  1.00  0.00    -0.018 A 
ATOM     17  C   UNL     1      -2.620   7.088   3.676  1.00  0.00     0.009 A 
ATOM     18  C   UNL     1      -0.956   7.899   2.131  1.00  0.00     0.009 A 
ATOM     19  C   UNL     1      -3.008   8.405   3.942  1.00  0.00     0.001 A 
ATOM     20  C   UNL     1      -1.344   9.215   2.395  1.00  0.00     0.001 A 
ATOM     21  C   UNL     1      -2.369   9.466   3.304  1.00  0.00     0.000 A 
ENDBRANCH  11  16
ENDBRANCH   3   5
ENDBRANCH   2   3
ENDBRANCH   1   2
BRANCH   1  22
ATOM     22  C   UNL     1       5.080   3.470   2.099  1.00  0.00     0.275 C 
BRANCH  22  23
ATOM     23  O   UNL     1       4.810   4.808   2.551  1.00  0.00    -0.458 OA
BRANCH  23  24
ATOM     24  C   UNL     1       4.717   5.752   1.589  1.00  0.00     0.338 C 
ATOM     25  O   UNL     1       4.915   5.617   0.391  1.00  0.00    -0.246 OA
BRANCH  24  26
ATOM     26  C   UNL     1       4.308   7.035   2.189  1.00  0.00     0.060 A 
ATOM     27  C   UNL     1       3.179   7.086   3.002  1.00  0.00     0.016 A 
ATOM     28  C   UNL     1       4.968   8.212   1.845  1.00  0.00     0.016 A 
ATOM     29  C   UNL     1       2.640   8.314   3.381  1.00  0.00     0.010 A 
ATOM     30  C   UNL     1       4.490   9.440   2.321  1.00  0.00     0.010 A 
ATOM     31  C   UNL     1       3.292   9.514   3.056  1.00  0.00    -0.014 A 
BRANCH  31  32
ATOM     32  C   UNL     1       2.699  10.832   3.438  1.00  0.00     0.031 A 
ATOM     33  C   UNL     1       2.410  11.874   2.384  1.00  0.00     0.074 A 
ATOM     34  C   UNL     1       2.396  11.107   4.724  1.00  0.00     0.049 A 
ATOM     35  N   UNL     1       2.052  13.127   2.529  1.00  0.00    -0.248 NA
ATOM     36  C   UNL     1       2.558  11.459   0.980  1.00  0.00     0.031 C 
ATOM     37  C   UNL     1       2.586  10.197   5.854  1.00  0.00     0.029 A 
ATOM     38  N   UNL     1       1.852  12.232   5.297  1.00  0.00    -0.354 N 
ATOM     39  C   UNL     1       2.007  13.664   1.248  1.00  0.00     0.074 A 
ATOM     40  C   UNL     1       2.365  12.600   0.334  1.00  0.00     0.031 C 
ATOM     41  C   UNL     1       2.114  10.772   6.969  1.00  0.00     0.029 A 
ATOM     42  C   UNL     1       1.673  12.127   6.656  1.00  0.00     0.049 A 
ATOM     43  H   UNL     1       1.612  13.037   4.783  1.00  0.00     0.167 HD
ATOM     44  C   UNL     1       1.698  14.927   0.868  1.00  0.00     0.037 A 
ATOM     45  C   UNL     1       1.240  13.027   7.560  1.00  0.00     0.037 A 
ATOM     46  C   UNL     1       1.260  15.967   1.764  1.00  0.00     0.049 A 
ATOM     47  C   UNL     1       0.891  14.418   7.111  1.00  0.00     0.074 A 
ATOM     48  C   UNL     1       0.886  17.266   1.461  1.00  0.00     0.029 A 
ATOM     49  N   UNL     1       1.117  15.822   3.135  1.00  0.00    -0.354 N 
ATOM     50  N   UNL     1       0.903  14.925   5.903  1.00  0.00    -0.248 NA
ATOM     51  C   UNL     1       0.492  15.370   8.158  1.00  0.00     0.031 C 
ATOM     52  C   UNL     1       0.544  17.915   2.652  1.00  0.00     0.029 A 
ATOM     53  C   UNL     1       0.667  17.009   3.692  1.00  0.00     0.049 A 
ATOM     54  H   UNL     1       1.306  14.997   3.638  1.00  0.00     0.167 HD
ATOM     55  C   UNL     1       0.510  16.249   6.042  1.00  0.00     0.074 A 
ATOM     56  C   UNL     1       0.237  16.460   7.448  1.00  0.00     0.031 C 
ATOM     57  C   UNL     1       0.399  17.207   5.091  1.00  0.00     0.037 A 
BRANCH  44  58
ATOM     58  C   UNL     1       1.843  15.278  -0.585  1.00  0.00     0.064 A 
ATOM     59  C   UNL     1       0.932  14.832  -1.552  1.00  0.00     0.173 A 
ATOM     60  C   UNL     1       2.880  16.129  -1.001  1.00  0.00     0.173 A 
ATOM     61  F   UNL     1      -0.069  14.009  -1.208  1.00  0.00    -0.203 F 
ATOM     62  C   UNL     1       1.064  15.211  -2.887  1.00  0.00     0.198 A 
ATOM     63  C   UNL     1       2.993  16.527  -2.330  1.00  0.00     0.198 A 
ATOM     64  F   UNL     1       3.773  16.590  -0.113  1.00  0.00    -0.203 F 
ATOM     65  F   UNL     1       0.202  14.746  -3.802  1.00  0.00    -0.200 F 
ATOM     66  C   UNL     1       2.088  16.064  -3.273  1.00  0.00     0.200 A 
ATOM     67  F   UNL     1       3.974  17.362  -2.697  1.00  0.00    -0.200 F 
ATOM     68  F   UNL     1       2.204  16.439  -4.554  1.00  0.00    -0.200 F 
ENDBRANCH  44  58
BRANCH  45  69
ATOM     69  C   UNL     1       1.144  12.651   8.995  1.00  0.00     0.064 A 
ATOM     70  C   UNL     1      -0.101  12.546   9.630  1.00  0.00     0.173 A 
ATOM     71  C   UNL     1       2.292  12.398   9.762  1.00  0.00     0.173 A 
ATOM     72  F   UNL     1      -1.225  12.809   8.948  1.00  0.00    -0.203 F 
ATOM     73  C   UNL     1      -0.194  12.212  10.980  1.00  0.00     0.198 A 
ATOM     74  C   UNL     1       2.196  12.033  11.102  1.00  0.00     0.198 A 
ATOM     75  F   UNL     1       3.507  12.490   9.203  1.00  0.00    -0.203 F 
ATOM     76  F   UNL     1      -1.394  12.163  11.574  1.00  0.00    -0.200 F 
ATOM     77  C   UNL     1       0.954  11.947  11.712  1.00  0.00     0.200 A 
ATOM     78  F   UNL     1       3.307  11.766  11.802  1.00  0.00    -0.200 F 
ATOM     79  F   UNL     1       0.863  11.619  13.008  1.00  0.00    -0.200 F 
ENDBRANCH  45  69
BRANCH  57  80
ATOM     80  C   UNL     1      -0.060  18.562   5.540  1.00  0.00     0.064 A 
ATOM     81  C   UNL     1       0.785  19.419   6.262  1.00  0.00     0.173 A 
ATOM     82  C   UNL     1      -1.352  19.014   5.236  1.00  0.00     0.173 A 
ATOM     83  F   UNL     1       2.024  19.024   6.591  1.00  0.00    -0.203 F 
ATOM     84  C   UNL     1       0.342  20.668   6.688  1.00  0.00     0.198 A 
ATOM     85  C   UNL     1      -1.783  20.274   5.642  1.00  0.00     0.198 A 
ATOM     86  F   UNL     1      -2.196  18.234   4.545  1.00  0.00    -0.203 F 
ATOM     87  F   UNL     1       1.148  21.449   7.419  1.00  0.00    -0.200 F 
ATOM     88  C   UNL     1      -0.940  21.096   6.374  1.00  0.00     0.200 A 
ATOM     89  F   UNL     1      -3.019  20.690   5.332  1.00  0.00    -0.200 F 
ATOM     90  F   UNL     1      -1.366  22.297   6.787  1.00  0.00    -0.200 F 
ENDBRANCH  57  80
ENDBRANCH  31  32
ENDBRANCH  24  26
ENDBRANCH  23  24
ENDBRANCH  22  23
ENDBRANCH   1  22
TORSDOF 14
