REMARK SMILES Cc1oc(C)c(C(=O)Nc2cc(C(=O)OCCOC(=O)c3ccc(-c4c5nc(c(-c6c(F)c(F)c(F)c(F)c6F)c6ccc([nH]6)c(-c6c(F)c(F)c(F)c(F)c6F)c6nc(c(-c7c(F)c(F)c(F)c(F)c7F)c7ccc4[nH]7)C=C6)C=C5)cc3)ccc2Cl)c1C
REMARK SMILES IDX 16 1 15 2 13 3 14 4 12 5 10 6 11 7 86 8 85 9 87 10 84 11
REMARK SMILES IDX 9 12 7 13 8 14 6 16 1 17 2 18 3 19 88 20 4 21 89 22 5 23
REMARK SMILES IDX 17 24 18 25 19 26 20 27 21 28 22 29 83 30 23 31 82 32 24 33
REMARK SMILES IDX 25 34 26 35 76 36 27 37 81 38 75 39 77 40 28 41 80 42 74 43
REMARK SMILES IDX 73 44 29 46 61 47 41 48 60 49 42 50 45 51 59 52 78 53 43 54
REMARK SMILES IDX 44 55 58 57 79 58 46 59 30 60 31 61 39 62 32 63 33 64 37 65
REMARK SMILES IDX 40 66 34 67 35 68 38 69 36 70 62 71 63 72 71 73 64 74 65 75
REMARK SMILES IDX 69 76 72 77 66 78 67 79 70 80 68 81 47 82 48 83 56 84 49 85
REMARK SMILES IDX 50 86 54 87 57 88 51 89 52 90 55 91 53 92
REMARK H PARENT 9 15 77 45 45 56
REMARK Flexibility Score: inf
ROOT
ATOM      1  C   UNL     1       0.409   5.358   4.825  1.00  0.00     0.275 C 
ENDROOT
BRANCH   1   2
ATOM      2  O   UNL     1      -0.210   4.340   4.017  1.00  0.00    -0.458 OA
BRANCH   2   3
ATOM      3  C   UNL     1      -0.222   3.099   4.559  1.00  0.00     0.338 C 
ATOM      4  O   UNL     1       0.412   2.737   5.543  1.00  0.00    -0.246 OA
BRANCH   3   5
ATOM      5  C   UNL     1      -1.171   2.200   3.854  1.00  0.00     0.062 A 
ATOM      6  C   UNL     1      -1.966  -0.080   3.665  1.00  0.00     0.061 A 
ATOM      7  C   UNL     1      -1.403   0.944   4.431  1.00  0.00     0.043 A 
ATOM      8  C   UNL     1      -2.494   0.213   2.399  1.00  0.00     0.064 A 
ATOM      9  C   UNL     1      -2.403   1.515   1.890  1.00  0.00     0.023 A 
ATOM     10  Cl  UNL     1      -3.318  -0.972   1.454  1.00  0.00    -0.082 Cl
ATOM     11  C   UNL     1      -1.714   2.503   2.601  1.00  0.00     0.017 A 
BRANCH   6  12
ATOM     12  N   UNL     1      -1.844  -1.369   4.206  1.00  0.00    -0.320 N 
ATOM     13  C   UNL     1      -1.139  -2.456   3.716  1.00  0.00     0.259 C 
ATOM     14  O   UNL     1      -1.227  -3.509   4.351  1.00  0.00    -0.269 OA
ATOM     15  H   UNL     1      -2.326  -1.522   5.051  1.00  0.00     0.170 HD
BRANCH  13  16
ATOM     16  C   UNL     1      -0.299  -2.342   2.522  1.00  0.00     0.084 A 
ATOM     17  C   UNL     1       1.442  -0.909  -0.416  1.00  0.00     0.088 C 
ATOM     18  C   UNL     1       0.839  -1.642   0.715  1.00  0.00     0.104 A 
ATOM     19  O   UNL     1       0.580  -2.958   0.531  1.00  0.00    -0.466 OA
ATOM     20  C   UNL     1       0.534  -1.281   2.011  1.00  0.00     0.003 A 
ATOM     21  C   UNL     1      -0.009  -3.406   1.675  1.00  0.00     0.114 A 
ATOM     22  C   UNL     1       1.039  -0.049   2.658  1.00  0.00     0.049 C 
ATOM     23  C   UNL     1      -0.166  -4.875   1.758  1.00  0.00     0.088 C 
ENDBRANCH  13  16
ENDBRANCH   6  12
ENDBRANCH   3   5
ENDBRANCH   2   3
ENDBRANCH   1   2
BRANCH   1  24
ATOM     24  C   UNL     1      -0.611   5.990   5.765  1.00  0.00     0.275 C 
BRANCH  24  25
ATOM     25  O   UNL     1      -0.997   5.072   6.787  1.00  0.00    -0.458 OA
BRANCH  25  26
ATOM     26  C   UNL     1      -2.075   4.315   6.490  1.00  0.00     0.338 C 
ATOM     27  O   UNL     1      -2.661   4.241   5.423  1.00  0.00    -0.246 OA
BRANCH  26  28
ATOM     28  C   UNL     1      -2.594   3.698   7.708  1.00  0.00     0.060 A 
ATOM     29  C   UNL     1      -3.623   2.766   7.548  1.00  0.00     0.016 A 
ATOM     30  C   UNL     1      -2.324   4.319   8.934  1.00  0.00     0.016 A 
ATOM     31  C   UNL     1      -4.538   2.637   8.566  1.00  0.00     0.010 A 
ATOM     32  C   UNL     1      -3.244   4.198   9.943  1.00  0.00     0.010 A 
ATOM     33  C   UNL     1      -4.384   3.435   9.705  1.00  0.00    -0.014 A 
BRANCH  33  34
ATOM     34  C   UNL     1      -5.427   3.392  10.705  1.00  0.00     0.031 A 
ATOM     35  C   UNL     1      -5.453   2.106  11.425  1.00  0.00     0.074 A 
ATOM     36  C   UNL     1      -6.196   4.462  10.982  1.00  0.00     0.049 A 
ATOM     37  N   UNL     1      -6.397   1.227  11.423  1.00  0.00    -0.248 NA
ATOM     38  C   UNL     1      -4.215   1.661  12.085  1.00  0.00     0.031 C 
ATOM     39  C   UNL     1      -6.028   5.830  10.479  1.00  0.00     0.029 A 
ATOM     40  N   UNL     1      -7.233   4.581  11.858  1.00  0.00    -0.354 N 
ATOM     41  C   UNL     1      -5.956   0.216  12.269  1.00  0.00     0.074 A 
ATOM     42  C   UNL     1      -4.553   0.434  12.482  1.00  0.00     0.031 C 
ATOM     43  C   UNL     1      -6.769   6.676  11.229  1.00  0.00     0.029 A 
ATOM     44  C   UNL     1      -7.566   5.894  12.159  1.00  0.00     0.049 A 
ATOM     45  H   UNL     1      -7.702   3.806  12.244  1.00  0.00     0.167 HD
ATOM     46  C   UNL     1      -6.860  -0.511  12.977  1.00  0.00     0.037 A 
ATOM     47  C   UNL     1      -8.404   6.309  13.139  1.00  0.00     0.037 A 
ATOM     48  C   UNL     1      -8.181  -0.370  12.422  1.00  0.00     0.049 A 
ATOM     49  C   UNL     1      -9.280   5.173  13.502  1.00  0.00     0.074 A 
ATOM     50  C   UNL     1      -8.879  -0.892  11.356  1.00  0.00     0.029 A 
ATOM     51  N   UNL     1      -8.842   0.755  12.835  1.00  0.00    -0.354 N 
ATOM     52  N   UNL     1     -10.187   4.687  12.702  1.00  0.00    -0.248 NA
ATOM     53  C   UNL     1      -8.924   4.322  14.634  1.00  0.00     0.031 C 
ATOM     54  C   UNL     1      -9.917   0.042  11.060  1.00  0.00     0.029 A 
ATOM     55  C   UNL     1      -9.842   1.097  11.966  1.00  0.00     0.049 A 
ATOM     56  H   UNL     1      -8.626   1.256  13.655  1.00  0.00     0.167 HD
ATOM     57  C   UNL     1     -10.189   3.334  12.976  1.00  0.00     0.074 A 
ATOM     58  C   UNL     1      -9.550   3.196  14.276  1.00  0.00     0.031 C 
ATOM     59  C   UNL     1     -10.400   2.428  11.981  1.00  0.00     0.037 A 
BRANCH  46  60
ATOM     60  C   UNL     1      -6.671  -0.900  14.427  1.00  0.00     0.064 A 
ATOM     61  C   UNL     1      -7.636  -1.728  15.033  1.00  0.00     0.173 A 
ATOM     62  C   UNL     1      -5.795  -0.237  15.315  1.00  0.00     0.173 A 
ATOM     63  F   UNL     1      -8.531  -2.392  14.286  1.00  0.00    -0.203 F 
ATOM     64  C   UNL     1      -7.762  -1.819  16.422  1.00  0.00     0.198 A 
ATOM     65  C   UNL     1      -5.891  -0.372  16.698  1.00  0.00     0.198 A 
ATOM     66  F   UNL     1      -4.891   0.657  14.900  1.00  0.00    -0.203 F 
ATOM     67  F   UNL     1      -8.773  -2.519  16.954  1.00  0.00    -0.200 F 
ATOM     68  C   UNL     1      -6.894  -1.135  17.253  1.00  0.00     0.200 A 
ATOM     69  F   UNL     1      -5.054   0.320  17.486  1.00  0.00    -0.200 F 
ATOM     70  F   UNL     1      -7.052  -1.170  18.582  1.00  0.00    -0.200 F 
ENDBRANCH  46  60
BRANCH  47  71
ATOM     71  C   UNL     1      -8.348   7.551  13.937  1.00  0.00     0.064 A 
ATOM     72  C   UNL     1      -9.486   8.057  14.585  1.00  0.00     0.173 A 
ATOM     73  C   UNL     1      -7.110   8.113  14.305  1.00  0.00     0.173 A 
ATOM     74  F   UNL     1     -10.696   7.547  14.316  1.00  0.00    -0.203 F 
ATOM     75  C   UNL     1      -9.387   9.047  15.567  1.00  0.00     0.198 A 
ATOM     76  C   UNL     1      -7.013   9.103  15.282  1.00  0.00     0.198 A 
ATOM     77  F   UNL     1      -5.965   7.640  13.790  1.00  0.00    -0.203 F 
ATOM     78  F   UNL     1     -10.488   9.464  16.209  1.00  0.00    -0.200 F 
ATOM     79  C   UNL     1      -8.150   9.560  15.924  1.00  0.00     0.200 A 
ATOM     80  F   UNL     1      -5.808   9.563  15.645  1.00  0.00    -0.200 F 
ATOM     81  F   UNL     1      -8.049  10.460  16.911  1.00  0.00    -0.200 F 
ENDBRANCH  47  71
BRANCH  59  82
ATOM     82  C   UNL     1     -11.117   2.918  10.764  1.00  0.00     0.064 A 
ATOM     83  C   UNL     1     -10.579   3.830   9.843  1.00  0.00     0.173 A 
ATOM     84  C   UNL     1     -12.391   2.401  10.502  1.00  0.00     0.173 A 
ATOM     85  F   UNL     1      -9.336   4.307   9.993  1.00  0.00    -0.203 F 
ATOM     86  C   UNL     1     -11.310   4.241   8.730  1.00  0.00     0.198 A 
ATOM     87  C   UNL     1     -13.105   2.786   9.372  1.00  0.00     0.198 A 
ATOM     88  F   UNL     1     -12.933   1.496  11.332  1.00  0.00    -0.203 F 
ATOM     89  F   UNL     1     -10.789   5.133   7.875  1.00  0.00    -0.200 F 
ATOM     90  C   UNL     1     -12.570   3.715   8.494  1.00  0.00     0.200 A 
ATOM     91  F   UNL     1     -14.306   2.244   9.128  1.00  0.00    -0.200 F 
ATOM     92  F   UNL     1     -13.263   4.088   7.410  1.00  0.00    -0.200 F 
ENDBRANCH  59  82
ENDBRANCH  33  34
ENDBRANCH  26  28
ENDBRANCH  25  26
ENDBRANCH  24  25
ENDBRANCH   1  24
TORSDOF 13
