REMARK SMILES CC(C)c1cc2c(cc1Cl)C=C(C(=O)OCCOC(=O)c1ccc(-c3c4nc(c(-c5c(F)c(F)c(F)c(F)c5F)c5ccc([nH]5)c(-c5c(F)c(F)c(F)c(F)c5F)c5nc(c(-c6c(F)c(F)c(F)c(F)c6F)c6ccc3[nH]6)C=C5)C=C4)cc1)[C@@H](C(F)(F)F)O2
REMARK SMILES IDX 17 1 16 2 15 3 13 4 14 5 12 6 4 7 5 8 9 9 6 10 8 11 10 12
REMARK SMILES IDX 7 13 89 14 11 15 84 16 2 17 1 18 3 19 85 20 86 21 87 22
REMARK SMILES IDX 88 23 18 24 19 25 20 26 21 27 22 28 83 29 23 30 82 31 24 32
REMARK SMILES IDX 25 33 26 34 76 35 27 36 81 37 75 38 77 39 28 40 80 41 74 42
REMARK SMILES IDX 73 43 29 45 61 46 41 47 60 48 42 49 45 50 59 51 78 52 43 53
REMARK SMILES IDX 44 54 58 56 79 57 46 58 30 59 31 60 39 61 32 62 33 63 37 64
REMARK SMILES IDX 40 65 34 66 35 67 38 68 36 69 62 70 63 71 71 72 64 73 65 74
REMARK SMILES IDX 69 75 72 76 66 77 67 78 70 79 68 80 47 81 48 82 56 83 49 84
REMARK SMILES IDX 50 85 54 86 57 87 51 88 52 89 55 90 53 91
REMARK H PARENT 77 44 45 55
REMARK Flexibility Score: inf
ROOT
ATOM      1  C   UNL     1      -9.922  -2.259  -0.032  1.00  0.00     0.275 C 
ENDROOT
BRANCH   1   2
ATOM      2  C   UNL     1      -9.251  -3.042  -1.161  1.00  0.00     0.275 C 
BRANCH   2   3
ATOM      3  O   UNL     1      -7.811  -3.020  -1.036  1.00  0.00    -0.459 OA
BRANCH   3   4
ATOM      4  C   UNL     1      -7.164  -2.183  -1.880  1.00  0.00     0.338 C 
ATOM      5  O   UNL     1      -7.676  -1.457  -2.719  1.00  0.00    -0.246 OA
BRANCH   4   6
ATOM      6  C   UNL     1      -5.712  -2.193  -1.613  1.00  0.00     0.087 C 
ATOM      7  C   UNL     1      -0.840  -0.918  -1.186  1.00  0.00    -0.023 A 
ATOM      8  C   UNL     1      -1.564  -2.130  -1.085  1.00  0.00     0.052 A 
ATOM      9  C   UNL     1      -1.578   0.263  -1.403  1.00  0.00     0.045 A 
ATOM     10  C   UNL     1      -2.956  -2.167  -1.228  1.00  0.00     0.128 A 
ATOM     11  C   UNL     1      -2.969   0.230  -1.505  1.00  0.00     0.032 A 
ATOM     12  Cl  UNL     1      -0.837   1.814  -1.609  1.00  0.00    -0.084 Cl
ATOM     13  C   UNL     1      -3.651  -0.985  -1.439  1.00  0.00     0.019 A 
ATOM     14  O   UNL     1      -3.566  -3.389  -1.139  1.00  0.00    -0.475 OA
ATOM     15  C   UNL     1      -5.085  -1.012  -1.616  1.00  0.00     0.027 C 
ATOM     16  C   UNL     1      -4.977  -3.499  -1.501  1.00  0.00     0.316 C 
BRANCH   7  17
ATOM     17  C   UNL     1       0.684  -0.885  -1.090  1.00  0.00     0.014 C 
ATOM     18  C   UNL     1       1.157  -0.264   0.232  1.00  0.00     0.012 C 
ATOM     19  C   UNL     1       1.375  -2.243  -1.269  1.00  0.00     0.012 C 
ENDBRANCH   7  17
BRANCH  16  20
ATOM     20  C   UNL     1      -5.106  -4.293  -2.814  1.00  0.00     0.430 C 
ATOM     21  F   UNL     1      -4.426  -5.461  -2.760  1.00  0.00    -0.167 F 
ATOM     22  F   UNL     1      -6.398  -4.606  -3.077  1.00  0.00    -0.167 F 
ATOM     23  F   UNL     1      -4.638  -3.597  -3.876  1.00  0.00    -0.167 F 
ENDBRANCH  16  20
ENDBRANCH   4   6
ENDBRANCH   3   4
ENDBRANCH   2   3
ENDBRANCH   1   2
BRANCH   1  24
ATOM     24  O   UNL     1      -9.626  -0.856  -0.156  1.00  0.00    -0.458 OA
BRANCH  24  25
ATOM     25  C   UNL     1      -8.859  -0.327   0.824  1.00  0.00     0.338 C 
ATOM     26  O   UNL     1      -8.421  -0.883   1.814  1.00  0.00    -0.246 OA
BRANCH  25  27
ATOM     27  C   UNL     1      -8.525   1.064   0.480  1.00  0.00     0.060 A 
ATOM     28  C   UNL     1      -8.950   2.132   1.260  1.00  0.00     0.016 A 
ATOM     29  C   UNL     1      -7.645   1.283  -0.572  1.00  0.00     0.016 A 
ATOM     30  C   UNL     1      -8.499   3.424   0.953  1.00  0.00     0.010 A 
ATOM     31  C   UNL     1      -7.082   2.537  -0.782  1.00  0.00     0.010 A 
ATOM     32  C   UNL     1      -7.530   3.641  -0.051  1.00  0.00    -0.014 A 
BRANCH  32  33
ATOM     33  C   UNL     1      -7.000   5.006  -0.351  1.00  0.00     0.031 A 
ATOM     34  C   UNL     1      -7.051   5.572  -1.753  1.00  0.00     0.074 A 
ATOM     35  C   UNL     1      -6.426   5.735   0.628  1.00  0.00     0.049 A 
ATOM     36  N   UNL     1      -6.625   6.732  -2.196  1.00  0.00    -0.248 NA
ATOM     37  C   UNL     1      -7.605   4.709  -2.809  1.00  0.00     0.031 C 
ATOM     38  C   UNL     1      -6.207   5.282   2.003  1.00  0.00     0.029 A 
ATOM     39  N   UNL     1      -5.938   7.019   0.624  1.00  0.00    -0.354 N 
ATOM     40  C   UNL     1      -6.829   6.715  -3.571  1.00  0.00     0.074 A 
ATOM     41  C   UNL     1      -7.341   5.405  -3.904  1.00  0.00     0.031 C 
ATOM     42  C   UNL     1      -5.709   6.296   2.727  1.00  0.00     0.029 A 
ATOM     43  C   UNL     1      -5.535   7.459   1.862  1.00  0.00     0.049 A 
ATOM     44  H   UNL     1      -5.882   7.572  -0.189  1.00  0.00     0.167 HD
ATOM     45  C   UNL     1      -6.657   7.711  -4.474  1.00  0.00     0.037 A 
ATOM     46  C   UNL     1      -5.096   8.668   2.264  1.00  0.00     0.037 A 
ATOM     47  C   UNL     1      -6.227   9.041  -4.138  1.00  0.00     0.049 A 
ATOM     48  C   UNL     1      -4.983   9.783   1.262  1.00  0.00     0.074 A 
ATOM     49  C   UNL     1      -6.115  10.146  -4.963  1.00  0.00     0.029 A 
ATOM     50  N   UNL     1      -5.854   9.450  -2.867  1.00  0.00    -0.354 N 
ATOM     51  N   UNL     1      -5.253   9.772  -0.020  1.00  0.00    -0.248 NA
ATOM     52  C   UNL     1      -4.505  11.079   1.764  1.00  0.00     0.031 C 
ATOM     53  C   UNL     1      -5.649  11.219  -4.196  1.00  0.00     0.029 A 
ATOM     54  C   UNL     1      -5.504  10.790  -2.887  1.00  0.00     0.049 A 
ATOM     55  H   UNL     1      -5.839   8.874  -2.069  1.00  0.00     0.167 HD
ATOM     56  C   UNL     1      -4.987  11.055  -0.477  1.00  0.00     0.074 A 
ATOM     57  C   UNL     1      -4.560  11.828   0.671  1.00  0.00     0.031 C 
ATOM     58  C   UNL     1      -5.078  11.545  -1.737  1.00  0.00     0.037 A 
BRANCH  45  59
ATOM     59  C   UNL     1      -6.985   7.415  -5.911  1.00  0.00     0.064 A 
ATOM     60  C   UNL     1      -8.308   7.201  -6.331  1.00  0.00     0.173 A 
ATOM     61  C   UNL     1      -5.978   7.388  -6.888  1.00  0.00     0.173 A 
ATOM     62  F   UNL     1      -9.309   7.210  -5.438  1.00  0.00    -0.203 F 
ATOM     63  C   UNL     1      -8.605   6.935  -7.665  1.00  0.00     0.198 A 
ATOM     64  C   UNL     1      -6.283   7.155  -8.227  1.00  0.00     0.198 A 
ATOM     65  F   UNL     1      -4.698   7.599  -6.546  1.00  0.00    -0.203 F 
ATOM     66  F   UNL     1      -9.869   6.681  -8.030  1.00  0.00    -0.200 F 
ATOM     67  C   UNL     1      -7.594   6.920  -8.613  1.00  0.00     0.200 A 
ATOM     68  F   UNL     1      -5.307   7.158  -9.146  1.00  0.00    -0.200 F 
ATOM     69  F   UNL     1      -7.883   6.674  -9.898  1.00  0.00    -0.200 F 
ENDBRANCH  45  59
BRANCH  46  70
ATOM     70  C   UNL     1      -4.809   8.902   3.703  1.00  0.00     0.064 A 
ATOM     71  C   UNL     1      -5.679   9.677   4.483  1.00  0.00     0.173 A 
ATOM     72  C   UNL     1      -3.695   8.333   4.335  1.00  0.00     0.173 A 
ATOM     73  F   UNL     1      -6.747  10.258   3.918  1.00  0.00    -0.203 F 
ATOM     74  C   UNL     1      -5.441   9.879   5.841  1.00  0.00     0.198 A 
ATOM     75  C   UNL     1      -3.472   8.515   5.698  1.00  0.00     0.198 A 
ATOM     76  F   UNL     1      -2.838   7.578   3.633  1.00  0.00    -0.203 F 
ATOM     77  F   UNL     1      -6.274  10.647   6.557  1.00  0.00    -0.200 F 
ATOM     78  C   UNL     1      -4.343   9.291   6.449  1.00  0.00     0.200 A 
ATOM     79  F   UNL     1      -2.418   7.934   6.287  1.00  0.00    -0.200 F 
ATOM     80  F   UNL     1      -4.124   9.473   7.758  1.00  0.00    -0.200 F 
ENDBRANCH  46  70
BRANCH  58  81
ATOM     81  C   UNL     1      -4.710  12.983  -1.948  1.00  0.00     0.064 A 
ATOM     82  C   UNL     1      -3.372  13.403  -1.919  1.00  0.00     0.173 A 
ATOM     83  C   UNL     1      -5.694  13.937  -2.247  1.00  0.00     0.173 A 
ATOM     84  F   UNL     1      -2.397  12.530  -1.625  1.00  0.00    -0.203 F 
ATOM     85  C   UNL     1      -3.035  14.731  -2.165  1.00  0.00     0.198 A 
ATOM     86  C   UNL     1      -5.351  15.258  -2.519  1.00  0.00     0.198 A 
ATOM     87  F   UNL     1      -6.987  13.583  -2.295  1.00  0.00    -0.203 F 
ATOM     88  F   UNL     1      -1.754  15.118  -2.098  1.00  0.00    -0.200 F 
ATOM     89  C   UNL     1      -4.022  15.655  -2.474  1.00  0.00     0.200 A 
ATOM     90  F   UNL     1      -6.304  16.147  -2.830  1.00  0.00    -0.200 F 
ATOM     91  F   UNL     1      -3.694  16.930  -2.723  1.00  0.00    -0.200 F 
ENDBRANCH  58  81
ENDBRANCH  32  33
ENDBRANCH  25  27
ENDBRANCH  24  25
ENDBRANCH   1  24
TORSDOF 13
