REMARK SMILES C[C@@H](CCC(=O)OCCOC(=O)c1ccc(-c2c3nc(c(-c4c(F)c(F)c(F)c(F)c4F)c4ccc([nH]4)c(-c4c(F)c(F)c(F)c(F)c4F)c4nc(c(-c5c(F)c(F)c(F)c(F)c5F)c5ccc2[nH]5)C=C4)C=C3)cc1)[C@@H]1CC[C@H]2[C@@H]3CC[C@H]4CC(=O)CC[C@@]4(C)[C@H]3CC(=O)[C@@]21C
REMARK SMILES IDX 8 1 7 2 5 3 6 4 4 5 3 6 2 7 1 8 76 9 77 10 95 11 78 12 79 13
REMARK SMILES IDX 93 14 96 15 80 16 92 17 94 18 81 19 91 20 82 21 89 22 83 23
REMARK SMILES IDX 88 24 90 25 84 26 87 27 85 28 86 29 9 30 10 31 11 32 12 33
REMARK SMILES IDX 13 34 14 35 75 36 15 37 74 38 16 39 17 40 18 41 68 42 19 43
REMARK SMILES IDX 73 44 67 45 69 46 20 47 72 48 66 49 65 50 21 52 53 53 33 54
REMARK SMILES IDX 52 55 34 56 37 57 51 58 70 59 35 60 36 61 50 63 71 64 38 65
REMARK SMILES IDX 22 66 23 67 31 68 24 69 25 70 29 71 32 72 26 73 27 74 30 75
REMARK SMILES IDX 28 76 54 77 55 78 63 79 56 80 57 81 61 82 64 83 58 84 59 85
REMARK SMILES IDX 62 86 60 87 39 88 40 89 48 90 41 91 42 92 46 93 49 94 43 95
REMARK SMILES IDX 44 96 47 97 45 98
REMARK H PARENT 69 51 37 62
REMARK Flexibility Score: inf
ROOT
ATOM      1  C   UNL     1      -1.325  -0.733  -3.739  1.00  0.00     0.274 C 
ENDROOT
BRANCH   1   2
ATOM      2  O   UNL     1      -1.026   0.501  -3.027  1.00  0.00    -0.462 OA
BRANCH   2   3
ATOM      3  C   UNL     1      -1.281   1.673  -3.653  1.00  0.00     0.305 C 
ATOM      4  O   UNL     1      -1.787   1.742  -4.769  1.00  0.00    -0.252 OA
BRANCH   3   5
ATOM      5  C   UNL     1      -0.753   2.909  -2.926  1.00  0.00     0.123 C 
BRANCH   5   6
ATOM      6  C   UNL     1      -1.277   3.357  -1.544  1.00  0.00     0.015 C 
BRANCH   6   7
ATOM      7  C   UNL     1      -0.657   2.744  -0.221  1.00  0.00    -0.010 C 
ATOM      8  C   UNL     1       0.841   2.556  -0.349  1.00  0.00     0.008 C 
BRANCH   7   9
ATOM      9  C   UNL     1      -1.495   1.531   0.231  1.00  0.00     0.005 C 
ATOM     10  C   UNL     1      -2.780   1.951   0.980  1.00  0.00     0.005 C 
ATOM     11  C   UNL     1      -1.097   0.107   0.774  1.00  0.00     0.032 C 
ATOM     12  C   UNL     1      -3.471   0.634   1.272  1.00  0.00     0.005 C 
ATOM     13  C   UNL     1      -2.303  -0.231   1.705  1.00  0.00     0.006 C 
ATOM     14  C   UNL     1       0.054  -0.359   1.659  1.00  0.00     0.139 C 
ATOM     15  C   UNL     1      -0.905  -0.775  -0.465  1.00  0.00     0.020 C 
ATOM     16  C   UNL     1      -2.589  -1.724   1.829  1.00  0.00    -0.003 C 
ATOM     17  C   UNL     1       0.043  -1.900   1.958  1.00  0.00     0.080 C 
ATOM     18  O   UNL     1       0.933   0.382   2.084  1.00  0.00    -0.299 OA
ATOM     19  C   UNL     1      -3.812  -1.949   2.735  1.00  0.00     0.004 C 
ATOM     20  C   UNL     1      -1.349  -2.436   2.426  1.00  0.00     0.006 C 
ATOM     21  C   UNL     1      -4.022  -3.391   3.166  1.00  0.00     0.005 C 
ATOM     22  C   UNL     1      -1.606  -4.007   2.525  1.00  0.00    -0.025 C 
ATOM     23  C   UNL     1      -2.727  -4.125   3.604  1.00  0.00     0.002 C 
ATOM     24  C   UNL     1      -2.084  -4.761   1.232  1.00  0.00     0.015 C 
ATOM     25  C   UNL     1      -0.297  -4.697   2.970  1.00  0.00     0.012 C 
ATOM     26  C   UNL     1      -3.029  -5.575   3.957  1.00  0.00     0.079 C 
ATOM     27  C   UNL     1      -3.120  -5.911   1.389  1.00  0.00     0.076 C 
ATOM     28  C   UNL     1      -3.648  -6.249   2.772  1.00  0.00     0.133 C 
ATOM     29  O   UNL     1      -4.551  -7.074   2.922  1.00  0.00    -0.300 OA
ENDBRANCH   7   9
ENDBRANCH   6   7
ENDBRANCH   5   6
ENDBRANCH   3   5
ENDBRANCH   2   3
ENDBRANCH   1   2
BRANCH   1  30
ATOM     30  C   UNL     1      -2.657  -1.414  -3.367  1.00  0.00     0.275 C 
BRANCH  30  31
ATOM     31  O   UNL     1      -3.783  -0.617  -3.736  1.00  0.00    -0.458 OA
BRANCH  31  32
ATOM     32  C   UNL     1      -4.103   0.330  -2.838  1.00  0.00     0.338 C 
ATOM     33  O   UNL     1      -3.607   0.563  -1.753  1.00  0.00    -0.246 OA
BRANCH  32  34
ATOM     34  C   UNL     1      -5.165   1.146  -3.342  1.00  0.00     0.060 A 
ATOM     35  C   UNL     1      -4.840   2.349  -3.970  1.00  0.00     0.016 A 
ATOM     36  C   UNL     1      -6.465   0.681  -3.186  1.00  0.00     0.016 A 
ATOM     37  C   UNL     1      -5.840   3.050  -4.598  1.00  0.00     0.010 A 
ATOM     38  C   UNL     1      -7.462   1.369  -3.833  1.00  0.00     0.010 A 
ATOM     39  C   UNL     1      -7.126   2.507  -4.588  1.00  0.00    -0.014 A 
BRANCH  39  40
ATOM     40  C   UNL     1      -8.131   3.030  -5.506  1.00  0.00     0.031 A 
ATOM     41  C   UNL     1      -9.284   3.765  -4.945  1.00  0.00     0.074 A 
ATOM     42  C   UNL     1      -8.010   2.672  -6.795  1.00  0.00     0.049 A 
ATOM     43  N   UNL     1     -10.389   4.117  -5.533  1.00  0.00    -0.248 NA
ATOM     44  C   UNL     1      -9.201   4.116  -3.518  1.00  0.00     0.031 C 
ATOM     45  C   UNL     1      -6.885   1.916  -7.359  1.00  0.00     0.029 A 
ATOM     46  N   UNL     1      -8.855   2.850  -7.849  1.00  0.00    -0.354 N 
ATOM     47  C   UNL     1     -11.150   4.713  -4.544  1.00  0.00     0.074 A 
ATOM     48  C   UNL     1     -10.397   4.644  -3.311  1.00  0.00     0.031 C 
ATOM     49  C   UNL     1      -7.122   1.679  -8.657  1.00  0.00     0.029 A 
ATOM     50  C   UNL     1      -8.434   2.213  -8.989  1.00  0.00     0.049 A 
ATOM     51  H   UNL     1      -9.683   3.381  -7.798  1.00  0.00     0.167 HD
ATOM     52  C   UNL     1     -12.377   5.261  -4.684  1.00  0.00     0.037 A 
ATOM     53  C   UNL     1      -9.076   2.044 -10.156  1.00  0.00     0.037 A 
ATOM     54  C   UNL     1     -13.080   5.267  -5.938  1.00  0.00     0.049 A 
ATOM     55  C   UNL     1     -10.444   2.646 -10.279  1.00  0.00     0.074 A 
ATOM     56  C   UNL     1     -14.308   5.820  -6.239  1.00  0.00     0.029 A 
ATOM     57  N   UNL     1     -12.610   4.665  -7.104  1.00  0.00    -0.354 N 
ATOM     58  N   UNL     1     -11.153   3.270  -9.365  1.00  0.00    -0.248 NA
ATOM     59  C   UNL     1     -11.102   2.534 -11.582  1.00  0.00     0.031 C 
ATOM     60  C   UNL     1     -14.610   5.495  -7.566  1.00  0.00     0.029 A 
ATOM     61  C   UNL     1     -13.539   4.806  -8.119  1.00  0.00     0.049 A 
ATOM     62  H   UNL     1     -11.743   4.206  -7.191  1.00  0.00     0.167 HD
ATOM     63  C   UNL     1     -12.330   3.651  -9.985  1.00  0.00     0.074 A 
ATOM     64  C   UNL     1     -12.235   3.188 -11.359  1.00  0.00     0.031 C 
ATOM     65  C   UNL     1     -13.390   4.326  -9.474  1.00  0.00     0.037 A 
BRANCH  52  66
ATOM     66  C   UNL     1     -13.018   5.821  -3.450  1.00  0.00     0.064 A 
ATOM     67  C   UNL     1     -12.483   6.928  -2.771  1.00  0.00     0.173 A 
ATOM     68  C   UNL     1     -14.158   5.211  -2.908  1.00  0.00     0.173 A 
ATOM     69  F   UNL     1     -11.379   7.537  -3.232  1.00  0.00    -0.203 F 
ATOM     70  C   UNL     1     -13.036   7.370  -1.571  1.00  0.00     0.198 A 
ATOM     71  C   UNL     1     -14.731   5.680  -1.728  1.00  0.00     0.198 A 
ATOM     72  F   UNL     1     -14.707   4.146  -3.509  1.00  0.00    -0.203 F 
ATOM     73  F   UNL     1     -12.457   8.375  -0.899  1.00  0.00    -0.200 F 
ATOM     74  C   UNL     1     -14.161   6.748  -1.054  1.00  0.00     0.200 A 
ATOM     75  F   UNL     1     -15.824   5.082  -1.234  1.00  0.00    -0.200 F 
ATOM     76  F   UNL     1     -14.687   7.168   0.105  1.00  0.00    -0.200 F 
ENDBRANCH  52  66
BRANCH  53  77
ATOM     77  C   UNL     1      -8.421   1.288 -11.250  1.00  0.00     0.064 A 
ATOM     78  C   UNL     1      -7.947   1.943 -12.394  1.00  0.00     0.173 A 
ATOM     79  C   UNL     1      -8.183  -0.092 -11.143  1.00  0.00     0.173 A 
ATOM     80  F   UNL     1      -8.149   3.260 -12.542  1.00  0.00    -0.203 F 
ATOM     81  C   UNL     1      -7.272   1.246 -13.395  1.00  0.00     0.198 A 
ATOM     82  C   UNL     1      -7.485  -0.783 -12.132  1.00  0.00     0.198 A 
ATOM     83  F   UNL     1      -8.597  -0.763 -10.058  1.00  0.00    -0.203 F 
ATOM     84  F   UNL     1      -6.851   1.893 -14.490  1.00  0.00    -0.200 F 
ATOM     85  C   UNL     1      -7.034  -0.114 -13.259  1.00  0.00     0.200 A 
ATOM     86  F   UNL     1      -7.235  -2.091 -11.984  1.00  0.00    -0.200 F 
ATOM     87  F   UNL     1      -6.370  -0.779 -14.214  1.00  0.00    -0.200 F 
ENDBRANCH  53  77
BRANCH  65  88
ATOM     88  C   UNL     1     -14.508   4.639 -10.421  1.00  0.00     0.064 A 
ATOM     89  C   UNL     1     -15.391   3.650 -10.874  1.00  0.00     0.173 A 
ATOM     90  C   UNL     1     -14.743   5.967 -10.810  1.00  0.00     0.173 A 
ATOM     91  F   UNL     1     -15.194   2.365 -10.543  1.00  0.00    -0.203 F 
ATOM     92  C   UNL     1     -16.465   3.978 -11.694  1.00  0.00     0.198 A 
ATOM     93  C   UNL     1     -15.838   6.296 -11.599  1.00  0.00     0.198 A 
ATOM     94  F   UNL     1     -13.926   6.947 -10.395  1.00  0.00    -0.203 F 
ATOM     95  F   UNL     1     -17.277   3.014 -12.149  1.00  0.00    -0.200 F 
ATOM     96  C   UNL     1     -16.695   5.301 -12.044  1.00  0.00     0.200 A 
ATOM     97  F   UNL     1     -16.070   7.576 -11.918  1.00  0.00    -0.200 F 
ATOM     98  F   UNL     1     -17.746   5.618 -12.813  1.00  0.00    -0.200 F 
ENDBRANCH  65  88
ENDBRANCH  39  40
ENDBRANCH  32  34
ENDBRANCH  31  32
ENDBRANCH  30  31
ENDBRANCH   1  30
TORSDOF 14
