REMARK SMILES O=C(C[C@@H]1CSCC[NH2+]1)NC[C@H]1CC[C@@H](C(=O)OCCOC(=O)c2ccc(-c3c4nc(c(-c5c(F)c(F)c(F)c(F)c5F)c5ccc([nH]5)c(-c5c(F)c(F)c(F)c(F)c5F)c5nc(c(-c6c(F)c(F)c(F)c(F)c6F)c6ccc3[nH]6)C=C5)C=C4)cc2)O1
REMARK SMILES IDX 19 1 18 2 16 3 17 4 15 5 12 6 13 7 87 8 14 9 11 10 10 11
REMARK SMILES IDX 1 12 2 13 3 15 4 16 5 17 9 18 6 19 8 20 7 23 20 24 21 25
REMARK SMILES IDX 22 26 23 27 24 28 25 29 86 30 26 31 85 32 27 33 28 34 29 35
REMARK SMILES IDX 79 36 30 37 84 38 78 39 80 40 31 41 83 42 77 43 76 44 32 46
REMARK SMILES IDX 64 47 44 48 63 49 45 50 48 51 62 52 81 53 46 54 47 55 61 57
REMARK SMILES IDX 82 58 49 59 33 60 34 61 42 62 35 63 36 64 40 65 43 66 37 67
REMARK SMILES IDX 38 68 41 69 39 70 65 71 66 72 74 73 67 74 68 75 72 76 75 77
REMARK SMILES IDX 69 78 70 79 73 80 71 81 50 82 51 83 59 84 52 85 53 86 57 87
REMARK SMILES IDX 60 88 54 89 55 90 58 91 56 92
REMARK H PARENT 10 14 9 21 9 22 80 45 48 56
REMARK Flexibility Score: inf
ROOT
ATOM      1  C   UNL     1       6.649   7.048  -1.916  1.00  0.00     0.274 C 
ENDROOT
BRANCH   1   2
ATOM      2  O   UNL     1       5.275   6.614  -1.848  1.00  0.00    -0.460 OA
BRANCH   2   3
ATOM      3  C   UNL     1       4.939   5.593  -2.682  1.00  0.00     0.335 C 
ATOM      4  O   UNL     1       5.710   5.055  -3.471  1.00  0.00    -0.249 OA
BRANCH   3   5
ATOM      5  C   UNL     1       3.502   5.105  -2.486  1.00  0.00     0.228 C 
ATOM      6  C   UNL     1       2.154   4.128  -0.834  1.00  0.00     0.138 C 
ATOM      7  C   UNL     1       1.374   5.232  -1.541  1.00  0.00     0.037 C 
ATOM      8  O   UNL     1       3.408   4.027  -1.538  1.00  0.00    -0.361 OA
ATOM      9  C   UNL     1       2.479   6.134  -2.047  1.00  0.00     0.047 C 
BRANCH   6  10
ATOM     10  C   UNL     1       2.401   4.493   0.635  1.00  0.00     0.147 C 
BRANCH  10  11
ATOM     11  N   UNL     1       3.237   3.568   1.376  1.00  0.00    -0.353 N 
ATOM     12  O   UNL     1       3.114   4.913   3.218  1.00  0.00    -0.275 OA
ATOM     13  C   UNL     1       3.570   3.910   2.671  1.00  0.00     0.226 C 
ATOM     14  H   UNL     1       3.554   2.729   0.972  1.00  0.00     0.163 HD
BRANCH  13  15
ATOM     15  C   UNL     1       4.468   2.948   3.414  1.00  0.00     0.165 C 
BRANCH  15  16
ATOM     16  C   UNL     1       3.655   1.954   4.267  1.00  0.00     0.201 C 
ATOM     17  C   UNL     1       2.594   2.579   5.200  1.00  0.00     0.135 C 
ATOM     18  N   UNL     1       4.532   0.980   4.973  1.00  0.00    -0.342 N 
ATOM     19  S   UNL     1       3.300   3.470   6.615  1.00  0.00    -0.150 SA
ATOM     20  C   UNL     1       5.239   1.552   6.131  1.00  0.00     0.271 C 
ATOM     21  H   UNL     1       5.226   0.632   4.311  1.00  0.00     0.346 HD
ATOM     22  H   UNL     1       3.929   0.238   5.328  1.00  0.00     0.346 HD
ATOM     23  C   UNL     1       4.333   2.113   7.230  1.00  0.00     0.131 C 
ENDBRANCH  15  16
ENDBRANCH  13  15
ENDBRANCH  10  11
ENDBRANCH   6  10
ENDBRANCH   3   5
ENDBRANCH   2   3
ENDBRANCH   1   2
BRANCH   1  24
ATOM     24  C   UNL     1       7.468   6.445  -0.777  1.00  0.00     0.275 C 
BRANCH  24  25
ATOM     25  O   UNL     1       7.451   5.007  -0.857  1.00  0.00    -0.458 OA
BRANCH  25  26
ATOM     26  C   UNL     1       6.817   4.387   0.160  1.00  0.00     0.338 C 
ATOM     27  O   UNL     1       6.318   4.894   1.151  1.00  0.00    -0.246 OA
BRANCH  26  28
ATOM     28  C   UNL     1       6.788   2.931  -0.042  1.00  0.00     0.060 A 
ATOM     29  C   UNL     1       6.001   2.384  -1.053  1.00  0.00     0.016 A 
ATOM     30  C   UNL     1       7.364   2.107   0.927  1.00  0.00     0.016 A 
ATOM     31  C   UNL     1       5.698   1.024  -1.038  1.00  0.00     0.010 A 
ATOM     32  C   UNL     1       7.114   0.732   0.903  1.00  0.00     0.010 A 
ATOM     33  C   UNL     1       6.246   0.185  -0.057  1.00  0.00    -0.014 A 
BRANCH  33  34
ATOM     34  C   UNL     1       5.866  -1.248   0.007  1.00  0.00     0.031 A 
ATOM     35  C   UNL     1       5.070  -1.769   1.165  1.00  0.00     0.074 A 
ATOM     36  C   UNL     1       6.168  -2.090  -0.993  1.00  0.00     0.049 A 
ATOM     37  N   UNL     1       4.907  -2.993   1.593  1.00  0.00    -0.248 NA
ATOM     38  C   UNL     1       4.352  -0.759   1.946  1.00  0.00     0.031 C 
ATOM     39  C   UNL     1       6.822  -1.721  -2.243  1.00  0.00     0.029 A 
ATOM     40  N   UNL     1       5.933  -3.435  -1.111  1.00  0.00    -0.354 N 
ATOM     41  C   UNL     1       4.167  -2.885   2.765  1.00  0.00     0.074 A 
ATOM     42  C   UNL     1       3.849  -1.488   2.931  1.00  0.00     0.031 C 
ATOM     43  C   UNL     1       6.900  -2.808  -3.026  1.00  0.00     0.029 A 
ATOM     44  C   UNL     1       6.383  -3.961  -2.292  1.00  0.00     0.049 A 
ATOM     45  H   UNL     1       5.486  -3.970  -0.416  1.00  0.00     0.167 HD
ATOM     46  C   UNL     1       3.812  -3.866   3.629  1.00  0.00     0.037 A 
ATOM     47  C   UNL     1       6.408  -5.238  -2.715  1.00  0.00     0.037 A 
ATOM     48  C   UNL     1       4.000  -5.266   3.357  1.00  0.00     0.049 A 
ATOM     49  C   UNL     1       5.900  -6.325  -1.811  1.00  0.00     0.074 A 
ATOM     50  C   UNL     1       3.741  -6.360   4.163  1.00  0.00     0.029 A 
ATOM     51  N   UNL     1       4.426  -5.760   2.134  1.00  0.00    -0.354 N 
ATOM     52  N   UNL     1       5.441  -6.233  -0.587  1.00  0.00    -0.248 NA
ATOM     53  C   UNL     1       5.929  -7.695  -2.340  1.00  0.00     0.031 C 
ATOM     54  C   UNL     1       3.986  -7.519   3.414  1.00  0.00     0.029 A 
ATOM     55  C   UNL     1       4.380  -7.141   2.140  1.00  0.00     0.049 A 
ATOM     56  H   UNL     1       4.720  -5.208   1.373  1.00  0.00     0.167 HD
ATOM     57  C   UNL     1       5.135  -7.528  -0.194  1.00  0.00     0.074 A 
ATOM     58  C   UNL     1       5.432  -8.386  -1.323  1.00  0.00     0.031 C 
ATOM     59  C   UNL     1       4.668  -7.970   1.000  1.00  0.00     0.037 A 
BRANCH  46  60
ATOM     60  C   UNL     1       3.244  -3.460   4.957  1.00  0.00     0.064 A 
ATOM     61  C   UNL     1       1.940  -2.968   5.104  1.00  0.00     0.173 A 
ATOM     62  C   UNL     1       4.028  -3.589   6.116  1.00  0.00     0.173 A 
ATOM     63  F   UNL     1       1.155  -2.809   4.029  1.00  0.00    -0.203 F 
ATOM     64  C   UNL     1       1.450  -2.600   6.357  1.00  0.00     0.198 A 
ATOM     65  C   UNL     1       3.526  -3.247   7.369  1.00  0.00     0.198 A 
ATOM     66  F   UNL     1       5.282  -4.060   6.034  1.00  0.00    -0.203 F 
ATOM     67  F   UNL     1       0.213  -2.096   6.468  1.00  0.00    -0.200 F 
ATOM     68  C   UNL     1       2.240  -2.747   7.488  1.00  0.00     0.200 A 
ATOM     69  F   UNL     1       4.287  -3.405   8.461  1.00  0.00    -0.200 F 
ATOM     70  F   UNL     1       1.761  -2.406   8.693  1.00  0.00    -0.200 F 
ENDBRANCH  46  60
BRANCH  47  71
ATOM     71  C   UNL     1       6.954  -5.529  -4.061  1.00  0.00     0.064 A 
ATOM     72  C   UNL     1       6.105  -5.864  -5.122  1.00  0.00     0.173 A 
ATOM     73  C   UNL     1       8.323  -5.388  -4.332  1.00  0.00     0.173 A 
ATOM     74  F   UNL     1       4.792  -6.023  -4.904  1.00  0.00    -0.203 F 
ATOM     75  C   UNL     1       6.605  -6.040  -6.410  1.00  0.00     0.198 A 
ATOM     76  C   UNL     1       8.817  -5.537  -5.624  1.00  0.00     0.198 A 
ATOM     77  F   UNL     1       9.171  -5.055  -3.347  1.00  0.00    -0.203 F 
ATOM     78  F   UNL     1       5.775  -6.371  -7.408  1.00  0.00    -0.200 F 
ATOM     79  C   UNL     1       7.958  -5.863  -6.662  1.00  0.00     0.200 A 
ATOM     80  F   UNL     1      10.121  -5.343  -5.867  1.00  0.00    -0.200 F 
ATOM     81  F   UNL     1       8.433  -6.003  -7.907  1.00  0.00    -0.200 F 
ENDBRANCH  47  71
BRANCH  59  82
ATOM     82  C   UNL     1       4.428  -9.439   1.139  1.00  0.00     0.064 A 
ATOM     83  C   UNL     1       5.487 -10.328   1.370  1.00  0.00     0.173 A 
ATOM     84  C   UNL     1       3.126  -9.954   1.088  1.00  0.00     0.173 A 
ATOM     85  F   UNL     1       6.749  -9.877   1.417  1.00  0.00    -0.203 F 
ATOM     86  C   UNL     1       5.249 -11.690   1.530  1.00  0.00     0.198 A 
ATOM     87  C   UNL     1       2.891 -11.314   1.262  1.00  0.00     0.198 A 
ATOM     88  F   UNL     1       2.084  -9.137   0.873  1.00  0.00    -0.203 F 
ATOM     89  F   UNL     1       6.276 -12.529   1.724  1.00  0.00    -0.200 F 
ATOM     90  C   UNL     1       3.952 -12.181   1.480  1.00  0.00     0.200 A 
ATOM     91  F   UNL     1       1.638 -11.788   1.218  1.00  0.00    -0.200 F 
ATOM     92  F   UNL     1       3.726 -13.493   1.635  1.00  0.00    -0.200 F 
ENDBRANCH  59  82
ENDBRANCH  33  34
ENDBRANCH  26  28
ENDBRANCH  25  26
ENDBRANCH  24  25
ENDBRANCH   1  24
TORSDOF 15
