REMARK SMILES O=C(OCCOC(=O)c1ccc([C@H]2Nc3ccc(Cl)cc3[C@H]3C=CC[C@H]32)cc1)c1ccc(-c2c3nc(c(-c4c(F)c(F)c(F)c(F)c4F)c4ccc([nH]4)c(-c4c(F)c(F)c(F)c(F)c4F)c4nc(c(-c5c(F)c(F)c(F)c(F)c5F)c5ccc2[nH]5)C=C4)C=C3)cc1
REMARK SMILES IDX 4 1 3 2 2 3 1 4 29 5 30 6 91 7 31 8 90 9 32 10 33 11 34 12
REMARK SMILES IDX 84 13 35 14 89 15 83 16 85 17 36 18 88 19 82 20 81 21 37 23
REMARK SMILES IDX 69 24 49 25 68 26 50 27 53 28 67 29 86 30 51 31 52 32 66 34
REMARK SMILES IDX 87 35 54 36 38 37 39 38 47 39 40 40 41 41 45 42 48 43 42 44
REMARK SMILES IDX 43 45 46 46 44 47 70 48 71 49 79 50 72 51 73 52 77 53 80 54
REMARK SMILES IDX 74 55 75 56 78 57 76 58 55 59 56 60 64 61 57 62 58 63 62 64
REMARK SMILES IDX 65 65 59 66 60 67 63 68 61 69 5 70 6 71 7 72 8 73 9 74 10 75
REMARK SMILES IDX 28 76 11 77 27 78 12 79 13 80 14 81 26 82 15 83 22 85 25 86
REMARK SMILES IDX 16 87 21 88 23 89 24 90 17 91 20 92 18 93 19 94
REMARK H PARENT 85 22 53 33 14 84
REMARK Flexibility Score: inf
ROOT
ATOM      1  C   UNL     1       4.034   1.137  -0.991  1.00  0.00     0.275 C 
ENDROOT
BRANCH   1   2
ATOM      2  O   UNL     1       2.953   0.188  -1.041  1.00  0.00    -0.458 OA
BRANCH   2   3
ATOM      3  C   UNL     1       2.801  -0.993  -0.398  1.00  0.00     0.338 C 
ATOM      4  O   UNL     1       1.880  -1.738  -0.728  1.00  0.00    -0.246 OA
BRANCH   3   5
ATOM      5  C   UNL     1       3.612  -1.393   0.791  1.00  0.00     0.060 A 
ATOM      6  C   UNL     1       4.953  -1.076   1.010  1.00  0.00     0.016 A 
ATOM      7  C   UNL     1       2.958  -2.187   1.752  1.00  0.00     0.016 A 
ATOM      8  C   UNL     1       5.599  -1.456   2.188  1.00  0.00     0.010 A 
ATOM      9  C   UNL     1       3.602  -2.576   2.928  1.00  0.00     0.010 A 
ATOM     10  C   UNL     1       4.928  -2.203   3.157  1.00  0.00    -0.014 A 
BRANCH  10  11
ATOM     11  C   UNL     1       5.680  -2.687   4.335  1.00  0.00     0.031 A 
ATOM     12  C   UNL     1       6.209  -4.087   4.321  1.00  0.00     0.074 A 
ATOM     13  C   UNL     1       5.987  -1.843   5.337  1.00  0.00     0.049 A 
ATOM     14  N   UNL     1       7.011  -4.675   5.168  1.00  0.00    -0.248 NA
ATOM     15  C   UNL     1       5.819  -4.928   3.177  1.00  0.00     0.031 C 
ATOM     16  C   UNL     1       5.593  -0.438   5.395  1.00  0.00     0.029 A 
ATOM     17  N   UNL     1       6.710  -2.029   6.486  1.00  0.00    -0.354 N 
ATOM     18  C   UNL     1       7.279  -5.921   4.624  1.00  0.00     0.074 A 
ATOM     19  C   UNL     1       6.487  -6.044   3.420  1.00  0.00     0.031 C 
ATOM     20  C   UNL     1       6.038   0.104   6.540  1.00  0.00     0.029 A 
ATOM     21  C   UNL     1       6.769  -0.913   7.287  1.00  0.00     0.049 A 
ATOM     22  H   UNL     1       7.146  -2.881   6.717  1.00  0.00     0.167 HD
ATOM     23  C   UNL     1       8.148  -6.857   5.069  1.00  0.00     0.037 A 
ATOM     24  C   UNL     1       7.354  -0.739   8.486  1.00  0.00     0.037 A 
ATOM     25  C   UNL     1       8.892  -6.738   6.293  1.00  0.00     0.049 A 
ATOM     26  C   UNL     1       8.162  -1.873   9.052  1.00  0.00     0.074 A 
ATOM     27  C   UNL     1       9.758  -7.646   6.872  1.00  0.00     0.029 A 
ATOM     28  N   UNL     1       8.839  -5.636   7.138  1.00  0.00    -0.354 N 
ATOM     29  N   UNL     1       8.428  -3.041   8.520  1.00  0.00    -0.248 NA
ATOM     30  C   UNL     1       8.777  -1.655  10.366  1.00  0.00     0.031 C 
ATOM     31  C   UNL     1      10.197  -7.111   8.089  1.00  0.00     0.029 A 
ATOM     32  C   UNL     1       9.644  -5.849   8.244  1.00  0.00     0.049 A 
ATOM     33  H   UNL     1       8.307  -4.824   6.975  1.00  0.00     0.167 HD
ATOM     34  C   UNL     1       9.272  -3.684   9.412  1.00  0.00     0.074 A 
ATOM     35  C   UNL     1       9.480  -2.768  10.517  1.00  0.00     0.031 C 
ATOM     36  C   UNL     1       9.834  -4.914   9.324  1.00  0.00     0.037 A 
BRANCH  23  37
ATOM     37  C   UNL     1       8.323  -8.078   4.218  1.00  0.00     0.064 A 
ATOM     38  C   UNL     1       9.001  -8.017   2.989  1.00  0.00     0.173 A 
ATOM     39  C   UNL     1       7.802  -9.315   4.620  1.00  0.00     0.173 A 
ATOM     40  F   UNL     1       9.498  -6.851   2.548  1.00  0.00    -0.203 F 
ATOM     41  C   UNL     1       9.127  -9.146   2.183  1.00  0.00     0.198 A 
ATOM     42  C   UNL     1       7.951 -10.447   3.822  1.00  0.00     0.198 A 
ATOM     43  F   UNL     1       7.138  -9.423   5.780  1.00  0.00    -0.203 F 
ATOM     44  F   UNL     1       9.733  -9.053   0.991  1.00  0.00    -0.200 F 
ATOM     45  C   UNL     1       8.606 -10.360   2.603  1.00  0.00     0.200 A 
ATOM     46  F   UNL     1       7.447 -11.620   4.229  1.00  0.00    -0.200 F 
ATOM     47  F   UNL     1       8.722 -11.445   1.824  1.00  0.00    -0.200 F 
ENDBRANCH  23  37
BRANCH  24  48
ATOM     48  C   UNL     1       7.185   0.534   9.238  1.00  0.00     0.064 A 
ATOM     49  C   UNL     1       8.249   1.410   9.485  1.00  0.00     0.173 A 
ATOM     50  C   UNL     1       5.936   0.871   9.774  1.00  0.00     0.173 A 
ATOM     51  F   UNL     1       9.473   1.123   9.021  1.00  0.00    -0.203 F 
ATOM     52  C   UNL     1       8.070   2.560  10.256  1.00  0.00     0.198 A 
ATOM     53  C   UNL     1       5.747   2.032  10.518  1.00  0.00     0.198 A 
ATOM     54  F   UNL     1       4.894   0.054   9.582  1.00  0.00    -0.203 F 
ATOM     55  F   UNL     1       9.116   3.353  10.523  1.00  0.00    -0.200 F 
ATOM     56  C   UNL     1       6.819   2.873  10.768  1.00  0.00     0.200 A 
ATOM     57  F   UNL     1       4.532   2.328  11.001  1.00  0.00    -0.200 F 
ATOM     58  F   UNL     1       6.650   3.974  11.512  1.00  0.00    -0.200 F 
ENDBRANCH  24  48
BRANCH  36  59
ATOM     59  C   UNL     1      10.764  -5.309  10.431  1.00  0.00     0.064 A 
ATOM     60  C   UNL     1      10.294  -5.617  11.715  1.00  0.00     0.173 A 
ATOM     61  C   UNL     1      12.145  -5.391  10.195  1.00  0.00     0.173 A 
ATOM     62  F   UNL     1       8.984  -5.530  11.994  1.00  0.00    -0.203 F 
ATOM     63  C   UNL     1      11.177  -5.964  12.733  1.00  0.00     0.198 A 
ATOM     64  C   UNL     1      13.021  -5.770  11.207  1.00  0.00     0.198 A 
ATOM     65  F   UNL     1      12.643  -5.107   8.982  1.00  0.00    -0.203 F 
ATOM     66  F   UNL     1      10.713  -6.197  13.968  1.00  0.00    -0.200 F 
ATOM     67  C   UNL     1      12.537  -6.047  12.476  1.00  0.00     0.200 A 
ATOM     68  F   UNL     1      14.334  -5.861  10.954  1.00  0.00    -0.200 F 
ATOM     69  F   UNL     1      13.386  -6.383  13.458  1.00  0.00    -0.200 F 
ENDBRANCH  36  59
ENDBRANCH  10  11
ENDBRANCH   3   5
ENDBRANCH   2   3
ENDBRANCH   1   2
BRANCH   1  70
ATOM     70  C   UNL     1       3.947   2.171   0.135  1.00  0.00     0.275 C 
BRANCH  70  71
ATOM     71  O   UNL     1       3.512   1.634   1.395  1.00  0.00    -0.458 OA
BRANCH  71  72
ATOM     72  C   UNL     1       2.176   1.745   1.631  1.00  0.00     0.338 C 
ATOM     73  O   UNL     1       1.349   2.260   0.897  1.00  0.00    -0.246 OA
BRANCH  72  74
ATOM     74  C   UNL     1       1.818   1.028   2.874  1.00  0.00     0.060 A 
ATOM     75  C   UNL     1       0.731   0.154   2.849  1.00  0.00     0.016 A 
ATOM     76  C   UNL     1       2.547   1.181   4.050  1.00  0.00     0.016 A 
ATOM     77  C   UNL     1       0.413  -0.602   3.985  1.00  0.00     0.007 A 
ATOM     78  C   UNL     1       2.220   0.418   5.185  1.00  0.00     0.007 A 
ATOM     79  C   UNL     1       1.155  -0.495   5.181  1.00  0.00    -0.025 A 
BRANCH  79  80
ATOM     80  C   UNL     1       0.850  -1.485   6.313  1.00  0.00     0.114 C 
ATOM     81  N   UNL     1       1.511  -2.737   5.971  1.00  0.00    -0.378 N 
ATOM     82  C   UNL     1       0.988  -1.084   7.794  1.00  0.00     0.031 C 
ATOM     83  C   UNL     1       2.091  -3.590   6.881  1.00  0.00     0.038 A 
ATOM     84  H   UNL     1       1.545  -2.991   5.021  1.00  0.00     0.161 HD
ATOM     85  C   UNL     1       1.023  -2.306   8.746  1.00  0.00     0.049 C 
ATOM     86  C   UNL     1       2.154  -0.229   8.303  1.00  0.00     0.034 C 
ATOM     87  C   UNL     1       2.900  -4.637   6.414  1.00  0.00     0.027 A 
ATOM     88  C   UNL     1       1.986  -3.372   8.260  1.00  0.00    -0.016 A 
ATOM     89  C   UNL     1       1.451  -1.638  10.027  1.00  0.00    -0.023 C 
ATOM     90  C   UNL     1       2.085  -0.486   9.779  1.00  0.00    -0.030 C 
ATOM     91  C   UNL     1       3.652  -5.419   7.290  1.00  0.00     0.022 A 
ATOM     92  C   UNL     1       2.737  -4.173   9.142  1.00  0.00     0.027 A 
ATOM     93  C   UNL     1       3.584  -5.167   8.652  1.00  0.00     0.041 A 
ATOM     94  Cl  UNL     1       4.553  -6.083   9.738  1.00  0.00    -0.084 Cl
ENDBRANCH  79  80
ENDBRANCH  72  74
ENDBRANCH  71  72
ENDBRANCH  70  71
ENDBRANCH   1  70
TORSDOF 12
