REMARK SMILES O=C(OCCOC(=O)c1cccc(/C=N/NC(=S)Nc2ccccc2)c1O)c1ccc(-c2c3nc(c(-c4c(F)c(F)c(F)c(F)c4F)c4ccc([nH]4)c(-c4c(F)c(F)c(F)c(F)c4F)c4nc(c(-c5c(F)c(F)c(F)c(F)c5F)c5ccc2[nH]5)C=C4)C=C3)cc1
REMARK SMILES IDX 6 1 5 2 4 3 3 4 2 5 1 6 28 7 29 8 90 9 30 10 89 11 31 12
REMARK SMILES IDX 32 13 33 14 83 15 34 16 88 17 82 18 84 19 35 20 87 21 81 22
REMARK SMILES IDX 80 23 36 25 68 26 48 27 67 28 49 29 52 30 66 31 85 32 50 33
REMARK SMILES IDX 51 34 65 36 86 37 53 38 37 39 38 40 46 41 39 42 40 43 44 44
REMARK SMILES IDX 47 45 41 46 42 47 45 48 43 49 69 50 70 51 78 52 71 53 72 54
REMARK SMILES IDX 76 55 79 56 73 57 74 58 77 59 75 60 54 61 55 62 63 63 56 64
REMARK SMILES IDX 57 65 61 66 64 67 58 68 59 69 62 70 60 71 7 72 8 73 9 74
REMARK SMILES IDX 10 75 26 76 11 77 13 78 12 79 27 80 14 82 15 83 16 84 17 86
REMARK SMILES IDX 18 87 19 88 20 90 21 91 25 92 22 93 24 94 23 95
REMARK H PARENT 84 24 52 35 27 81 16 85 19 89
REMARK Flexibility Score: inf
ROOT
ATOM      1  O   UNL     1       2.796  -0.411  -1.579  1.00  0.00    -0.458 OA
ENDROOT
BRANCH   1   2
ATOM      2  C   UNL     1       3.458  -1.578  -1.075  1.00  0.00     0.275 C 
BRANCH   2   3
ATOM      3  C   UNL     1       4.171  -1.332   0.253  1.00  0.00     0.275 C 
BRANCH   3   4
ATOM      4  O   UNL     1       3.443  -0.515   1.183  1.00  0.00    -0.458 OA
BRANCH   4   5
ATOM      5  C   UNL     1       3.274   0.826   1.210  1.00  0.00     0.338 C 
ATOM      6  O   UNL     1       2.559   1.310   2.087  1.00  0.00    -0.246 OA
BRANCH   5   7
ATOM      7  C   UNL     1       3.832   1.768   0.188  1.00  0.00     0.060 A 
ATOM      8  C   UNL     1       5.031   1.621  -0.516  1.00  0.00     0.016 A 
ATOM      9  C   UNL     1       3.096   2.947  -0.017  1.00  0.00     0.016 A 
ATOM     10  C   UNL     1       5.466   2.603  -1.424  1.00  0.00     0.010 A 
ATOM     11  C   UNL     1       3.508   3.915  -0.935  1.00  0.00     0.010 A 
ATOM     12  C   UNL     1       4.720   3.766  -1.621  1.00  0.00    -0.014 A 
BRANCH  12  13
ATOM     13  C   UNL     1       5.290   4.951  -2.309  1.00  0.00     0.031 A 
ATOM     14  C   UNL     1       5.754   6.093  -1.459  1.00  0.00     0.074 A 
ATOM     15  C   UNL     1       5.403   5.044  -3.644  1.00  0.00     0.049 A 
ATOM     16  N   UNL     1       6.225   7.255  -1.825  1.00  0.00    -0.248 NA
ATOM     17  C   UNL     1       5.709   5.885  -0.003  1.00  0.00     0.031 C 
ATOM     18  C   UNL     1       5.139   3.966  -4.579  1.00  0.00     0.029 A 
ATOM     19  N   UNL     1       5.743   6.106  -4.450  1.00  0.00    -0.354 N 
ATOM     20  C   UNL     1       6.572   7.896  -0.648  1.00  0.00     0.074 A 
ATOM     21  C   UNL     1       6.166   7.040   0.445  1.00  0.00     0.031 C 
ATOM     22  C   UNL     1       5.233   4.445  -5.830  1.00  0.00     0.029 A 
ATOM     23  C   UNL     1       5.569   5.851  -5.789  1.00  0.00     0.049 A 
ATOM     24  H   UNL     1       6.078   6.964  -4.101  1.00  0.00     0.167 HD
ATOM     25  C   UNL     1       7.221   9.071  -0.495  1.00  0.00     0.037 A 
ATOM     26  C   UNL     1       5.657   6.652  -6.864  1.00  0.00     0.037 A 
ATOM     27  C   UNL     1       7.597   9.929  -1.583  1.00  0.00     0.049 A 
ATOM     28  C   UNL     1       6.171   8.043  -6.662  1.00  0.00     0.074 A 
ATOM     29  C   UNL     1       8.254  11.144  -1.540  1.00  0.00     0.029 A 
ATOM     30  N   UNL     1       7.323   9.667  -2.919  1.00  0.00    -0.354 N 
ATOM     31  N   UNL     1       6.520   8.632  -5.548  1.00  0.00    -0.248 NA
ATOM     32  C   UNL     1       6.377   8.850  -7.872  1.00  0.00     0.031 C 
ATOM     33  C   UNL     1       8.324  11.647  -2.845  1.00  0.00     0.029 A 
ATOM     34  C   UNL     1       7.762  10.718  -3.706  1.00  0.00     0.049 A 
ATOM     35  H   UNL     1       6.882   8.854  -3.256  1.00  0.00     0.167 HD
ATOM     36  C   UNL     1       7.061   9.848  -5.923  1.00  0.00     0.074 A 
ATOM     37  C   UNL     1       6.955   9.929  -7.367  1.00  0.00     0.031 C 
ATOM     38  C   UNL     1       7.640  10.787  -5.140  1.00  0.00     0.037 A 
BRANCH  25  39
ATOM     39  C   UNL     1       7.516   9.476   0.916  1.00  0.00     0.064 A 
ATOM     40  C   UNL     1       8.451   8.778   1.699  1.00  0.00     0.173 A 
ATOM     41  C   UNL     1       6.786  10.506   1.521  1.00  0.00     0.173 A 
ATOM     42  F   UNL     1       9.149   7.760   1.172  1.00  0.00    -0.203 F 
ATOM     43  C   UNL     1       8.601   9.062   3.053  1.00  0.00     0.198 A 
ATOM     44  C   UNL     1       6.962  10.808   2.867  1.00  0.00     0.198 A 
ATOM     45  F   UNL     1       5.875  11.193   0.816  1.00  0.00    -0.203 F 
ATOM     46  F   UNL     1       9.430   8.323   3.803  1.00  0.00    -0.200 F 
ATOM     47  C   UNL     1       7.856  10.076   3.635  1.00  0.00     0.200 A 
ATOM     48  F   UNL     1       6.241  11.787   3.430  1.00  0.00    -0.200 F 
ATOM     49  F   UNL     1       7.980  10.332   4.945  1.00  0.00    -0.200 F 
ENDBRANCH  25  39
BRANCH  26  50
ATOM     50  C   UNL     1       5.313   6.197  -8.236  1.00  0.00     0.064 A 
ATOM     51  C   UNL     1       6.282   5.657  -9.090  1.00  0.00     0.173 A 
ATOM     52  C   UNL     1       4.037   6.438  -8.764  1.00  0.00     0.173 A 
ATOM     53  F   UNL     1       7.522   5.430  -8.634  1.00  0.00    -0.203 F 
ATOM     54  C   UNL     1       5.996   5.401 -10.431  1.00  0.00     0.198 A 
ATOM     55  C   UNL     1       3.756   6.196 -10.108  1.00  0.00     0.198 A 
ATOM     56  F   UNL     1       3.074   6.948  -7.982  1.00  0.00    -0.203 F 
ATOM     57  F   UNL     1       6.952   4.916 -11.235  1.00  0.00    -0.200 F 
ATOM     58  C   UNL     1       4.738   5.683 -10.943  1.00  0.00     0.200 A 
ATOM     59  F   UNL     1       2.540   6.478 -10.597  1.00  0.00    -0.200 F 
ATOM     60  F   UNL     1       4.479   5.473 -12.241  1.00  0.00    -0.200 F 
ENDBRANCH  26  50
BRANCH  38  61
ATOM     61  C   UNL     1       8.261  11.952  -5.842  1.00  0.00     0.064 A 
ATOM     62  C   UNL     1       7.487  12.955  -6.438  1.00  0.00     0.173 A 
ATOM     63  C   UNL     1       9.657  12.061  -5.906  1.00  0.00     0.173 A 
ATOM     64  F   UNL     1       6.148  12.871  -6.430  1.00  0.00    -0.203 F 
ATOM     65  C   UNL     1       8.092  14.023  -7.092  1.00  0.00     0.198 A 
ATOM     66  C   UNL     1      10.258  13.146  -6.533  1.00  0.00     0.198 A 
ATOM     67  F   UNL     1      10.437  11.116  -5.359  1.00  0.00    -0.203 F 
ATOM     68  F   UNL     1       7.337  14.946  -7.703  1.00  0.00    -0.200 F 
ATOM     69  C   UNL     1       9.476  14.122  -7.130  1.00  0.00     0.200 A 
ATOM     70  F   UNL     1      11.595  13.243  -6.564  1.00  0.00    -0.200 F 
ATOM     71  F   UNL     1      10.057  15.156  -7.754  1.00  0.00    -0.200 F 
ENDBRANCH  38  61
ENDBRANCH  12  13
ENDBRANCH   5   7
ENDBRANCH   4   5
ENDBRANCH   3   4
ENDBRANCH   2   3
ENDBRANCH   1   2
BRANCH   1  72
ATOM     72  C   UNL     1       1.436  -0.422  -1.574  1.00  0.00     0.342 C 
ATOM     73  O   UNL     1       0.695  -1.304  -1.178  1.00  0.00    -0.246 OA
BRANCH  72  74
ATOM     74  C   UNL     1       0.982   0.825  -2.209  1.00  0.00     0.102 A 
ATOM     75  C   UNL     1       0.439   1.853  -1.440  1.00  0.00     0.019 A 
ATOM     76  C   UNL     1       1.252   1.027  -3.560  1.00  0.00     0.138 A 
ATOM     77  C   UNL     1       0.274   3.120  -2.013  1.00  0.00     0.002 A 
ATOM     78  C   UNL     1       1.209   2.311  -4.093  1.00  0.00     0.037 A 
ATOM     79  C   UNL     1       0.711   3.366  -3.323  1.00  0.00     0.014 A 
BRANCH  76  80
ATOM     80  O   UNL     1       1.502  -0.028  -4.383  1.00  0.00    -0.506 OA
ATOM     81  H   UNL     1       1.534  -0.897  -4.035  1.00  0.00     0.293 HD
ENDBRANCH  76  80
BRANCH  78  82
ATOM     82  C   UNL     1       1.978   2.590  -5.319  1.00  0.00     0.145 C 
ATOM     83  N   UNL     1       1.470   3.054  -6.412  1.00  0.00    -0.181 NA
BRANCH  83  84
ATOM     84  N   UNL     1       2.396   3.434  -7.372  1.00  0.00    -0.254 N 
ATOM     85  H   UNL     1       2.705   4.369  -7.365  1.00  0.00     0.193 HD
BRANCH  84  86
ATOM     86  C   UNL     1       2.916   2.587  -8.344  1.00  0.00     0.191 C 
ATOM     87  S   UNL     1       2.446   2.799  -9.936  1.00  0.00    -0.039 S 
BRANCH  86  88
ATOM     88  N   UNL     1       4.156   2.042  -8.093  1.00  0.00    -0.331 N 
ATOM     89  H   UNL     1       4.895   2.348  -8.668  1.00  0.00     0.169 HD
BRANCH  88  90
ATOM     90  C   UNL     1       4.479   1.099  -7.110  1.00  0.00     0.040 A 
ATOM     91  C   UNL     1       5.753   1.108  -6.532  1.00  0.00     0.026 A 
ATOM     92  C   UNL     1       3.552   0.141  -6.722  1.00  0.00     0.026 A 
ATOM     93  C   UNL     1       6.022   0.285  -5.435  1.00  0.00     0.002 A 
ATOM     94  C   UNL     1       3.870  -0.752  -5.701  1.00  0.00     0.002 A 
ATOM     95  C   UNL     1       5.071  -0.635  -5.009  1.00  0.00     0.000 A 
ENDBRANCH  88  90
ENDBRANCH  86  88
ENDBRANCH  84  86
ENDBRANCH  83  84
ENDBRANCH  78  82
ENDBRANCH  72  74
ENDBRANCH   1  72
TORSDOF 17
