REMARK SMILES O=C(OCCOC(=O)[C@@H]1CCCC[C@@H]1NS(=O)(=O)c1ccc2ccccc2c1)c1ccc(-c2c3nc(c(-c4c(F)c(F)c(F)c(F)c4F)c4ccc([nH]4)c(-c4c(F)c(F)c(F)c(F)c4F)c4nc(c(-c5c(F)c(F)c(F)c(F)c5F)c5ccc2[nH]5)C=C4)C=C3)cc1
REMARK SMILES IDX 5 1 4 2 3 3 2 4 1 5 29 6 30 7 91 8 31 9 90 10 32 11 33 12
REMARK SMILES IDX 34 13 84 14 35 15 89 16 83 17 85 18 36 19 88 20 82 21 81 22
REMARK SMILES IDX 37 24 69 25 49 26 68 27 50 28 53 29 67 30 86 31 51 32 52 33
REMARK SMILES IDX 66 35 87 36 54 37 38 38 39 39 47 40 40 41 41 42 45 43 48 44
REMARK SMILES IDX 42 45 43 46 46 47 44 48 70 49 71 50 79 51 72 52 73 53 77 54
REMARK SMILES IDX 80 55 74 56 75 57 78 58 76 59 55 60 56 61 64 62 57 63 58 64
REMARK SMILES IDX 62 65 65 66 59 67 60 68 63 69 61 70 6 71 7 72 8 73 9 74
REMARK SMILES IDX 10 75 14 76 11 77 13 78 12 79 15 80 16 82 17 83 18 84 19 85
REMARK SMILES IDX 20 86 28 87 21 88 27 89 22 90 26 91 23 92 25 93 24 94
REMARK H PARENT 85 23 53 34 15 81
REMARK Flexibility Score: inf
ROOT
ATOM      1  C   UNL     1       3.808  -1.337   1.630  1.00  0.00     0.274 C 
ENDROOT
BRANCH   1   2
ATOM      2  C   UNL     1       4.101   0.159   1.526  1.00  0.00     0.275 C 
BRANCH   2   3
ATOM      3  O   UNL     1       3.099   0.899   0.801  1.00  0.00    -0.458 OA
BRANCH   3   4
ATOM      4  C   UNL     1       3.062   1.238  -0.510  1.00  0.00     0.338 C 
ATOM      5  O   UNL     1       2.311   2.139  -0.879  1.00  0.00    -0.246 OA
BRANCH   4   6
ATOM      6  C   UNL     1       3.740   0.434  -1.571  1.00  0.00     0.060 A 
ATOM      7  C   UNL     1       5.013  -0.136  -1.476  1.00  0.00     0.016 A 
ATOM      8  C   UNL     1       3.020   0.250  -2.768  1.00  0.00     0.016 A 
ATOM      9  C   UNL     1       5.513  -0.958  -2.493  1.00  0.00     0.010 A 
ATOM     10  C   UNL     1       3.520  -0.559  -3.793  1.00  0.00     0.010 A 
ATOM     11  C   UNL     1       4.768  -1.181  -3.653  1.00  0.00    -0.014 A 
BRANCH  11  12
ATOM     12  C   UNL     1       5.358  -1.924  -4.789  1.00  0.00     0.031 A 
ATOM     13  C   UNL     1       5.947  -1.132  -5.914  1.00  0.00     0.074 A 
ATOM     14  C   UNL     1       5.365  -3.269  -4.822  1.00  0.00     0.049 A 
ATOM     15  N   UNL     1       6.503  -1.554  -7.017  1.00  0.00    -0.248 NA
ATOM     16  C   UNL     1       5.933   0.332  -5.762  1.00  0.00     0.031 C 
ATOM     17  C   UNL     1       4.900  -4.139  -3.749  1.00  0.00     0.029 A 
ATOM     18  N   UNL     1       5.744  -4.142  -5.810  1.00  0.00    -0.354 N 
ATOM     19  C   UNL     1       6.941  -0.412  -7.669  1.00  0.00     0.074 A 
ATOM     20  C   UNL     1       6.529   0.724  -6.876  1.00  0.00     0.031 C 
ATOM     21  C   UNL     1       4.912  -5.415  -4.170  1.00  0.00     0.029 A 
ATOM     22  C   UNL     1       5.421  -5.451  -5.537  1.00  0.00     0.049 A 
ATOM     23  H   UNL     1       6.202  -3.859  -6.635  1.00  0.00     0.167 HD
ATOM     24  C   UNL     1       7.656  -0.327  -8.813  1.00  0.00     0.037 A 
ATOM     25  C   UNL     1       5.516  -6.545  -6.318  1.00  0.00     0.037 A 
ATOM     26  C   UNL     1       8.033  -1.463  -9.605  1.00  0.00     0.049 A 
ATOM     27  C   UNL     1       6.168  -6.408  -7.670  1.00  0.00     0.074 A 
ATOM     28  C   UNL     1       8.787  -1.497 -10.763  1.00  0.00     0.029 A 
ATOM     29  N   UNL     1       7.655  -2.770  -9.329  1.00  0.00    -0.354 N 
ATOM     30  N   UNL     1       6.670  -5.336  -8.236  1.00  0.00    -0.248 NA
ATOM     31  C   UNL     1       6.301  -7.629  -8.477  1.00  0.00     0.031 C 
ATOM     32  C   UNL     1       8.815  -2.820 -11.220  1.00  0.00     0.029 A 
ATOM     33  C   UNL     1       8.119  -3.615 -10.321  1.00  0.00     0.049 A 
ATOM     34  H   UNL     1       7.133  -3.053  -8.543  1.00  0.00     0.167 HD
ATOM     35  C   UNL     1       7.221  -5.759  -9.437  1.00  0.00     0.074 A 
ATOM     36  C   UNL     1       6.984  -7.186  -9.524  1.00  0.00     0.031 C 
ATOM     37  C   UNL     1       7.879  -5.035 -10.376  1.00  0.00     0.037 A 
BRANCH  24  38
ATOM     38  C   UNL     1       8.052   1.044  -9.262  1.00  0.00     0.064 A 
ATOM     39  C   UNL     1       9.039   1.777  -8.585  1.00  0.00     0.173 A 
ATOM     40  C   UNL     1       7.427   1.640 -10.366  1.00  0.00     0.173 A 
ATOM     41  F   UNL     1       9.647   1.258  -7.508  1.00  0.00    -0.203 F 
ATOM     42  C   UNL     1       9.365   3.071  -8.982  1.00  0.00     0.198 A 
ATOM     43  C   UNL     1       7.772   2.925 -10.773  1.00  0.00     0.198 A 
ATOM     44  F   UNL     1       6.472   0.981 -11.038  1.00  0.00    -0.203 F 
ATOM     45  F   UNL     1      10.271   3.774  -8.288  1.00  0.00    -0.200 F 
ATOM     46  C   UNL     1       8.734   3.642 -10.076  1.00  0.00     0.200 A 
ATOM     47  F   UNL     1       7.163   3.476 -11.831  1.00  0.00    -0.200 F 
ATOM     48  F   UNL     1       9.043   4.891 -10.453  1.00  0.00    -0.200 F 
ENDBRANCH  24  38
BRANCH  25  49
ATOM     49  C   UNL     1       4.979  -7.854  -5.856  1.00  0.00     0.064 A 
ATOM     50  C   UNL     1       5.827  -8.926  -5.549  1.00  0.00     0.173 A 
ATOM     51  C   UNL     1       3.595  -8.072  -5.763  1.00  0.00     0.173 A 
ATOM     52  F   UNL     1       7.157  -8.777  -5.649  1.00  0.00    -0.203 F 
ATOM     53  C   UNL     1       5.314 -10.173  -5.195  1.00  0.00     0.198 A 
ATOM     54  C   UNL     1       3.083  -9.314  -5.391  1.00  0.00     0.198 A 
ATOM     55  F   UNL     1       2.740  -7.081  -6.056  1.00  0.00    -0.203 F 
ATOM     56  F   UNL     1       6.148 -11.197  -4.964  1.00  0.00    -0.200 F 
ATOM     57  C   UNL     1       3.943 -10.367  -5.116  1.00  0.00     0.200 A 
ATOM     58  F   UNL     1       1.757  -9.500  -5.328  1.00  0.00    -0.200 F 
ATOM     59  F   UNL     1       3.452 -11.573  -4.797  1.00  0.00    -0.200 F 
ENDBRANCH  25  49
BRANCH  37  60
ATOM     60  C   UNL     1       8.423  -5.774 -11.561  1.00  0.00     0.064 A 
ATOM     61  C   UNL     1       7.585  -6.235 -12.585  1.00  0.00     0.173 A 
ATOM     62  C   UNL     1       9.807  -5.950 -11.709  1.00  0.00     0.173 A 
ATOM     63  F   UNL     1       6.254  -6.104 -12.478  1.00  0.00    -0.203 F 
ATOM     64  C   UNL     1       8.113  -6.855 -13.713  1.00  0.00     0.198 A 
ATOM     65  C   UNL     1      10.333  -6.544 -12.852  1.00  0.00     0.198 A 
ATOM     66  F   UNL     1      10.649  -5.520 -10.758  1.00  0.00    -0.203 F 
ATOM     67  F   UNL     1       7.293  -7.315 -14.668  1.00  0.00    -0.200 F 
ATOM     68  C   UNL     1       9.486  -6.998 -13.851  1.00  0.00     0.200 A 
ATOM     69  F   UNL     1      11.661  -6.666 -12.990  1.00  0.00    -0.200 F 
ATOM     70  F   UNL     1       9.994  -7.575 -14.949  1.00  0.00    -0.200 F 
ENDBRANCH  37  60
ENDBRANCH  11  12
ENDBRANCH   4   6
ENDBRANCH   3   4
ENDBRANCH   2   3
ENDBRANCH   1   2
BRANCH   1  71
ATOM     71  O   UNL     1       3.415  -1.891   0.365  1.00  0.00    -0.462 OA
BRANCH  71  72
ATOM     72  C   UNL     1       2.099  -2.228   0.251  1.00  0.00     0.310 C 
ATOM     73  O   UNL     1       1.290  -2.226   1.168  1.00  0.00    -0.252 OA
BRANCH  72  74
ATOM     74  C   UNL     1       1.761  -2.616  -1.174  1.00  0.00     0.117 C 
ATOM     75  C   UNL     1       0.370  -2.075  -1.531  1.00  0.00     0.017 C 
ATOM     76  C   UNL     1       1.954  -4.112  -1.458  1.00  0.00     0.084 C 
ATOM     77  C   UNL     1      -0.026  -2.437  -2.955  1.00  0.00     0.001 C 
ATOM     78  C   UNL     1       1.428  -4.477  -2.854  1.00  0.00     0.021 C 
ATOM     79  C   UNL     1       0.033  -3.944  -3.156  1.00  0.00     0.002 C 
BRANCH  76  80
ATOM     80  N   UNL     1       1.380  -4.934  -0.392  1.00  0.00    -0.207 NA
ATOM     81  H   UNL     1       0.374  -4.940  -0.561  1.00  0.00     0.141 HD
BRANCH  80  82
ATOM     82  S   UNL     1       1.798  -6.527  -0.101  1.00  0.00     0.240 S 
ATOM     83  O   UNL     1       1.056  -6.920   1.071  1.00  0.00    -0.207 OA
ATOM     84  O   UNL     1       1.690  -7.251  -1.352  1.00  0.00    -0.207 OA
BRANCH  82  85
ATOM     85  C   UNL     1       3.520  -6.571   0.347  1.00  0.00     0.083 A 
ATOM     86  C   UNL     1       4.267  -5.431   0.630  1.00  0.00     0.022 A 
ATOM     87  C   UNL     1       4.136  -7.829   0.345  1.00  0.00     0.030 A 
ATOM     88  C   UNL     1       5.645  -5.540   0.844  1.00  0.00     0.010 A 
ATOM     89  C   UNL     1       5.508  -7.955   0.602  1.00  0.00    -0.017 A 
ATOM     90  C   UNL     1       6.281  -6.794   0.831  1.00  0.00    -0.018 A 
ATOM     91  C   UNL     1       6.129  -9.214   0.635  1.00  0.00     0.009 A 
ATOM     92  C   UNL     1       7.662  -6.924   1.051  1.00  0.00     0.009 A 
ATOM     93  C   UNL     1       7.498  -9.326   0.877  1.00  0.00     0.001 A 
ATOM     94  C   UNL     1       8.266  -8.183   1.075  1.00  0.00     0.001 A 
ENDBRANCH  82  85
ENDBRANCH  80  82
ENDBRANCH  76  80
ENDBRANCH  72  74
ENDBRANCH  71  72
ENDBRANCH   1  71
TORSDOF 14
