REMARK SMILES C[C@H](COc1ccccc1C(=O)OCCOC(=O)c1ccc(-c2c3nc(c(-c4c(F)c(F)c(F)c(F)c4F)c4ccc([nH]4)c(-c4c(F)c(F)c(F)c(F)c4F)c4nc(c(-c5c(F)c(F)c(F)c(F)c5F)c5ccc2[nH]5)C=C4)C=C3)cc1)C(N)=O
REMARK SMILES IDX 14 1 13 2 11 3 12 4 10 5 5 6 6 7 7 8 9 9 8 10 4 11 3 12 2 13
REMARK SMILES IDX 1 14 82 15 83 16 84 17 15 20 16 21 17 22 18 23 19 24 20 25
REMARK SMILES IDX 81 26 21 27 80 28 22 29 23 30 24 31 74 32 25 33 79 34 73 35
REMARK SMILES IDX 75 36 26 37 78 38 72 39 71 40 27 42 59 43 39 44 58 45 40 46
REMARK SMILES IDX 43 47 57 48 76 49 41 50 42 51 56 53 77 54 44 55 28 56 29 57
REMARK SMILES IDX 37 58 30 59 31 60 35 61 38 62 32 63 33 64 36 65 34 66 60 67
REMARK SMILES IDX 61 68 69 69 62 70 63 71 67 72 70 73 64 74 65 75 68 76 66 77
REMARK SMILES IDX 45 78 46 79 54 80 47 81 48 82 52 83 55 84 49 85 50 86 53 87
REMARK SMILES IDX 51 88
REMARK H PARENT 83 18 83 19 75 41 43 52
REMARK Flexibility Score: inf
ROOT
ATOM      1  C   UNL     1      -0.951   1.366   3.398  1.00  0.00     0.275 C 
ENDROOT
BRANCH   1   2
ATOM      2  O   UNL     1      -1.334   1.305   2.003  1.00  0.00    -0.458 OA
BRANCH   2   3
ATOM      3  C   UNL     1      -1.675   0.071   1.569  1.00  0.00     0.342 C 
ATOM      4  O   UNL     1      -1.701  -0.946   2.251  1.00  0.00    -0.246 OA
BRANCH   3   5
ATOM      5  C   UNL     1      -2.154   0.073   0.171  1.00  0.00     0.102 A 
ATOM      6  C   UNL     1      -1.289   0.087  -0.930  1.00  0.00     0.133 A 
ATOM      7  C   UNL     1      -1.800  -0.151  -2.212  1.00  0.00     0.047 A 
ATOM      8  C   UNL     1      -3.174  -0.351  -2.396  1.00  0.00     0.004 A 
ATOM      9  C   UNL     1      -3.528  -0.132  -0.023  1.00  0.00     0.019 A 
ATOM     10  C   UNL     1      -4.041  -0.309  -1.306  1.00  0.00     0.001 A 
BRANCH   6  11
ATOM     11  O   UNL     1       0.005   0.498  -0.787  1.00  0.00    -0.492 OA
BRANCH  11  12
ATOM     12  C   UNL     1       1.002  -0.503  -1.037  1.00  0.00     0.242 C 
BRANCH  12  13
ATOM     13  C   UNL     1       2.150  -0.296  -0.026  1.00  0.00     0.113 C 
ATOM     14  C   UNL     1       2.865   1.046  -0.246  1.00  0.00     0.022 C 
BRANCH  13  15
ATOM     15  C   UNL     1       1.552  -0.346   1.366  1.00  0.00     0.223 C 
ATOM     16  N   UNL     1       1.021  -1.544   1.743  1.00  0.00    -0.369 N 
ATOM     17  O   UNL     1       1.515   0.614   2.125  1.00  0.00    -0.275 OA
ATOM     18  H   UNL     1       1.053  -2.313   1.129  1.00  0.00     0.159 HD
ATOM     19  H   UNL     1       0.604  -1.641   2.630  1.00  0.00     0.159 HD
ENDBRANCH  13  15
ENDBRANCH  12  13
ENDBRANCH  11  12
ENDBRANCH   6  11
ENDBRANCH   3   5
ENDBRANCH   2   3
ENDBRANCH   1   2
BRANCH   1  20
ATOM     20  C   UNL     1      -0.500   2.787   3.758  1.00  0.00     0.275 C 
BRANCH  20  21
ATOM     21  O   UNL     1      -1.657   3.549   4.153  1.00  0.00    -0.458 OA
BRANCH  21  22
ATOM     22  C   UNL     1      -2.428   3.939   3.107  1.00  0.00     0.338 C 
ATOM     23  O   UNL     1      -2.074   4.304   2.010  1.00  0.00    -0.246 OA
BRANCH  22  24
ATOM     24  C   UNL     1      -3.780   3.449   3.428  1.00  0.00     0.060 A 
ATOM     25  C   UNL     1      -4.258   2.389   2.651  1.00  0.00     0.016 A 
ATOM     26  C   UNL     1      -4.502   3.926   4.516  1.00  0.00     0.016 A 
ATOM     27  C   UNL     1      -5.449   1.761   2.975  1.00  0.00     0.010 A 
ATOM     28  C   UNL     1      -5.722   3.327   4.818  1.00  0.00     0.010 A 
ATOM     29  C   UNL     1      -6.193   2.244   4.050  1.00  0.00    -0.014 A 
BRANCH  29  30
ATOM     30  C   UNL     1      -7.563   1.750   4.265  1.00  0.00     0.031 A 
ATOM     31  C   UNL     1      -8.680   2.644   3.835  1.00  0.00     0.074 A 
ATOM     32  C   UNL     1      -7.791   0.553   4.829  1.00  0.00     0.049 A 
ATOM     33  N   UNL     1      -9.936   2.632   4.182  1.00  0.00    -0.248 NA
ATOM     34  C   UNL     1      -8.318   3.717   2.892  1.00  0.00     0.031 C 
ATOM     35  C   UNL     1      -6.770  -0.444   5.146  1.00  0.00     0.029 A 
ATOM     36  N   UNL     1      -8.962  -0.013   5.260  1.00  0.00    -0.354 N 
ATOM     37  C   UNL     1     -10.501   3.730   3.549  1.00  0.00     0.074 A 
ATOM     38  C   UNL     1      -9.458   4.381   2.790  1.00  0.00     0.031 C 
ATOM     39  C   UNL     1      -7.356  -1.489   5.755  1.00  0.00     0.029 A 
ATOM     40  C   UNL     1      -8.772  -1.188   5.945  1.00  0.00     0.049 A 
ATOM     41  H   UNL     1      -9.849   0.383   5.095  1.00  0.00     0.167 HD
ATOM     42  C   UNL     1     -11.783   4.153   3.625  1.00  0.00     0.037 A 
ATOM     43  C   UNL     1      -9.638  -1.885   6.704  1.00  0.00     0.037 A 
ATOM     44  C   UNL     1     -12.786   3.461   4.386  1.00  0.00     0.049 A 
ATOM     45  C   UNL     1     -11.034  -1.337   6.868  1.00  0.00     0.074 A 
ATOM     46  C   UNL     1     -14.116   3.785   4.566  1.00  0.00     0.029 A 
ATOM     47  N   UNL     1     -12.554   2.288   5.096  1.00  0.00    -0.354 N 
ATOM     48  N   UNL     1     -11.571  -0.264   6.333  1.00  0.00    -0.248 NA
ATOM     49  C   UNL     1     -11.936  -2.075   7.761  1.00  0.00     0.031 C 
ATOM     50  C   UNL     1     -14.676   2.836   5.429  1.00  0.00     0.029 A 
ATOM     51  C   UNL     1     -13.711   1.887   5.738  1.00  0.00     0.049 A 
ATOM     52  H   UNL     1     -11.693   1.813   5.136  1.00  0.00     0.167 HD
ATOM     53  C   UNL     1     -12.875  -0.209   6.805  1.00  0.00     0.074 A 
ATOM     54  C   UNL     1     -13.053  -1.369   7.657  1.00  0.00     0.031 C 
ATOM     55  C   UNL     1     -13.840   0.714   6.567  1.00  0.00     0.037 A 
BRANCH  42  56
ATOM     56  C   UNL     1     -12.133   5.437   2.934  1.00  0.00     0.064 A 
ATOM     57  C   UNL     1     -12.156   5.552   1.536  1.00  0.00     0.173 A 
ATOM     58  C   UNL     1     -12.443   6.580   3.689  1.00  0.00     0.173 A 
ATOM     59  F   UNL     1     -11.842   4.499   0.767  1.00  0.00    -0.203 F 
ATOM     60  C   UNL     1     -12.449   6.768   0.921  1.00  0.00     0.198 A 
ATOM     61  C   UNL     1     -12.767   7.784   3.071  1.00  0.00     0.198 A 
ATOM     62  F   UNL     1     -12.428   6.529   5.030  1.00  0.00    -0.203 F 
ATOM     63  F   UNL     1     -12.408   6.867  -0.415  1.00  0.00    -0.200 F 
ATOM     64  C   UNL     1     -12.761   7.880   1.688  1.00  0.00     0.200 A 
ATOM     65  F   UNL     1     -13.076   8.855   3.815  1.00  0.00    -0.200 F 
ATOM     66  F   UNL     1     -13.046   9.047   1.095  1.00  0.00    -0.200 F 
ENDBRANCH  42  56
BRANCH  43  67
ATOM     67  C   UNL     1      -9.198  -3.115   7.419  1.00  0.00     0.064 A 
ATOM     68  C   UNL     1      -9.750  -4.365   7.109  1.00  0.00     0.173 A 
ATOM     69  C   UNL     1      -8.230  -3.069   8.435  1.00  0.00     0.173 A 
ATOM     70  F   UNL     1     -10.697  -4.463   6.164  1.00  0.00    -0.203 F 
ATOM     71  C   UNL     1      -9.364  -5.516   7.796  1.00  0.00     0.198 A 
ATOM     72  C   UNL     1      -7.821  -4.224   9.099  1.00  0.00     0.198 A 
ATOM     73  F   UNL     1      -7.672  -1.899   8.781  1.00  0.00    -0.203 F 
ATOM     74  F   UNL     1      -9.946  -6.689   7.512  1.00  0.00    -0.200 F 
ATOM     75  C   UNL     1      -8.395  -5.446   8.785  1.00  0.00     0.200 A 
ATOM     76  F   UNL     1      -6.873  -4.153  10.043  1.00  0.00    -0.200 F 
ATOM     77  F   UNL     1      -8.022  -6.553   9.441  1.00  0.00    -0.200 F 
ENDBRANCH  43  67
BRANCH  55  78
ATOM     78  C   UNL     1     -15.177   0.483   7.205  1.00  0.00     0.064 A 
ATOM     79  C   UNL     1     -15.377   0.674   8.579  1.00  0.00     0.173 A 
ATOM     80  C   UNL     1     -16.285   0.138   6.415  1.00  0.00     0.173 A 
ATOM     81  F   UNL     1     -14.344   0.988   9.375  1.00  0.00    -0.203 F 
ATOM     82  C   UNL     1     -16.639   0.514   9.143  1.00  0.00     0.198 A 
ATOM     83  C   UNL     1     -17.550   0.013   6.977  1.00  0.00     0.198 A 
ATOM     84  F   UNL     1     -16.143  -0.047   5.094  1.00  0.00    -0.203 F 
ATOM     85  F   UNL     1     -16.803   0.662  10.464  1.00  0.00    -0.200 F 
ATOM     86  C   UNL     1     -17.726   0.196   8.341  1.00  0.00     0.200 A 
ATOM     87  F   UNL     1     -18.602  -0.276   6.198  1.00  0.00    -0.200 F 
ATOM     88  F   UNL     1     -18.943   0.062   8.883  1.00  0.00    -0.200 F 
ENDBRANCH  55  78
ENDBRANCH  29  30
ENDBRANCH  22  24
ENDBRANCH  21  22
ENDBRANCH  20  21
ENDBRANCH   1  20
TORSDOF 15
