REMARK SMILES CCOc1ccc2[nH]c(C)c/c(=N\c3cccc(C(=O)OCCOC(=O)c4ccc(-c5c6nc(c(-c7c(F)c(F)c(F)c(F)c7F)c7ccc([nH]7)c(-c7c(F)c(F)c(F)c(F)c7F)c7nc(c(-c8c(F)c(F)c(F)c(F)c8F)c8ccc5[nH]8)C=C7)C=C6)cc4)c3)c2c1
REMARK SMILES IDX 22 1 21 2 19 3 20 4 18 5 14 6 15 7 90 8 16 9 17 10 13 11
REMARK SMILES IDX 4 12 5 13 92 14 6 15 91 16 7 17 12 18 8 19 11 20 9 21 10 23
REMARK SMILES IDX 3 24 2 25 1 26 23 27 24 28 25 29 26 30 27 31 28 32 89 33
REMARK SMILES IDX 29 34 88 35 30 36 31 37 32 38 82 39 33 40 87 41 81 42 83 43
REMARK SMILES IDX 34 44 86 45 80 46 79 47 35 49 67 50 47 51 66 52 48 53 51 54
REMARK SMILES IDX 65 55 84 56 49 57 50 58 64 60 85 61 52 62 36 63 37 64 45 65
REMARK SMILES IDX 38 66 39 67 43 68 46 69 40 70 41 71 44 72 42 73 68 74 69 75
REMARK SMILES IDX 77 76 70 77 71 78 75 79 78 80 72 81 73 82 76 83 74 84 53 85
REMARK SMILES IDX 54 86 62 87 55 88 56 89 60 90 63 91 57 92 58 93 61 94 59 95
REMARK H PARENT 8 22 83 48 51 59
REMARK Flexibility Score: inf
ROOT
ATOM      1  C   UNL     1       5.116   9.857   4.399  1.00  0.00     0.275 C 
ENDROOT
BRANCH   1   2
ATOM      2  O   UNL     1       4.904   9.279   3.097  1.00  0.00    -0.458 OA
BRANCH   2   3
ATOM      3  C   UNL     1       4.803  10.147   2.059  1.00  0.00     0.338 C 
ATOM      4  O   UNL     1       4.862  11.360   2.125  1.00  0.00    -0.246 OA
BRANCH   3   5
ATOM      5  C   UNL     1       4.717   9.412   0.768  1.00  0.00     0.062 A 
ATOM      6  C   UNL     1       4.330   7.411  -0.538  1.00  0.00     0.065 A 
ATOM      7  C   UNL     1       4.683   8.110  -1.699  1.00  0.00     0.028 A 
ATOM      8  C   UNL     1       4.345   8.066   0.695  1.00  0.00     0.044 A 
ATOM      9  C   UNL     1       5.054   9.451  -1.636  1.00  0.00     0.003 A 
ATOM     10  C   UNL     1       5.045  10.106  -0.408  1.00  0.00     0.016 A 
BRANCH   6  11
ATOM     11  N   UNL     1       3.889   6.085  -0.609  1.00  0.00    -0.248 NA
ATOM     12  C   UNL     1       2.298   2.194  -0.999  1.00  0.00     0.120 A 
ATOM     13  C   UNL     1       3.143   1.161  -1.395  1.00  0.00     0.048 A 
ATOM     14  C   UNL     1       2.791   3.483  -0.817  1.00  0.00     0.059 A 
ATOM     15  C   UNL     1       4.507   1.402  -1.568  1.00  0.00     0.030 A 
ATOM     16  C   UNL     1       4.159   3.728  -1.002  1.00  0.00     0.027 A 
ATOM     17  C   UNL     1       5.027   2.685  -1.375  1.00  0.00     0.048 A 
ATOM     18  C   UNL     1       4.716   5.112  -0.857  1.00  0.00     0.075 A 
ATOM     19  N   UNL     1       6.389   2.933  -1.575  1.00  0.00    -0.359 N 
ATOM     20  C   UNL     1       6.200   5.245  -1.032  1.00  0.00     0.050 A 
ATOM     21  C   UNL     1       6.937   4.180  -1.390  1.00  0.00     0.014 A 
ATOM     22  H   UNL     1       6.972   2.192  -1.856  1.00  0.00     0.166 HD
ATOM     23  C   UNL     1       8.418   4.310  -1.616  1.00  0.00     0.064 C 
BRANCH  12  24
ATOM     24  O   UNL     1       0.952   1.972  -0.910  1.00  0.00    -0.494 OA
BRANCH  24  25
ATOM     25  C   UNL     1       0.570   1.440   0.364  1.00  0.00     0.226 C 
ATOM     26  C   UNL     1       0.553  -0.081   0.340  1.00  0.00     0.049 C 
ENDBRANCH  24  25
ENDBRANCH  12  24
ENDBRANCH   6  11
ENDBRANCH   3   5
ENDBRANCH   2   3
ENDBRANCH   1   2
BRANCH   1  27
ATOM     27  C   UNL     1       6.571   9.694   4.844  1.00  0.00     0.275 C 
BRANCH  27  28
ATOM     28  O   UNL     1       7.442  10.557   4.088  1.00  0.00    -0.458 OA
BRANCH  28  29
ATOM     29  C   UNL     1       8.140   9.969   3.092  1.00  0.00     0.338 C 
ATOM     30  O   UNL     1       8.163   8.785   2.785  1.00  0.00    -0.246 OA
BRANCH  29  31
ATOM     31  C   UNL     1       8.802  11.018   2.307  1.00  0.00     0.060 A 
ATOM     32  C   UNL     1      10.002  11.597   2.718  1.00  0.00     0.016 A 
ATOM     33  C   UNL     1       8.207  11.405   1.108  1.00  0.00     0.016 A 
ATOM     34  C   UNL     1      10.576  12.606   1.935  1.00  0.00     0.010 A 
ATOM     35  C   UNL     1       8.790  12.387   0.315  1.00  0.00     0.010 A 
ATOM     36  C   UNL     1       9.969  13.018   0.733  1.00  0.00    -0.014 A 
BRANCH  36  37
ATOM     37  C   UNL     1      10.541  14.114  -0.093  1.00  0.00     0.031 A 
ATOM     38  C   UNL     1       9.790  15.409  -0.264  1.00  0.00     0.074 A 
ATOM     39  C   UNL     1      11.710  13.929  -0.733  1.00  0.00     0.049 A 
ATOM     40  N   UNL     1      10.108  16.464  -0.973  1.00  0.00    -0.248 NA
ATOM     41  C   UNL     1       8.498  15.523   0.431  1.00  0.00     0.031 C 
ATOM     42  C   UNL     1      12.502  12.699  -0.703  1.00  0.00     0.029 A 
ATOM     43  N   UNL     1      12.436  14.774  -1.536  1.00  0.00    -0.354 N 
ATOM     44  C   UNL     1       9.054  17.356  -0.820  1.00  0.00     0.074 A 
ATOM     45  C   UNL     1       8.063  16.700   0.004  1.00  0.00     0.031 C 
ATOM     46  C   UNL     1      13.622  12.882  -1.420  1.00  0.00     0.029 A 
ATOM     47  C   UNL     1      13.614  14.229  -1.984  1.00  0.00     0.049 A 
ATOM     48  H   UNL     1      12.139  15.683  -1.768  1.00  0.00     0.167 HD
ATOM     49  C   UNL     1       8.936  18.619  -1.298  1.00  0.00     0.037 A 
ATOM     50  C   UNL     1      14.581  14.760  -2.756  1.00  0.00     0.037 A 
ATOM     51  C   UNL     1       9.938  19.286  -2.088  1.00  0.00     0.049 A 
ATOM     52  C   UNL     1      14.438  16.173  -3.253  1.00  0.00     0.074 A 
ATOM     53  C   UNL     1       9.939  20.586  -2.564  1.00  0.00     0.029 A 
ATOM     54  N   UNL     1      11.124  18.704  -2.513  1.00  0.00    -0.354 N 
ATOM     55  N   UNL     1      13.464  17.026  -3.053  1.00  0.00    -0.248 NA
ATOM     56  C   UNL     1      15.535  16.697  -4.080  1.00  0.00     0.031 C 
ATOM     57  C   UNL     1      11.110  20.781  -3.305  1.00  0.00     0.029 A 
ATOM     58  C   UNL     1      11.858  19.616  -3.257  1.00  0.00     0.049 A 
ATOM     59  H   UNL     1      11.402  17.781  -2.316  1.00  0.00     0.167 HD
ATOM     60  C   UNL     1      13.831  18.187  -3.719  1.00  0.00     0.074 A 
ATOM     61  C   UNL     1      15.133  17.940  -4.304  1.00  0.00     0.031 C 
ATOM     62  C   UNL     1      13.146  19.351  -3.843  1.00  0.00     0.037 A 
BRANCH  49  63
ATOM     63  C   UNL     1       7.686  19.380  -0.959  1.00  0.00     0.064 A 
ATOM     64  C   UNL     1       7.440  19.835   0.346  1.00  0.00     0.173 A 
ATOM     65  C   UNL     1       6.755  19.712  -1.954  1.00  0.00     0.173 A 
ATOM     66  F   UNL     1       8.296  19.541   1.336  1.00  0.00    -0.203 F 
ATOM     67  C   UNL     1       6.297  20.572   0.645  1.00  0.00     0.198 A 
ATOM     68  C   UNL     1       5.627  20.474  -1.657  1.00  0.00     0.198 A 
ATOM     69  F   UNL     1       6.946  19.311  -3.220  1.00  0.00    -0.203 F 
ATOM     70  F   UNL     1       6.065  20.962   1.907  1.00  0.00    -0.200 F 
ATOM     71  C   UNL     1       5.396  20.898  -0.357  1.00  0.00     0.200 A 
ATOM     72  F   UNL     1       4.766  20.803  -2.630  1.00  0.00    -0.200 F 
ATOM     73  F   UNL     1       4.305  21.621  -0.070  1.00  0.00    -0.200 F 
ENDBRANCH  49  63
BRANCH  50  74
ATOM     74  C   UNL     1      15.796  13.963  -3.064  1.00  0.00     0.064 A 
ATOM     75  C   UNL     1      17.029  14.286  -2.481  1.00  0.00     0.173 A 
ATOM     76  C   UNL     1      15.750  12.858  -3.926  1.00  0.00     0.173 A 
ATOM     77  F   UNL     1      17.126  15.348  -1.667  1.00  0.00    -0.203 F 
ATOM     78  C   UNL     1      18.173  13.540  -2.755  1.00  0.00     0.198 A 
ATOM     79  C   UNL     1      16.889  12.097  -4.179  1.00  0.00     0.198 A 
ATOM     80  F   UNL     1      14.594  12.506  -4.507  1.00  0.00    -0.203 F 
ATOM     81  F   UNL     1      19.345  13.891  -2.210  1.00  0.00    -0.200 F 
ATOM     82  C   UNL     1      18.101  12.441  -3.597  1.00  0.00     0.200 A 
ATOM     83  F   UNL     1      16.814  11.027  -4.983  1.00  0.00    -0.200 F 
ATOM     84  F   UNL     1      19.199  11.717  -3.852  1.00  0.00    -0.200 F 
ENDBRANCH  50  74
BRANCH  62  85
ATOM     85  C   UNL     1      13.790  20.444  -4.646  1.00  0.00     0.064 A 
ATOM     86  C   UNL     1      13.892  20.359  -6.043  1.00  0.00     0.173 A 
ATOM     87  C   UNL     1      14.274  21.602  -4.021  1.00  0.00     0.173 A 
ATOM     88  F   UNL     1      13.456  19.265  -6.686  1.00  0.00    -0.203 F 
ATOM     89  C   UNL     1      14.478  21.383  -6.781  1.00  0.00     0.198 A 
ATOM     90  C   UNL     1      14.833  22.637  -4.765  1.00  0.00     0.198 A 
ATOM     91  F   UNL     1      14.194  21.736  -2.688  1.00  0.00    -0.203 F 
ATOM     92  F   UNL     1      14.607  21.260  -8.109  1.00  0.00    -0.200 F 
ATOM     93  C   UNL     1      14.942  22.524  -6.143  1.00  0.00     0.200 A 
ATOM     94  F   UNL     1      15.269  23.745  -4.148  1.00  0.00    -0.200 F 
ATOM     95  F   UNL     1      15.501  23.512  -6.856  1.00  0.00    -0.200 F 
ENDBRANCH  62  85
ENDBRANCH  36  37
ENDBRANCH  29  31
ENDBRANCH  28  29
ENDBRANCH  27  28
ENDBRANCH   1  27
TORSDOF 14
