REMARK SMILES O=C(OCCOC(=O)c1cncc(OCCCc2ccccc2)n1)c1ccc(-c2c3nc(c(-c4c(F)c(F)c(F)c(F)c4F)c4ccc([nH]4)c(-c4c(F)c(F)c(F)c(F)c4F)c4nc(c(-c5c(F)c(F)c(F)c(F)c5F)c5ccc2[nH]5)C=C4)C=C3)cc1
REMARK SMILES IDX 6 1 5 2 4 3 3 4 2 5 1 6 25 7 26 8 87 9 27 10 86 11 28 12
REMARK SMILES IDX 29 13 30 14 80 15 31 16 85 17 79 18 81 19 32 20 84 21 78 22
REMARK SMILES IDX 77 23 33 25 65 26 45 27 64 28 46 29 49 30 63 31 82 32 47 33
REMARK SMILES IDX 48 34 62 36 83 37 50 38 34 39 35 40 43 41 36 42 37 43 41 44
REMARK SMILES IDX 44 45 38 46 39 47 42 48 40 49 66 50 67 51 75 52 68 53 69 54
REMARK SMILES IDX 73 55 76 56 70 57 71 58 74 59 72 60 51 61 52 62 60 63 53 64
REMARK SMILES IDX 54 65 58 66 61 67 55 68 56 69 59 70 57 71 7 72 8 73 9 74
REMARK SMILES IDX 10 75 24 76 11 77 13 78 12 79 14 80 15 81 16 82 17 83 18 84
REMARK SMILES IDX 19 85 23 86 20 87 22 88 21 89
REMARK H PARENT 81 24 49 35
REMARK Flexibility Score: inf
ROOT
ATOM      1  O   UNL     1       3.711  -2.588   0.053  1.00  0.00    -0.457 OA
ENDROOT
BRANCH   1   2
ATOM      2  C   UNL     1       4.040  -2.460   1.453  1.00  0.00     0.275 C 
BRANCH   2   3
ATOM      3  C   UNL     1       5.169  -1.452   1.743  1.00  0.00     0.275 C 
BRANCH   3   4
ATOM      4  O   UNL     1       5.152  -0.160   1.110  1.00  0.00    -0.458 OA
BRANCH   4   5
ATOM      5  C   UNL     1       4.091   0.143   0.336  1.00  0.00     0.338 C 
ATOM      6  O   UNL     1       2.943   0.201   0.732  1.00  0.00    -0.246 OA
BRANCH   5   7
ATOM      7  C   UNL     1       4.521   0.188  -1.089  1.00  0.00     0.060 A 
ATOM      8  C   UNL     1       5.823  -0.183  -1.452  1.00  0.00     0.016 A 
ATOM      9  C   UNL     1       3.566   0.425  -2.083  1.00  0.00     0.016 A 
ATOM     10  C   UNL     1       6.149  -0.377  -2.787  1.00  0.00     0.010 A 
ATOM     11  C   UNL     1       3.888   0.218  -3.427  1.00  0.00     0.010 A 
ATOM     12  C   UNL     1       5.177  -0.204  -3.777  1.00  0.00    -0.014 A 
BRANCH  12  13
ATOM     13  C   UNL     1       5.567  -0.467  -5.175  1.00  0.00     0.031 A 
ATOM     14  C   UNL     1       6.032   0.666  -6.023  1.00  0.00     0.074 A 
ATOM     15  C   UNL     1       5.607  -1.732  -5.628  1.00  0.00     0.049 A 
ATOM     16  N   UNL     1       6.667   0.627  -7.163  1.00  0.00    -0.248 NA
ATOM     17  C   UNL     1       5.786   2.020  -5.505  1.00  0.00     0.031 C 
ATOM     18  C   UNL     1       5.195  -2.903  -4.861  1.00  0.00     0.029 A 
ATOM     19  N   UNL     1       6.015  -2.248  -6.828  1.00  0.00    -0.354 N 
ATOM     20  C   UNL     1       6.970   1.944  -7.459  1.00  0.00     0.074 A 
ATOM     21  C   UNL     1       6.369   2.767  -6.431  1.00  0.00     0.031 C 
ATOM     22  C   UNL     1       5.321  -4.001  -5.623  1.00  0.00     0.029 A 
ATOM     23  C   UNL     1       5.868  -3.611  -6.917  1.00  0.00     0.049 A 
ATOM     24  H   UNL     1       6.379  -1.696  -7.558  1.00  0.00     0.167 HD
ATOM     25  C   UNL     1       7.730   2.410  -8.476  1.00  0.00     0.037 A 
ATOM     26  C   UNL     1       6.167  -4.448  -7.926  1.00  0.00     0.037 A 
ATOM     27  C   UNL     1       8.263   1.576  -9.518  1.00  0.00     0.049 A 
ATOM     28  C   UNL     1       6.891  -3.890  -9.118  1.00  0.00     0.074 A 
ATOM     29  C   UNL     1       9.040   1.933 -10.604  1.00  0.00     0.029 A 
ATOM     30  N   UNL     1       8.041   0.207  -9.615  1.00  0.00    -0.354 N 
ATOM     31  N   UNL     1       7.279  -2.656  -9.340  1.00  0.00    -0.248 NA
ATOM     32  C   UNL     1       7.263  -4.838 -10.175  1.00  0.00     0.031 C 
ATOM     33  C   UNL     1       9.248   0.788 -11.383  1.00  0.00     0.029 A 
ATOM     34  C   UNL     1       8.637  -0.291 -10.761  1.00  0.00     0.049 A 
ATOM     35  H   UNL     1       7.535  -0.330  -8.963  1.00  0.00     0.167 HD
ATOM     36  C   UNL     1       7.979  -2.684 -10.536  1.00  0.00     0.074 A 
ATOM     37  C   UNL     1       7.957  -4.060 -10.995  1.00  0.00     0.031 C 
ATOM     38  C   UNL     1       8.597  -1.668 -11.188  1.00  0.00     0.037 A 
BRANCH  25  39
ATOM     39  C   UNL     1       8.016   3.879  -8.480  1.00  0.00     0.064 A 
ATOM     40  C   UNL     1       8.886   4.449  -7.536  1.00  0.00     0.173 A 
ATOM     41  C   UNL     1       7.401   4.731  -9.406  1.00  0.00     0.173 A 
ATOM     42  F   UNL     1       9.483   3.676  -6.615  1.00  0.00    -0.203 F 
ATOM     43  C   UNL     1       9.106   5.823  -7.501  1.00  0.00     0.198 A 
ATOM     44  C   UNL     1       7.639   6.103  -9.382  1.00  0.00     0.198 A 
ATOM     45  F   UNL     1       6.556   4.236 -10.322  1.00  0.00    -0.203 F 
ATOM     46  F   UNL     1       9.898   6.350  -6.557  1.00  0.00    -0.200 F 
ATOM     47  C   UNL     1       8.483   6.648  -8.425  1.00  0.00     0.200 A 
ATOM     48  F   UNL     1       7.038   6.901 -10.274  1.00  0.00    -0.200 F 
ATOM     49  F   UNL     1       8.685   7.973  -8.384  1.00  0.00    -0.200 F 
ENDBRANCH  25  39
BRANCH  26  50
ATOM     50  C   UNL     1       5.831  -5.891  -7.817  1.00  0.00     0.064 A 
ATOM     51  C   UNL     1       6.822  -6.862  -7.628  1.00  0.00     0.173 A 
ATOM     52  C   UNL     1       4.497  -6.324  -7.883  1.00  0.00     0.173 A 
ATOM     53  F   UNL     1       8.112  -6.500  -7.572  1.00  0.00    -0.203 F 
ATOM     54  C   UNL     1       6.495  -8.213  -7.523  1.00  0.00     0.198 A 
ATOM     55  C   UNL     1       4.170  -7.673  -7.759  1.00  0.00     0.198 A 
ATOM     56  F   UNL     1       3.511  -5.433  -8.065  1.00  0.00    -0.203 F 
ATOM     57  F   UNL     1       7.466  -9.125  -7.374  1.00  0.00    -0.200 F 
ATOM     58  C   UNL     1       5.170  -8.617  -7.584  1.00  0.00     0.200 A 
ATOM     59  F   UNL     1       2.888  -8.058  -7.813  1.00  0.00    -0.200 F 
ATOM     60  F   UNL     1       4.857  -9.916  -7.481  1.00  0.00    -0.200 F 
ENDBRANCH  26  50
BRANCH  38  61
ATOM     61  C   UNL     1       9.322  -2.018 -12.451  1.00  0.00     0.064 A 
ATOM     62  C   UNL     1       8.631  -2.301 -13.637  1.00  0.00     0.173 A 
ATOM     63  C   UNL     1      10.724  -2.026 -12.482  1.00  0.00     0.173 A 
ATOM     64  F   UNL     1       7.290  -2.323 -13.648  1.00  0.00    -0.203 F 
ATOM     65  C   UNL     1       9.320  -2.598 -14.809  1.00  0.00     0.198 A 
ATOM     66  C   UNL     1      11.409  -2.297 -13.662  1.00  0.00     0.198 A 
ATOM     67  F   UNL     1      11.427  -1.758 -11.372  1.00  0.00    -0.203 F 
ATOM     68  F   UNL     1       8.642  -2.905 -15.923  1.00  0.00    -0.200 F 
ATOM     69  C   UNL     1      10.707  -2.588 -14.822  1.00  0.00     0.200 A 
ATOM     70  F   UNL     1      12.749  -2.276 -13.676  1.00  0.00    -0.200 F 
ATOM     71  F   UNL     1      11.369  -2.865 -15.954  1.00  0.00    -0.200 F 
ENDBRANCH  38  61
ENDBRANCH  12  13
ENDBRANCH   5   7
ENDBRANCH   4   5
ENDBRANCH   3   4
ENDBRANCH   2   3
ENDBRANCH   1   2
BRANCH   1  72
ATOM     72  C   UNL     1       2.385  -2.847  -0.172  1.00  0.00     0.358 C 
ATOM     73  O   UNL     1       1.550  -3.118   0.676  1.00  0.00    -0.244 OA
BRANCH  72  74
ATOM     74  C   UNL     1       2.077  -2.828  -1.618  1.00  0.00     0.170 A 
ATOM     75  C   UNL     1       2.635  -3.812  -2.420  1.00  0.00     0.147 A 
ATOM     76  N   UNL     1       1.141  -1.943  -2.075  1.00  0.00    -0.203 NA
ATOM     77  N   UNL     1       2.304  -3.957  -3.727  1.00  0.00    -0.257 NA
ATOM     78  C   UNL     1       0.820  -2.084  -3.382  1.00  0.00     0.233 A 
ATOM     79  C   UNL     1       1.379  -3.075  -4.184  1.00  0.00     0.179 A 
BRANCH  78  80
ATOM     80  O   UNL     1      -0.164  -1.304  -3.952  1.00  0.00    -0.477 OA
BRANCH  80  81
ATOM     81  C   UNL     1      -0.236   0.032  -3.449  1.00  0.00     0.232 C 
BRANCH  81  82
ATOM     82  C   UNL     1      -1.504   0.243  -2.618  1.00  0.00     0.046 C 
BRANCH  82  83
ATOM     83  C   UNL     1      -1.223   0.648  -1.166  1.00  0.00     0.039 C 
BRANCH  83  84
ATOM     84  C   UNL     1      -0.399   1.901  -0.967  1.00  0.00    -0.048 A 
ATOM     85  C   UNL     1       0.535   1.931   0.076  1.00  0.00     0.004 A 
ATOM     86  C   UNL     1      -0.542   3.046  -1.760  1.00  0.00     0.004 A 
ATOM     87  C   UNL     1       1.364   3.036   0.273  1.00  0.00     0.000 A 
ATOM     88  C   UNL     1       0.282   4.159  -1.558  1.00  0.00     0.000 A 
ATOM     89  C   UNL     1       1.246   4.148  -0.552  1.00  0.00     0.000 A 
ENDBRANCH  83  84
ENDBRANCH  82  83
ENDBRANCH  81  82
ENDBRANCH  80  81
ENDBRANCH  78  80
ENDBRANCH  72  74
ENDBRANCH   1  72
TORSDOF 16
