REMARK SMILES CC[N@@H+]1CC[C@H](C[NH2+]Cc2ccc(C(=O)OCCOC(=O)c3ccc(-c4c5nc(c(-c6c(F)c(F)c(F)c(F)c6F)c6ccc([nH]6)c(-c6c(F)c(F)c(F)c(F)c6F)c6nc(c(-c7c(F)c(F)c(F)c(F)c7F)c7ccc4[nH]7)C=C6)C=C5)cc3)cn2)C1
REMARK SMILES IDX 16 1 14 2 15 3 13 4 10 5 11 6 86 7 12 8 85 9 9 10 8 11 7 14
REMARK SMILES IDX 6 15 3 16 4 17 87 18 5 20 2 21 1 22 17 23 18 24 19 25 20 26
REMARK SMILES IDX 21 27 22 28 23 29 84 30 24 31 83 32 25 33 26 34 27 35 77 36
REMARK SMILES IDX 28 37 82 38 76 39 78 40 29 41 81 42 75 43 74 44 30 46 62 47
REMARK SMILES IDX 42 48 61 49 43 50 46 51 60 52 79 53 44 54 45 55 59 57 80 58
REMARK SMILES IDX 47 59 31 60 32 61 40 62 33 63 34 64 38 65 41 66 35 67 36 68
REMARK SMILES IDX 39 69 37 70 63 71 64 72 72 73 65 74 66 75 70 76 73 77 67 78
REMARK SMILES IDX 68 79 71 80 69 81 48 82 49 83 57 84 50 85 51 86 55 87 58 88
REMARK SMILES IDX 52 89 53 90 56 91 54 92
REMARK H PARENT 8 12 8 13 3 19 78 45 46 56
REMARK Flexibility Score: inf
ROOT
ATOM      1  O   UNL     1       2.953   2.333   6.665  1.00  0.00    -0.458 OA
ENDROOT
BRANCH   1   2
ATOM      2  C   UNL     1       2.225   3.277   6.018  1.00  0.00     0.339 C 
ATOM      3  O   UNL     1       1.128   3.689   6.339  1.00  0.00    -0.246 OA
BRANCH   2   4
ATOM      4  C   UNL     1       2.980   3.849   4.884  1.00  0.00     0.078 A 
ATOM      5  C   UNL     1       4.201   5.120   2.764  1.00  0.00     0.094 A 
ATOM      6  C   UNL     1       4.562   3.805   3.075  1.00  0.00     0.031 A 
ATOM      7  N   UNL     1       3.271   5.798   3.474  1.00  0.00    -0.254 NA
ATOM      8  C   UNL     1       3.945   3.162   4.153  1.00  0.00     0.019 A 
ATOM      9  C   UNL     1       2.674   5.144   4.494  1.00  0.00     0.127 A 
BRANCH   5  10
ATOM     10  C   UNL     1       4.706   5.814   1.513  1.00  0.00     0.317 C 
BRANCH  10  11
ATOM     11  N   UNL     1       4.359   5.128   0.257  1.00  0.00    -0.341 N 
ATOM     12  H   UNL     1       4.680   5.697  -0.526  1.00  0.00     0.346 HD
ATOM     13  H   UNL     1       4.812   4.214   0.269  1.00  0.00     0.346 HD
BRANCH  11  14
ATOM     14  C   UNL     1       2.911   4.905   0.116  1.00  0.00     0.270 C 
BRANCH  14  15
ATOM     15  C   UNL     1       2.625   3.924  -1.024  1.00  0.00     0.105 C 
ATOM     16  N   UNL     1       1.089   2.046  -1.222  1.00  0.00    -0.335 N 
ATOM     17  C   UNL     1       2.442   1.644  -1.626  1.00  0.00     0.262 C 
ATOM     18  C   UNL     1       1.140   3.527  -1.127  1.00  0.00     0.271 C 
ATOM     19  H   UNL     1       0.415   1.700  -1.904  1.00  0.00     0.348 HD
ATOM     20  C   UNL     1       3.350   2.588  -0.874  1.00  0.00     0.076 C 
BRANCH  16  21
ATOM     21  C   UNL     1       0.638   1.469   0.057  1.00  0.00     0.258 C 
ATOM     22  C   UNL     1       0.773  -0.048   0.159  1.00  0.00     0.071 C 
ENDBRANCH  16  21
ENDBRANCH  14  15
ENDBRANCH  11  14
ENDBRANCH  10  11
ENDBRANCH   5  10
ENDBRANCH   2   4
ENDBRANCH   1   2
BRANCH   1  23
ATOM     23  C   UNL     1       2.363   1.819   7.878  1.00  0.00     0.275 C 
BRANCH  23  24
ATOM     24  C   UNL     1       2.997   2.450   9.119  1.00  0.00     0.275 C 
BRANCH  24  25
ATOM     25  O   UNL     1       2.640   3.842   9.238  1.00  0.00    -0.458 OA
BRANCH  25  26
ATOM     26  C   UNL     1       3.600   4.713   8.856  1.00  0.00     0.338 C 
ATOM     27  O   UNL     1       4.718   4.454   8.441  1.00  0.00    -0.246 OA
BRANCH  26  28
ATOM     28  C   UNL     1       3.090   6.090   8.905  1.00  0.00     0.060 A 
ATOM     29  C   UNL     1       2.389   6.557   7.800  1.00  0.00     0.016 A 
ATOM     30  C   UNL     1       3.464   6.971   9.916  1.00  0.00     0.016 A 
ATOM     31  C   UNL     1       2.162   7.918   7.632  1.00  0.00     0.010 A 
ATOM     32  C   UNL     1       3.125   8.327   9.804  1.00  0.00     0.010 A 
ATOM     33  C   UNL     1       2.505   8.827   8.641  1.00  0.00    -0.014 A 
BRANCH  33  34
ATOM     34  C   UNL     1       2.234  10.285   8.465  1.00  0.00     0.031 A 
ATOM     35  C   UNL     1       3.352  11.290   8.582  1.00  0.00     0.074 A 
ATOM     36  C   UNL     1       0.986  10.717   8.186  1.00  0.00     0.049 A 
ATOM     37  N   UNL     1       3.291  12.598   8.647  1.00  0.00    -0.248 NA
ATOM     38  C   UNL     1       4.720  10.754   8.652  1.00  0.00     0.031 C 
ATOM     39  C   UNL     1      -0.185   9.861   7.995  1.00  0.00     0.029 A 
ATOM     40  N   UNL     1       0.492  11.989   8.011  1.00  0.00    -0.354 N 
ATOM     41  C   UNL     1       4.599  13.034   8.825  1.00  0.00     0.074 A 
ATOM     42  C   UNL     1       5.433  11.851   8.866  1.00  0.00     0.031 C 
ATOM     43  C   UNL     1      -1.246  10.621   7.690  1.00  0.00     0.029 A 
ATOM     44  C   UNL     1      -0.860  12.024   7.770  1.00  0.00     0.049 A 
ATOM     45  H   UNL     1       1.054  12.796   8.055  1.00  0.00     0.167 HD
ATOM     46  C   UNL     1       5.059  14.304   8.941  1.00  0.00     0.037 A 
ATOM     47  C   UNL     1      -1.713  13.062   7.676  1.00  0.00     0.037 A 
ATOM     48  C   UNL     1       4.230  15.479   8.842  1.00  0.00     0.049 A 
ATOM     49  C   UNL     1      -1.186  14.457   7.854  1.00  0.00     0.074 A 
ATOM     50  C   UNL     1       4.604  16.809   8.923  1.00  0.00     0.029 A 
ATOM     51  N   UNL     1       2.860  15.464   8.625  1.00  0.00    -0.354 N 
ATOM     52  N   UNL     1       0.044  14.856   8.069  1.00  0.00    -0.248 NA
ATOM     53  C   UNL     1      -2.169  15.548   7.794  1.00  0.00     0.031 C 
ATOM     54  C   UNL     1       3.455  17.597   8.807  1.00  0.00     0.029 A 
ATOM     55  C   UNL     1       2.372  16.761   8.591  1.00  0.00     0.049 A 
ATOM     56  H   UNL     1       2.314  14.652   8.512  1.00  0.00     0.167 HD
ATOM     57  C   UNL     1      -0.012  16.240   8.146  1.00  0.00     0.074 A 
ATOM     58  C   UNL     1      -1.396  16.614   7.940  1.00  0.00     0.031 C 
ATOM     59  C   UNL     1       0.993  17.120   8.371  1.00  0.00     0.037 A 
BRANCH  46  60
ATOM     60  C   UNL     1       6.523  14.497   9.229  1.00  0.00     0.064 A 
ATOM     61  C   UNL     1       7.515  14.232   8.273  1.00  0.00     0.173 A 
ATOM     62  C   UNL     1       6.934  15.001  10.474  1.00  0.00     0.173 A 
ATOM     63  F   UNL     1       7.180  13.741   7.071  1.00  0.00    -0.203 F 
ATOM     64  C   UNL     1       8.863  14.434   8.563  1.00  0.00     0.198 A 
ATOM     65  C   UNL     1       8.280  15.233  10.749  1.00  0.00     0.198 A 
ATOM     66  F   UNL     1       6.029  15.283  11.423  1.00  0.00    -0.203 F 
ATOM     67  F   UNL     1       9.796  14.126   7.652  1.00  0.00    -0.200 F 
ATOM     68  C   UNL     1       9.244  14.941   9.797  1.00  0.00     0.200 A 
ATOM     69  F   UNL     1       8.643  15.740  11.935  1.00  0.00    -0.200 F 
ATOM     70  F   UNL     1      10.540  15.143  10.070  1.00  0.00    -0.200 F 
ENDBRANCH  46  60
BRANCH  47  71
ATOM     71  C   UNL     1      -3.162  12.812   7.448  1.00  0.00     0.064 A 
ATOM     72  C   UNL     1      -3.785  13.207   6.256  1.00  0.00     0.173 A 
ATOM     73  C   UNL     1      -3.952  12.170   8.414  1.00  0.00     0.173 A 
ATOM     74  F   UNL     1      -3.080  13.848   5.313  1.00  0.00    -0.203 F 
ATOM     75  C   UNL     1      -5.143  12.978   6.044  1.00  0.00     0.198 A 
ATOM     76  C   UNL     1      -5.301  11.909   8.186  1.00  0.00     0.198 A 
ATOM     77  F   UNL     1      -3.407  11.772   9.573  1.00  0.00    -0.203 F 
ATOM     78  F   UNL     1      -5.724  13.406   4.915  1.00  0.00    -0.200 F 
ATOM     79  C   UNL     1      -5.898  12.321   7.005  1.00  0.00     0.200 A 
ATOM     80  F   UNL     1      -6.021  11.257   9.109  1.00  0.00    -0.200 F 
ATOM     81  F   UNL     1      -7.201  12.091   6.795  1.00  0.00    -0.200 F 
ENDBRANCH  47  71
BRANCH  59  82
ATOM     82  C   UNL     1       0.644  18.580   8.355  1.00  0.00     0.064 A 
ATOM     83  C   UNL     1      -0.093  19.176   9.389  1.00  0.00     0.173 A 
ATOM     84  C   UNL     1       1.083  19.399   7.303  1.00  0.00     0.173 A 
ATOM     85  F   UNL     1      -0.551  18.432  10.407  1.00  0.00    -0.203 F 
ATOM     86  C   UNL     1      -0.398  20.534   9.358  1.00  0.00     0.198 A 
ATOM     87  C   UNL     1       0.804  20.762   7.292  1.00  0.00     0.198 A 
ATOM     88  F   UNL     1       1.795  18.879   6.293  1.00  0.00    -0.203 F 
ATOM     89  F   UNL     1      -1.145  21.073  10.331  1.00  0.00    -0.200 F 
ATOM     90  C   UNL     1       0.058  21.327   8.315  1.00  0.00     0.200 A 
ATOM     91  F   UNL     1       1.256  21.529   6.291  1.00  0.00    -0.200 F 
ATOM     92  F   UNL     1      -0.230  22.636   8.292  1.00  0.00    -0.200 F 
ENDBRANCH  59  82
ENDBRANCH  33  34
ENDBRANCH  26  28
ENDBRANCH  25  26
ENDBRANCH  24  25
ENDBRANCH  23  24
ENDBRANCH   1  23
TORSDOF 16
