REMARK SMILES O=C(C[C@H]1S/C(=[NH+]\N=C\c2cc(Br)ccc2OCc2ccccc2)NC1=O)OCCOC(=O)c1ccc(-c2c3nc(c(-c4c(F)c(F)c(F)c(F)c4F)c4ccc([nH]4)c(-c4c(F)c(F)c(F)c(F)c4F)c4nc(c(-c5c(F)c(F)c(F)c(F)c5F)c5ccc2[nH]5)C=C4)C=C3)cc1
REMARK SMILES IDX 1 1 2 2 3 3 4 4 5 5 26 6 6 7 25 8 27 9 7 10 8 13 9 14 10 15
REMARK SMILES IDX 11 16 16 17 12 18 15 19 13 20 14 21 17 22 18 23 19 24 20 25
REMARK SMILES IDX 24 26 21 27 23 28 22 29 28 30 29 31 30 32 31 33 32 34 33 35
REMARK SMILES IDX 34 36 35 37 96 38 36 39 95 40 37 41 38 42 39 43 89 44 40 45
REMARK SMILES IDX 94 46 88 47 90 48 41 49 93 50 87 51 86 52 42 54 74 55 54 56
REMARK SMILES IDX 73 57 55 58 58 59 72 60 91 61 56 62 57 63 71 65 92 66 59 67
REMARK SMILES IDX 43 68 44 69 52 70 45 71 46 72 50 73 53 74 47 75 48 76 51 77
REMARK SMILES IDX 49 78 75 79 76 80 84 81 77 82 78 83 82 84 85 85 79 86 80 87
REMARK SMILES IDX 83 88 81 89 60 90 61 91 69 92 62 93 63 94 67 95 70 96 64 97
REMARK SMILES IDX 65 98 68 99 66 100
REMARK H PARENT 25 11 7 12 90 53 58 64
REMARK Flexibility Score: inf
ROOT
ATOM      1  O   UNL     1       1.738   0.790  -0.836  1.00  0.00    -0.252 OA
ATOM      2  C   UNL     1       2.840   0.433  -0.423  1.00  0.00     0.307 C 
ENDROOT
BRANCH   2   3
ATOM      3  C   UNL     1       3.675  -0.521  -1.242  1.00  0.00     0.150 C 
BRANCH   3   4
ATOM      4  C   UNL     1       4.599   0.161  -2.243  1.00  0.00     0.184 C 
ATOM      5  S   UNL     1       4.330  -0.554  -3.903  1.00  0.00    -0.020 SA
ATOM      6  C   UNL     1       4.271   1.625  -2.430  1.00  0.00     0.322 C 
ATOM      7  C   UNL     1       3.257   0.751  -4.323  1.00  0.00     0.337 C 
ATOM      8  N   UNL     1       3.414   1.792  -3.473  1.00  0.00    -0.202 N 
ATOM      9  O   UNL     1       4.672   2.520  -1.698  1.00  0.00    -0.246 OA
ATOM     10  N   UNL     1       2.412   0.833  -5.288  1.00  0.00    -0.142 N 
ATOM     11  H   UNL     1       2.926   2.638  -3.604  1.00  0.00     0.316 HD
ATOM     12  H   UNL     1       1.819   1.610  -5.401  1.00  0.00     0.343 HD
BRANCH  10  13
ATOM     13  N   UNL     1       2.391  -0.249  -6.161  1.00  0.00    -0.093 NA
ATOM     14  C   UNL     1       1.312  -0.187  -6.870  1.00  0.00     0.170 C 
BRANCH  14  15
ATOM     15  C   UNL     1       1.073  -1.082  -7.996  1.00  0.00     0.040 A 
ATOM     16  C   UNL     1       0.591  -2.350  -7.644  1.00  0.00     0.029 A 
ATOM     17  C   UNL     1       1.202  -0.702  -9.339  1.00  0.00     0.128 A 
ATOM     18  C   UNL     1       0.235  -3.251  -8.640  1.00  0.00     0.018 A 
ATOM     19  C   UNL     1       0.894  -1.659 -10.320  1.00  0.00     0.048 A 
ATOM     20  Br  UNL     1      -0.555  -4.894  -8.162  1.00  0.00    -0.051 Br
ATOM     21  C   UNL     1       0.407  -2.923  -9.980  1.00  0.00     0.019 A 
BRANCH  17  22
ATOM     22  O   UNL     1       1.536   0.497  -9.902  1.00  0.00    -0.488 OA
BRANCH  22  23
ATOM     23  C   UNL     1       1.809   1.672  -9.137  1.00  0.00     0.265 C 
BRANCH  23  24
ATOM     24  C   UNL     1       0.603   2.333  -8.497  1.00  0.00    -0.011 A 
ATOM     25  C   UNL     1       0.815   3.358  -7.560  1.00  0.00     0.007 A 
ATOM     26  C   UNL     1      -0.711   1.893  -8.724  1.00  0.00     0.007 A 
ATOM     27  C   UNL     1      -0.245   3.859  -6.802  1.00  0.00     0.000 A 
ATOM     28  C   UNL     1      -1.764   2.376  -7.946  1.00  0.00     0.000 A 
ATOM     29  C   UNL     1      -1.528   3.347  -6.976  1.00  0.00     0.000 A 
ENDBRANCH  23  24
ENDBRANCH  22  23
ENDBRANCH  17  22
ENDBRANCH  14  15
ENDBRANCH  10  13
ENDBRANCH   3   4
ENDBRANCH   2   3
BRANCH   2  30
ATOM     30  O   UNL     1       3.334   0.913   0.735  1.00  0.00    -0.462 OA
BRANCH  30  31
ATOM     31  C   UNL     1       4.631   0.592   1.276  1.00  0.00     0.274 C 
BRANCH  31  32
ATOM     32  C   UNL     1       4.521  -0.505   2.336  1.00  0.00     0.275 C 
BRANCH  32  33
ATOM     33  O   UNL     1       4.147  -1.755   1.725  1.00  0.00    -0.458 OA
BRANCH  33  34
ATOM     34  C   UNL     1       2.820  -2.043   1.723  1.00  0.00     0.338 C 
ATOM     35  O   UNL     1       1.937  -1.417   2.281  1.00  0.00    -0.246 OA
BRANCH  34  36
ATOM     36  C   UNL     1       2.564  -3.154   0.775  1.00  0.00     0.060 A 
ATOM     37  C   UNL     1       1.381  -3.133   0.023  1.00  0.00     0.016 A 
ATOM     38  C   UNL     1       3.479  -4.198   0.610  1.00  0.00     0.016 A 
ATOM     39  C   UNL     1       1.090  -4.175  -0.863  1.00  0.00     0.010 A 
ATOM     40  C   UNL     1       3.188  -5.239  -0.273  1.00  0.00     0.010 A 
ATOM     41  C   UNL     1       1.977  -5.252  -0.988  1.00  0.00    -0.014 A 
BRANCH  41  42
ATOM     42  C   UNL     1       1.585  -6.490  -1.705  1.00  0.00     0.031 A 
ATOM     43  C   UNL     1       1.084  -7.651  -0.891  1.00  0.00     0.074 A 
ATOM     44  C   UNL     1       1.726  -6.613  -3.036  1.00  0.00     0.049 A 
ATOM     45  N   UNL     1       0.827  -8.880  -1.257  1.00  0.00    -0.248 NA
ATOM     46  C   UNL     1       0.859  -7.388   0.539  1.00  0.00     0.031 C 
ATOM     47  C   UNL     1       2.170  -5.558  -3.942  1.00  0.00     0.029 A 
ATOM     48  N   UNL     1       1.534  -7.703  -3.850  1.00  0.00    -0.354 N 
ATOM     49  C   UNL     1       0.426  -9.539  -0.103  1.00  0.00     0.074 A 
ATOM     50  C   UNL     1       0.501  -8.583   0.981  1.00  0.00     0.031 C 
ATOM     51  C   UNL     1       2.247  -6.061  -5.187  1.00  0.00     0.029 A 
ATOM     52  C   UNL     1       1.893  -7.481  -5.157  1.00  0.00     0.049 A 
ATOM     53  H   UNL     1       1.175  -8.561  -3.528  1.00  0.00     0.167 HD
ATOM     54  C   UNL     1       0.028 -10.825   0.042  1.00  0.00     0.037 A 
ATOM     55  C   UNL     1       1.958  -8.336  -6.197  1.00  0.00     0.037 A 
ATOM     56  C   UNL     1      -0.045 -11.777  -1.034  1.00  0.00     0.049 A 
ATOM     57  C   UNL     1       1.569  -9.781  -6.003  1.00  0.00     0.074 A 
ATOM     58  C   UNL     1      -0.460 -13.096  -0.993  1.00  0.00     0.029 A 
ATOM     59  N   UNL     1       0.319 -11.511  -2.345  1.00  0.00    -0.354 N 
ATOM     60  N   UNL     1       1.159 -10.391  -4.917  1.00  0.00    -0.248 NA
ATOM     61  C   UNL     1       1.651 -10.657  -7.182  1.00  0.00     0.031 C 
ATOM     62  C   UNL     1      -0.299 -13.643  -2.270  1.00  0.00     0.029 A 
ATOM     63  C   UNL     1       0.163 -12.649  -3.118  1.00  0.00     0.049 A 
ATOM     64  H   UNL     1       0.641 -10.642  -2.677  1.00  0.00     0.167 HD
ATOM     65  C   UNL     1       0.899 -11.704  -5.289  1.00  0.00     0.074 A 
ATOM     66  C   UNL     1       1.199 -11.806  -6.701  1.00  0.00     0.031 C 
ATOM     67  C   UNL     1       0.445 -12.731  -4.529  1.00  0.00     0.037 A 
BRANCH  54  68
ATOM     68  C   UNL     1      -0.326 -11.280   1.427  1.00  0.00     0.064 A 
ATOM     69  C   UNL     1      -1.484 -10.830   2.079  1.00  0.00     0.173 A 
ATOM     70  C   UNL     1       0.507 -12.178   2.111  1.00  0.00     0.173 A 
ATOM     71  F   UNL     1      -2.304  -9.958   1.474  1.00  0.00    -0.203 F 
ATOM     72  C   UNL     1      -1.774 -11.233   3.380  1.00  0.00     0.198 A 
ATOM     73  C   UNL     1       0.197 -12.602   3.400  1.00  0.00     0.198 A 
ATOM     74  F   UNL     1       1.625 -12.641   1.531  1.00  0.00    -0.203 F 
ATOM     75  F   UNL     1      -2.853 -10.742   4.006  1.00  0.00    -0.200 F 
ATOM     76  C   UNL     1      -0.937 -12.121   4.037  1.00  0.00     0.200 A 
ATOM     77  F   UNL     1       1.002 -13.469   4.030  1.00  0.00    -0.200 F 
ATOM     78  F   UNL     1      -1.216 -12.505   5.290  1.00  0.00    -0.200 F 
ENDBRANCH  54  68
BRANCH  55  79
ATOM     79  C   UNL     1       2.419  -7.850  -7.524  1.00  0.00     0.064 A 
ATOM     80  C   UNL     1       1.533  -7.758  -8.606  1.00  0.00     0.173 A 
ATOM     81  C   UNL     1       3.751  -7.468  -7.740  1.00  0.00     0.173 A 
ATOM     82  F   UNL     1       0.261  -8.159  -8.463  1.00  0.00    -0.203 F 
ATOM     83  C   UNL     1       1.955  -7.285  -9.847  1.00  0.00     0.198 A 
ATOM     84  C   UNL     1       4.170  -6.982  -8.977  1.00  0.00     0.198 A 
ATOM     85  F   UNL     1       4.646  -7.562  -6.745  1.00  0.00    -0.203 F 
ATOM     86  F   UNL     1       1.089  -7.219 -10.867  1.00  0.00    -0.200 F 
ATOM     87  C   UNL     1       3.271  -6.889 -10.029  1.00  0.00     0.200 A 
ATOM     88  F   UNL     1       5.445  -6.609  -9.151  1.00  0.00    -0.200 F 
ATOM     89  F   UNL     1       3.675  -6.429 -11.221  1.00  0.00    -0.200 F 
ENDBRANCH  55  79
BRANCH  67  90
ATOM     90  C   UNL     1       0.188 -14.046  -5.207  1.00  0.00     0.064 A 
ATOM     91  C   UNL     1       1.233 -14.887  -5.612  1.00  0.00     0.173 A 
ATOM     92  C   UNL     1      -1.129 -14.502  -5.383  1.00  0.00     0.173 A 
ATOM     93  F   UNL     1       2.508 -14.492  -5.479  1.00  0.00    -0.203 F 
ATOM     94  C   UNL     1       0.970 -16.133  -6.178  1.00  0.00     0.198 A 
ATOM     95  C   UNL     1      -1.387 -15.758  -5.923  1.00  0.00     0.198 A 
ATOM     96  F   UNL     1      -2.164 -13.737  -5.005  1.00  0.00    -0.203 F 
ATOM     97  F   UNL     1       1.984 -16.909  -6.586  1.00  0.00    -0.200 F 
ATOM     98  C   UNL     1      -0.338 -16.571  -6.323  1.00  0.00     0.200 A 
ATOM     99  F   UNL     1      -2.651 -16.185  -6.048  1.00  0.00    -0.200 F 
ATOM    100  F   UNL     1      -0.588 -17.777  -6.851  1.00  0.00    -0.200 F 
ENDBRANCH  67  90
ENDBRANCH  41  42
ENDBRANCH  34  36
ENDBRANCH  33  34
ENDBRANCH  32  33
ENDBRANCH  31  32
ENDBRANCH  30  31
ENDBRANCH   2  30
TORSDOF 17
