REMARK SMILES Cc1ccc([C@@H](C)Nc2ccc(N)cc2C(=O)OCCOC(=O)c2ccc(-c3c4nc(c(-c5c(F)c(F)c(F)c(F)c5F)c5ccc([nH]5)c(-c5c(F)c(F)c(F)c(F)c5F)c5nc(c(-c6c(F)c(F)c(F)c(F)c6F)c6ccc3[nH]6)C=C5)C=C4)cc2)cc1F
REMARK SMILES IDX 19 1 18 2 16 3 17 4 15 5 9 6 10 7 11 8 14 9 12 10 8 11 6 13
REMARK SMILES IDX 7 14 5 15 1 16 2 17 3 18 88 19 4 20 87 21 89 22 13 23 20 26
REMARK SMILES IDX 21 27 22 28 23 29 24 30 25 31 86 32 26 33 85 34 27 35 28 36
REMARK SMILES IDX 29 37 79 38 30 39 84 40 78 41 80 42 31 43 83 44 77 45 76 46
REMARK SMILES IDX 32 48 64 49 44 50 63 51 45 52 48 53 62 54 81 55 46 56 47 57
REMARK SMILES IDX 61 59 82 60 49 61 33 62 34 63 42 64 35 65 36 66 40 67 43 68
REMARK SMILES IDX 37 69 38 70 41 71 39 72 65 73 66 74 74 75 67 76 68 77 72 78
REMARK SMILES IDX 75 79 69 80 70 81 73 82 71 83 50 84 51 85 59 86 52 87 53 88
REMARK SMILES IDX 57 89 60 90 54 91 55 92 58 93 56 94
REMARK H PARENT 8 12 13 24 13 25 80 47 48 58
REMARK Flexibility Score: inf
ROOT
ATOM      1  C   UNL     1      -3.308  -1.727  -2.490  1.00  0.00     0.275 C 
ENDROOT
BRANCH   1   2
ATOM      2  O   UNL     1      -3.056  -2.501  -1.297  1.00  0.00    -0.458 OA
BRANCH   2   3
ATOM      3  C   UNL     1      -3.957  -3.482  -0.999  1.00  0.00     0.340 C 
ATOM      4  O   UNL     1      -4.923  -3.783  -1.663  1.00  0.00    -0.246 OA
BRANCH   3   5
ATOM      5  C   UNL     1      -3.551  -4.240   0.214  1.00  0.00     0.085 A 
ATOM      6  C   UNL     1      -3.245  -3.693   1.467  1.00  0.00     0.049 A 
ATOM      7  C   UNL     1      -2.960  -4.637   2.489  1.00  0.00     0.029 A 
ATOM      8  C   UNL     1      -2.963  -6.023   2.292  1.00  0.00     0.027 A 
ATOM      9  C   UNL     1      -3.561  -5.652   0.025  1.00  0.00     0.043 A 
ATOM     10  C   UNL     1      -3.232  -6.548   1.043  1.00  0.00     0.032 A 
BRANCH   6  11
ATOM     11  N   UNL     1      -3.263  -2.386   1.905  1.00  0.00    -0.378 N 
ATOM     12  H   UNL     1      -3.060  -2.325   2.867  1.00  0.00     0.161 HD
BRANCH  11  13
ATOM     13  C   UNL     1      -3.504  -1.067   1.323  1.00  0.00     0.106 C 
ATOM     14  C   UNL     1      -4.834  -0.924   0.588  1.00  0.00     0.036 C 
BRANCH  13  15
ATOM     15  C   UNL     1      -2.247  -0.401   0.770  1.00  0.00    -0.023 A 
ATOM     16  C   UNL     1       1.415   1.780  -0.080  1.00  0.00     0.047 C 
ATOM     17  C   UNL     1       0.140   1.036   0.177  1.00  0.00    -0.015 A 
ATOM     18  C   UNL     1      -1.112   1.626  -0.015  1.00  0.00     0.007 A 
ATOM     19  C   UNL     1       0.182  -0.281   0.623  1.00  0.00     0.126 A 
ATOM     20  C   UNL     1      -2.287   0.920   0.289  1.00  0.00     0.006 A 
ATOM     21  C   UNL     1      -0.982  -0.997   0.896  1.00  0.00     0.045 A 
ATOM     22  F   UNL     1       1.366  -0.859   0.870  1.00  0.00    -0.207 F 
ENDBRANCH  13  15
ENDBRANCH  11  13
ENDBRANCH   6  11
BRANCH  10  23
ATOM     23  N   UNL     1      -3.315  -7.919   0.858  1.00  0.00    -0.399 N 
ATOM     24  H   UNL     1      -3.077  -8.530   1.593  1.00  0.00     0.156 HD
ATOM     25  H   UNL     1      -3.611  -8.283  -0.007  1.00  0.00     0.156 HD
ENDBRANCH  10  23
ENDBRANCH   3   5
ENDBRANCH   2   3
ENDBRANCH   1   2
BRANCH   1  26
ATOM     26  C   UNL     1      -2.387  -2.106  -3.642  1.00  0.00     0.275 C 
BRANCH  26  27
ATOM     27  O   UNL     1      -2.865  -3.269  -4.332  1.00  0.00    -0.458 OA
BRANCH  27  28
ATOM     28  C   UNL     1      -2.538  -4.405  -3.684  1.00  0.00     0.338 C 
ATOM     29  O   UNL     1      -2.041  -4.498  -2.571  1.00  0.00    -0.246 OA
BRANCH  28  30
ATOM     30  C   UNL     1      -2.488  -5.567  -4.592  1.00  0.00     0.060 A 
ATOM     31  C   UNL     1      -2.334  -6.738  -3.827  1.00  0.00     0.016 A 
ATOM     32  C   UNL     1      -1.600  -5.276  -5.633  1.00  0.00     0.016 A 
ATOM     33  C   UNL     1      -1.066  -7.282  -3.732  1.00  0.00     0.010 A 
ATOM     34  C   UNL     1      -0.337  -5.814  -5.546  1.00  0.00     0.010 A 
ATOM     35  C   UNL     1      -0.059  -6.755  -4.543  1.00  0.00    -0.014 A 
BRANCH  35  36
ATOM     36  C   UNL     1       1.240  -7.376  -4.635  1.00  0.00     0.031 A 
ATOM     37  C   UNL     1       1.260  -8.689  -5.296  1.00  0.00     0.074 A 
ATOM     38  C   UNL     1       2.375  -6.752  -4.265  1.00  0.00     0.049 A 
ATOM     39  N   UNL     1       2.166  -9.584  -5.117  1.00  0.00    -0.248 NA
ATOM     40  C   UNL     1       0.170  -9.125  -6.169  1.00  0.00     0.031 C 
ATOM     41  C   UNL     1       3.722  -7.094  -4.699  1.00  0.00     0.029 A 
ATOM     42  N   UNL     1       2.557  -5.754  -3.301  1.00  0.00    -0.354 N 
ATOM     43  C   UNL     1       1.969 -10.532  -6.092  1.00  0.00     0.074 A 
ATOM     44  C   UNL     1       0.641 -10.293  -6.604  1.00  0.00     0.031 C 
ATOM     45  C   UNL     1       4.607  -6.524  -3.869  1.00  0.00     0.029 A 
ATOM     46  C   UNL     1       3.857  -5.955  -2.768  1.00  0.00     0.049 A 
ATOM     47  H   UNL     1       1.914  -5.054  -3.045  1.00  0.00     0.167 HD
ATOM     48  C   UNL     1       3.028 -11.277  -6.509  1.00  0.00     0.037 A 
ATOM     49  C   UNL     1       4.040  -6.284  -1.451  1.00  0.00     0.037 A 
ATOM     50  C   UNL     1       4.241 -10.925  -5.771  1.00  0.00     0.049 A 
ATOM     51  C   UNL     1       4.637  -7.646  -1.212  1.00  0.00     0.074 A 
ATOM     52  C   UNL     1       5.325 -10.104  -6.043  1.00  0.00     0.029 A 
ATOM     53  N   UNL     1       4.280 -11.148  -4.407  1.00  0.00    -0.354 N 
ATOM     54  N   UNL     1       4.918  -8.492  -2.162  1.00  0.00    -0.248 NA
ATOM     55  C   UNL     1       4.875  -8.203   0.117  1.00  0.00     0.031 C 
ATOM     56  C   UNL     1       6.045  -9.893  -4.833  1.00  0.00     0.029 A 
ATOM     57  C   UNL     1       5.402 -10.589  -3.827  1.00  0.00     0.049 A 
ATOM     58  H   UNL     1       3.591 -11.646  -3.909  1.00  0.00     0.167 HD
ATOM     59  C   UNL     1       5.311  -9.683  -1.618  1.00  0.00     0.074 A 
ATOM     60  C   UNL     1       5.262  -9.454  -0.184  1.00  0.00     0.031 C 
ATOM     61  C   UNL     1       5.605 -10.766  -2.398  1.00  0.00     0.037 A 
BRANCH  48  62
ATOM     62  C   UNL     1       3.011 -12.054  -7.801  1.00  0.00     0.064 A 
ATOM     63  C   UNL     1       4.183 -12.194  -8.570  1.00  0.00     0.173 A 
ATOM     64  C   UNL     1       1.859 -12.636  -8.366  1.00  0.00     0.173 A 
ATOM     65  F   UNL     1       5.376 -11.803  -8.106  1.00  0.00    -0.203 F 
ATOM     66  C   UNL     1       4.174 -12.742  -9.853  1.00  0.00     0.198 A 
ATOM     67  C   UNL     1       1.836 -13.128  -9.674  1.00  0.00     0.198 A 
ATOM     68  F   UNL     1       0.735 -12.787  -7.652  1.00  0.00    -0.203 F 
ATOM     69  F   UNL     1       5.322 -12.837 -10.539  1.00  0.00    -0.200 F 
ATOM     70  C   UNL     1       2.994 -13.170 -10.422  1.00  0.00     0.200 A 
ATOM     71  F   UNL     1       0.682 -13.562 -10.202  1.00  0.00    -0.200 F 
ATOM     72  F   UNL     1       2.978 -13.647 -11.674  1.00  0.00    -0.200 F 
ENDBRANCH  48  62
BRANCH  49  73
ATOM     73  C   UNL     1       3.055  -5.604  -0.570  1.00  0.00     0.064 A 
ATOM     74  C   UNL     1       3.145  -4.202  -0.570  1.00  0.00     0.173 A 
ATOM     75  C   UNL     1       1.800  -6.193  -0.370  1.00  0.00     0.173 A 
ATOM     76  F   UNL     1       4.340  -3.607  -0.712  1.00  0.00    -0.203 F 
ATOM     77  C   UNL     1       1.997  -3.436  -0.687  1.00  0.00     0.198 A 
ATOM     78  C   UNL     1       0.650  -5.411  -0.426  1.00  0.00     0.198 A 
ATOM     79  F   UNL     1       1.681  -7.528  -0.308  1.00  0.00    -0.203 F 
ATOM     80  F   UNL     1       2.109  -2.141  -1.011  1.00  0.00    -0.200 F 
ATOM     81  C   UNL     1       0.752  -4.042  -0.645  1.00  0.00     0.200 A 
ATOM     82  F   UNL     1      -0.548  -6.005  -0.401  1.00  0.00    -0.200 F 
ATOM     83  F   UNL     1      -0.340  -3.307  -0.877  1.00  0.00    -0.200 F 
ENDBRANCH  49  73
BRANCH  61  84
ATOM     84  C   UNL     1       6.063 -12.106  -1.880  1.00  0.00     0.064 A 
ATOM     85  C   UNL     1       6.883 -12.250  -0.751  1.00  0.00     0.173 A 
ATOM     86  C   UNL     1       5.763 -13.309  -2.565  1.00  0.00     0.173 A 
ATOM     87  F   UNL     1       7.372 -11.179  -0.110  1.00  0.00    -0.203 F 
ATOM     88  C   UNL     1       7.261 -13.507  -0.270  1.00  0.00     0.198 A 
ATOM     89  C   UNL     1       6.185 -14.555  -2.115  1.00  0.00     0.198 A 
ATOM     90  F   UNL     1       5.039 -13.330  -3.691  1.00  0.00    -0.203 F 
ATOM     91  F   UNL     1       7.980 -13.595   0.858  1.00  0.00    -0.200 F 
ATOM     92  C   UNL     1       6.908 -14.658  -0.949  1.00  0.00     0.200 A 
ATOM     93  F   UNL     1       5.874 -15.653  -2.819  1.00  0.00    -0.200 F 
ATOM     94  F   UNL     1       7.273 -15.861  -0.488  1.00  0.00    -0.200 F 
ENDBRANCH  61  84
ENDBRANCH  35  36
ENDBRANCH  28  30
ENDBRANCH  27  28
ENDBRANCH  26  27
ENDBRANCH   1  26
TORSDOF 15
