REMARK SMILES O=C(CN1C(=O)N[C@](c2cccs2)(C2CC2)C1=O)OCCOC(=O)c1ccc(-c2c3nc(c(-c4c(F)c(F)c(F)c(F)c4F)c4ccc([nH]4)c(-c4c(F)c(F)c(F)c(F)c4F)c4nc(c(-c5c(F)c(F)c(F)c(F)c5F)c5ccc2[nH]5)C=C4)C=C3)cc1
REMARK SMILES IDX 20 1 19 2 2 3 1 4 3 5 4 6 5 7 17 8 6 9 7 10 8 11 18 12 14 14
REMARK SMILES IDX 15 15 16 16 9 17 10 18 13 19 11 20 12 21 21 22 22 23 23 24
REMARK SMILES IDX 24 25 25 26 26 27 87 28 27 29 86 30 28 31 29 32 30 33 80 34
REMARK SMILES IDX 31 35 85 36 79 37 81 38 32 39 84 40 78 41 77 42 33 44 65 45
REMARK SMILES IDX 45 46 64 47 46 48 49 49 63 50 82 51 47 52 48 53 62 55 83 56
REMARK SMILES IDX 50 57 34 58 35 59 43 60 36 61 37 62 41 63 44 64 38 65 39 66
REMARK SMILES IDX 42 67 40 68 66 69 67 70 75 71 68 72 69 73 73 74 76 75 70 76
REMARK SMILES IDX 71 77 74 78 72 79 51 80 52 81 60 82 53 83 54 84 58 85 61 86
REMARK SMILES IDX 55 87 56 88 59 89 57 90
REMARK H PARENT 7 13 81 43 49 54
REMARK Flexibility Score: inf
ROOT
ATOM      1  C   UNL     1       4.228  -1.420  -0.453  1.00  0.00     0.274 C 
ENDROOT
BRANCH   1   2
ATOM      2  O   UNL     1       2.908  -1.187   0.090  1.00  0.00    -0.461 OA
BRANCH   2   3
ATOM      3  C   UNL     1       2.518  -0.019   0.661  1.00  0.00     0.326 C 
ATOM      4  O   UNL     1       1.583   0.011   1.460  1.00  0.00    -0.250 OA
BRANCH   3   5
ATOM      5  C   UNL     1       3.249   1.252   0.264  1.00  0.00     0.253 C 
BRANCH   5   6
ATOM      6  N   UNL     1       3.896   1.873   1.387  1.00  0.00    -0.251 N 
ATOM      7  C   UNL     1       3.941   3.213   1.605  1.00  0.00     0.325 C 
ATOM      8  C   UNL     1       4.786   1.229   2.201  1.00  0.00     0.262 C 
ATOM      9  O   UNL     1       3.385   4.084   0.957  1.00  0.00    -0.248 OA
ATOM     10  N   UNL     1       4.789   3.462   2.653  1.00  0.00    -0.318 N 
ATOM     11  C   UNL     1       5.401   2.262   3.185  1.00  0.00     0.158 C 
ATOM     12  O   UNL     1       5.073   0.039   2.140  1.00  0.00    -0.271 OA
ATOM     13  H   UNL     1       4.965   4.364   3.007  1.00  0.00     0.166 HD
BRANCH  11  14
ATOM     14  C   UNL     1       6.883   2.337   2.873  1.00  0.00     0.030 C 
ATOM     15  C   UNL     1       7.946   2.956   3.743  1.00  0.00     0.007 C 
ATOM     16  C   UNL     1       7.929   1.462   3.521  1.00  0.00     0.007 C 
ENDBRANCH  11  14
BRANCH  11  17
ATOM     17  C   UNL     1       4.750   1.994   4.538  1.00  0.00     0.040 A 
ATOM     18  C   UNL     1       3.386   1.832   4.782  1.00  0.00     0.018 A 
ATOM     19  S   UNL     1       5.614   1.838   6.011  1.00  0.00    -0.146 S 
ATOM     20  C   UNL     1       3.083   1.497   6.129  1.00  0.00     0.012 A 
ATOM     21  C   UNL     1       4.215   1.449   6.903  1.00  0.00     0.065 A 
ENDBRANCH  11  17
ENDBRANCH   5   6
ENDBRANCH   3   5
ENDBRANCH   2   3
ENDBRANCH   1   2
BRANCH   1  22
ATOM     22  C   UNL     1       4.197  -1.520  -1.977  1.00  0.00     0.275 C 
BRANCH  22  23
ATOM     23  O   UNL     1       3.788  -0.262  -2.549  1.00  0.00    -0.458 OA
BRANCH  23  24
ATOM     24  C   UNL     1       2.461  -0.149  -2.812  1.00  0.00     0.338 C 
ATOM     25  O   UNL     1       1.624  -1.025  -2.725  1.00  0.00    -0.246 OA
BRANCH  24  26
ATOM     26  C   UNL     1       2.127   1.278  -3.028  1.00  0.00     0.060 A 
ATOM     27  C   UNL     1       0.921   1.753  -2.497  1.00  0.00     0.016 A 
ATOM     28  C   UNL     1       2.989   2.151  -3.699  1.00  0.00     0.016 A 
ATOM     29  C   UNL     1       0.567   3.095  -2.646  1.00  0.00     0.010 A 
ATOM     30  C   UNL     1       2.628   3.494  -3.858  1.00  0.00     0.010 A 
ATOM     31  C   UNL     1       1.408   3.969  -3.347  1.00  0.00    -0.014 A 
BRANCH  31  32
ATOM     32  C   UNL     1       0.962   5.352  -3.648  1.00  0.00     0.031 A 
ATOM     33  C   UNL     1       0.346   5.646  -4.986  1.00  0.00     0.074 A 
ATOM     34  C   UNL     1       1.103   6.338  -2.743  1.00  0.00     0.049 A 
ATOM     35  N   UNL     1      -0.081   6.783  -5.474  1.00  0.00    -0.248 NA
ATOM     36  C   UNL     1       0.192   4.503  -5.901  1.00  0.00     0.031 C 
ATOM     37  C   UNL     1       1.664   6.181  -1.404  1.00  0.00     0.029 A 
ATOM     38  N   UNL     1       0.797   7.675  -2.826  1.00  0.00    -0.354 N 
ATOM     39  C   UNL     1      -0.557   6.494  -6.745  1.00  0.00     0.074 A 
ATOM     40  C   UNL     1      -0.338   5.081  -6.969  1.00  0.00     0.031 C 
ATOM     41  C   UNL     1       1.679   7.380  -0.795  1.00  0.00     0.029 A 
ATOM     42  C   UNL     1       1.155   8.392  -1.711  1.00  0.00     0.049 A 
ATOM     43  H   UNL     1       0.362   8.081  -3.611  1.00  0.00     0.167 HD
ATOM     44  C   UNL     1      -1.133   7.330  -7.640  1.00  0.00     0.037 A 
ATOM     45  C   UNL     1       1.088   9.716  -1.469  1.00  0.00     0.037 A 
ATOM     46  C   UNL     1      -1.351   8.735  -7.421  1.00  0.00     0.049 A 
ATOM     47  C   UNL     1       0.514  10.636  -2.518  1.00  0.00     0.074 A 
ATOM     48  C   UNL     1      -1.967   9.651  -8.257  1.00  0.00     0.029 A 
ATOM     49  N   UNL     1      -0.947   9.432  -6.293  1.00  0.00    -0.354 N 
ATOM     50  N   UNL     1       0.010  10.345  -3.692  1.00  0.00    -0.248 NA
ATOM     51  C   UNL     1       0.499  12.073  -2.205  1.00  0.00     0.031 C 
ATOM     52  C   UNL     1      -1.883  10.913  -7.660  1.00  0.00     0.029 A 
ATOM     53  C   UNL     1      -1.266  10.774  -6.429  1.00  0.00     0.049 A 
ATOM     54  H   UNL     1      -0.501   9.032  -5.511  1.00  0.00     0.167 HD
ATOM     55  C   UNL     1      -0.405  11.552  -4.242  1.00  0.00     0.074 A 
ATOM     56  C   UNL     1      -0.112  12.579  -3.267  1.00  0.00     0.031 C 
ATOM     57  C   UNL     1      -0.975  11.788  -5.449  1.00  0.00     0.037 A 
BRANCH  44  58
ATOM     58  C   UNL     1      -1.560   6.755  -8.957  1.00  0.00     0.064 A 
ATOM     59  C   UNL     1      -2.687   5.928  -9.066  1.00  0.00     0.173 A 
ATOM     60  C   UNL     1      -0.873   7.092 -10.132  1.00  0.00     0.173 A 
ATOM     61  F   UNL     1      -3.369   5.567  -7.969  1.00  0.00    -0.203 F 
ATOM     62  C   UNL     1      -3.106   5.451 -10.306  1.00  0.00     0.198 A 
ATOM     63  C   UNL     1      -1.309   6.635 -11.372  1.00  0.00     0.198 A 
ATOM     64  F   UNL     1       0.210   7.882 -10.080  1.00  0.00    -0.203 F 
ATOM     65  F   UNL     1      -4.169   4.639 -10.385  1.00  0.00    -0.200 F 
ATOM     66  C   UNL     1      -2.423   5.813 -11.458  1.00  0.00     0.200 A 
ATOM     67  F   UNL     1      -0.655   6.995 -12.485  1.00  0.00    -0.200 F 
ATOM     68  F   UNL     1      -2.837   5.367 -12.652  1.00  0.00    -0.200 F 
ENDBRANCH  44  58
BRANCH  45  69
ATOM     69  C   UNL     1       1.603  10.273  -0.189  1.00  0.00     0.064 A 
ATOM     70  C   UNL     1       0.741  10.872   0.740  1.00  0.00     0.173 A 
ATOM     71  C   UNL     1       2.976  10.273   0.101  1.00  0.00     0.173 A 
ATOM     72  F   UNL     1      -0.576  10.928   0.493  1.00  0.00    -0.203 F 
ATOM     73  C   UNL     1       1.235  11.479   1.894  1.00  0.00     0.198 A 
ATOM     74  C   UNL     1       3.465  10.851   1.271  1.00  0.00     0.198 A 
ATOM     75  F   UNL     1       3.845   9.722  -0.759  1.00  0.00    -0.203 F 
ATOM     76  F   UNL     1       0.397  12.105   2.730  1.00  0.00    -0.200 F 
ATOM     77  C   UNL     1       2.596  11.464   2.160  1.00  0.00     0.200 A 
ATOM     78  F   UNL     1       4.780  10.829   1.527  1.00  0.00    -0.200 F 
ATOM     79  F   UNL     1       3.072  12.057   3.263  1.00  0.00    -0.200 F 
ENDBRANCH  45  69
BRANCH  57  80
ATOM     80  C   UNL     1      -1.344  13.207  -5.777  1.00  0.00     0.064 A 
ATOM     81  C   UNL     1      -0.367  14.176  -6.054  1.00  0.00     0.173 A 
ATOM     82  C   UNL     1      -2.691  13.592  -5.862  1.00  0.00     0.173 A 
ATOM     83  F   UNL     1       0.935  13.864  -5.973  1.00  0.00    -0.203 F 
ATOM     84  C   UNL     1      -0.726  15.482  -6.378  1.00  0.00     0.198 A 
ATOM     85  C   UNL     1      -3.046  14.890  -6.218  1.00  0.00     0.198 A 
ATOM     86  F   UNL     1      -3.665  12.703  -5.616  1.00  0.00    -0.203 F 
ATOM     87  F   UNL     1       0.226  16.401  -6.593  1.00  0.00    -0.200 F 
ATOM     88  C   UNL     1      -2.063  15.836  -6.468  1.00  0.00     0.200 A 
ATOM     89  F   UNL     1      -4.339  15.226  -6.320  1.00  0.00    -0.200 F 
ATOM     90  F   UNL     1      -2.406  17.091  -6.790  1.00  0.00    -0.200 F 
ENDBRANCH  57  80
ENDBRANCH  31  32
ENDBRANCH  24  26
ENDBRANCH  23  24
ENDBRANCH  22  23
ENDBRANCH   1  22
TORSDOF 14
