REMARK SMILES Cc1ccc(S(=O)(=O)n2cc(C(=O)C(=O)NCC(=O)OCCOC(=O)c3ccc(-c4c5nc(c(-c6c(F)c(F)c(F)c(F)c6F)c6ccc([nH]6)c(-c6c(F)c(F)c(F)c(F)c6F)c6nc(c(-c7c(F)c(F)c(F)c(F)c7F)c7ccc4[nH]7)C=C6)C=C5)cc3)c3ccccc32)cc1
REMARK SMILES IDX 20 1 18 2 19 3 17 4 16 5 14 6 15 7 12 9 13 10 11 11 9 12
REMARK SMILES IDX 10 13 94 14 89 15 93 16 90 17 92 18 91 19 6 20 7 21 8 22
REMARK SMILES IDX 5 23 1 24 2 25 3 26 96 27 4 28 95 29 21 30 22 31 23 32 24 33
REMARK SMILES IDX 25 34 26 35 27 36 88 37 28 38 87 39 29 40 30 41 31 42 81 43
REMARK SMILES IDX 32 44 86 45 80 46 82 47 33 48 85 49 79 50 78 51 34 53 66 54
REMARK SMILES IDX 46 55 65 56 47 57 50 58 64 59 83 60 48 61 49 62 63 64 84 65
REMARK SMILES IDX 51 66 35 67 36 68 44 69 37 70 38 71 42 72 45 73 39 74 40 75
REMARK SMILES IDX 43 76 41 77 67 78 68 79 76 80 69 81 70 82 74 83 77 84 71 85
REMARK SMILES IDX 72 86 75 87 73 88 52 89 53 90 61 91 54 92 55 93 59 94 62 95
REMARK SMILES IDX 56 96 57 97 60 98 58 99
REMARK H PARENT 16 8 82 52 50 63
REMARK Flexibility Score: inf
ROOT
ATOM      1  O   UNL     1     -10.192   3.824   2.773  1.00  0.00    -0.461 OA
ENDROOT
BRANCH   1   2
ATOM      2  C   UNL     1      -9.574   4.108   1.592  1.00  0.00     0.325 C 
ATOM      3  O   UNL     1     -10.157   4.365   0.543  1.00  0.00    -0.250 OA
BRANCH   2   4
ATOM      4  C   UNL     1      -8.065   4.205   1.720  1.00  0.00     0.239 C 
BRANCH   4   5
ATOM      5  N   UNL     1      -7.448   3.623   2.894  1.00  0.00    -0.338 N 
ATOM      6  C   UNL     1      -6.081   3.497   3.039  1.00  0.00     0.292 C 
ATOM      7  O   UNL     1      -5.555   2.944   3.992  1.00  0.00    -0.265 OA
ATOM      8  H   UNL     1      -8.029   3.303   3.621  1.00  0.00     0.164 HD
BRANCH   6   9
ATOM      9  C   UNL     1      -5.227   4.076   1.900  1.00  0.00     0.252 C 
ATOM     10  O   UNL     1      -5.128   5.299   1.839  1.00  0.00    -0.283 OA
BRANCH   9  11
ATOM     11  C   UNL     1      -4.710   3.189   0.861  1.00  0.00     0.054 A 
ATOM     12  N   UNL     1      -4.043   1.354  -0.213  1.00  0.00    -0.240 N 
ATOM     13  C   UNL     1      -4.564   1.819   0.967  1.00  0.00     0.117 A 
ATOM     14  C   UNL     1      -3.865   2.381  -1.119  1.00  0.00     0.065 A 
ATOM     15  C   UNL     1      -4.268   3.551  -0.458  1.00  0.00     0.012 A 
ATOM     16  C   UNL     1      -3.354   2.411  -2.430  1.00  0.00     0.028 A 
ATOM     17  C   UNL     1      -4.170   4.780  -1.146  1.00  0.00     0.011 A 
ATOM     18  C   UNL     1      -3.257   3.644  -3.077  1.00  0.00     0.002 A 
ATOM     19  C   UNL     1      -3.663   4.814  -2.448  1.00  0.00     0.001 A 
BRANCH  12  20
ATOM     20  S   UNL     1      -3.429  -0.226  -0.397  1.00  0.00     0.268 S 
ATOM     21  O   UNL     1      -3.689  -0.597  -1.766  1.00  0.00    -0.201 OA
ATOM     22  O   UNL     1      -3.981  -0.981   0.723  1.00  0.00    -0.201 OA
BRANCH  20  23
ATOM     23  C   UNL     1      -1.674  -0.127  -0.164  1.00  0.00     0.088 A 
ATOM     24  C   UNL     1       2.618  -0.080   0.096  1.00  0.00     0.044 C 
ATOM     25  C   UNL     1       1.119  -0.095   0.033  1.00  0.00    -0.051 A 
ATOM     26  C   UNL     1       0.434  -1.309  -0.107  1.00  0.00     0.005 A 
ATOM     27  C   UNL     1       0.391   1.096   0.109  1.00  0.00     0.005 A 
ATOM     28  C   UNL     1      -0.958  -1.327  -0.210  1.00  0.00     0.022 A 
ATOM     29  C   UNL     1      -1.002   1.084   0.019  1.00  0.00     0.022 A 
ENDBRANCH  20  23
ENDBRANCH  12  20
ENDBRANCH   9  11
ENDBRANCH   6   9
ENDBRANCH   4   5
ENDBRANCH   2   4
ENDBRANCH   1   2
BRANCH   1  30
ATOM     30  C   UNL     1     -11.614   3.942   2.690  1.00  0.00     0.274 C 
BRANCH  30  31
ATOM     31  C   UNL     1     -12.278   4.185   4.050  1.00  0.00     0.275 C 
BRANCH  31  32
ATOM     32  O   UNL     1     -11.600   4.941   5.098  1.00  0.00    -0.458 OA
BRANCH  32  33
ATOM     33  C   UNL     1     -10.543   5.785   5.058  1.00  0.00     0.338 C 
ATOM     34  O   UNL     1      -9.730   5.832   5.971  1.00  0.00    -0.246 OA
BRANCH  33  35
ATOM     35  C   UNL     1     -10.386   6.665   3.884  1.00  0.00     0.060 A 
ATOM     36  C   UNL     1      -9.108   7.119   3.509  1.00  0.00     0.016 A 
ATOM     37  C   UNL     1     -11.488   6.967   3.102  1.00  0.00     0.016 A 
ATOM     38  C   UNL     1      -8.917   7.744   2.270  1.00  0.00     0.010 A 
ATOM     39  C   UNL     1     -11.277   7.442   1.828  1.00  0.00     0.010 A 
ATOM     40  C   UNL     1     -10.000   7.850   1.399  1.00  0.00    -0.014 A 
BRANCH  40  41
ATOM     41  C   UNL     1      -9.969   8.495   0.083  1.00  0.00     0.031 A 
ATOM     42  C   UNL     1      -9.146   8.050  -1.067  1.00  0.00     0.074 A 
ATOM     43  C   UNL     1     -10.829   9.531  -0.044  1.00  0.00     0.049 A 
ATOM     44  N   UNL     1      -8.823   8.816  -2.055  1.00  0.00    -0.248 NA
ATOM     45  C   UNL     1      -8.617   6.698  -1.221  1.00  0.00     0.031 C 
ATOM     46  C   UNL     1     -11.237  10.281  -1.220  1.00  0.00     0.029 A 
ATOM     47  N   UNL     1     -11.400  10.242   1.027  1.00  0.00    -0.354 N 
ATOM     48  C   UNL     1      -8.316   8.024  -3.064  1.00  0.00     0.074 A 
ATOM     49  C   UNL     1      -8.139   6.721  -2.473  1.00  0.00     0.031 C 
ATOM     50  C   UNL     1     -11.686  11.486  -0.814  1.00  0.00     0.029 A 
ATOM     51  C   UNL     1     -11.424  11.577   0.618  1.00  0.00     0.049 A 
ATOM     52  H   UNL     1     -11.716   9.875   1.885  1.00  0.00     0.167 HD
ATOM     53  C   UNL     1      -8.237   8.518  -4.333  1.00  0.00     0.037 A 
ATOM     54  C   UNL     1     -10.594  12.472   1.229  1.00  0.00     0.037 A 
ATOM     55  C   UNL     1      -8.646   9.914  -4.375  1.00  0.00     0.049 A 
ATOM     56  C   UNL     1      -9.676  13.125   0.234  1.00  0.00     0.074 A 
ATOM     57  C   UNL     1      -9.864  10.513  -4.646  1.00  0.00     0.029 A 
ATOM     58  N   UNL     1      -7.864  10.873  -3.737  1.00  0.00    -0.354 N 
ATOM     59  N   UNL     1      -9.214  12.528  -0.830  1.00  0.00    -0.248 NA
ATOM     60  C   UNL     1      -9.261  14.517   0.341  1.00  0.00     0.031 C 
ATOM     61  C   UNL     1      -9.850  11.807  -4.073  1.00  0.00     0.029 A 
ATOM     62  C   UNL     1      -8.610  12.008  -3.492  1.00  0.00     0.049 A 
ATOM     63  H   UNL     1      -6.917  10.758  -3.495  1.00  0.00     0.167 HD
ATOM     64  C   UNL     1      -8.534  13.444  -1.584  1.00  0.00     0.074 A 
ATOM     65  C   UNL     1      -8.563  14.665  -0.797  1.00  0.00     0.031 C 
ATOM     66  C   UNL     1      -8.038  13.161  -2.823  1.00  0.00     0.037 A 
BRANCH  53  67
ATOM     67  C   UNL     1      -8.072   7.649  -5.554  1.00  0.00     0.064 A 
ATOM     68  C   UNL     1      -8.857   7.858  -6.710  1.00  0.00     0.173 A 
ATOM     69  C   UNL     1      -7.173   6.571  -5.627  1.00  0.00     0.173 A 
ATOM     70  F   UNL     1      -9.729   8.871  -6.791  1.00  0.00    -0.203 F 
ATOM     71  C   UNL     1      -8.796   7.016  -7.824  1.00  0.00     0.198 A 
ATOM     72  C   UNL     1      -7.135   5.707  -6.730  1.00  0.00     0.198 A 
ATOM     73  F   UNL     1      -6.298   6.343  -4.636  1.00  0.00    -0.203 F 
ATOM     74  F   UNL     1      -9.575   7.261  -8.888  1.00  0.00    -0.200 F 
ATOM     75  C   UNL     1      -7.952   5.926  -7.825  1.00  0.00     0.200 A 
ATOM     76  F   UNL     1      -6.304   4.655  -6.725  1.00  0.00    -0.200 F 
ATOM     77  F   UNL     1      -7.919   5.097  -8.878  1.00  0.00    -0.200 F 
ENDBRANCH  53  67
BRANCH  54  78
ATOM     78  C   UNL     1     -10.224  12.102   2.634  1.00  0.00     0.064 A 
ATOM     79  C   UNL     1     -11.258  11.853   3.565  1.00  0.00     0.173 A 
ATOM     80  C   UNL     1      -8.937  11.679   2.992  1.00  0.00     0.173 A 
ATOM     81  F   UNL     1     -12.518  12.230   3.284  1.00  0.00    -0.203 F 
ATOM     82  C   UNL     1     -11.038  11.121   4.731  1.00  0.00     0.198 A 
ATOM     83  C   UNL     1      -8.715  10.965   4.176  1.00  0.00     0.198 A 
ATOM     84  F   UNL     1      -7.900  11.888   2.170  1.00  0.00    -0.203 F 
ATOM     85  F   UNL     1     -12.069  10.808   5.530  1.00  0.00    -0.200 F 
ATOM     86  C   UNL     1      -9.768  10.661   5.027  1.00  0.00     0.200 A 
ATOM     87  F   UNL     1      -7.484  10.518   4.465  1.00  0.00    -0.200 F 
ATOM     88  F   UNL     1      -9.564   9.906   6.116  1.00  0.00    -0.200 F 
ENDBRANCH  54  78
BRANCH  66  89
ATOM     89  C   UNL     1      -7.082  14.037  -3.580  1.00  0.00     0.064 A 
ATOM     90  C   UNL     1      -6.117  14.835  -2.948  1.00  0.00     0.173 A 
ATOM     91  C   UNL     1      -7.008  13.976  -4.991  1.00  0.00     0.173 A 
ATOM     92  F   UNL     1      -6.011  14.872  -1.612  1.00  0.00    -0.203 F 
ATOM     93  C   UNL     1      -5.192  15.582  -3.676  1.00  0.00     0.198 A 
ATOM     94  C   UNL     1      -6.046  14.677  -5.712  1.00  0.00     0.198 A 
ATOM     95  F   UNL     1      -7.847  13.214  -5.708  1.00  0.00    -0.203 F 
ATOM     96  F   UNL     1      -4.321  16.369  -3.030  1.00  0.00    -0.200 F 
ATOM     97  C   UNL     1      -5.150  15.495  -5.056  1.00  0.00     0.200 A 
ATOM     98  F   UNL     1      -5.981  14.538  -7.043  1.00  0.00    -0.200 F 
ATOM     99  F   UNL     1      -4.232  16.182  -5.749  1.00  0.00    -0.200 F 
ENDBRANCH  66  89
ENDBRANCH  40  41
ENDBRANCH  33  35
ENDBRANCH  32  33
ENDBRANCH  31  32
ENDBRANCH  30  31
ENDBRANCH   1  30
TORSDOF 16
