REMARK SMILES O=C(OCCOC(=O)[C@@H]1[C@H](C(=O)Nc2ccccc2Cc2ccccc2)[C@H]2C=C[C@@H]1O2)c1ccc(-c2c3nc(c(-c4c(F)c(F)c(F)c(F)c4F)c4ccc([nH]4)c(-c4c(F)c(F)c(F)c(F)c4F)c4nc(c(-c5c(F)c(F)c(F)c(F)c5F)c5ccc2[nH]5)C=C4)C=C3)cc1
REMARK SMILES IDX 5 1 4 2 3 3 2 4 1 5 32 6 33 7 94 8 34 9 93 10 35 11 36 12
REMARK SMILES IDX 37 13 87 14 38 15 92 16 86 17 88 18 39 19 91 20 85 21 84 22
REMARK SMILES IDX 40 24 72 25 52 26 71 27 53 28 56 29 70 30 89 31 54 32 55 33
REMARK SMILES IDX 69 35 90 36 57 37 41 38 42 39 50 40 43 41 44 42 48 43 51 44
REMARK SMILES IDX 45 45 46 46 49 47 47 48 73 49 74 50 82 51 75 52 76 53 80 54
REMARK SMILES IDX 83 55 77 56 78 57 81 58 79 59 58 60 59 61 67 62 60 63 61 64
REMARK SMILES IDX 65 65 68 66 62 67 63 68 66 69 64 70 6 71 7 72 8 73 9 74
REMARK SMILES IDX 10 75 30 76 27 77 29 78 31 79 28 80 11 81 12 82 13 83 14 85
REMARK SMILES IDX 15 86 19 87 16 88 18 89 17 90 20 91 21 92 22 93 26 94 23 95
REMARK SMILES IDX 25 96 24 97
REMARK H PARENT 88 23 56 34 13 84
REMARK Flexibility Score: inf
ROOT
ATOM      1  C   UNL     1       2.333   0.880   0.687  1.00  0.00     0.274 C 
ENDROOT
BRANCH   1   2
ATOM      2  C   UNL     1       2.998   1.524  -0.518  1.00  0.00     0.275 C 
BRANCH   2   3
ATOM      3  O   UNL     1       2.319   1.265  -1.762  1.00  0.00    -0.458 OA
BRANCH   3   4
ATOM      4  C   UNL     1       2.272   0.166  -2.544  1.00  0.00     0.338 C 
ATOM      5  O   UNL     1       1.510   0.170  -3.515  1.00  0.00    -0.246 OA
BRANCH   4   6
ATOM      6  C   UNL     1       3.059  -1.087  -2.314  1.00  0.00     0.060 A 
ATOM      7  C   UNL     1       4.319  -1.160  -1.716  1.00  0.00     0.016 A 
ATOM      8  C   UNL     1       2.522  -2.276  -2.846  1.00  0.00     0.016 A 
ATOM      9  C   UNL     1       5.011  -2.381  -1.615  1.00  0.00     0.010 A 
ATOM     10  C   UNL     1       3.225  -3.489  -2.783  1.00  0.00     0.010 A 
ATOM     11  C   UNL     1       4.482  -3.551  -2.166  1.00  0.00    -0.014 A 
BRANCH  11  12
ATOM     12  C   UNL     1       5.312  -4.777  -2.295  1.00  0.00     0.031 A 
ATOM     13  C   UNL     1       6.057  -4.986  -3.581  1.00  0.00     0.074 A 
ATOM     14  C   UNL     1       5.437  -5.685  -1.308  1.00  0.00     0.049 A 
ATOM     15  N   UNL     1       6.780  -6.006  -3.967  1.00  0.00    -0.248 NA
ATOM     16  C   UNL     1       6.003  -3.880  -4.551  1.00  0.00     0.031 C 
ATOM     17  C   UNL     1       4.889  -5.560   0.035  1.00  0.00     0.029 A 
ATOM     18  N   UNL     1       6.060  -6.912  -1.293  1.00  0.00    -0.354 N 
ATOM     19  C   UNL     1       7.290  -5.652  -5.207  1.00  0.00     0.074 A 
ATOM     20  C   UNL     1       6.767  -4.342  -5.528  1.00  0.00     0.031 C 
ATOM     21  C   UNL     1       5.138  -6.683   0.728  1.00  0.00     0.029 A 
ATOM     22  C   UNL     1       5.852  -7.620  -0.132  1.00  0.00     0.049 A 
ATOM     23  H   UNL     1       6.601  -7.251  -2.042  1.00  0.00     0.167 HD
ATOM     24  C   UNL     1       8.131  -6.351  -6.002  1.00  0.00     0.037 A 
ATOM     25  C   UNL     1       6.173  -8.889   0.191  1.00  0.00     0.037 A 
ATOM     26  C   UNL     1       8.623  -7.668  -5.711  1.00  0.00     0.049 A 
ATOM     27  C   UNL     1       6.949  -9.723  -0.794  1.00  0.00     0.074 A 
ATOM     28  C   UNL     1       9.442  -8.473  -6.482  1.00  0.00     0.029 A 
ATOM     29  N   UNL     1       8.325  -8.382  -4.561  1.00  0.00    -0.354 N 
ATOM     30  N   UNL     1       7.433  -9.381  -1.963  1.00  0.00    -0.248 NA
ATOM     31  C   UNL     1       7.235 -11.114  -0.413  1.00  0.00     0.031 C 
ATOM     32  C   UNL     1       9.600  -9.695  -5.819  1.00  0.00     0.029 A 
ATOM     33  C   UNL     1       8.915  -9.634  -4.616  1.00  0.00     0.049 A 
ATOM     34  H   UNL     1       7.776  -8.048  -3.815  1.00  0.00     0.167 HD
ATOM     35  C   UNL     1       8.115 -10.494  -2.434  1.00  0.00     0.074 A 
ATOM     36  C   UNL     1       7.985 -11.524  -1.426  1.00  0.00     0.031 C 
ATOM     37  C   UNL     1       8.794 -10.644  -3.598  1.00  0.00     0.037 A 
BRANCH  24  38
ATOM     38  C   UNL     1       8.532  -5.701  -7.289  1.00  0.00     0.064 A 
ATOM     39  C   UNL     1       9.469  -4.657  -7.319  1.00  0.00     0.173 A 
ATOM     40  C   UNL     1       7.961  -6.116  -8.499  1.00  0.00     0.173 A 
ATOM     41  F   UNL     1      10.020  -4.211  -6.181  1.00  0.00    -0.203 F 
ATOM     42  C   UNL     1       9.804  -4.037  -8.519  1.00  0.00     0.198 A 
ATOM     43  C   UNL     1       8.313  -5.506  -9.699  1.00  0.00     0.198 A 
ATOM     44  F   UNL     1       7.054  -7.104  -8.515  1.00  0.00    -0.203 F 
ATOM     45  F   UNL     1      10.667  -3.012  -8.524  1.00  0.00    -0.200 F 
ATOM     46  C   UNL     1       9.229  -4.464  -9.708  1.00  0.00     0.200 A 
ATOM     47  F   UNL     1       7.758  -5.919 -10.846  1.00  0.00    -0.200 F 
ATOM     48  F   UNL     1       9.548  -3.862 -10.861  1.00  0.00    -0.200 F 
ENDBRANCH  24  38
BRANCH  25  49
ATOM     49  C   UNL     1       5.735  -9.473   1.488  1.00  0.00     0.064 A 
ATOM     50  C   UNL     1       6.662  -9.843   2.472  1.00  0.00     0.173 A 
ATOM     51  C   UNL     1       4.379  -9.734   1.742  1.00  0.00     0.173 A 
ATOM     52  F   UNL     1       7.972  -9.643   2.266  1.00  0.00    -0.203 F 
ATOM     53  C   UNL     1       6.254 -10.478   3.645  1.00  0.00     0.198 A 
ATOM     54  C   UNL     1       3.969 -10.343   2.926  1.00  0.00     0.198 A 
ATOM     55  F   UNL     1       3.450  -9.412   0.829  1.00  0.00    -0.203 F 
ATOM     56  F   UNL     1       7.168 -10.879   4.539  1.00  0.00    -0.200 F 
ATOM     57  C   UNL     1       4.908 -10.725   3.872  1.00  0.00     0.200 A 
ATOM     58  F   UNL     1       2.668 -10.578   3.142  1.00  0.00    -0.200 F 
ATOM     59  F   UNL     1       4.519 -11.349   4.992  1.00  0.00    -0.200 F 
ENDBRANCH  25  49
BRANCH  37  60
ATOM     60  C   UNL     1       9.485 -11.954  -3.828  1.00  0.00     0.064 A 
ATOM     61  C   UNL     1       8.768 -13.118  -4.143  1.00  0.00     0.173 A 
ATOM     62  C   UNL     1      10.885 -12.035  -3.780  1.00  0.00     0.173 A 
ATOM     63  F   UNL     1       7.428 -13.094  -4.183  1.00  0.00    -0.203 F 
ATOM     64  C   UNL     1       9.428 -14.320  -4.384  1.00  0.00     0.198 A 
ATOM     65  C   UNL     1      11.543 -13.232  -4.047  1.00  0.00     0.198 A 
ATOM     66  F   UNL     1      11.615 -10.949  -3.486  1.00  0.00    -0.203 F 
ATOM     67  F   UNL     1       8.723 -15.429  -4.644  1.00  0.00    -0.200 F 
ATOM     68  C   UNL     1      10.814 -14.374  -4.344  1.00  0.00     0.200 A 
ATOM     69  F   UNL     1      12.882 -13.280  -4.020  1.00  0.00    -0.200 F 
ATOM     70  F   UNL     1      11.448 -15.530  -4.587  1.00  0.00    -0.200 F 
ENDBRANCH  37  60
ENDBRANCH  11  12
ENDBRANCH   4   6
ENDBRANCH   3   4
ENDBRANCH   2   3
ENDBRANCH   1   2
BRANCH   1  71
ATOM     71  O   UNL     1       2.219  -0.546   0.538  1.00  0.00    -0.462 OA
BRANCH  71  72
ATOM     72  C   UNL     1       0.959  -0.994   0.377  1.00  0.00     0.312 C 
ATOM     73  O   UNL     1      -0.013  -0.252   0.214  1.00  0.00    -0.252 OA
BRANCH  72  74
ATOM     74  C   UNL     1       0.758  -2.476   0.483  1.00  0.00     0.147 C 
ATOM     75  C   UNL     1       0.034  -2.867   1.789  1.00  0.00     0.129 C 
ATOM     76  C   UNL     1       1.882  -3.523   0.458  1.00  0.00     0.157 C 
ATOM     77  C   UNL     1       0.555  -4.285   2.006  1.00  0.00     0.155 C 
ATOM     78  C   UNL     1       1.278  -4.779  -0.106  1.00  0.00     0.004 C 
ATOM     79  O   UNL     1       1.969  -4.003   1.828  1.00  0.00    -0.365 OA
ATOM     80  C   UNL     1       0.384  -5.190   0.809  1.00  0.00     0.004 C 
BRANCH  75  81
ATOM     81  C   UNL     1       0.391  -1.987   3.002  1.00  0.00     0.231 C 
ATOM     82  O   UNL     1      -0.479  -1.624   3.794  1.00  0.00    -0.274 OA
ATOM     83  N   UNL     1       1.701  -1.529   3.107  1.00  0.00    -0.325 N 
ATOM     84  H   UNL     1       1.993  -0.818   2.492  1.00  0.00     0.169 HD
BRANCH  83  85
ATOM     85  C   UNL     1       2.649  -2.030   4.057  1.00  0.00     0.044 A 
ATOM     86  C   UNL     1       2.205  -2.277   5.363  1.00  0.00     0.026 A 
ATOM     87  C   UNL     1       4.037  -2.132   3.748  1.00  0.00    -0.020 A 
ATOM     88  C   UNL     1       3.107  -2.631   6.364  1.00  0.00     0.002 A 
ATOM     89  C   UNL     1       4.923  -2.485   4.783  1.00  0.00     0.006 A 
ATOM     90  C   UNL     1       4.463  -2.727   6.077  1.00  0.00     0.000 A 
BRANCH  87  91
ATOM     91  C   UNL     1       4.567  -2.156   2.328  1.00  0.00     0.073 C 
BRANCH  91  92
ATOM     92  C   UNL     1       5.873  -1.479   1.936  1.00  0.00    -0.044 A 
ATOM     93  C   UNL     1       5.869  -0.176   1.420  1.00  0.00     0.004 A 
ATOM     94  C   UNL     1       7.077  -2.198   1.881  1.00  0.00     0.004 A 
ATOM     95  C   UNL     1       6.988   0.355   0.769  1.00  0.00     0.000 A 
ATOM     96  C   UNL     1       8.210  -1.656   1.261  1.00  0.00     0.000 A 
ATOM     97  C   UNL     1       8.156  -0.392   0.677  1.00  0.00     0.000 A 
ENDBRANCH  91  92
ENDBRANCH  87  91
ENDBRANCH  83  85
ENDBRANCH  75  81
ENDBRANCH  72  74
ENDBRANCH  71  72
ENDBRANCH   1  71
TORSDOF 15
