REMARK SMILES CN1C(=O)/C(=C\c2ccc(-c3ccccc3C(=O)OCCOC(=O)c3ccc(-c4c5nc(c(-c6c(F)c(F)c(F)c(F)c6F)c6ccc([nH]6)c(-c6c(F)c(F)c(F)c(F)c6F)c6nc(c(-c7c(F)c(F)c(F)c(F)c7F)c7ccc4[nH]7)C=C6)C=C5)cc3)o2)C(=O)[NH+]=C1S
REMARK SMILES IDX 20 1 19 2 17 3 18 4 16 5 11 6 12 7 13 8 15 9 14 10 10 11
REMARK SMILES IDX 7 12 8 13 88 14 9 15 6 16 1 17 2 18 3 19 92 20 4 21 5 22
REMARK SMILES IDX 91 23 89 24 90 26 93 27 21 29 22 30 23 31 24 32 25 33 26 34
REMARK SMILES IDX 87 35 27 36 86 37 28 38 29 39 30 40 80 41 31 42 85 43 79 44
REMARK SMILES IDX 81 45 32 46 84 47 78 48 77 49 33 51 65 52 45 53 64 54 46 55
REMARK SMILES IDX 49 56 63 57 82 58 47 59 48 60 62 62 83 63 50 64 34 65 35 66
REMARK SMILES IDX 43 67 36 68 37 69 41 70 44 71 38 72 39 73 42 74 40 75 66 76
REMARK SMILES IDX 67 77 75 78 68 79 69 80 73 81 76 82 70 83 71 84 74 85 72 86
REMARK SMILES IDX 51 87 52 88 60 89 53 90 54 91 58 92 61 93 55 94 56 95 59 96
REMARK SMILES IDX 57 97
REMARK H PARENT 91 25 93 28 81 50 49 61
REMARK Flexibility Score: inf
ROOT
ATOM      1  C   UNL     1       1.543  -7.302   4.277  1.00  0.00     0.275 C 
ENDROOT
BRANCH   1   2
ATOM      2  O   UNL     1       0.202  -7.119   3.779  1.00  0.00    -0.458 OA
BRANCH   2   3
ATOM      3  C   UNL     1      -0.190  -7.866   2.720  1.00  0.00     0.338 C 
ATOM      4  O   UNL     1       0.417  -8.810   2.240  1.00  0.00    -0.246 OA
BRANCH   3   5
ATOM      5  C   UNL     1      -1.529  -7.441   2.227  1.00  0.00     0.071 A 
ATOM      6  C   UNL     1      -1.878  -6.093   2.040  1.00  0.00     0.032 A 
ATOM      7  C   UNL     1      -3.161  -5.789   1.549  1.00  0.00     0.013 A 
ATOM      8  C   UNL     1      -4.084  -6.798   1.264  1.00  0.00     0.001 A 
ATOM      9  C   UNL     1      -2.452  -8.450   1.902  1.00  0.00     0.016 A 
ATOM     10  C   UNL     1      -3.732  -8.130   1.450  1.00  0.00     0.001 A 
BRANCH   6  11
ATOM     11  C   UNL     1      -0.950  -5.011   2.313  1.00  0.00     0.135 A 
ATOM     12  C   UNL     1      -0.436  -3.079   3.245  1.00  0.00     0.128 A 
ATOM     13  C   UNL     1       0.738  -3.628   2.745  1.00  0.00     0.051 A 
ATOM     14  O   UNL     1      -1.454  -3.967   3.024  1.00  0.00    -0.457 OA
ATOM     15  C   UNL     1       0.390  -4.812   2.065  1.00  0.00     0.051 A 
BRANCH  12  16
ATOM     16  C   UNL     1      -0.636  -1.801   3.819  1.00  0.00     0.071 C 
ATOM     17  C   UNL     1       0.991   0.366  -0.194  1.00  0.00     0.301 C 
ATOM     18  N   UNL     1       0.443   0.436   1.159  1.00  0.00    -0.189 N 
ATOM     19  C   UNL     1      -0.182  -0.693   1.635  1.00  0.00     0.349 C 
ATOM     20  C   UNL     1       0.426   1.581   1.915  1.00  0.00     0.318 C 
ATOM     21  O   UNL     1      -0.515  -1.619   0.901  1.00  0.00    -0.240 OA
ATOM     22  C   UNL     1      -0.465  -0.682   3.088  1.00  0.00     0.157 C 
ATOM     23  N   UNL     1      -0.033   1.691   3.108  1.00  0.00    -0.200 N 
ATOM     24  C   UNL     1      -0.517   0.613   3.796  1.00  0.00     0.347 C 
ATOM     25  H   UNL     1      -0.036   2.575   3.540  1.00  0.00     0.316 HD
ATOM     26  O   UNL     1      -0.923   0.699   4.943  1.00  0.00    -0.241 OA
BRANCH  20  27
ATOM     27  S   UNL     1       1.063   3.047   1.210  1.00  0.00    -0.055 SA
ATOM     28  H   UNL     1       1.512   2.788  -0.047  1.00  0.00     0.116 HD
ENDBRANCH  20  27
ENDBRANCH  12  16
ENDBRANCH   6  11
ENDBRANCH   3   5
ENDBRANCH   2   3
ENDBRANCH   1   2
BRANCH   1  29
ATOM     29  C   UNL     1       1.517  -7.653   5.762  1.00  0.00     0.275 C 
BRANCH  29  30
ATOM     30  O   UNL     1       0.926  -8.952   5.934  1.00  0.00    -0.458 OA
BRANCH  30  31
ATOM     31  C   UNL     1      -0.402  -8.923   6.174  1.00  0.00     0.338 C 
ATOM     32  O   UNL     1      -1.109  -7.956   6.401  1.00  0.00    -0.246 OA
BRANCH  31  33
ATOM     33  C   UNL     1      -0.956 -10.263   5.983  1.00  0.00     0.060 A 
ATOM     34  C   UNL     1      -1.454 -10.575   4.723  1.00  0.00     0.016 A 
ATOM     35  C   UNL     1      -1.156 -11.121   7.057  1.00  0.00     0.016 A 
ATOM     36  C   UNL     1      -2.258 -11.690   4.545  1.00  0.00     0.010 A 
ATOM     37  C   UNL     1      -1.883 -12.298   6.855  1.00  0.00     0.010 A 
ATOM     38  C   UNL     1      -2.482 -12.572   5.609  1.00  0.00    -0.014 A 
BRANCH  38  39
ATOM     39  C   UNL     1      -3.395 -13.735   5.432  1.00  0.00     0.031 A 
ATOM     40  C   UNL     1      -4.608 -13.876   6.315  1.00  0.00     0.074 A 
ATOM     41  C   UNL     1      -3.160 -14.644   4.465  1.00  0.00     0.049 A 
ATOM     42  N   UNL     1      -5.424 -14.892   6.451  1.00  0.00    -0.248 NA
ATOM     43  C   UNL     1      -4.940 -12.726   7.173  1.00  0.00     0.031 C 
ATOM     44  C   UNL     1      -2.059 -14.595   3.501  1.00  0.00     0.029 A 
ATOM     45  N   UNL     1      -3.840 -15.788   4.127  1.00  0.00    -0.354 N 
ATOM     46  C   UNL     1      -6.331 -14.522   7.436  1.00  0.00     0.074 A 
ATOM     47  C   UNL     1      -5.953 -13.200   7.885  1.00  0.00     0.031 C 
ATOM     48  C   UNL     1      -2.159 -15.635   2.660  1.00  0.00     0.029 A 
ATOM     49  C   UNL     1      -3.268 -16.479   3.086  1.00  0.00     0.049 A 
ATOM     50  H   UNL     1      -4.659 -16.085   4.587  1.00  0.00     0.167 HD
ATOM     51  C   UNL     1      -7.390 -15.220   7.914  1.00  0.00     0.037 A 
ATOM     52  C   UNL     1      -3.572 -17.681   2.563  1.00  0.00     0.037 A 
ATOM     53  C   UNL     1      -7.782 -16.520   7.434  1.00  0.00     0.049 A 
ATOM     54  C   UNL     1      -4.709 -18.464   3.163  1.00  0.00     0.074 A 
ATOM     55  C   UNL     1      -8.821 -17.327   7.865  1.00  0.00     0.029 A 
ATOM     56  N   UNL     1      -7.157 -17.197   6.395  1.00  0.00    -0.354 N 
ATOM     57  N   UNL     1      -5.523 -18.134   4.135  1.00  0.00    -0.248 NA
ATOM     58  C   UNL     1      -4.961 -19.794   2.594  1.00  0.00     0.031 C 
ATOM     59  C   UNL     1      -8.802 -18.507   7.113  1.00  0.00     0.029 A 
ATOM     60  C   UNL     1      -7.789 -18.411   6.173  1.00  0.00     0.049 A 
ATOM     61  H   UNL     1      -6.380 -16.865   5.891  1.00  0.00     0.167 HD
ATOM     62  C   UNL     1      -6.407 -19.195   4.268  1.00  0.00     0.074 A 
ATOM     63  C   UNL     1      -6.041 -20.170   3.262  1.00  0.00     0.031 C 
ATOM     64  C   UNL     1      -7.427 -19.355   5.147  1.00  0.00     0.037 A 
BRANCH  51  65
ATOM     65  C   UNL     1      -8.194 -14.602   9.025  1.00  0.00     0.064 A 
ATOM     66  C   UNL     1      -9.016 -13.486   8.811  1.00  0.00     0.173 A 
ATOM     67  C   UNL     1      -8.177 -15.164  10.312  1.00  0.00     0.173 A 
ATOM     68  F   UNL     1      -9.061 -12.901   7.605  1.00  0.00    -0.203 F 
ATOM     69  C   UNL     1      -9.772 -12.942   9.848  1.00  0.00     0.198 A 
ATOM     70  C   UNL     1      -8.959 -14.638  11.337  1.00  0.00     0.198 A 
ATOM     71  F   UNL     1      -7.412 -16.235  10.572  1.00  0.00    -0.203 F 
ATOM     72  F   UNL     1     -10.515 -11.848   9.630  1.00  0.00    -0.200 F 
ATOM     73  C   UNL     1      -9.751 -13.524  11.106  1.00  0.00     0.200 A 
ATOM     74  F   UNL     1      -8.949 -15.212  12.548  1.00  0.00    -0.200 F 
ATOM     75  F   UNL     1     -10.489 -13.008  12.098  1.00  0.00    -0.200 F 
ENDBRANCH  51  65
BRANCH  52  76
ATOM     76  C   UNL     1      -2.769 -18.245   1.444  1.00  0.00     0.064 A 
ATOM     77  C   UNL     1      -3.352 -18.496   0.193  1.00  0.00     0.173 A 
ATOM     78  C   UNL     1      -1.419 -18.590   1.611  1.00  0.00     0.173 A 
ATOM     79  F   UNL     1      -4.645 -18.206  -0.013  1.00  0.00    -0.203 F 
ATOM     80  C   UNL     1      -2.627 -19.103  -0.832  1.00  0.00     0.198 A 
ATOM     81  C   UNL     1      -0.684 -19.157   0.572  1.00  0.00     0.198 A 
ATOM     82  F   UNL     1      -0.809 -18.372   2.785  1.00  0.00    -0.203 F 
ATOM     83  F   UNL     1      -3.232 -19.398  -1.991  1.00  0.00    -0.200 F 
ATOM     84  C   UNL     1      -1.293 -19.428  -0.643  1.00  0.00     0.200 A 
ATOM     85  F   UNL     1       0.610 -19.453   0.754  1.00  0.00    -0.200 F 
ATOM     86  F   UNL     1      -0.599 -20.016  -1.626  1.00  0.00    -0.200 F 
ENDBRANCH  52  76
BRANCH  64  87
ATOM     87  C   UNL     1      -8.265 -20.593   4.999  1.00  0.00     0.064 A 
ATOM     88  C   UNL     1      -7.764 -21.870   5.293  1.00  0.00     0.173 A 
ATOM     89  C   UNL     1      -9.590 -20.495   4.547  1.00  0.00     0.173 A 
ATOM     90  F   UNL     1      -6.499 -22.020   5.713  1.00  0.00    -0.203 F 
ATOM     91  C   UNL     1      -8.543 -23.006   5.092  1.00  0.00     0.198 A 
ATOM     92  C   UNL     1     -10.378 -21.630   4.386  1.00  0.00     0.198 A 
ATOM     93  F   UNL     1     -10.121 -19.297   4.260  1.00  0.00    -0.203 F 
ATOM     94  F   UNL     1      -8.019 -24.221   5.306  1.00  0.00    -0.200 F 
ATOM     95  C   UNL     1      -9.850 -22.885   4.644  1.00  0.00     0.200 A 
ATOM     96  F   UNL     1     -11.646 -21.509   3.968  1.00  0.00    -0.200 F 
ATOM     97  F   UNL     1     -10.597 -23.981   4.447  1.00  0.00    -0.200 F 
ENDBRANCH  64  87
ENDBRANCH  38  39
ENDBRANCH  31  33
ENDBRANCH  30  31
ENDBRANCH  29  30
ENDBRANCH   1  29
TORSDOF 14
