REMARK SMILES Cc1nnc(SCC2=C(C(=O)OCCOC(=O)c3ccc(-c4c5nc(c(-c6c(F)c(F)c(F)c(F)c6F)c6ccc([nH]6)c(-c6c(F)c(F)c(F)c(F)c6F)c6nc(c(-c7c(F)c(F)c(F)c(F)c7F)c7ccc4[nH]7)C=C6)C=C5)cc3)N3C(=O)[C@H](NC(=O)c4ccc(F)cc4F)[C@H]3SC2)s1
REMARK SMILES IDX 13 1 12 2 10 3 11 4 9 5 8 6 98 7 81 8 97 9 82 10 96 11 83 12
REMARK SMILES IDX 84 13 7 14 6 15 5 16 1 17 2 18 3 19 99 20 4 21 85 22 86 23
REMARK SMILES IDX 87 25 88 26 89 27 94 28 90 29 93 30 95 31 91 32 92 33 14 34
REMARK SMILES IDX 15 35 16 36 17 37 18 38 19 39 80 40 20 41 79 42 21 43 22 44
REMARK SMILES IDX 23 45 73 46 24 47 78 48 72 49 74 50 25 51 77 52 71 53 70 54
REMARK SMILES IDX 26 56 58 57 38 58 57 59 39 60 42 61 56 62 75 63 40 64 41 65
REMARK SMILES IDX 55 67 76 68 43 69 27 70 28 71 36 72 29 73 30 74 34 75 37 76
REMARK SMILES IDX 31 77 32 78 35 79 33 80 59 81 60 82 68 83 61 84 62 85 66 86
REMARK SMILES IDX 69 87 63 88 64 89 67 90 65 91 44 92 45 93 53 94 46 95 47 96
REMARK SMILES IDX 51 97 54 98 48 99 49 100 52 101 50 102
REMARK H PARENT 85 24 74 55 42 66
REMARK Flexibility Score: inf
ROOT
ATOM      1  C   UNL     1       3.206  -3.046  -2.267  1.00  0.00     0.275 C 
ENDROOT
BRANCH   1   2
ATOM      2  O   UNL     1       4.007  -2.663  -1.127  1.00  0.00    -0.457 OA
BRANCH   2   3
ATOM      3  C   UNL     1       3.397  -2.823   0.071  1.00  0.00     0.355 C 
ATOM      4  O   UNL     1       2.341  -3.406   0.276  1.00  0.00    -0.244 OA
BRANCH   3   5
ATOM      5  C   UNL     1       4.115  -2.137   1.187  1.00  0.00     0.132 C 
ATOM      6  C   UNL     1       4.431  -0.817   1.202  1.00  0.00    -0.019 C 
ATOM      7  C   UNL     1       5.080  -0.127   2.405  1.00  0.00     0.106 C 
ATOM      8  N   UNL     1       4.232  -2.850   2.333  1.00  0.00    -0.289 N 
ATOM      9  S   UNL     1       5.436  -1.152   3.869  1.00  0.00    -0.129 SA
ATOM     10  C   UNL     1       4.475  -4.106   2.741  1.00  0.00     0.253 C 
ATOM     11  C   UNL     1       4.025  -2.257   3.622  1.00  0.00     0.181 C 
ATOM     12  O   UNL     1       4.845  -5.096   2.162  1.00  0.00    -0.272 OA
ATOM     13  C   UNL     1       4.166  -3.690   4.234  1.00  0.00     0.206 C 
BRANCH   6  14
ATOM     14  C   UNL     1       4.236   0.113   0.016  1.00  0.00     0.111 C 
BRANCH  14  15
ATOM     15  S   UNL     1       3.086   1.473   0.380  1.00  0.00    -0.089 SA
BRANCH  15  16
ATOM     16  C   UNL     1       1.534   0.710   0.142  1.00  0.00     0.174 A 
ATOM     17  C   UNL     1      -2.221  -0.046  -0.016  1.00  0.00     0.081 C 
ATOM     18  C   UNL     1      -0.740   0.057  -0.024  1.00  0.00     0.115 A 
ATOM     19  N   UNL     1       0.079  -0.888  -0.431  1.00  0.00    -0.143 NA
ATOM     20  S   UNL     1       0.051   1.492   0.495  1.00  0.00    -0.091 S 
ATOM     21  N   UNL     1       1.401  -0.505  -0.338  1.00  0.00    -0.132 NA
ENDBRANCH  15  16
ENDBRANCH  14  15
ENDBRANCH   6  14
BRANCH  13  22
ATOM     22  N   UNL     1       2.933  -4.344   4.773  1.00  0.00    -0.338 N 
ATOM     23  C   UNL     1       2.125  -3.957   5.813  1.00  0.00     0.254 C 
ATOM     24  H   UNL     1       2.662  -5.173   4.315  1.00  0.00     0.164 HD
ATOM     25  O   UNL     1       1.165  -4.631   6.166  1.00  0.00    -0.269 OA
BRANCH  23  26
ATOM     26  C   UNL     1       2.444  -2.724   6.533  1.00  0.00     0.075 A 
ATOM     27  C   UNL     1       3.237  -2.775   7.681  1.00  0.00     0.020 A 
ATOM     28  C   UNL     1       1.938  -1.509   6.073  1.00  0.00     0.138 A 
ATOM     29  C   UNL     1       3.570  -1.583   8.325  1.00  0.00     0.040 A 
ATOM     30  C   UNL     1       2.289  -0.320   6.696  1.00  0.00     0.079 A 
ATOM     31  F   UNL     1       1.151  -1.463   4.989  1.00  0.00    -0.206 F 
ATOM     32  C   UNL     1       3.109  -0.369   7.816  1.00  0.00     0.126 A 
ATOM     33  F   UNL     1       3.463   0.773   8.418  1.00  0.00    -0.207 F 
ENDBRANCH  23  26
ENDBRANCH  13  22
ENDBRANCH   3   5
ENDBRANCH   2   3
ENDBRANCH   1   2
BRANCH   1  34
ATOM     34  C   UNL     1       3.585  -4.431  -2.781  1.00  0.00     0.275 C 
BRANCH  34  35
ATOM     35  O   UNL     1       3.198  -5.418  -1.812  1.00  0.00    -0.458 OA
BRANCH  35  36
ATOM     36  C   UNL     1       4.144  -6.317  -1.458  1.00  0.00     0.338 C 
ATOM     37  O   UNL     1       5.249  -6.450  -1.958  1.00  0.00    -0.246 OA
BRANCH  36  38
ATOM     38  C   UNL     1       3.658  -7.149  -0.333  1.00  0.00     0.060 A 
ATOM     39  C   UNL     1       2.858  -6.597   0.663  1.00  0.00     0.016 A 
ATOM     40  C   UNL     1       4.126  -8.454  -0.187  1.00  0.00     0.016 A 
ATOM     41  C   UNL     1       2.674  -7.271   1.867  1.00  0.00     0.010 A 
ATOM     42  C   UNL     1       3.833  -9.177   0.978  1.00  0.00     0.010 A 
ATOM     43  C   UNL     1       3.167  -8.567   2.056  1.00  0.00    -0.014 A 
BRANCH  43  44
ATOM     44  C   UNL     1       3.090  -9.225   3.398  1.00  0.00     0.031 A 
ATOM     45  C   UNL     1       4.339  -9.792   4.033  1.00  0.00     0.074 A 
ATOM     46  C   UNL     1       1.941  -9.267   4.103  1.00  0.00     0.049 A 
ATOM     47  N   UNL     1       4.455 -10.614   5.048  1.00  0.00    -0.248 NA
ATOM     48  C   UNL     1       5.626  -9.399   3.438  1.00  0.00     0.031 C 
ATOM     49  C   UNL     1       0.662  -8.690   3.688  1.00  0.00     0.029 A 
ATOM     50  N   UNL     1       1.671  -9.799   5.342  1.00  0.00    -0.354 N 
ATOM     51  C   UNL     1       5.809 -10.917   5.139  1.00  0.00     0.074 A 
ATOM     52  C   UNL     1       6.480 -10.170   4.097  1.00  0.00     0.031 C 
ATOM     53  C   UNL     1      -0.225  -8.818   4.684  1.00  0.00     0.029 A 
ATOM     54  C   UNL     1       0.375  -9.605   5.754  1.00  0.00     0.049 A 
ATOM     55  H   UNL     1       2.343 -10.273   5.883  1.00  0.00     0.167 HD
ATOM     56  C   UNL     1       6.429 -11.751   6.008  1.00  0.00     0.037 A 
ATOM     57  C   UNL     1      -0.282 -10.056   6.840  1.00  0.00     0.037 A 
ATOM     58  C   UNL     1       5.779 -12.400   7.117  1.00  0.00     0.049 A 
ATOM     59  C   UNL     1       0.423 -10.973   7.797  1.00  0.00     0.074 A 
ATOM     60  C   UNL     1       6.322 -13.260   8.057  1.00  0.00     0.029 A 
ATOM     61  N   UNL     1       4.449 -12.221   7.463  1.00  0.00    -0.354 N 
ATOM     62  N   UNL     1       1.667 -11.384   7.786  1.00  0.00    -0.248 NA
ATOM     63  C   UNL     1      -0.383 -11.527   8.894  1.00  0.00     0.031 C 
ATOM     64  C   UNL     1       5.315 -13.615   8.962  1.00  0.00     0.029 A 
ATOM     65  C   UNL     1       4.154 -12.951   8.604  1.00  0.00     0.049 A 
ATOM     66  H   UNL     1       3.808 -11.658   6.971  1.00  0.00     0.167 HD
ATOM     67  C   UNL     1       1.790 -12.251   8.861  1.00  0.00     0.074 A 
ATOM     68  C   UNL     1       0.505 -12.280   9.527  1.00  0.00     0.031 C 
ATOM     69  C   UNL     1       2.868 -12.975   9.249  1.00  0.00     0.037 A 
BRANCH  56  70
ATOM     70  C   UNL     1       7.880 -12.052   5.771  1.00  0.00     0.064 A 
ATOM     71  C   UNL     1       8.895 -11.130   6.061  1.00  0.00     0.173 A 
ATOM     72  C   UNL     1       8.258 -13.314   5.284  1.00  0.00     0.173 A 
ATOM     73  F   UNL     1       8.585  -9.907   6.517  1.00  0.00    -0.203 F 
ATOM     74  C   UNL     1      10.234 -11.453   5.853  1.00  0.00     0.198 A 
ATOM     75  C   UNL     1       9.599 -13.643   5.103  1.00  0.00     0.198 A 
ATOM     76  F   UNL     1       7.326 -14.236   4.999  1.00  0.00    -0.203 F 
ATOM     77  F   UNL     1      11.187 -10.544   6.102  1.00  0.00    -0.200 F 
ATOM     78  C   UNL     1      10.585 -12.710   5.382  1.00  0.00     0.200 A 
ATOM     79  F   UNL     1       9.935 -14.863   4.661  1.00  0.00    -0.200 F 
ATOM     80  F   UNL     1      11.875 -13.022   5.193  1.00  0.00    -0.200 F 
ENDBRANCH  56  70
BRANCH  57  81
ATOM     81  C   UNL     1      -1.713  -9.703   7.037  1.00  0.00     0.064 A 
ATOM     82  C   UNL     1      -2.113  -8.874   8.093  1.00  0.00     0.173 A 
ATOM     83  C   UNL     1      -2.708 -10.182   6.170  1.00  0.00     0.173 A 
ATOM     84  F   UNL     1      -1.206  -8.427   8.974  1.00  0.00    -0.203 F 
ATOM     85  C   UNL     1      -3.453  -8.535   8.273  1.00  0.00     0.198 A 
ATOM     86  C   UNL     1      -4.041  -9.816   6.331  1.00  0.00     0.198 A 
ATOM     87  F   UNL     1      -2.380 -10.991   5.152  1.00  0.00    -0.203 F 
ATOM     88  F   UNL     1      -3.816  -7.775   9.315  1.00  0.00    -0.200 F 
ATOM     89  C   UNL     1      -4.414  -8.997   7.385  1.00  0.00     0.200 A 
ATOM     90  F   UNL     1      -4.964 -10.257   5.465  1.00  0.00    -0.200 F 
ATOM     91  F   UNL     1      -5.700  -8.662   7.552  1.00  0.00    -0.200 F 
ENDBRANCH  57  81
BRANCH  69  92
ATOM     92  C   UNL     1       2.698 -13.852  10.452  1.00  0.00     0.064 A 
ATOM     93  C   UNL     1       1.980 -15.054  10.380  1.00  0.00     0.173 A 
ATOM     94  C   UNL     1       3.268 -13.495  11.682  1.00  0.00     0.173 A 
ATOM     95  F   UNL     1       1.402 -15.428   9.228  1.00  0.00    -0.203 F 
ATOM     96  C   UNL     1       1.817 -15.857  11.505  1.00  0.00     0.198 A 
ATOM     97  C   UNL     1       3.121 -14.311  12.800  1.00  0.00     0.198 A 
ATOM     98  F   UNL     1       3.966 -12.355  11.800  1.00  0.00    -0.203 F 
ATOM     99  F   UNL     1       1.089 -16.980  11.426  1.00  0.00    -0.200 F 
ATOM    100  C   UNL     1       2.391 -15.487  12.713  1.00  0.00     0.200 A 
ATOM    101  F   UNL     1       3.681 -13.956  13.965  1.00  0.00    -0.200 F 
ATOM    102  F   UNL     1       2.231 -16.259  13.796  1.00  0.00    -0.200 F 
ENDBRANCH  69  92
ENDBRANCH  43  44
ENDBRANCH  36  38
ENDBRANCH  35  36
ENDBRANCH  34  35
ENDBRANCH   1  34
TORSDOF 16
