REMARK SMILES Cc1ccc([C@@H](CC(=O)OCCOC(=O)c2ccc(-c3c4nc(c(-c5c(F)c(F)c(F)c(F)c5F)c5ccc([nH]5)c(-c5c(F)c(F)c(F)c(F)c5F)c5nc(c(-c6c(F)c(F)c(F)c(F)c6F)c6ccc3[nH]6)C=C5)C=C4)cc2)NC(=O)c2ccc(OC(F)F)cc2)cc1
REMARK SMILES IDX 10 1 8 2 9 3 7 4 6 5 5 6 1 7 2 8 3 9 93 10 4 11 92 12 79 13
REMARK SMILES IDX 80 14 81 16 82 17 83 18 91 19 84 20 90 21 85 22 86 23 87 24
REMARK SMILES IDX 88 25 89 26 11 27 12 28 13 29 14 30 15 31 16 32 17 33 78 34
REMARK SMILES IDX 18 35 77 36 19 37 20 38 21 39 71 40 22 41 76 42 70 43 72 44
REMARK SMILES IDX 23 45 75 46 69 47 68 48 24 50 56 51 36 52 55 53 37 54 40 55
REMARK SMILES IDX 54 56 73 57 38 58 39 59 53 61 74 62 41 63 25 64 26 65 34 66
REMARK SMILES IDX 27 67 28 68 32 69 35 70 29 71 30 72 33 73 31 74 57 75 58 76
REMARK SMILES IDX 66 77 59 78 60 79 64 80 67 81 61 82 62 83 65 84 63 85 42 86
REMARK SMILES IDX 43 87 51 88 44 89 45 90 49 91 52 92 46 93 47 94 50 95 48 96
REMARK H PARENT 79 15 72 49 40 60
REMARK Flexibility Score: inf
ROOT
ATOM      1  O   UNL     1      -2.003  -2.065   0.139  1.00  0.00    -0.462 OA
ENDROOT
BRANCH   1   2
ATOM      2  C   UNL     1      -1.676  -1.117  -0.774  1.00  0.00     0.308 C 
ATOM      3  O   UNL     1      -0.718  -1.194  -1.528  1.00  0.00    -0.252 OA
BRANCH   2   4
ATOM      4  C   UNL     1      -2.645   0.048  -0.703  1.00  0.00     0.152 C 
BRANCH   4   5
ATOM      5  C   UNL     1      -2.730   0.652   0.718  1.00  0.00     0.123 C 
BRANCH   5   6
ATOM      6  C   UNL     1      -1.267   0.834   1.177  1.00  0.00    -0.025 A 
ATOM      7  C   UNL     1       2.829   0.198   0.110  1.00  0.00     0.044 C 
ATOM      8  C   UNL     1       1.480   0.527   0.679  1.00  0.00    -0.051 A 
ATOM      9  C   UNL     1       0.806  -0.394   1.483  1.00  0.00     0.004 A 
ATOM     10  C   UNL     1       0.818   1.693   0.285  1.00  0.00     0.004 A 
ATOM     11  C   UNL     1      -0.550  -0.216   1.780  1.00  0.00     0.006 A 
ATOM     12  C   UNL     1      -0.542   1.857   0.546  1.00  0.00     0.006 A 
ENDBRANCH   5   6
BRANCH   5  13
ATOM     13  N   UNL     1      -3.548  -0.143   1.629  1.00  0.00    -0.345 N 
ATOM     14  C   UNL     1      -4.749   0.150   2.228  1.00  0.00     0.251 C 
ATOM     15  H   UNL     1      -3.182  -1.030   1.849  1.00  0.00     0.164 HD
ATOM     16  O   UNL     1      -5.005  -0.353   3.320  1.00  0.00    -0.269 OA
BRANCH  14  17
ATOM     17  C   UNL     1      -5.763   1.027   1.588  1.00  0.00     0.040 A 
ATOM     18  C   UNL     1      -6.593   1.805   2.402  1.00  0.00     0.017 A 
ATOM     19  C   UNL     1      -6.037   0.963   0.220  1.00  0.00     0.017 A 
ATOM     20  C   UNL     1      -7.652   2.534   1.844  1.00  0.00     0.047 A 
ATOM     21  C   UNL     1      -7.092   1.699  -0.339  1.00  0.00     0.047 A 
ATOM     22  C   UNL     1      -7.907   2.488   0.470  1.00  0.00     0.126 A 
BRANCH  22  23
ATOM     23  O   UNL     1      -8.979   3.229   0.060  1.00  0.00    -0.435 OA
BRANCH  23  24
ATOM     24  C   UNL     1      -9.320   3.222  -1.320  1.00  0.00     0.542 C 
ATOM     25  F   UNL     1      -8.279   3.683  -2.056  1.00  0.00    -0.167 F 
ATOM     26  F   UNL     1      -9.600   1.960  -1.726  1.00  0.00    -0.167 F 
ENDBRANCH  23  24
ENDBRANCH  22  23
ENDBRANCH  14  17
ENDBRANCH   5  13
ENDBRANCH   4   5
ENDBRANCH   2   4
ENDBRANCH   1   2
BRANCH   1  27
ATOM     27  C   UNL     1      -1.151  -3.206   0.197  1.00  0.00     0.274 C 
BRANCH  27  28
ATOM     28  C   UNL     1      -1.809  -4.284   1.067  1.00  0.00     0.275 C 
BRANCH  28  29
ATOM     29  O   UNL     1      -3.274  -4.370   1.186  1.00  0.00    -0.458 OA
BRANCH  29  30
ATOM     30  C   UNL     1      -4.238  -3.683   0.501  1.00  0.00     0.338 C 
ATOM     31  O   UNL     1      -5.180  -3.151   1.036  1.00  0.00    -0.246 OA
BRANCH  30  32
ATOM     32  C   UNL     1      -4.064  -3.629  -0.965  1.00  0.00     0.060 A 
ATOM     33  C   UNL     1      -4.612  -2.582  -1.734  1.00  0.00     0.016 A 
ATOM     34  C   UNL     1      -3.155  -4.507  -1.508  1.00  0.00     0.016 A 
ATOM     35  C   UNL     1      -4.139  -2.353  -3.026  1.00  0.00     0.010 A 
ATOM     36  C   UNL     1      -2.475  -4.075  -2.602  1.00  0.00     0.010 A 
ATOM     37  C   UNL     1      -3.041  -3.099  -3.432  1.00  0.00    -0.014 A 
BRANCH  37  38
ATOM     38  C   UNL     1      -2.513  -3.207  -4.782  1.00  0.00     0.031 A 
ATOM     39  C   UNL     1      -1.739  -2.111  -5.380  1.00  0.00     0.074 A 
ATOM     40  C   UNL     1      -2.632  -4.488  -5.224  1.00  0.00     0.049 A 
ATOM     41  N   UNL     1      -1.630  -1.911  -6.642  1.00  0.00    -0.248 NA
ATOM     42  C   UNL     1      -1.020  -1.096  -4.616  1.00  0.00     0.031 C 
ATOM     43  C   UNL     1      -2.001  -5.272  -6.265  1.00  0.00     0.029 A 
ATOM     44  N   UNL     1      -3.548  -5.419  -4.673  1.00  0.00    -0.354 N 
ATOM     45  C   UNL     1      -0.495  -1.137  -6.812  1.00  0.00     0.074 A 
ATOM     46  C   UNL     1      -0.284  -0.483  -5.552  1.00  0.00     0.031 C 
ATOM     47  C   UNL     1      -2.795  -6.338  -6.530  1.00  0.00     0.029 A 
ATOM     48  C   UNL     1      -4.006  -6.204  -5.724  1.00  0.00     0.049 A 
ATOM     49  H   UNL     1      -3.809  -5.495  -3.727  1.00  0.00     0.167 HD
ATOM     50  C   UNL     1       0.283  -1.366  -7.909  1.00  0.00     0.037 A 
ATOM     51  C   UNL     1      -5.281  -5.923  -6.129  1.00  0.00     0.037 A 
ATOM     52  C   UNL     1      -0.282  -2.489  -8.660  1.00  0.00     0.049 A 
ATOM     53  C   UNL     1      -5.247  -5.207  -7.462  1.00  0.00     0.074 A 
ATOM     54  C   UNL     1       0.026  -3.837  -8.735  1.00  0.00     0.029 A 
ATOM     55  N   UNL     1      -1.583  -2.383  -9.111  1.00  0.00    -0.354 N 
ATOM     56  N   UNL     1      -4.189  -4.616  -7.950  1.00  0.00    -0.248 NA
ATOM     57  C   UNL     1      -6.400  -5.086  -8.338  1.00  0.00     0.031 C 
ATOM     58  C   UNL     1      -1.105  -4.523  -9.275  1.00  0.00     0.029 A 
ATOM     59  C   UNL     1      -2.108  -3.597  -9.492  1.00  0.00     0.049 A 
ATOM     60  H   UNL     1      -2.080  -1.534  -9.156  1.00  0.00     0.167 HD
ATOM     61  C   UNL     1      -4.449  -4.139  -9.201  1.00  0.00     0.074 A 
ATOM     62  C   UNL     1      -5.879  -4.374  -9.354  1.00  0.00     0.031 C 
ATOM     63  C   UNL     1      -3.469  -3.615 -10.006  1.00  0.00     0.037 A 
BRANCH  50  64
ATOM     64  C   UNL     1       1.670  -0.816  -8.158  1.00  0.00     0.064 A 
ATOM     65  C   UNL     1       2.580  -1.522  -8.977  1.00  0.00     0.173 A 
ATOM     66  C   UNL     1       2.155   0.412  -7.665  1.00  0.00     0.173 A 
ATOM     67  F   UNL     1       2.244  -2.673  -9.572  1.00  0.00    -0.203 F 
ATOM     68  C   UNL     1       3.878  -1.076  -9.232  1.00  0.00     0.198 A 
ATOM     69  C   UNL     1       3.468   0.849  -7.903  1.00  0.00     0.198 A 
ATOM     70  F   UNL     1       1.365   1.249  -6.980  1.00  0.00    -0.203 F 
ATOM     71  F   UNL     1       4.685  -1.803 -10.019  1.00  0.00    -0.200 F 
ATOM     72  C   UNL     1       4.329   0.103  -8.684  1.00  0.00     0.200 A 
ATOM     73  F   UNL     1       3.892   2.010  -7.380  1.00  0.00    -0.200 F 
ATOM     74  F   UNL     1       5.577   0.527  -8.926  1.00  0.00    -0.200 F 
ENDBRANCH  50  64
BRANCH  51  75
ATOM     75  C   UNL     1      -6.192  -5.589  -4.960  1.00  0.00     0.064 A 
ATOM     76  C   UNL     1      -6.209  -6.463  -3.839  1.00  0.00     0.173 A 
ATOM     77  C   UNL     1      -6.743  -4.317  -4.756  1.00  0.00     0.173 A 
ATOM     78  F   UNL     1      -5.688  -7.697  -3.942  1.00  0.00    -0.203 F 
ATOM     79  C   UNL     1      -6.621  -6.042  -2.572  1.00  0.00     0.198 A 
ATOM     80  C   UNL     1      -7.201  -3.914  -3.491  1.00  0.00     0.198 A 
ATOM     81  F   UNL     1      -6.758  -3.415  -5.747  1.00  0.00    -0.203 F 
ATOM     82  F   UNL     1      -6.453  -6.846  -1.510  1.00  0.00    -0.200 F 
ATOM     83  C   UNL     1      -7.109  -4.763  -2.397  1.00  0.00     0.200 A 
ATOM     84  F   UNL     1      -7.634  -2.657  -3.309  1.00  0.00    -0.200 F 
ATOM     85  F   UNL     1      -7.424  -4.324  -1.169  1.00  0.00    -0.200 F 
ENDBRANCH  51  75
BRANCH  63  86
ATOM     86  C   UNL     1      -3.703  -3.018 -11.371  1.00  0.00     0.064 A 
ATOM     87  C   UNL     1      -4.697  -3.476 -12.239  1.00  0.00     0.173 A 
ATOM     88  C   UNL     1      -2.885  -1.978 -11.888  1.00  0.00     0.173 A 
ATOM     89  F   UNL     1      -5.383  -4.596 -11.978  1.00  0.00    -0.203 F 
ATOM     90  C   UNL     1      -4.979  -2.821 -13.439  1.00  0.00     0.198 A 
ATOM     91  C   UNL     1      -3.129  -1.367 -13.109  1.00  0.00     0.198 A 
ATOM     92  F   UNL     1      -1.816  -1.497 -11.245  1.00  0.00    -0.203 F 
ATOM     93  F   UNL     1      -6.011  -3.234 -14.185  1.00  0.00    -0.200 F 
ATOM     94  C   UNL     1      -4.206  -1.758 -13.865  1.00  0.00     0.200 A 
ATOM     95  F   UNL     1      -2.315  -0.388 -13.530  1.00  0.00    -0.200 F 
ATOM     96  F   UNL     1      -4.482  -1.127 -15.013  1.00  0.00    -0.200 F 
ENDBRANCH  63  86
ENDBRANCH  37  38
ENDBRANCH  30  32
ENDBRANCH  29  30
ENDBRANCH  28  29
ENDBRANCH  27  28
ENDBRANCH   1  27
TORSDOF 17
