REMARK SMILES CCC(=O)N1CCC[C@](C[C@H]2CC(c3ccc(C)cc3)=NO2)(C(=O)OCCOC(=O)c2ccc(-c3c4nc(c(-c5c(F)c(F)c(F)c(F)c5F)c5ccc([nH]5)c(-c5c(F)c(F)c(F)c(F)c5F)c5nc(c(-c6c(F)c(F)c(F)c(F)c6F)c6ccc3[nH]6)C=C5)C=C4)cc2)C1
REMARK SMILES IDX 26 1 25 2 23 3 24 4 9 5 5 6 6 7 94 8 7 9 8 10 3 11 4 12 2 13
REMARK SMILES IDX 1 14 10 15 11 16 12 17 22 18 13 19 21 20 14 21 15 22 20 23
REMARK SMILES IDX 16 24 19 25 17 26 18 27 27 28 28 29 29 30 30 31 31 32 32 33
REMARK SMILES IDX 93 34 33 35 92 36 34 37 35 38 36 39 86 40 37 41 91 42 85 43
REMARK SMILES IDX 87 44 38 45 90 46 84 47 83 48 39 50 71 51 51 52 70 53 52 54
REMARK SMILES IDX 55 55 69 56 88 57 53 58 54 59 68 61 89 62 56 63 40 64 41 65
REMARK SMILES IDX 49 66 42 67 43 68 47 69 50 70 44 71 45 72 48 73 46 74 72 75
REMARK SMILES IDX 73 76 81 77 74 78 75 79 79 80 82 81 76 82 77 83 80 84 78 85
REMARK SMILES IDX 57 86 58 87 66 88 59 89 60 90 64 91 67 92 61 93 62 94 65 95
REMARK SMILES IDX 63 96
REMARK H PARENT 87 49 55 60
REMARK Flexibility Score: inf
ROOT
ATOM      1  C   UNL     1       1.072   5.684   3.232  1.00  0.00     0.274 C 
ENDROOT
BRANCH   1   2
ATOM      2  O   UNL     1       1.530   4.354   3.206  1.00  0.00    -0.462 OA
BRANCH   2   3
ATOM      3  C   UNL     1       2.897   4.206   3.023  1.00  0.00     0.314 C 
ATOM      4  O   UNL     1       3.638   5.072   3.549  1.00  0.00    -0.252 OA
BRANCH   3   5
ATOM      5  C   UNL     1       3.471   2.587   1.971  1.00  0.00     0.089 C 
ATOM      6  N   UNL     1       2.222  -0.131   3.414  1.00  0.00    -0.342 N 
ATOM      7  C   UNL     1       2.664   0.142   4.789  1.00  0.00     0.119 C 
ATOM      8  C   UNL     1       3.394   0.457   1.965  1.00  0.00     0.138 C 
ATOM      9  C   UNL     1       2.681   1.655   5.163  1.00  0.00     0.023 C 
ATOM     10  C   UNL     1       3.223   2.921   4.110  1.00  0.00     0.022 C 
BRANCH   6  11
ATOM     11  C   UNL     1       0.529  -0.293   3.443  1.00  0.00     0.222 C 
ATOM     12  O   UNL     1      -0.066  -0.144   4.523  1.00  0.00    -0.275 OA
BRANCH  11  13
ATOM     13  C   UNL     1      -0.543  -0.742   1.981  1.00  0.00     0.097 C 
ATOM     14  C   UNL     1      -0.196  -1.180   0.241  1.00  0.00     0.014 C 
ENDBRANCH  11  13
ENDBRANCH   6  11
BRANCH   5  15
ATOM     15  C   UNL     1       4.790   2.139   0.651  1.00  0.00     0.069 C 
BRANCH  15  16
ATOM     16  C   UNL     1       6.083   1.145   0.739  1.00  0.00     0.212 C 
ATOM     17  C   UNL     1       7.104   1.111   1.879  1.00  0.00     0.108 C 
ATOM     18  O   UNL     1       5.744  -0.237   0.493  1.00  0.00    -0.392 OA
ATOM     19  C   UNL     1       7.360  -0.356   1.984  1.00  0.00     0.091 C 
ATOM     20  N   UNL     1       6.638  -1.089   1.201  1.00  0.00    -0.090 NA
BRANCH  19  21
ATOM     21  C   UNL     1       8.344  -0.920   2.953  1.00  0.00    -0.001 A 
ATOM     22  C   UNL     1       8.301  -0.566   4.308  1.00  0.00     0.010 A 
ATOM     23  C   UNL     1       9.285  -1.865   2.531  1.00  0.00     0.010 A 
ATOM     24  C   UNL     1       9.188  -1.153   5.227  1.00  0.00     0.004 A 
ATOM     25  C   UNL     1      10.185  -2.433   3.450  1.00  0.00     0.004 A 
ATOM     26  C   UNL     1      10.139  -2.090   4.807  1.00  0.00    -0.051 A 
ATOM     27  C   UNL     1      11.093  -2.726   5.783  1.00  0.00     0.044 C 
ENDBRANCH  19  21
ENDBRANCH  15  16
ENDBRANCH   5  15
ENDBRANCH   3   5
ENDBRANCH   2   3
ENDBRANCH   1   2
BRANCH   1  28
ATOM     28  C   UNL     1       2.038   6.776   2.667  1.00  0.00     0.275 C 
BRANCH  28  29
ATOM     29  O   UNL     1       2.938   6.502   1.480  1.00  0.00    -0.458 OA
BRANCH  29  30
ATOM     30  C   UNL     1       4.269   5.985   1.431  1.00  0.00     0.338 C 
ATOM     31  O   UNL     1       5.209   6.654   1.035  1.00  0.00    -0.246 OA
BRANCH  30  32
ATOM     32  C   UNL     1       4.314   4.401   1.407  1.00  0.00     0.060 A 
ATOM     33  C   UNL     1       5.103   3.225   2.634  1.00  0.00     0.016 A 
ATOM     34  C   UNL     1       2.691   4.114   0.755  1.00  0.00     0.016 A 
ATOM     35  C   UNL     1       4.145   1.666   3.209  1.00  0.00     0.010 A 
ATOM     36  C   UNL     1       1.629   2.985   1.470  1.00  0.00     0.010 A 
ATOM     37  C   UNL     1       2.166   1.721   2.668  1.00  0.00    -0.014 A 
BRANCH  37  38
ATOM     38  C   UNL     1       1.346   0.465   1.457  1.00  0.00     0.031 A 
ATOM     39  C   UNL     1       1.705  -1.493   1.745  1.00  0.00     0.074 A 
ATOM     40  C   UNL     1       0.300   1.177   0.766  1.00  0.00     0.049 A 
ATOM     41  N   UNL     1       0.843  -2.561   1.639  1.00  0.00    -0.248 NA
ATOM     42  C   UNL     1       2.720  -2.254   2.666  1.00  0.00     0.031 C 
ATOM     43  C   UNL     1      -1.129   1.568   1.152  1.00  0.00     0.029 A 
ATOM     44  N   UNL     1       0.306   1.725  -0.528  1.00  0.00    -0.354 N 
ATOM     45  C   UNL     1       0.642  -3.234   2.883  1.00  0.00     0.074 A 
ATOM     46  C   UNL     1       1.983  -3.135   3.399  1.00  0.00     0.031 C 
ATOM     47  C   UNL     1      -1.887   1.621   0.032  1.00  0.00     0.029 A 
ATOM     48  C   UNL     1      -0.995   1.659  -1.096  1.00  0.00     0.049 A 
ATOM     49  H   UNL     1       1.098   2.100  -0.977  1.00  0.00     0.167 HD
ATOM     50  C   UNL     1      -0.642  -3.601   3.387  1.00  0.00     0.037 A 
ATOM     51  C   UNL     1      -1.163   1.315  -2.396  1.00  0.00     0.037 A 
ATOM     52  C   UNL     1      -1.821  -3.342   2.453  1.00  0.00     0.049 A 
ATOM     53  C   UNL     1      -1.680  -0.130  -2.537  1.00  0.00     0.074 A 
ATOM     54  C   UNL     1      -2.984  -2.552   2.481  1.00  0.00     0.029 A 
ATOM     55  N   UNL     1      -1.684  -3.658   1.135  1.00  0.00    -0.354 N 
ATOM     56  N   UNL     1      -2.386  -0.839  -1.672  1.00  0.00    -0.248 NA
ATOM     57  C   UNL     1      -1.227  -0.930  -3.672  1.00  0.00     0.031 C 
ATOM     58  C   UNL     1      -3.444  -2.354   1.124  1.00  0.00     0.029 A 
ATOM     59  C   UNL     1      -2.629  -3.091   0.286  1.00  0.00     0.049 A 
ATOM     60  H   UNL     1      -0.966  -4.246   0.806  1.00  0.00     0.167 HD
ATOM     61  C   UNL     1      -2.220  -2.203  -1.980  1.00  0.00     0.074 A 
ATOM     62  C   UNL     1      -1.543  -2.170  -3.276  1.00  0.00     0.031 C 
ATOM     63  C   UNL     1      -2.413  -3.308  -1.151  1.00  0.00     0.037 A 
BRANCH  50  64
ATOM     64  C   UNL     1      -1.079  -4.036   4.825  1.00  0.00     0.064 A 
ATOM     65  C   UNL     1      -2.433  -4.446   5.067  1.00  0.00     0.173 A 
ATOM     66  C   UNL     1      -0.292  -4.026   5.989  1.00  0.00     0.173 A 
ATOM     67  F   UNL     1      -3.337  -4.542   4.081  1.00  0.00    -0.203 F 
ATOM     68  C   UNL     1      -2.938  -4.810   6.321  1.00  0.00     0.198 A 
ATOM     69  C   UNL     1      -0.790  -4.450   7.245  1.00  0.00     0.198 A 
ATOM     70  F   UNL     1       0.978  -3.604   5.967  1.00  0.00    -0.203 F 
ATOM     71  F   UNL     1      -4.230  -5.151   6.448  1.00  0.00    -0.200 F 
ATOM     72  C   UNL     1      -2.107  -4.843   7.409  1.00  0.00     0.200 A 
ATOM     73  F   UNL     1       0.027  -4.487   8.309  1.00  0.00    -0.200 F 
ATOM     74  F   UNL     1      -2.565  -5.265   8.597  1.00  0.00    -0.200 F 
ENDBRANCH  50  64
BRANCH  51  75
ATOM     75  C   UNL     1      -0.046   2.033  -3.159  1.00  0.00     0.064 A 
ATOM     76  C   UNL     1      -0.233   3.441  -3.239  1.00  0.00     0.173 A 
ATOM     77  C   UNL     1       1.292   1.586  -3.072  1.00  0.00     0.173 A 
ATOM     78  F   UNL     1      -1.477   3.941  -3.307  1.00  0.00    -0.203 F 
ATOM     79  C   UNL     1       0.813   4.336  -2.991  1.00  0.00     0.198 A 
ATOM     80  C   UNL     1       2.337   2.495  -2.826  1.00  0.00     0.198 A 
ATOM     81  F   UNL     1       1.552   0.277  -2.938  1.00  0.00    -0.203 F 
ATOM     82  F   UNL     1       0.552   5.642  -2.826  1.00  0.00    -0.200 F 
ATOM     83  C   UNL     1       2.088   3.859  -2.741  1.00  0.00     0.200 A 
ATOM     84  F   UNL     1       3.556   2.041  -2.498  1.00  0.00    -0.200 F 
ATOM     85  F   UNL     1       3.044   4.697  -2.312  1.00  0.00    -0.200 F 
ENDBRANCH  51  75
BRANCH  63  86
ATOM     86  C   UNL     1      -2.199  -4.776  -1.615  1.00  0.00     0.064 A 
ATOM     87  C   UNL     1      -2.483  -5.167  -2.930  1.00  0.00     0.173 A 
ATOM     88  C   UNL     1      -1.818  -5.866  -0.772  1.00  0.00     0.173 A 
ATOM     89  F   UNL     1      -3.033  -4.307  -3.799  1.00  0.00    -0.203 F 
ATOM     90  C   UNL     1      -2.256  -6.469  -3.394  1.00  0.00     0.198 A 
ATOM     91  C   UNL     1      -1.663  -7.176  -1.216  1.00  0.00     0.198 A 
ATOM     92  F   UNL     1      -1.562  -5.756   0.534  1.00  0.00    -0.203 F 
ATOM     93  F   UNL     1      -2.448  -6.747  -4.689  1.00  0.00    -0.200 F 
ATOM     94  C   UNL     1      -1.849  -7.473  -2.538  1.00  0.00     0.200 A 
ATOM     95  F   UNL     1      -1.329  -8.134  -0.339  1.00  0.00    -0.200 F 
ATOM     96  F   UNL     1      -1.663  -8.724  -2.977  1.00  0.00    -0.200 F 
ENDBRANCH  63  86
ENDBRANCH  37  38
ENDBRANCH  30  32
ENDBRANCH  29  30
ENDBRANCH  28  29
ENDBRANCH   1  28
TORSDOF 16
