REMARK SMILES Cc1c(CC(=O)OCCOC(=O)c2ccc(-c3c4nc(c(-c5c(F)c(F)c(F)c(F)c5F)c5ccc([nH]5)c(-c5c(F)c(F)c(F)c(F)c5F)c5nc(c(-c6c(F)c(F)c(F)c(F)c6F)c6ccc3[nH]6)C=C5)C=C4)cc2)c(=O)oc2cc(OCc3c(F)cccc3Cl)ccc12
REMARK SMILES IDX 8 1 7 2 5 3 6 4 4 5 3 6 1 7 2 8 94 9 76 10 79 11 93 12 77 13
REMARK SMILES IDX 78 14 80 15 92 16 81 17 82 18 83 19 84 20 85 21 90 22 86 23
REMARK SMILES IDX 87 24 89 25 91 26 88 27 9 28 10 29 11 30 12 31 13 32 14 33
REMARK SMILES IDX 75 34 15 35 74 36 16 37 17 38 18 39 68 40 19 41 73 42 67 43
REMARK SMILES IDX 69 44 20 45 72 46 66 47 65 48 21 50 53 51 33 52 52 53 34 54
REMARK SMILES IDX 37 55 51 56 70 57 35 58 36 59 50 61 71 62 38 63 22 64 23 65
REMARK SMILES IDX 31 66 24 67 25 68 29 69 32 70 26 71 27 72 30 73 28 74 54 75
REMARK SMILES IDX 55 76 63 77 56 78 57 79 61 80 64 81 58 82 59 83 62 84 60 85
REMARK SMILES IDX 39 86 40 87 48 88 41 89 42 90 46 91 49 92 43 93 44 94 47 95
REMARK SMILES IDX 45 96
REMARK H PARENT 69 49 37 60
REMARK Flexibility Score: inf
ROOT
ATOM      1  C   UNL     1      -3.009  -2.518  -3.403  1.00  0.00     0.274 C 
ENDROOT
BRANCH   1   2
ATOM      2  O   UNL     1      -2.665  -1.838  -2.177  1.00  0.00    -0.462 OA
BRANCH   2   3
ATOM      3  C   UNL     1      -3.524  -2.024  -1.141  1.00  0.00     0.310 C 
ATOM      4  O   UNL     1      -4.544  -2.706  -1.195  1.00  0.00    -0.252 OA
BRANCH   3   5
ATOM      5  C   UNL     1      -3.091  -1.364   0.158  1.00  0.00     0.166 C 
BRANCH   5   6
ATOM      6  C   UNL     1      -1.769  -0.640   0.135  1.00  0.00     0.052 A 
ATOM      7  C   UNL     1      -0.359  -2.494   1.133  1.00  0.00     0.046 C 
ATOM      8  C   UNL     1      -0.579  -1.127   0.548  1.00  0.00    -0.029 A 
ATOM      9  C   UNL     1       0.606  -0.260   0.441  1.00  0.00     0.021 A 
ATOM     10  C   UNL     1      -1.896   0.762  -0.352  1.00  0.00     0.340 A 
ATOM     11  C   UNL     1       0.417   1.099   0.212  1.00  0.00     0.142 A 
ATOM     12  C   UNL     1       1.923  -0.718   0.555  1.00  0.00     0.016 A 
ATOM     13  O   UNL     1      -2.918   1.160  -0.901  1.00  0.00    -0.246 OA
ATOM     14  O   UNL     1      -0.857   1.623  -0.052  1.00  0.00    -0.422 OA
ATOM     15  C   UNL     1       1.476   2.005   0.140  1.00  0.00     0.094 A 
ATOM     16  C   UNL     1       2.997   0.166   0.406  1.00  0.00     0.047 A 
ATOM     17  C   UNL     1       2.779   1.526   0.173  1.00  0.00     0.123 A 
BRANCH  17  18
ATOM     18  O   UNL     1       3.911   2.237  -0.106  1.00  0.00    -0.489 OA
BRANCH  18  19
ATOM     19  C   UNL     1       3.821   3.611  -0.495  1.00  0.00     0.270 C 
BRANCH  19  20
ATOM     20  C   UNL     1       2.999   3.979  -1.715  1.00  0.00     0.044 A 
ATOM     21  C   UNL     1       2.391   5.244  -1.706  1.00  0.00     0.131 A 
ATOM     22  C   UNL     1       2.791   3.174  -2.843  1.00  0.00     0.050 A 
ATOM     23  F   UNL     1       2.611   6.077  -0.677  1.00  0.00    -0.207 F 
ATOM     24  C   UNL     1       1.542   5.671  -2.723  1.00  0.00     0.040 A 
ATOM     25  C   UNL     1       1.912   3.586  -3.857  1.00  0.00     0.021 A 
ATOM     26  Cl  UNL     1       3.593   1.664  -3.086  1.00  0.00    -0.084 Cl
ATOM     27  C   UNL     1       1.280   4.827  -3.793  1.00  0.00     0.005 A 
ENDBRANCH  19  20
ENDBRANCH  18  19
ENDBRANCH  17  18
ENDBRANCH   5   6
ENDBRANCH   3   5
ENDBRANCH   2   3
ENDBRANCH   1   2
BRANCH   1  28
ATOM     28  C   UNL     1      -2.140  -3.760  -3.586  1.00  0.00     0.275 C 
BRANCH  28  29
ATOM     29  O   UNL     1      -2.238  -4.593  -2.417  1.00  0.00    -0.458 OA
BRANCH  29  30
ATOM     30  C   UNL     1      -1.064  -5.003  -1.891  1.00  0.00     0.338 C 
ATOM     31  O   UNL     1       0.057  -4.818  -2.347  1.00  0.00    -0.246 OA
BRANCH  30  32
ATOM     32  C   UNL     1      -1.291  -5.731  -0.627  1.00  0.00     0.060 A 
ATOM     33  C   UNL     1      -2.245  -5.300   0.297  1.00  0.00     0.016 A 
ATOM     34  C   UNL     1      -0.448  -6.799  -0.310  1.00  0.00     0.016 A 
ATOM     35  C   UNL     1      -2.299  -5.880   1.566  1.00  0.00     0.010 A 
ATOM     36  C   UNL     1      -0.569  -7.439   0.925  1.00  0.00     0.010 A 
ATOM     37  C   UNL     1      -1.474  -6.969   1.891  1.00  0.00    -0.014 A 
BRANCH  37  38
ATOM     38  C   UNL     1      -1.551  -7.628   3.224  1.00  0.00     0.031 A 
ATOM     39  C   UNL     1      -0.337  -7.704   4.113  1.00  0.00     0.074 A 
ATOM     40  C   UNL     1      -2.702  -8.200   3.627  1.00  0.00     0.049 A 
ATOM     41  N   UNL     1      -0.150  -8.407   5.202  1.00  0.00    -0.248 NA
ATOM     42  C   UNL     1       0.824  -6.892   3.719  1.00  0.00     0.031 C 
ATOM     43  C   UNL     1      -3.962  -8.187   2.883  1.00  0.00     0.029 A 
ATOM     44  N   UNL     1      -2.996  -8.914   4.763  1.00  0.00    -0.354 N 
ATOM     45  C   UNL     1       1.161  -8.165   5.592  1.00  0.00     0.074 A 
ATOM     46  C   UNL     1       1.725  -7.246   4.626  1.00  0.00     0.031 C 
ATOM     47  C   UNL     1      -4.897  -8.838   3.589  1.00  0.00     0.029 A 
ATOM     48  C   UNL     1      -4.286  -9.383   4.796  1.00  0.00     0.049 A 
ATOM     49  H   UNL     1      -2.345  -9.075   5.484  1.00  0.00     0.167 HD
ATOM     50  C   UNL     1       1.832  -8.668   6.656  1.00  0.00     0.037 A 
ATOM     51  C   UNL     1      -4.902 -10.198   5.672  1.00  0.00     0.037 A 
ATOM     52  C   UNL     1       1.258  -9.540   7.648  1.00  0.00     0.049 A 
ATOM     53  C   UNL     1      -4.133 -10.753   6.835  1.00  0.00     0.074 A 
ATOM     54  C   UNL     1       1.854 -10.072   8.780  1.00  0.00     0.029 A 
ATOM     55  N   UNL     1      -0.050  -9.998   7.634  1.00  0.00    -0.354 N 
ATOM     56  N   UNL     1      -2.882 -10.553   7.168  1.00  0.00    -0.248 NA
ATOM     57  C   UNL     1      -4.857 -11.664   7.732  1.00  0.00     0.031 C 
ATOM     58  C   UNL     1       0.913 -10.873   9.437  1.00  0.00     0.029 A 
ATOM     59  C   UNL     1      -0.277 -10.814   8.732  1.00  0.00     0.049 A 
ATOM     60  H   UNL     1      -0.719  -9.777   6.947  1.00  0.00     0.167 HD
ATOM     61  C   UNL     1      -2.668 -11.307   8.312  1.00  0.00     0.074 A 
ATOM     62  C   UNL     1      -3.925 -11.955   8.629  1.00  0.00     0.031 C 
ATOM     63  C   UNL     1      -1.530 -11.454   9.031  1.00  0.00     0.037 A 
BRANCH  50  64
ATOM     64  C   UNL     1       3.281  -8.306   6.802  1.00  0.00     0.064 A 
ATOM     65  C   UNL     1       3.685  -7.045   7.259  1.00  0.00     0.173 A 
ATOM     66  C   UNL     1       4.275  -9.261   6.539  1.00  0.00     0.173 A 
ATOM     67  F   UNL     1       2.772  -6.095   7.512  1.00  0.00    -0.203 F 
ATOM     68  C   UNL     1       5.034  -6.747   7.435  1.00  0.00     0.198 A 
ATOM     69  C   UNL     1       5.622  -8.968   6.736  1.00  0.00     0.198 A 
ATOM     70  F   UNL     1       3.939 -10.486   6.105  1.00  0.00    -0.203 F 
ATOM     71  F   UNL     1       5.401  -5.525   7.846  1.00  0.00    -0.200 F 
ATOM     72  C   UNL     1       6.000  -7.710   7.181  1.00  0.00     0.200 A 
ATOM     73  F   UNL     1       6.552  -9.902   6.500  1.00  0.00    -0.200 F 
ATOM     74  F   UNL     1       7.297  -7.425   7.362  1.00  0.00    -0.200 F 
ENDBRANCH  50  64
BRANCH  51  75
ATOM     75  C   UNL     1      -6.323 -10.563   5.454  1.00  0.00     0.064 A 
ATOM     76  C   UNL     1      -7.332 -10.039   6.272  1.00  0.00     0.173 A 
ATOM     77  C   UNL     1      -6.702 -11.419   4.409  1.00  0.00     0.173 A 
ATOM     78  F   UNL     1      -7.012  -9.237   7.298  1.00  0.00    -0.203 F 
ATOM     79  C   UNL     1      -8.670 -10.359   6.053  1.00  0.00     0.198 A 
ATOM     80  C   UNL     1      -8.042 -11.718   4.176  1.00  0.00     0.198 A 
ATOM     81  F   UNL     1      -5.770 -11.944   3.600  1.00  0.00    -0.203 F 
ATOM     82  F   UNL     1      -9.615  -9.868   6.866  1.00  0.00    -0.200 F 
ATOM     83  C   UNL     1      -9.024 -11.191   5.001  1.00  0.00     0.200 A 
ATOM     84  F   UNL     1      -8.381 -12.511   3.151  1.00  0.00    -0.200 F 
ATOM     85  F   UNL     1     -10.313 -11.488   4.784  1.00  0.00    -0.200 F 
ENDBRANCH  51  75
BRANCH  63  86
ATOM     86  C   UNL     1      -1.599 -12.336  10.240  1.00  0.00     0.064 A 
ATOM     87  C   UNL     1      -1.611 -13.733  10.123  1.00  0.00     0.173 A 
ATOM     88  C   UNL     1      -1.631 -11.780  11.527  1.00  0.00     0.173 A 
ATOM     89  F   UNL     1      -1.599 -14.309   8.911  1.00  0.00    -0.203 F 
ATOM     90  C   UNL     1      -1.673 -14.543  11.253  1.00  0.00     0.198 A 
ATOM     91  C   UNL     1      -1.674 -12.593  12.655  1.00  0.00     0.198 A 
ATOM     92  F   UNL     1      -1.620 -10.448  11.688  1.00  0.00    -0.203 F 
ATOM     93  F   UNL     1      -1.722 -15.876  11.119  1.00  0.00    -0.200 F 
ATOM     94  C   UNL     1      -1.700 -13.973  12.518  1.00  0.00     0.200 A 
ATOM     95  F   UNL     1      -1.695 -12.042  13.876  1.00  0.00    -0.200 F 
ATOM     96  F   UNL     1      -1.761 -14.755  13.605  1.00  0.00    -0.200 F 
ENDBRANCH  63  86
ENDBRANCH  37  38
ENDBRANCH  30  32
ENDBRANCH  29  30
ENDBRANCH  28  29
ENDBRANCH   1  28
TORSDOF 15
