REMARK SMILES CCOc1cc(NC(=O)c2c(C(=O)OCCOC(=O)c3ccc(-c4c5nc(c(-c6c(F)c(F)c(F)c(F)c6F)c6ccc([nH]6)c(-c6c(F)c(F)c(F)c(F)c6F)c6nc(c(-c7c(F)c(F)c(F)c(F)c7F)c7ccc4[nH]7)C=C6)C=C5)cc3)cnn2C)ccc1OC(F)F
REMARK SMILES IDX 15 1 14 2 12 3 13 4 11 5 10 6 85 7 83 8 84 9 86 10 8 11 7 12
REMARK SMILES IDX 9 14 6 15 4 16 5 17 89 18 88 19 87 20 3 21 2 22 1 23 90 24
REMARK SMILES IDX 91 25 92 26 93 27 16 28 17 29 18 30 19 31 20 32 21 33 82 34
REMARK SMILES IDX 22 35 81 36 23 37 24 38 25 39 75 40 26 41 80 42 74 43 76 44
REMARK SMILES IDX 27 45 79 46 73 47 72 48 28 50 60 51 40 52 59 53 41 54 44 55
REMARK SMILES IDX 58 56 77 57 42 58 43 59 57 61 78 62 45 63 29 64 30 65 38 66
REMARK SMILES IDX 31 67 32 68 36 69 39 70 33 71 34 72 37 73 35 74 61 75 62 76
REMARK SMILES IDX 70 77 63 78 64 79 68 80 71 81 65 82 66 83 69 84 67 85 46 86
REMARK SMILES IDX 47 87 55 88 48 89 49 90 53 91 56 92 50 93 51 94 54 95 52 96
REMARK H PARENT 7 13 76 49 44 60
REMARK Flexibility Score: inf
ROOT
ATOM      1  C   UNL     1       2.177   9.718   0.528  1.00  0.00     0.275 C 
ENDROOT
BRANCH   1   2
ATOM      2  O   UNL     1       2.296   8.424   1.150  1.00  0.00    -0.458 OA
BRANCH   2   3
ATOM      3  C   UNL     1       1.501   8.203   2.236  1.00  0.00     0.342 C 
ATOM      4  O   UNL     1       0.665   8.993   2.647  1.00  0.00    -0.246 OA
BRANCH   3   5
ATOM      5  C   UNL     1       1.664   6.886   2.835  1.00  0.00     0.111 A 
ATOM      6  C   UNL     1       2.711   5.974   2.735  1.00  0.00     0.140 A 
ATOM      7  N   UNL     1       2.371   4.941   3.578  1.00  0.00    -0.262 N 
ATOM      8  C   UNL     1       0.743   6.267   3.709  1.00  0.00     0.151 A 
ATOM      9  N   UNL     1       1.135   5.057   4.101  1.00  0.00    -0.180 NA
ATOM     10  C   UNL     1       3.189   3.840   4.032  1.00  0.00     0.174 C 
BRANCH   6  11
ATOM     11  C   UNL     1       3.984   6.165   2.103  1.00  0.00     0.274 C 
ATOM     12  N   UNL     1       4.573   5.207   1.318  1.00  0.00    -0.321 N 
ATOM     13  H   UNL     1       5.521   5.407   1.144  1.00  0.00     0.170 HD
ATOM     14  O   UNL     1       4.644   7.187   2.302  1.00  0.00    -0.267 OA
BRANCH  12  15
ATOM     15  C   UNL     1       4.168   4.012   0.699  1.00  0.00     0.045 A 
ATOM     16  C   UNL     1       2.597   2.305  -0.063  1.00  0.00     0.163 A 
ATOM     17  C   UNL     1       2.866   3.512   0.623  1.00  0.00     0.076 A 
ATOM     18  C   UNL     1       3.619   1.641  -0.752  1.00  0.00     0.168 A 
ATOM     19  C   UNL     1       4.916   2.148  -0.674  1.00  0.00     0.053 A 
ATOM     20  C   UNL     1       5.190   3.304   0.056  1.00  0.00     0.030 A 
BRANCH  16  21
ATOM     21  O   UNL     1       1.312   1.845  -0.159  1.00  0.00    -0.490 OA
BRANCH  21  22
ATOM     22  C   UNL     1       0.689   1.605   1.110  1.00  0.00     0.226 C 
ATOM     23  C   UNL     1      -0.251   0.417   0.968  1.00  0.00     0.049 C 
ENDBRANCH  21  22
ENDBRANCH  16  21
BRANCH  18  24
ATOM     24  O   UNL     1       3.521   0.568  -1.591  1.00  0.00    -0.431 OA
BRANCH  24  25
ATOM     25  C   UNL     1       2.546  -0.431  -1.338  1.00  0.00     0.542 C 
ATOM     26  F   UNL     1       2.476  -0.705  -0.015  1.00  0.00    -0.167 F 
ATOM     27  F   UNL     1       1.334  -0.043  -1.792  1.00  0.00    -0.167 F 
ENDBRANCH  24  25
ENDBRANCH  18  24
ENDBRANCH  12  15
ENDBRANCH   6  11
ENDBRANCH   3   5
ENDBRANCH   2   3
ENDBRANCH   1   2
BRANCH   1  28
ATOM     28  C   UNL     1       1.345   9.663  -0.757  1.00  0.00     0.275 C 
BRANCH  28  29
ATOM     29  O   UNL     1      -0.032   9.341  -0.485  1.00  0.00    -0.458 OA
BRANCH  29  30
ATOM     30  C   UNL     1      -0.351   8.035  -0.636  1.00  0.00     0.338 C 
ATOM     31  O   UNL     1       0.377   7.131  -1.010  1.00  0.00    -0.246 OA
BRANCH  30  32
ATOM     32  C   UNL     1      -1.702   7.792  -0.112  1.00  0.00     0.060 A 
ATOM     33  C   UNL     1      -1.800   7.086   1.087  1.00  0.00     0.016 A 
ATOM     34  C   UNL     1      -2.851   8.141  -0.822  1.00  0.00     0.016 A 
ATOM     35  C   UNL     1      -3.042   6.718   1.589  1.00  0.00     0.010 A 
ATOM     36  C   UNL     1      -4.105   7.774  -0.314  1.00  0.00     0.010 A 
ATOM     37  C   UNL     1      -4.207   7.048   0.888  1.00  0.00    -0.014 A 
BRANCH  37  38
ATOM     38  C   UNL     1      -5.515   6.555   1.390  1.00  0.00     0.031 A 
ATOM     39  C   UNL     1      -6.228   5.454   0.656  1.00  0.00     0.074 A 
ATOM     40  C   UNL     1      -6.030   7.045   2.533  1.00  0.00     0.049 A 
ATOM     41  N   UNL     1      -7.408   4.934   0.884  1.00  0.00    -0.248 NA
ATOM     42  C   UNL     1      -5.519   4.859  -0.486  1.00  0.00     0.031 C 
ATOM     43  C   UNL     1      -5.401   8.064   3.373  1.00  0.00     0.029 A 
ATOM     44  N   UNL     1      -7.196   6.742   3.192  1.00  0.00    -0.354 N 
ATOM     45  C   UNL     1      -7.598   3.979  -0.107  1.00  0.00     0.074 A 
ATOM     46  C   UNL     1      -6.415   3.994  -0.941  1.00  0.00     0.031 C 
ATOM     47  C   UNL     1      -6.178   8.288   4.445  1.00  0.00     0.029 A 
ATOM     48  C   UNL     1      -7.386   7.474   4.338  1.00  0.00     0.049 A 
ATOM     49  H   UNL     1      -7.835   6.065   2.873  1.00  0.00     0.167 HD
ATOM     50  C   UNL     1      -8.665   3.167  -0.300  1.00  0.00     0.037 A 
ATOM     51  C   UNL     1      -8.429   7.506   5.189  1.00  0.00     0.037 A 
ATOM     52  C   UNL     1      -9.820   3.125   0.558  1.00  0.00     0.049 A 
ATOM     53  C   UNL     1      -9.622   6.629   4.921  1.00  0.00     0.074 A 
ATOM     54  C   UNL     1     -10.942   2.321   0.456  1.00  0.00     0.029 A 
ATOM     55  N   UNL     1      -9.996   3.916   1.684  1.00  0.00    -0.354 N 
ATOM     56  N   UNL     1      -9.807   5.750   3.966  1.00  0.00    -0.248 NA
ATOM     57  C   UNL     1     -10.759   6.758   5.843  1.00  0.00     0.031 C 
ATOM     58  C   UNL     1     -11.816   2.655   1.496  1.00  0.00     0.029 A 
ATOM     59  C   UNL     1     -11.219   3.634   2.273  1.00  0.00     0.049 A 
ATOM     60  H   UNL     1      -9.349   4.580   2.015  1.00  0.00     0.167 HD
ATOM     61  C   UNL     1     -11.065   5.207   4.184  1.00  0.00     0.074 A 
ATOM     62  C   UNL     1     -11.595   5.844   5.372  1.00  0.00     0.031 C 
ATOM     63  C   UNL     1     -11.725   4.268   3.462  1.00  0.00     0.037 A 
BRANCH  50  64
ATOM     64  C   UNL     1      -8.654   2.281  -1.511  1.00  0.00     0.064 A 
ATOM     65  C   UNL     1      -7.837   1.145  -1.595  1.00  0.00     0.173 A 
ATOM     66  C   UNL     1      -9.512   2.554  -2.588  1.00  0.00     0.173 A 
ATOM     67  F   UNL     1      -6.990   0.848  -0.598  1.00  0.00    -0.203 F 
ATOM     68  C   UNL     1      -7.864   0.327  -2.722  1.00  0.00     0.198 A 
ATOM     69  C   UNL     1      -9.556   1.719  -3.700  1.00  0.00     0.198 A 
ATOM     70  F   UNL     1     -10.319   3.626  -2.554  1.00  0.00    -0.203 F 
ATOM     71  F   UNL     1      -7.046  -0.733  -2.798  1.00  0.00    -0.200 F 
ATOM     72  C   UNL     1      -8.728   0.610  -3.769  1.00  0.00     0.200 A 
ATOM     73  F   UNL     1     -10.402   1.988  -4.705  1.00  0.00    -0.200 F 
ATOM     74  F   UNL     1      -8.760  -0.185  -4.848  1.00  0.00    -0.200 F 
ENDBRANCH  50  64
BRANCH  51  75
ATOM     75  C   UNL     1      -8.409   8.422   6.360  1.00  0.00     0.064 A 
ATOM     76  C   UNL     1      -8.359   7.921   7.668  1.00  0.00     0.173 A 
ATOM     77  C   UNL     1      -8.460   9.814   6.196  1.00  0.00     0.173 A 
ATOM     78  F   UNL     1      -8.339   6.597   7.878  1.00  0.00    -0.203 F 
ATOM     79  C   UNL     1      -8.376   8.778   8.767  1.00  0.00     0.198 A 
ATOM     80  C   UNL     1      -8.447  10.670   7.294  1.00  0.00     0.198 A 
ATOM     81  F   UNL     1      -8.517  10.344   4.965  1.00  0.00    -0.203 F 
ATOM     82  F   UNL     1      -8.377   8.272  10.008  1.00  0.00    -0.200 F 
ATOM     83  C   UNL     1      -8.413  10.152   8.579  1.00  0.00     0.200 A 
ATOM     84  F   UNL     1      -8.473  11.997   7.107  1.00  0.00    -0.200 F 
ATOM     85  F   UNL     1      -8.428  10.975   9.636  1.00  0.00    -0.200 F 
ENDBRANCH  51  75
BRANCH  63  86
ATOM     86  C   UNL     1     -13.076   3.845   3.960  1.00  0.00     0.064 A 
ATOM     87  C   UNL     1     -14.197   4.679   3.843  1.00  0.00     0.173 A 
ATOM     88  C   UNL     1     -13.256   2.576   4.530  1.00  0.00     0.173 A 
ATOM     89  F   UNL     1     -14.073   5.908   3.320  1.00  0.00    -0.203 F 
ATOM     90  C   UNL     1     -15.446   4.266   4.301  1.00  0.00     0.198 A 
ATOM     91  C   UNL     1     -14.511   2.156   4.961  1.00  0.00     0.198 A 
ATOM     92  F   UNL     1     -12.216   1.738   4.658  1.00  0.00    -0.203 F 
ATOM     93  F   UNL     1     -16.495   5.097   4.222  1.00  0.00    -0.200 F 
ATOM     94  C   UNL     1     -15.603   3.003   4.853  1.00  0.00     0.200 A 
ATOM     95  F   UNL     1     -14.663   0.931   5.484  1.00  0.00    -0.200 F 
ATOM     96  F   UNL     1     -16.806   2.606   5.289  1.00  0.00    -0.200 F 
ENDBRANCH  63  86
ENDBRANCH  37  38
ENDBRANCH  30  32
ENDBRANCH  29  30
ENDBRANCH  28  29
ENDBRANCH   1  28
TORSDOF 17
