REMARK SMILES C[C@H]1[C@@H](C(=O)OCCOC(=O)c2ccc(-c3c4nc(c(-c5c(F)c(F)c(F)c(F)c5F)c5ccc([nH]5)c(-c5c(F)c(F)c(F)c(F)c5F)c5nc(c(-c6c(F)c(F)c(F)c(F)c6F)c6ccc3[nH]6)C=C5)C=C4)cc2)CC[N@@H+]1Cc1cc(F)c(F)c(F)c1
REMARK SMILES IDX 7 1 6 2 4 3 5 4 3 5 1 6 2 7 77 8 75 9 76 10 78 12 79 13
REMARK SMILES IDX 80 14 87 15 81 16 85 17 82 18 83 19 86 20 84 21 8 22 9 23
REMARK SMILES IDX 10 24 11 25 12 26 13 27 74 28 14 29 73 30 15 31 16 32 17 33
REMARK SMILES IDX 67 34 18 35 72 36 66 37 68 38 19 39 71 40 65 41 64 42 20 44
REMARK SMILES IDX 52 45 32 46 51 47 33 48 36 49 50 50 69 51 34 52 35 53 49 55
REMARK SMILES IDX 70 56 37 57 21 58 22 59 30 60 23 61 24 62 28 63 31 64 25 65
REMARK SMILES IDX 26 66 29 67 27 68 53 69 54 70 62 71 55 72 56 73 60 74 63 75
REMARK SMILES IDX 57 76 58 77 61 78 59 79 38 80 39 81 47 82 40 83 41 84 45 85
REMARK SMILES IDX 48 86 42 87 43 88 46 89 44 90
REMARK H PARENT 77 11 68 43 36 54
REMARK Flexibility Score: inf
ROOT
ATOM      1  C   UNL     1       2.043   2.523  -2.481  1.00  0.00     0.274 C 
ENDROOT
BRANCH   1   2
ATOM      2  O   UNL     1       1.509   1.536  -1.575  1.00  0.00    -0.462 OA
BRANCH   2   3
ATOM      3  C   UNL     1       1.002   1.978  -0.397  1.00  0.00     0.315 C 
ATOM      4  O   UNL     1       0.989   3.149  -0.037  1.00  0.00    -0.252 OA
BRANCH   3   5
ATOM      5  C   UNL     1       0.349   0.871   0.406  1.00  0.00     0.162 C 
ATOM      6  C   UNL     1       2.416  -0.658  -0.035  1.00  0.00     0.076 C 
ATOM      7  C   UNL     1       1.208  -0.322   0.841  1.00  0.00     0.195 C 
ATOM      8  N   UNL     1       0.295  -1.477   0.800  1.00  0.00    -0.328 N 
ATOM      9  C   UNL     1      -0.862   0.280  -0.309  1.00  0.00     0.083 C 
ATOM     10  C   UNL     1      -0.691  -1.224  -0.243  1.00  0.00     0.263 C 
ATOM     11  H   UNL     1       0.844  -2.302   0.556  1.00  0.00     0.348 HD
BRANCH   8  12
ATOM     12  C   UNL     1      -0.232  -1.960   2.074  1.00  0.00     0.299 C 
BRANCH  12  13
ATOM     13  C   UNL     1      -1.026  -0.997   2.930  1.00  0.00     0.012 A 
ATOM     14  C   UNL     1      -0.423  -0.370   4.033  1.00  0.00     0.052 A 
ATOM     15  C   UNL     1      -2.384  -0.746   2.679  1.00  0.00     0.052 A 
ATOM     16  C   UNL     1      -1.163   0.483   4.852  1.00  0.00     0.162 A 
ATOM     17  C   UNL     1      -3.105   0.122   3.500  1.00  0.00     0.162 A 
ATOM     18  F   UNL     1      -0.566   1.053   5.907  1.00  0.00    -0.204 F 
ATOM     19  C   UNL     1      -2.501   0.734   4.588  1.00  0.00     0.194 A 
ATOM     20  F   UNL     1      -4.396   0.354   3.227  1.00  0.00    -0.204 F 
ATOM     21  F   UNL     1      -3.205   1.554   5.380  1.00  0.00    -0.200 F 
ENDBRANCH  12  13
ENDBRANCH   8  12
ENDBRANCH   3   5
ENDBRANCH   2   3
ENDBRANCH   1   2
BRANCH   1  22
ATOM     22  C   UNL     1       1.317   2.401  -3.814  1.00  0.00     0.275 C 
BRANCH  22  23
ATOM     23  O   UNL     1      -0.075   2.701  -3.600  1.00  0.00    -0.458 OA
BRANCH  23  24
ATOM     24  C   UNL     1      -0.944   1.714  -3.908  1.00  0.00     0.338 C 
ATOM     25  O   UNL     1      -0.699   0.639  -4.429  1.00  0.00    -0.246 OA
BRANCH  24  26
ATOM     26  C   UNL     1      -2.305   2.118  -3.513  1.00  0.00     0.060 A 
ATOM     27  C   UNL     1      -2.566   2.626  -2.236  1.00  0.00     0.016 A 
ATOM     28  C   UNL     1      -3.349   1.886  -4.408  1.00  0.00     0.016 A 
ATOM     29  C   UNL     1      -3.884   2.844  -1.833  1.00  0.00     0.010 A 
ATOM     30  C   UNL     1      -4.656   2.194  -4.033  1.00  0.00     0.010 A 
ATOM     31  C   UNL     1      -4.941   2.658  -2.737  1.00  0.00    -0.014 A 
BRANCH  31  32
ATOM     32  C   UNL     1      -6.353   2.952  -2.374  1.00  0.00     0.031 A 
ATOM     33  C   UNL     1      -7.396   1.876  -2.493  1.00  0.00     0.074 A 
ATOM     34  C   UNL     1      -6.721   4.201  -2.029  1.00  0.00     0.049 A 
ATOM     35  N   UNL     1      -8.697   1.985  -2.569  1.00  0.00    -0.248 NA
ATOM     36  C   UNL     1      -6.902   0.491  -2.556  1.00  0.00     0.031 C 
ATOM     37  C   UNL     1      -5.813   5.330  -1.826  1.00  0.00     0.029 A 
ATOM     38  N   UNL     1      -7.968   4.736  -1.818  1.00  0.00    -0.354 N 
ATOM     39  C   UNL     1      -9.174   0.694  -2.754  1.00  0.00     0.074 A 
ATOM     40  C   UNL     1      -8.024  -0.186  -2.762  1.00  0.00     0.031 C 
ATOM     41  C   UNL     1      -6.529   6.421  -1.520  1.00  0.00     0.029 A 
ATOM     42  C   UNL     1      -7.947   6.091  -1.597  1.00  0.00     0.049 A 
ATOM     43  H   UNL     1      -8.795   4.201  -1.824  1.00  0.00     0.167 HD
ATOM     44  C   UNL     1     -10.456   0.290  -2.917  1.00  0.00     0.037 A 
ATOM     45  C   UNL     1      -8.952   6.985  -1.533  1.00  0.00     0.037 A 
ATOM     46  C   UNL     1     -11.596   1.167  -2.854  1.00  0.00     0.049 A 
ATOM     47  C   UNL     1     -10.364   6.521  -1.742  1.00  0.00     0.074 A 
ATOM     48  C   UNL     1     -12.937   0.855  -2.992  1.00  0.00     0.029 A 
ATOM     49  N   UNL     1     -11.525   2.532  -2.615  1.00  0.00    -0.354 N 
ATOM     50  N   UNL     1     -10.806   5.313  -1.994  1.00  0.00    -0.248 NA
ATOM     51  C   UNL     1     -11.415   7.546  -1.683  1.00  0.00     0.031 C 
ATOM     52  C   UNL     1     -13.677   2.036  -2.860  1.00  0.00     0.029 A 
ATOM     53  C   UNL     1     -12.798   3.076  -2.606  1.00  0.00     0.049 A 
ATOM     54  H   UNL     1     -10.693   3.038  -2.473  1.00  0.00     0.167 HD
ATOM     55  C   UNL     1     -12.183   5.429  -2.110  1.00  0.00     0.074 A 
ATOM     56  C   UNL     1     -12.507   6.824  -1.894  1.00  0.00     0.031 C 
ATOM     57  C   UNL     1     -13.097   4.465  -2.376  1.00  0.00     0.037 A 
BRANCH  44  58
ATOM     58  C   UNL     1     -10.700  -1.159  -3.215  1.00  0.00     0.064 A 
ATOM     59  C   UNL     1     -10.601  -2.147  -2.226  1.00  0.00     0.173 A 
ATOM     60  C   UNL     1     -11.093  -1.555  -4.503  1.00  0.00     0.173 A 
ATOM     61  F   UNL     1     -10.216  -1.821  -0.983  1.00  0.00    -0.203 F 
ATOM     62  C   UNL     1     -10.872  -3.482  -2.519  1.00  0.00     0.198 A 
ATOM     63  C   UNL     1     -11.385  -2.886  -4.787  1.00  0.00     0.198 A 
ATOM     64  F   UNL     1     -11.207  -0.647  -5.484  1.00  0.00    -0.203 F 
ATOM     65  F   UNL     1     -10.739  -4.416  -1.567  1.00  0.00    -0.200 F 
ATOM     66  C   UNL     1     -11.270  -3.849  -3.797  1.00  0.00     0.200 A 
ATOM     67  F   UNL     1     -11.778  -3.237  -6.020  1.00  0.00    -0.200 F 
ATOM     68  F   UNL     1     -11.539  -5.133  -4.074  1.00  0.00    -0.200 F 
ENDBRANCH  44  58
BRANCH  45  69
ATOM     69  C   UNL     1      -8.639   8.419  -1.314  1.00  0.00     0.064 A 
ATOM     70  C   UNL     1      -8.926   9.037  -0.090  1.00  0.00     0.173 A 
ATOM     71  C   UNL     1      -8.011   9.188  -2.305  1.00  0.00     0.173 A 
ATOM     72  F   UNL     1      -9.548   8.348   0.877  1.00  0.00    -0.203 F 
ATOM     73  C   UNL     1      -8.596  10.372   0.134  1.00  0.00     0.198 A 
ATOM     74  C   UNL     1      -7.657  10.514  -2.071  1.00  0.00     0.198 A 
ATOM     75  F   UNL     1      -7.714   8.639  -3.493  1.00  0.00    -0.203 F 
ATOM     76  F   UNL     1      -8.904  10.948   1.304  1.00  0.00    -0.200 F 
ATOM     77  C   UNL     1      -7.953  11.106  -0.852  1.00  0.00     0.200 A 
ATOM     78  F   UNL     1      -7.023  11.214  -3.021  1.00  0.00    -0.200 F 
ATOM     79  F   UNL     1      -7.620  12.384  -0.630  1.00  0.00    -0.200 F 
ENDBRANCH  45  69
BRANCH  57  80
ATOM     80  C   UNL     1     -14.536   4.877  -2.408  1.00  0.00     0.064 A 
ATOM     81  C   UNL     1     -15.084   5.531  -3.520  1.00  0.00     0.173 A 
ATOM     82  C   UNL     1     -15.384   4.567  -1.336  1.00  0.00     0.173 A 
ATOM     83  F   UNL     1     -14.305   5.861  -4.561  1.00  0.00    -0.203 F 
ATOM     84  C   UNL     1     -16.433   5.870  -3.552  1.00  0.00     0.198 A 
ATOM     85  C   UNL     1     -16.736   4.892  -1.379  1.00  0.00     0.198 A 
ATOM     86  F   UNL     1     -14.902   3.939  -0.253  1.00  0.00    -0.203 F 
ATOM     87  F   UNL     1     -16.935   6.519  -4.612  1.00  0.00    -0.200 F 
ATOM     88  C   UNL     1     -17.259   5.545  -2.485  1.00  0.00     0.200 A 
ATOM     89  F   UNL     1     -17.535   4.571  -0.351  1.00  0.00    -0.200 F 
ATOM     90  F   UNL     1     -18.560   5.866  -2.522  1.00  0.00    -0.200 F 
ENDBRANCH  57  80
ENDBRANCH  31  32
ENDBRANCH  24  26
ENDBRANCH  23  24
ENDBRANCH  22  23
ENDBRANCH   1  22
TORSDOF 13
