REMARK SMILES CC[C@@](C)(NC(=O)Nc1ccccc1C#N)C(=O)OCCOC(=O)c1ccc(-c2c3nc(c(-c4c(F)c(F)c(F)c(F)c4F)c4ccc([nH]4)c(-c4c(F)c(F)c(F)c(F)c4F)c4nc(c(-c5c(F)c(F)c(F)c(F)c5F)c5ccc2[nH]5)C=C4)C=C3)cc1
REMARK SMILES IDX 20 1 19 2 17 3 18 4 3 5 4 6 2 7 1 8 5 9 6 10 7 12 8 13 9 15
REMARK SMILES IDX 10 16 14 17 11 18 13 19 12 20 15 21 16 22 21 23 22 24 23 25
REMARK SMILES IDX 24 26 25 27 26 28 87 29 27 30 86 31 28 32 29 33 30 34 80 35
REMARK SMILES IDX 31 36 85 37 79 38 81 39 32 40 84 41 78 42 77 43 33 45 65 46
REMARK SMILES IDX 45 47 64 48 46 49 49 50 63 51 82 52 47 53 48 54 62 56 83 57
REMARK SMILES IDX 50 58 34 59 35 60 43 61 36 62 37 63 41 64 44 65 38 66 39 67
REMARK SMILES IDX 42 68 40 69 66 70 67 71 75 72 68 73 69 74 73 75 76 76 70 77
REMARK SMILES IDX 71 78 74 79 72 80 51 81 52 82 60 83 53 84 54 85 58 86 61 87
REMARK SMILES IDX 55 88 56 89 59 90 57 91
REMARK H PARENT 5 11 8 14 81 44 49 55
REMARK Flexibility Score: inf
ROOT
ATOM      1  C   UNL     1       3.511   4.497   1.776  1.00  0.00     0.274 C 
ENDROOT
BRANCH   1   2
ATOM      2  O   UNL     1       2.059   4.541   1.020  1.00  0.00    -0.460 OA
BRANCH   2   3
ATOM      3  C   UNL     1       1.275   3.786   0.046  1.00  0.00     0.331 C 
ATOM      4  O   UNL     1       1.323   3.945  -1.175  1.00  0.00    -0.249 OA
BRANCH   3   5
ATOM      5  C   UNL     1       0.080   2.917   0.614  1.00  0.00     0.136 C 
ATOM      6  C   UNL     1      -1.176   3.623   0.095  1.00  0.00     0.047 C 
BRANCH   5   7
ATOM      7  C   UNL     1      -0.260   1.380   0.613  1.00  0.00     0.037 C 
ATOM      8  C   UNL     1       0.181   0.456  -0.487  1.00  0.00     0.007 C 
ENDBRANCH   5   7
BRANCH   5   9
ATOM      9  N   UNL     1       0.451   3.117   1.947  1.00  0.00    -0.322 N 
ATOM     10  C   UNL     1       1.602   2.547   2.331  1.00  0.00     0.320 C 
ATOM     11  H   UNL     1      -0.102   3.646   2.567  1.00  0.00     0.166 HD
ATOM     12  O   UNL     1       1.697   2.434   3.557  1.00  0.00    -0.248 OA
ATOM     13  N   UNL     1       2.592   2.034   1.464  1.00  0.00    -0.307 N 
ATOM     14  H   UNL     1       3.005   1.362   2.053  1.00  0.00     0.171 HD
BRANCH  13  15
ATOM     15  C   UNL     1       3.420   1.846   0.235  1.00  0.00     0.060 A 
ATOM     16  C   UNL     1       4.250   0.695   0.392  1.00  0.00     0.027 A 
ATOM     17  C   UNL     1       3.744   2.562  -0.960  1.00  0.00     0.076 A 
ATOM     18  C   UNL     1       5.127   0.182  -0.572  1.00  0.00     0.002 A 
ATOM     19  C   UNL     1       4.502   1.951  -2.000  1.00  0.00     0.021 A 
ATOM     20  C   UNL     1       5.188   0.767  -1.812  1.00  0.00     0.002 A 
BRANCH  17  21
ATOM     21  C   UNL     1       3.764   3.997  -1.219  1.00  0.00     0.101 C 
ATOM     22  N   UNL     1       3.914   5.112  -1.485  1.00  0.00    -0.192 NA
ENDBRANCH  17  21
ENDBRANCH  13  15
ENDBRANCH   5   9
ENDBRANCH   3   5
ENDBRANCH   2   3
ENDBRANCH   1   2
BRANCH   1  23
ATOM     23  C   UNL     1       4.163   3.564   3.092  1.00  0.00     0.275 C 
BRANCH  23  24
ATOM     24  O   UNL     1       4.228   2.033   3.102  1.00  0.00    -0.458 OA
BRANCH  24  25
ATOM     25  C   UNL     1       4.011   1.222   4.218  1.00  0.00     0.338 C 
ATOM     26  O   UNL     1       4.170   1.590   5.370  1.00  0.00    -0.246 OA
BRANCH  25  27
ATOM     27  C   UNL     1       3.503  -0.224   3.874  1.00  0.00     0.060 A 
ATOM     28  C   UNL     1       2.401  -0.492   3.035  1.00  0.00     0.016 A 
ATOM     29  C   UNL     1       4.024  -1.361   4.495  1.00  0.00     0.016 A 
ATOM     30  C   UNL     1       1.875  -1.760   2.740  1.00  0.00     0.010 A 
ATOM     31  C   UNL     1       3.476  -2.661   4.245  1.00  0.00     0.010 A 
ATOM     32  C   UNL     1       2.383  -2.875   3.373  1.00  0.00    -0.014 A 
BRANCH  32  33
ATOM     33  C   UNL     1       1.607  -4.157   3.318  1.00  0.00     0.031 A 
ATOM     34  C   UNL     1       0.894  -4.606   4.569  1.00  0.00     0.074 A 
ATOM     35  C   UNL     1       1.417  -4.879   2.192  1.00  0.00     0.049 A 
ATOM     36  N   UNL     1       0.359  -5.763   4.866  1.00  0.00    -0.248 NA
ATOM     37  C   UNL     1       0.771  -3.596   5.630  1.00  0.00     0.031 C 
ATOM     38  C   UNL     1       1.855  -4.506   0.848  1.00  0.00     0.029 A 
ATOM     39  N   UNL     1       0.808  -6.105   2.008  1.00  0.00    -0.354 N 
ATOM     40  C   UNL     1      -0.093  -5.643   6.176  1.00  0.00     0.074 A 
ATOM     41  C   UNL     1       0.226  -4.300   6.610  1.00  0.00     0.031 C 
ATOM     42  C   UNL     1       1.540  -5.494  -0.009  1.00  0.00     0.029 A 
ATOM     43  C   UNL     1       0.941  -6.604   0.732  1.00  0.00     0.049 A 
ATOM     44  H   UNL     1       0.324  -6.578   2.723  1.00  0.00     0.167 HD
ATOM     45  C   UNL     1      -0.703  -6.572   6.951  1.00  0.00     0.037 A 
ATOM     46  C   UNL     1       0.672  -7.829   0.232  1.00  0.00     0.037 A 
ATOM     47  C   UNL     1      -1.051  -7.897   6.505  1.00  0.00     0.049 A 
ATOM     48  C   UNL     1       0.115  -8.901   1.140  1.00  0.00     0.074 A 
ATOM     49  C   UNL     1      -1.657  -8.917   7.217  1.00  0.00     0.029 A 
ATOM     50  N   UNL     1      -0.828  -8.384   5.225  1.00  0.00    -0.354 N 
ATOM     51  N   UNL     1      -0.225  -8.824   2.404  1.00  0.00    -0.248 NA
ATOM     52  C   UNL     1      -0.085 -10.236   0.553  1.00  0.00     0.031 C 
ATOM     53  C   UNL     1      -1.732 -10.043   6.391  1.00  0.00     0.029 A 
ATOM     54  C   UNL     1      -1.253  -9.701   5.138  1.00  0.00     0.049 A 
ATOM     55  H   UNL     1      -0.426  -7.870   4.487  1.00  0.00     0.167 HD
ATOM     56  C   UNL     1      -0.711 -10.080   2.751  1.00  0.00     0.074 A 
ATOM     57  C   UNL     1      -0.630 -10.901   1.562  1.00  0.00     0.031 C 
ATOM     58  C   UNL     1      -1.184 -10.512   3.947  1.00  0.00     0.037 A 
BRANCH  45  59
ATOM     59  C   UNL     1      -0.956  -6.214   8.390  1.00  0.00     0.064 A 
ATOM     60  C   UNL     1      -1.885  -5.235   8.772  1.00  0.00     0.173 A 
ATOM     61  C   UNL     1      -0.240  -6.866   9.407  1.00  0.00     0.173 A 
ATOM     62  F   UNL     1      -2.587  -4.570   7.843  1.00  0.00    -0.203 F 
ATOM     63  C   UNL     1      -2.054  -4.891  10.112  1.00  0.00     0.198 A 
ATOM     64  C   UNL     1      -0.442  -6.550  10.748  1.00  0.00     0.198 A 
ATOM     65  F   UNL     1       0.657  -7.816   9.102  1.00  0.00    -0.203 F 
ATOM     66  F   UNL     1      -2.893  -3.901  10.447  1.00  0.00    -0.200 F 
ATOM     67  C   UNL     1      -1.337  -5.553  11.098  1.00  0.00     0.200 A 
ATOM     68  F   UNL     1       0.239  -7.205  11.698  1.00  0.00    -0.200 F 
ATOM     69  F   UNL     1      -1.501  -5.221  12.386  1.00  0.00    -0.200 F 
ENDBRANCH  45  59
BRANCH  46  70
ATOM     70  C   UNL     1       0.984  -8.147  -1.194  1.00  0.00     0.064 A 
ATOM     71  C   UNL     1      -0.032  -8.464  -2.108  1.00  0.00     0.173 A 
ATOM     72  C   UNL     1       2.306  -8.177  -1.664  1.00  0.00     0.173 A 
ATOM     73  F   UNL     1      -1.311  -8.491  -1.703  1.00  0.00    -0.203 F 
ATOM     74  C   UNL     1       0.262  -8.805  -3.428  1.00  0.00     0.198 A 
ATOM     75  C   UNL     1       2.597  -8.484  -2.993  1.00  0.00     0.198 A 
ATOM     76  F   UNL     1       3.322  -7.902  -0.832  1.00  0.00    -0.203 F 
ATOM     77  F   UNL     1      -0.726  -9.153  -4.264  1.00  0.00    -0.200 F 
ATOM     78  C   UNL     1       1.575  -8.805  -3.872  1.00  0.00     0.200 A 
ATOM     79  F   UNL     1       3.867  -8.472  -3.418  1.00  0.00    -0.200 F 
ATOM     80  F   UNL     1       1.857  -9.123  -5.143  1.00  0.00    -0.200 F 
ENDBRANCH  46  70
BRANCH  58  81
ATOM     81  C   UNL     1      -1.715 -11.918   4.027  1.00  0.00     0.064 A 
ATOM     82  C   UNL     1      -0.877 -13.040   3.938  1.00  0.00     0.173 A 
ATOM     83  C   UNL     1      -3.085 -12.143   4.243  1.00  0.00     0.173 A 
ATOM     84  F   UNL     1       0.438 -12.886   3.721  1.00  0.00    -0.203 F 
ATOM     85  C   UNL     1      -1.394 -14.331   4.031  1.00  0.00     0.198 A 
ATOM     86  C   UNL     1      -3.592 -13.433   4.373  1.00  0.00     0.198 A 
ATOM     87  F   UNL     1      -3.933 -11.108   4.345  1.00  0.00    -0.203 F 
ATOM     88  F   UNL     1      -0.582 -15.387   3.887  1.00  0.00    -0.200 F 
ATOM     89  C   UNL     1      -2.748 -14.526   4.257  1.00  0.00     0.200 A 
ATOM     90  F   UNL     1      -4.898 -13.617   4.613  1.00  0.00    -0.200 F 
ATOM     91  F   UNL     1      -3.241 -15.768   4.357  1.00  0.00    -0.200 F 
ENDBRANCH  58  81
ENDBRANCH  32  33
ENDBRANCH  25  27
ENDBRANCH  24  25
ENDBRANCH  23  24
ENDBRANCH   1  23
TORSDOF 15
