REMARK SMILES N#C/C(=C\c1ccc(-c2ccc(C(=O)OCCOC(=O)c3ccc(-c4c5nc(c(-c6c(F)c(F)c(F)c(F)c6F)c6ccc([nH]6)c(-c6c(F)c(F)c(F)c(F)c6F)c6nc(c(-c7c(F)c(F)c(F)c(F)c7F)c7ccc4[nH]7)C=C6)C=C5)cc3)cc2)o1)[C@@H]1N=c2cc(Br)cnc2=N1
REMARK SMILES IDX 16 1 15 2 13 3 14 4 12 5 9 6 10 7 85 8 11 9 84 10 8 11 5 12
REMARK SMILES IDX 6 13 86 14 7 15 4 16 3 17 2 18 1 19 87 20 88 21 96 22 89 23
REMARK SMILES IDX 95 24 90 25 94 26 91 27 93 28 92 29 17 30 18 31 19 32 20 33
REMARK SMILES IDX 21 34 22 35 83 36 23 37 82 38 24 39 25 40 26 41 76 42 27 43
REMARK SMILES IDX 81 44 75 45 77 46 28 47 80 48 74 49 73 50 29 52 61 53 41 54
REMARK SMILES IDX 60 55 42 56 45 57 59 58 78 59 43 60 44 61 58 63 79 64 46 65
REMARK SMILES IDX 30 66 31 67 39 68 32 69 33 70 37 71 40 72 34 73 35 74 38 75
REMARK SMILES IDX 36 76 62 77 63 78 71 79 64 80 65 81 69 82 72 83 66 84 67 85
REMARK SMILES IDX 70 86 68 87 47 88 48 89 56 90 49 91 50 92 54 93 57 94 51 95
REMARK SMILES IDX 52 96 55 97 53 98
REMARK H PARENT 77 51 45 62
REMARK Flexibility Score: inf
ROOT
ATOM      1  C   UNL     1      16.793   0.467   6.462  1.00  0.00     0.275 C 
ENDROOT
BRANCH   1   2
ATOM      2  O   UNL     1      15.712   0.606   5.514  1.00  0.00    -0.458 OA
BRANCH   2   3
ATOM      3  C   UNL     1      14.676  -0.250   5.684  1.00  0.00     0.338 C 
ATOM      4  O   UNL     1      14.595  -1.130   6.527  1.00  0.00    -0.246 OA
BRANCH   3   5
ATOM      5  C   UNL     1      13.571   0.037   4.740  1.00  0.00     0.060 A 
ATOM      6  C   UNL     1      11.398   0.166   2.970  1.00  0.00     0.017 A 
ATOM      7  C   UNL     1      11.172   0.102   4.341  1.00  0.00     0.013 A 
ATOM      8  C   UNL     1      12.717   0.237   2.493  1.00  0.00     0.013 A 
ATOM      9  C   UNL     1      12.252   0.001   5.209  1.00  0.00     0.016 A 
ATOM     10  C   UNL     1      13.806   0.194   3.375  1.00  0.00     0.016 A 
BRANCH   6  11
ATOM     11  C   UNL     1      10.280  -0.023   2.070  1.00  0.00     0.134 A 
ATOM     12  C   UNL     1       8.204   0.361   1.384  1.00  0.00     0.128 A 
ATOM     13  C   UNL     1       8.721  -0.693   0.637  1.00  0.00     0.051 A 
ATOM     14  O   UNL     1       9.190   0.769   2.257  1.00  0.00    -0.457 OA
ATOM     15  C   UNL     1      10.039  -0.938   1.076  1.00  0.00     0.051 A 
BRANCH  12  16
ATOM     16  C   UNL     1       6.945   1.018   1.298  1.00  0.00     0.066 C 
ATOM     17  C   UNL     1       5.762   0.407   1.076  1.00  0.00     0.080 C 
BRANCH  17  18
ATOM     18  C   UNL     1       5.628  -1.015   1.025  1.00  0.00     0.099 C 
ATOM     19  N   UNL     1       5.515  -2.165   0.966  1.00  0.00    -0.193 NA
ENDBRANCH  17  18
BRANCH  17  20
ATOM     20  C   UNL     1       4.494   1.195   0.845  1.00  0.00     0.265 C 
ATOM     21  N   UNL     1       4.700   2.179  -0.264  1.00  0.00    -0.249 NA
ATOM     22  N   UNL     1       4.069   1.890   2.085  1.00  0.00    -0.232 NA
ATOM     23  C   UNL     1       4.360   3.287   0.292  1.00  0.00     0.106 A 
ATOM     24  C   UNL     1       3.966   3.117   1.708  1.00  0.00     0.175 A 
ATOM     25  C   UNL     1       4.349   4.640  -0.258  1.00  0.00     0.049 A 
ATOM     26  N   UNL     1       3.574   4.130   2.530  1.00  0.00    -0.234 NA
ATOM     27  C   UNL     1       3.974   5.628   0.566  1.00  0.00     0.038 A 
ATOM     28  C   UNL     1       3.583   5.302   1.976  1.00  0.00     0.129 A 
ATOM     29  Br  UNL     1       3.919   7.410   0.042  1.00  0.00    -0.049 Br
ENDBRANCH  17  20
ENDBRANCH  12  16
ENDBRANCH   6  11
ENDBRANCH   3   5
ENDBRANCH   2   3
ENDBRANCH   1   2
BRANCH   1  30
ATOM     30  C   UNL     1      16.725   1.537   7.555  1.00  0.00     0.275 C 
BRANCH  30  31
ATOM     31  O   UNL     1      15.607   1.313   8.436  1.00  0.00    -0.458 OA
BRANCH  31  32
ATOM     32  C   UNL     1      14.524   2.079   8.178  1.00  0.00     0.338 C 
ATOM     33  O   UNL     1      14.405   2.936   7.318  1.00  0.00    -0.246 OA
BRANCH  32  34
ATOM     34  C   UNL     1      13.394   1.679   9.025  1.00  0.00     0.060 A 
ATOM     35  C   UNL     1      12.653   0.582   8.617  1.00  0.00     0.016 A 
ATOM     36  C   UNL     1      12.922   2.489  10.052  1.00  0.00     0.016 A 
ATOM     37  C   UNL     1      11.363   0.391   9.087  1.00  0.00     0.010 A 
ATOM     38  C   UNL     1      11.701   2.174  10.667  1.00  0.00     0.010 A 
ATOM     39  C   UNL     1      10.888   1.140  10.168  1.00  0.00    -0.014 A 
BRANCH  39  40
ATOM     40  C   UNL     1       9.580   0.781  10.789  1.00  0.00     0.031 A 
ATOM     41  C   UNL     1       8.504   1.815  10.992  1.00  0.00     0.074 A 
ATOM     42  C   UNL     1       9.361  -0.494  11.180  1.00  0.00     0.049 A 
ATOM     43  N   UNL     1       7.387   1.724  11.670  1.00  0.00    -0.248 NA
ATOM     44  C   UNL     1       8.714   3.129  10.365  1.00  0.00     0.031 C 
ATOM     45  C   UNL     1      10.301  -1.607  11.010  1.00  0.00     0.029 A 
ATOM     46  N   UNL     1       8.283  -1.078  11.799  1.00  0.00    -0.354 N 
ATOM     47  C   UNL     1       6.789   2.976  11.595  1.00  0.00     0.074 A 
ATOM     48  C   UNL     1       7.672   3.816  10.813  1.00  0.00     0.031 C 
ATOM     49  C   UNL     1       9.746  -2.736  11.463  1.00  0.00     0.029 A 
ATOM     50  C   UNL     1       8.471  -2.411  12.080  1.00  0.00     0.049 A 
ATOM     51  H   UNL     1       7.456  -0.590  12.019  1.00  0.00     0.167 HD
ATOM     52  C   UNL     1       5.614   3.380  12.135  1.00  0.00     0.037 A 
ATOM     53  C   UNL     1       7.743  -3.270  12.817  1.00  0.00     0.037 A 
ATOM     54  C   UNL     1       4.729   2.520  12.882  1.00  0.00     0.049 A 
ATOM     55  C   UNL     1       6.485  -2.773  13.465  1.00  0.00     0.074 A 
ATOM     56  C   UNL     1       3.499   2.823  13.439  1.00  0.00     0.029 A 
ATOM     57  N   UNL     1       4.982   1.187  13.178  1.00  0.00    -0.354 N 
ATOM     58  N   UNL     1       5.935  -1.586  13.397  1.00  0.00    -0.248 NA
ATOM     59  C   UNL     1       5.755  -3.729  14.306  1.00  0.00     0.031 C 
ATOM     60  C   UNL     1       3.045   1.700  14.137  1.00  0.00     0.029 A 
ATOM     61  C   UNL     1       3.953   0.671  13.952  1.00  0.00     0.049 A 
ATOM     62  H   UNL     1       5.774   0.683  12.883  1.00  0.00     0.167 HD
ATOM     63  C   UNL     1       4.787  -1.655  14.172  1.00  0.00     0.074 A 
ATOM     64  C   UNL     1       4.705  -3.011  14.675  1.00  0.00     0.031 C 
ATOM     65  C   UNL     1       3.888  -0.680  14.450  1.00  0.00     0.037 A 
BRANCH  52  66
ATOM     66  C   UNL     1       5.228   4.827  11.989  1.00  0.00     0.064 A 
ATOM     67  C   UNL     1       4.858   5.386  10.757  1.00  0.00     0.173 A 
ATOM     68  C   UNL     1       5.174   5.656  13.123  1.00  0.00     0.173 A 
ATOM     69  F   UNL     1       4.897   4.645   9.639  1.00  0.00    -0.203 F 
ATOM     70  C   UNL     1       4.476   6.723  10.660  1.00  0.00     0.198 A 
ATOM     71  C   UNL     1       4.758   6.982  13.028  1.00  0.00     0.198 A 
ATOM     72  F   UNL     1       5.508   5.175  14.330  1.00  0.00    -0.203 F 
ATOM     73  F   UNL     1       4.174   7.248   9.464  1.00  0.00    -0.200 F 
ATOM     74  C   UNL     1       4.417   7.517  11.796  1.00  0.00     0.200 A 
ATOM     75  F   UNL     1       4.684   7.740  14.131  1.00  0.00    -0.200 F 
ATOM     76  F   UNL     1       4.037   8.799  11.703  1.00  0.00    -0.200 F 
ENDBRANCH  52  66
BRANCH  53  77
ATOM     77  C   UNL     1       8.231  -4.659  13.037  1.00  0.00     0.064 A 
ATOM     78  C   UNL     1       7.519  -5.763  12.552  1.00  0.00     0.173 A 
ATOM     79  C   UNL     1       9.421  -4.911  13.741  1.00  0.00     0.173 A 
ATOM     80  F   UNL     1       6.366  -5.579  11.892  1.00  0.00    -0.203 F 
ATOM     81  C   UNL     1       7.964  -7.064  12.781  1.00  0.00     0.198 A 
ATOM     82  C   UNL     1       9.887  -6.209  13.931  1.00  0.00     0.198 A 
ATOM     83  F   UNL     1      10.146  -3.892  14.227  1.00  0.00    -0.203 F 
ATOM     84  F   UNL     1       7.232  -8.103  12.357  1.00  0.00    -0.200 F 
ATOM     85  C   UNL     1       9.151  -7.286  13.462  1.00  0.00     0.200 A 
ATOM     86  F   UNL     1      11.046  -6.415  14.570  1.00  0.00    -0.200 F 
ATOM     87  F   UNL     1       9.581  -8.536  13.676  1.00  0.00    -0.200 F 
ENDBRANCH  53  77
BRANCH  65  88
ATOM     88  C   UNL     1       2.725  -1.056  15.321  1.00  0.00     0.064 A 
ATOM     89  C   UNL     1       2.889  -1.342  16.685  1.00  0.00     0.173 A 
ATOM     90  C   UNL     1       1.426  -1.103  14.792  1.00  0.00     0.173 A 
ATOM     91  F   UNL     1       4.112  -1.331  17.235  1.00  0.00    -0.203 F 
ATOM     92  C   UNL     1       1.800  -1.691  17.479  1.00  0.00     0.198 A 
ATOM     93  C   UNL     1       0.335  -1.413  15.598  1.00  0.00     0.198 A 
ATOM     94  F   UNL     1       1.213  -0.833  13.495  1.00  0.00    -0.203 F 
ATOM     95  F   UNL     1       1.989  -2.019  18.764  1.00  0.00    -0.200 F 
ATOM     96  C   UNL     1       0.523  -1.716  16.937  1.00  0.00     0.200 A 
ATOM     97  F   UNL     1      -0.900  -1.419  15.077  1.00  0.00    -0.200 F 
ATOM     98  F   UNL     1      -0.525  -2.041  17.706  1.00  0.00    -0.200 F 
ENDBRANCH  65  88
ENDBRANCH  39  40
ENDBRANCH  32  34
ENDBRANCH  31  32
ENDBRANCH  30  31
ENDBRANCH   1  30
TORSDOF 15
