REMARK SMILES O=C(OCCOC(=O)c1cc(-c2ccc(Cl)cc2)nc2c3c(C4CC4)cc(C(F)(F)F)nc3nn12)c1ccc(-c2c3nc(c(-c4c(F)c(F)c(F)c(F)c4F)c4ccc([nH]4)c(-c4c(F)c(F)c(F)c(F)c4F)c4nc(c(-c5c(F)c(F)c(F)c(F)c5F)c5ccc2[nH]5)C=C4)C=C3)cc1
REMARK SMILES IDX 4 1 3 2 2 3 1 4 36 5 37 6 98 7 38 8 97 9 39 10 40 11 41 12
REMARK SMILES IDX 91 13 42 14 96 15 90 16 92 17 43 18 95 19 89 20 88 21 44 23
REMARK SMILES IDX 76 24 56 25 75 26 57 27 60 28 74 29 93 30 58 31 59 32 73 34
REMARK SMILES IDX 94 35 61 36 45 37 46 38 54 39 47 40 48 41 52 42 55 43 49 44
REMARK SMILES IDX 50 45 53 46 51 47 77 48 78 49 86 50 79 51 80 52 84 53 87 54
REMARK SMILES IDX 81 55 82 56 85 57 83 58 62 59 63 60 71 61 64 62 65 63 69 64
REMARK SMILES IDX 72 65 66 66 67 67 70 68 68 69 5 70 6 71 7 72 8 73 9 74 10 75
REMARK SMILES IDX 35 76 11 77 20 78 34 79 19 80 21 81 33 82 22 83 32 84 26 85
REMARK SMILES IDX 27 86 12 87 13 88 18 89 14 90 17 91 15 92 16 93 23 94 24 95
REMARK SMILES IDX 25 96 28 97 29 98 30 99 31 100
REMARK H PARENT 92 22 60 33
REMARK Flexibility Score: inf
ROOT
ATOM      1  C   UNL     1       3.985   1.645   0.127  1.00  0.00     0.275 C 
ENDROOT
BRANCH   1   2
ATOM      2  O   UNL     1       2.919   0.899  -0.490  1.00  0.00    -0.458 OA
BRANCH   2   3
ATOM      3  C   UNL     1       2.832  -0.430  -0.717  1.00  0.00     0.338 C 
ATOM      4  O   UNL     1       1.762  -0.898  -1.106  1.00  0.00    -0.246 OA
BRANCH   3   5
ATOM      5  C   UNL     1       3.956  -1.391  -0.515  1.00  0.00     0.060 A 
ATOM      6  C   UNL     1       5.031  -1.211   0.358  1.00  0.00     0.016 A 
ATOM      7  C   UNL     1       3.857  -2.617  -1.198  1.00  0.00     0.016 A 
ATOM      8  C   UNL     1       5.986  -2.194   0.536  1.00  0.00     0.010 A 
ATOM      9  C   UNL     1       4.806  -3.619  -1.017  1.00  0.00     0.010 A 
ATOM     10  C   UNL     1       5.873  -3.396  -0.148  1.00  0.00    -0.014 A 
BRANCH  10  11
ATOM     11  C   UNL     1       6.962  -4.341   0.089  1.00  0.00     0.031 A 
ATOM     12  C   UNL     1       6.531  -5.750   0.326  1.00  0.00     0.074 A 
ATOM     13  C   UNL     1       8.074  -4.136  -0.640  1.00  0.00     0.049 A 
ATOM     14  N   UNL     1       6.197  -6.571  -0.623  1.00  0.00    -0.248 NA
ATOM     15  C   UNL     1       6.200  -6.230   1.669  1.00  0.00     0.031 C 
ATOM     16  C   UNL     1       8.131  -3.640  -2.016  1.00  0.00     0.029 A 
ATOM     17  N   UNL     1       9.387  -4.279  -0.267  1.00  0.00    -0.354 N 
ATOM     18  C   UNL     1       5.585  -7.656  -0.025  1.00  0.00     0.074 A 
ATOM     19  C   UNL     1       5.608  -7.404   1.398  1.00  0.00     0.031 C 
ATOM     20  C   UNL     1       9.407  -3.677  -2.437  1.00  0.00     0.029 A 
ATOM     21  C   UNL     1      10.265  -4.125  -1.341  1.00  0.00     0.049 A 
ATOM     22  H   UNL     1       9.677  -4.469   0.654  1.00  0.00     0.167 HD
ATOM     23  C   UNL     1       5.101  -8.701  -0.743  1.00  0.00     0.037 A 
ATOM     24  C   UNL     1      11.336  -4.954  -1.502  1.00  0.00     0.037 A 
ATOM     25  C   UNL     1       5.312  -8.622  -2.156  1.00  0.00     0.049 A 
ATOM     26  C   UNL     1      10.649  -6.225  -1.974  1.00  0.00     0.074 A 
ATOM     27  C   UNL     1       4.583  -8.277  -3.271  1.00  0.00     0.029 A 
ATOM     28  N   UNL     1       6.581  -8.882  -2.618  1.00  0.00    -0.354 N 
ATOM     29  N   UNL     1      10.183  -6.438  -3.180  1.00  0.00    -0.248 NA
ATOM     30  C   UNL     1      10.116  -7.137  -0.958  1.00  0.00     0.031 C 
ATOM     31  C   UNL     1       5.552  -7.933  -4.265  1.00  0.00     0.029 A 
ATOM     32  C   UNL     1       6.814  -8.046  -3.679  1.00  0.00     0.049 A 
ATOM     33  H   UNL     1       7.209  -9.547  -2.253  1.00  0.00     0.167 HD
ATOM     34  C   UNL     1       9.097  -7.307  -3.015  1.00  0.00     0.074 A 
ATOM     35  C   UNL     1       9.142  -7.736  -1.634  1.00  0.00     0.031 C 
ATOM     36  C   UNL     1       8.113  -7.469  -3.950  1.00  0.00     0.037 A 
BRANCH  23  37
ATOM     37  C   UNL     1       4.579  -9.948  -0.161  1.00  0.00     0.064 A 
ATOM     38  C   UNL     1       5.429 -11.063  -0.148  1.00  0.00     0.173 A 
ATOM     39  C   UNL     1       3.236 -10.131   0.177  1.00  0.00     0.173 A 
ATOM     40  F   UNL     1       6.726 -10.918  -0.470  1.00  0.00    -0.203 F 
ATOM     41  C   UNL     1       4.945 -12.331   0.141  1.00  0.00     0.198 A 
ATOM     42  C   UNL     1       2.754 -11.405   0.479  1.00  0.00     0.198 A 
ATOM     43  F   UNL     1       2.387  -9.093   0.170  1.00  0.00    -0.203 F 
ATOM     44  F   UNL     1       5.771 -13.385   0.092  1.00  0.00    -0.200 F 
ATOM     45  C   UNL     1       3.604 -12.504   0.443  1.00  0.00     0.200 A 
ATOM     46  F   UNL     1       1.458 -11.578   0.773  1.00  0.00    -0.200 F 
ATOM     47  F   UNL     1       3.129 -13.733   0.688  1.00  0.00    -0.200 F 
ENDBRANCH  23  37
BRANCH  24  48
ATOM     48  C   UNL     1      12.318  -4.845  -0.376  1.00  0.00     0.064 A 
ATOM     49  C   UNL     1      12.758  -3.551  -0.009  1.00  0.00     0.173 A 
ATOM     50  C   UNL     1      12.793  -5.900   0.411  1.00  0.00     0.173 A 
ATOM     51  F   UNL     1      12.440  -2.489  -0.768  1.00  0.00    -0.203 F 
ATOM     52  C   UNL     1      13.484  -3.317   1.157  1.00  0.00     0.198 A 
ATOM     53  C   UNL     1      13.504  -5.664   1.592  1.00  0.00     0.198 A 
ATOM     54  F   UNL     1      12.561  -7.175   0.074  1.00  0.00    -0.203 F 
ATOM     55  F   UNL     1      13.809  -2.063   1.502  1.00  0.00    -0.200 F 
ATOM     56  C   UNL     1      13.825  -4.373   1.978  1.00  0.00     0.200 A 
ATOM     57  F   UNL     1      13.842  -6.696   2.378  1.00  0.00    -0.200 F 
ATOM     58  F   UNL     1      14.455  -4.150   3.139  1.00  0.00    -0.200 F 
ENDBRANCH  24  48
BRANCH  36  59
ATOM     59  C   UNL     1       8.351  -6.786  -5.253  1.00  0.00     0.064 A 
ATOM     60  C   UNL     1       9.347  -7.251  -6.120  1.00  0.00     0.173 A 
ATOM     61  C   UNL     1       7.563  -5.702  -5.672  1.00  0.00     0.173 A 
ATOM     62  F   UNL     1      10.117  -8.293  -5.770  1.00  0.00    -0.203 F 
ATOM     63  C   UNL     1       9.536  -6.665  -7.367  1.00  0.00     0.198 A 
ATOM     64  C   UNL     1       7.733  -5.141  -6.933  1.00  0.00     0.198 A 
ATOM     65  F   UNL     1       6.608  -5.196  -4.875  1.00  0.00    -0.203 F 
ATOM     66  F   UNL     1      10.494  -7.126  -8.183  1.00  0.00    -0.200 F 
ATOM     67  C   UNL     1       8.719  -5.622  -7.779  1.00  0.00     0.200 A 
ATOM     68  F   UNL     1       6.929  -4.147  -7.338  1.00  0.00    -0.200 F 
ATOM     69  F   UNL     1       8.875  -5.088  -8.999  1.00  0.00    -0.200 F 
ENDBRANCH  36  59
ENDBRANCH  10  11
ENDBRANCH   3   5
ENDBRANCH   2   3
ENDBRANCH   1   2
BRANCH   1  70
ATOM     70  C   UNL     1       3.787   1.745   1.650  1.00  0.00     0.275 C 
BRANCH  70  71
ATOM     71  O   UNL     1       3.536   0.458   2.259  1.00  0.00    -0.457 OA
BRANCH  71  72
ATOM     72  C   UNL     1       2.231   0.128   2.464  1.00  0.00     0.357 C 
ATOM     73  O   UNL     1       1.282   0.856   2.285  1.00  0.00    -0.244 OA
BRANCH  72  74
ATOM     74  C   UNL     1       2.099  -1.316   2.763  1.00  0.00     0.154 A 
ATOM     75  C   UNL     1       1.197  -1.976   2.014  1.00  0.00     0.065 A 
ATOM     76  N   UNL     1       2.808  -1.982   3.764  1.00  0.00    -0.205 N 
ATOM     77  C   UNL     1       1.050  -3.425   2.316  1.00  0.00     0.075 A 
ATOM     78  C   UNL     1       2.541  -3.343   4.030  1.00  0.00     0.166 A 
ATOM     79  N   UNL     1       3.750  -1.483   4.607  1.00  0.00    -0.145 NA
ATOM     80  N   UNL     1       1.669  -4.066   3.261  1.00  0.00    -0.228 NA
ATOM     81  C   UNL     1       3.266  -3.655   5.160  1.00  0.00     0.069 A 
ATOM     82  C   UNL     1       3.991  -2.468   5.467  1.00  0.00     0.184 A 
ATOM     83  C   UNL     1       3.277  -4.865   5.875  1.00  0.00    -0.028 A 
ATOM     84  N   UNL     1       4.822  -2.386   6.533  1.00  0.00    -0.222 NA
ATOM     85  C   UNL     1       4.125  -4.725   6.994  1.00  0.00     0.038 A 
ATOM     86  C   UNL     1       4.848  -3.532   7.290  1.00  0.00     0.147 A 
BRANCH  77  87
ATOM     87  C   UNL     1       0.097  -4.151   1.459  1.00  0.00     0.000 A 
ATOM     88  C   UNL     1      -1.191  -4.403   1.938  1.00  0.00     0.012 A 
ATOM     89  C   UNL     1       0.496  -4.597   0.196  1.00  0.00     0.012 A 
ATOM     90  C   UNL     1      -2.099  -5.091   1.132  1.00  0.00     0.021 A 
ATOM     91  C   UNL     1      -0.415  -5.290  -0.604  1.00  0.00     0.021 A 
ATOM     92  C   UNL     1      -1.709  -5.530  -0.135  1.00  0.00     0.041 A 
ATOM     93  Cl  UNL     1      -2.832  -6.377  -1.125  1.00  0.00    -0.084 Cl
ENDBRANCH  77  87
BRANCH  83  94
ATOM     94  C   UNL     1       2.472  -6.072   5.493  1.00  0.00     0.020 C 
ATOM     95  C   UNL     1       2.621  -7.402   6.198  1.00  0.00     0.009 C 
ATOM     96  C   UNL     1       1.396  -6.569   6.431  1.00  0.00     0.009 C 
ENDBRANCH  83  94
BRANCH  86  97
ATOM     97  C   UNL     1       5.731  -3.520   8.537  1.00  0.00     0.433 C 
ATOM     98  F   UNL     1       7.061  -3.475   8.238  1.00  0.00    -0.165 F 
ATOM     99  F   UNL     1       5.488  -2.462   9.360  1.00  0.00    -0.165 F 
ATOM    100  F   UNL     1       5.575  -4.630   9.320  1.00  0.00    -0.165 F 
ENDBRANCH  86  97
ENDBRANCH  72  74
ENDBRANCH  71  72
ENDBRANCH  70  71
ENDBRANCH   1  70
TORSDOF 14
