REMARK SMILES C[C@@H]1[C@@H](C(=O)OCCOC(=O)c2ccc(-c3c4nc(c(-c5c(F)c(F)c(F)c(F)c5F)c5ccc([nH]5)c(-c5c(F)c(F)c(F)c(F)c5F)c5nc(c(-c6c(F)c(F)c(F)c(F)c6F)c6ccc3[nH]6)C=C5)C=C4)cc2)CCN1C(=O)Nc1nccs1
REMARK SMILES IDX 7 1 6 2 4 3 5 4 3 5 1 6 2 7 77 8 75 9 76 10 78 11 79 12
REMARK SMILES IDX 80 13 81 15 82 16 85 17 83 18 84 19 8 20 9 21 10 22 11 23
REMARK SMILES IDX 12 24 13 25 74 26 14 27 73 28 15 29 16 30 17 31 67 32 18 33
REMARK SMILES IDX 72 34 66 35 68 36 19 37 71 38 65 39 64 40 20 42 52 43 32 44
REMARK SMILES IDX 51 45 33 46 36 47 50 48 69 49 34 50 35 51 49 53 70 54 37 55
REMARK SMILES IDX 21 56 22 57 30 58 23 59 24 60 28 61 31 62 25 63 26 64 29 65
REMARK SMILES IDX 27 66 53 67 54 68 62 69 55 70 56 71 60 72 63 73 57 74 58 75
REMARK SMILES IDX 61 76 59 77 38 78 39 79 47 80 40 81 41 82 45 83 48 84 42 85
REMARK SMILES IDX 43 86 46 87 44 88
REMARK H PARENT 80 14 68 41 36 52
REMARK Flexibility Score: inf
ROOT
ATOM      1  C   UNL     1      -2.133   2.039  -3.526  1.00  0.00     0.274 C 
ENDROOT
BRANCH   1   2
ATOM      2  O   UNL     1      -1.745   1.960  -2.140  1.00  0.00    -0.462 OA
BRANCH   2   3
ATOM      3  C   UNL     1      -0.910   0.935  -1.801  1.00  0.00     0.311 C 
ATOM      4  O   UNL     1      -0.473   0.108  -2.588  1.00  0.00    -0.252 OA
BRANCH   3   5
ATOM      5  C   UNL     1      -0.557   1.015  -0.324  1.00  0.00     0.123 C 
ATOM      6  C   UNL     1       1.225   0.371   1.334  1.00  0.00     0.032 C 
ATOM      7  C   UNL     1       0.455  -0.072   0.081  1.00  0.00     0.098 C 
ATOM      8  N   UNL     1      -0.380  -1.241   0.356  1.00  0.00    -0.321 N 
ATOM      9  C   UNL     1      -1.759   0.700   0.565  1.00  0.00     0.039 C 
ATOM     10  C   UNL     1      -1.742  -0.821   0.667  1.00  0.00     0.122 C 
BRANCH   8  11
ATOM     11  C   UNL     1      -0.175  -2.555   0.054  1.00  0.00     0.323 C 
ATOM     12  O   UNL     1      -1.110  -3.364   0.149  1.00  0.00    -0.248 OA
ATOM     13  N   UNL     1       0.960  -3.061  -0.459  1.00  0.00    -0.283 N 
ATOM     14  H   UNL     1       0.815  -3.885  -0.979  1.00  0.00     0.174 HD
BRANCH  13  15
ATOM     15  C   UNL     1       2.265  -2.682  -0.414  1.00  0.00     0.190 A 
ATOM     16  N   UNL     1       2.866  -1.713   0.224  1.00  0.00    -0.228 NA
ATOM     17  S   UNL     1       3.289  -3.729  -1.307  1.00  0.00    -0.105 S 
ATOM     18  C   UNL     1       4.230  -1.794   0.021  1.00  0.00     0.125 A 
ATOM     19  C   UNL     1       4.647  -2.804  -0.818  1.00  0.00     0.088 A 
ENDBRANCH  13  15
ENDBRANCH   8  11
ENDBRANCH   3   5
ENDBRANCH   2   3
ENDBRANCH   1   2
BRANCH   1  20
ATOM     20  C   UNL     1      -1.289   3.056  -4.303  1.00  0.00     0.275 C 
BRANCH  20  21
ATOM     21  O   UNL     1       0.044   2.570  -4.556  1.00  0.00    -0.458 OA
BRANCH  21  22
ATOM     22  C   UNL     1       0.964   2.902  -3.622  1.00  0.00     0.338 C 
ATOM     23  O   UNL     1       0.792   3.609  -2.637  1.00  0.00    -0.246 OA
BRANCH  22  24
ATOM     24  C   UNL     1       2.204   2.138  -3.838  1.00  0.00     0.060 A 
ATOM     25  C   UNL     1       2.674   1.391  -2.758  1.00  0.00     0.016 A 
ATOM     26  C   UNL     1       2.926   2.175  -5.035  1.00  0.00     0.016 A 
ATOM     27  C   UNL     1       3.848   0.658  -2.871  1.00  0.00     0.010 A 
ATOM     28  C   UNL     1       4.127   1.454  -5.139  1.00  0.00     0.010 A 
ATOM     29  C   UNL     1       4.591   0.690  -4.055  1.00  0.00    -0.014 A 
BRANCH  29  30
ATOM     30  C   UNL     1       5.885  -0.034  -4.086  1.00  0.00     0.031 A 
ATOM     31  C   UNL     1       7.147   0.688  -3.716  1.00  0.00     0.074 A 
ATOM     32  C   UNL     1       5.909  -1.362  -4.303  1.00  0.00     0.049 A 
ATOM     33  N   UNL     1       8.370   0.229  -3.633  1.00  0.00    -0.248 NA
ATOM     34  C   UNL     1       7.011   2.112  -3.377  1.00  0.00     0.031 C 
ATOM     35  C   UNL     1       4.735  -2.190  -4.569  1.00  0.00     0.029 A 
ATOM     36  N   UNL     1       6.953  -2.253  -4.288  1.00  0.00    -0.354 N 
ATOM     37  C   UNL     1       9.153   1.311  -3.257  1.00  0.00     0.074 A 
ATOM     38  C   UNL     1       8.266   2.446  -3.111  1.00  0.00     0.031 C 
ATOM     39  C   UNL     1       5.117  -3.476  -4.644  1.00  0.00     0.029 A 
ATOM     40  C   UNL     1       6.566  -3.558  -4.476  1.00  0.00     0.049 A 
ATOM     41  H   UNL     1       7.891  -1.983  -4.155  1.00  0.00     0.167 HD
ATOM     42  C   UNL     1      10.494   1.357  -3.072  1.00  0.00     0.037 A 
ATOM     43  C   UNL     1       7.302  -4.687  -4.508  1.00  0.00     0.037 A 
ATOM     44  C   UNL     1      11.378   0.232  -3.229  1.00  0.00     0.049 A 
ATOM     45  C   UNL     1       8.799  -4.593  -4.361  1.00  0.00     0.074 A 
ATOM     46  C   UNL     1      12.759   0.199  -3.142  1.00  0.00     0.029 A 
ATOM     47  N   UNL     1      10.965  -1.062  -3.505  1.00  0.00    -0.354 N 
ATOM     48  N   UNL     1       9.542  -3.554  -4.069  1.00  0.00    -0.248 NA
ATOM     49  C   UNL     1       9.563  -5.832  -4.576  1.00  0.00     0.031 C 
ATOM     50  C   UNL     1      13.184  -1.108  -3.402  1.00  0.00     0.029 A 
ATOM     51  C   UNL     1      12.065  -1.899  -3.606  1.00  0.00     0.049 A 
ATOM     52  H   UNL     1      10.028  -1.346  -3.612  1.00  0.00     0.167 HD
ATOM     53  C   UNL     1      10.854  -4.010  -4.067  1.00  0.00     0.074 A 
ATOM     54  C   UNL     1      10.804  -5.431  -4.342  1.00  0.00     0.031 C 
ATOM     55  C   UNL     1      12.000  -3.312  -3.876  1.00  0.00     0.037 A 
BRANCH  42  56
ATOM     56  C   UNL     1      11.096   2.690  -2.748  1.00  0.00     0.064 A 
ATOM     57  C   UNL     1      10.990   3.260  -1.472  1.00  0.00     0.173 A 
ATOM     58  C   UNL     1      11.811   3.394  -3.729  1.00  0.00     0.173 A 
ATOM     59  F   UNL     1      10.300   2.634  -0.508  1.00  0.00    -0.203 F 
ATOM     60  C   UNL     1      11.564   4.499  -1.195  1.00  0.00     0.198 A 
ATOM     61  C   UNL     1      12.402   4.620  -3.442  1.00  0.00     0.198 A 
ATOM     62  F   UNL     1      11.940   2.888  -4.964  1.00  0.00    -0.203 F 
ATOM     63  F   UNL     1      11.419   5.046   0.020  1.00  0.00    -0.200 F 
ATOM     64  C   UNL     1      12.274   5.174  -2.177  1.00  0.00     0.200 A 
ATOM     65  F   UNL     1      13.094   5.267  -4.390  1.00  0.00    -0.200 F 
ATOM     66  F   UNL     1      12.828   6.364  -1.907  1.00  0.00    -0.200 F 
ENDBRANCH  42  56
BRANCH  43  67
ATOM     67  C   UNL     1       6.651  -6.012  -4.694  1.00  0.00     0.064 A 
ATOM     68  C   UNL     1       6.701  -6.981  -3.681  1.00  0.00     0.173 A 
ATOM     69  C   UNL     1       6.014  -6.358  -5.894  1.00  0.00     0.173 A 
ATOM     70  F   UNL     1       7.325  -6.708  -2.525  1.00  0.00    -0.203 F 
ATOM     71  C   UNL     1       6.158  -8.250  -3.870  1.00  0.00     0.198 A 
ATOM     72  C   UNL     1       5.443  -7.617  -6.070  1.00  0.00     0.198 A 
ATOM     73  F   UNL     1       5.948  -5.473  -6.900  1.00  0.00    -0.203 F 
ATOM     74  F   UNL     1       6.272  -9.175  -2.907  1.00  0.00    -0.200 F 
ATOM     75  C   UNL     1       5.525  -8.565  -5.062  1.00  0.00     0.200 A 
ATOM     76  F   UNL     1       4.825  -7.914  -7.221  1.00  0.00    -0.200 F 
ATOM     77  F   UNL     1       5.007  -9.787  -5.245  1.00  0.00    -0.200 F 
ENDBRANCH  43  67
BRANCH  55  78
ATOM     78  C   UNL     1      13.293  -4.070  -3.958  1.00  0.00     0.064 A 
ATOM     79  C   UNL     1      13.794  -4.527  -5.186  1.00  0.00     0.173 A 
ATOM     80  C   UNL     1      14.063  -4.299  -2.808  1.00  0.00     0.173 A 
ATOM     81  F   UNL     1      13.088  -4.345  -6.313  1.00  0.00    -0.203 F 
ATOM     82  C   UNL     1      15.008  -5.206  -5.257  1.00  0.00     0.198 A 
ATOM     83  C   UNL     1      15.289  -4.954  -2.886  1.00  0.00     0.198 A 
ATOM     84  F   UNL     1      13.632  -3.875  -1.611  1.00  0.00    -0.203 F 
ATOM     85  F   UNL     1      15.446  -5.670  -6.435  1.00  0.00    -0.200 F 
ATOM     86  C   UNL     1      15.758  -5.412  -4.109  1.00  0.00     0.200 A 
ATOM     87  F   UNL     1      16.019  -5.142  -1.778  1.00  0.00    -0.200 F 
ATOM     88  F   UNL     1      16.930  -6.058  -4.180  1.00  0.00    -0.200 F 
ENDBRANCH  55  78
ENDBRANCH  29  30
ENDBRANCH  22  24
ENDBRANCH  21  22
ENDBRANCH  20  21
ENDBRANCH   1  20
TORSDOF 13
