REMARK SMILES CC(C)(Br)[C@H](Br)C(=O)OCCOC(=O)c1ccc(-c2c3nc(c(-c4c(F)c(F)c(F)c(F)c4F)c4ccc([nH]4)c(-c4c(F)c(F)c(F)c(F)c4F)c4nc(c(-c5c(F)c(F)c(F)c(F)c5F)c5ccc2[nH]5)C=C4)C=C3)cc1
REMARK SMILES IDX 11 1 10 2 9 3 7 4 8 5 5 6 6 7 2 8 1 9 3 10 4 11 12 12 13 13
REMARK SMILES IDX 14 14 15 15 16 16 77 17 17 18 76 19 18 20 19 21 20 22 70 23
REMARK SMILES IDX 21 24 75 25 69 26 71 27 22 28 74 29 68 30 67 31 23 33 55 34
REMARK SMILES IDX 35 35 54 36 36 37 39 38 53 39 72 40 37 41 38 42 52 44 73 45
REMARK SMILES IDX 40 46 24 47 25 48 33 49 26 50 27 51 31 52 34 53 28 54 29 55
REMARK SMILES IDX 32 56 30 57 56 58 57 59 65 60 58 61 59 62 63 63 66 64 60 65
REMARK SMILES IDX 61 66 64 67 62 68 41 69 42 70 50 71 43 72 44 73 48 74 51 75
REMARK SMILES IDX 45 76 46 77 49 78 47 79
REMARK H PARENT 71 32 39 43
REMARK Flexibility Score: inf
ROOT
ATOM      1  C   UNL     1       5.119  -1.659   1.062  1.00  0.00     0.275 C 
ENDROOT
BRANCH   1   2
ATOM      2  C   UNL     1       4.627  -1.714  -0.391  1.00  0.00     0.274 C 
BRANCH   2   3
ATOM      3  O   UNL     1       3.223  -1.405  -0.516  1.00  0.00    -0.461 OA
BRANCH   3   4
ATOM      4  C   UNL     1       2.360  -2.452  -0.443  1.00  0.00     0.321 C 
ATOM      5  O   UNL     1       2.725  -3.620  -0.343  1.00  0.00    -0.251 OA
BRANCH   4   6
ATOM      6  C   UNL     1       0.886  -2.068  -0.512  1.00  0.00     0.183 C 
ATOM      7  Br  UNL     1       0.632  -0.263   0.238  1.00  0.00    -0.075 Br
BRANCH   6   8
ATOM      8  C   UNL     1       0.233  -2.213  -1.896  1.00  0.00     0.043 C 
ATOM      9  C   UNL     1       0.943  -1.440  -3.009  1.00  0.00     0.025 C 
ATOM     10  C   UNL     1      -1.270  -1.881  -1.878  1.00  0.00     0.025 C 
ATOM     11  Br  UNL     1       0.295  -4.146  -2.425  1.00  0.00    -0.084 Br
ENDBRANCH   6   8
ENDBRANCH   4   6
ENDBRANCH   3   4
ENDBRANCH   2   3
ENDBRANCH   1   2
BRANCH   1  12
ATOM     12  O   UNL     1       4.678  -2.794   1.833  1.00  0.00    -0.458 OA
BRANCH  12  13
ATOM     13  C   UNL     1       3.520  -2.607   2.506  1.00  0.00     0.338 C 
ATOM     14  O   UNL     1       2.858  -1.583   2.556  1.00  0.00    -0.246 OA
BRANCH  13  15
ATOM     15  C   UNL     1       3.041  -3.869   3.095  1.00  0.00     0.060 A 
ATOM     16  C   UNL     1       1.729  -4.254   2.801  1.00  0.00     0.016 A 
ATOM     17  C   UNL     1       3.803  -4.595   4.011  1.00  0.00     0.016 A 
ATOM     18  C   UNL     1       1.157  -5.344   3.446  1.00  0.00     0.010 A 
ATOM     19  C   UNL     1       3.225  -5.690   4.666  1.00  0.00     0.010 A 
ATOM     20  C   UNL     1       1.889  -6.048   4.409  1.00  0.00    -0.014 A 
BRANCH  20  21
ATOM     21  C   UNL     1       1.190  -7.068   5.225  1.00  0.00     0.031 A 
ATOM     22  C   UNL     1       0.722  -6.708   6.607  1.00  0.00     0.074 A 
ATOM     23  C   UNL     1       0.902  -8.274   4.705  1.00  0.00     0.049 A 
ATOM     24  N   UNL     1       0.077  -7.437   7.482  1.00  0.00    -0.248 NA
ATOM     25  C   UNL     1       1.016  -5.340   7.062  1.00  0.00     0.031 C 
ATOM     26  C   UNL     1       1.254  -8.716   3.357  1.00  0.00     0.029 A 
ATOM     27  N   UNL     1       0.231  -9.341   5.247  1.00  0.00    -0.354 N 
ATOM     28  C   UNL     1      -0.093  -6.625   8.596  1.00  0.00     0.074 A 
ATOM     29  C   UNL     1       0.527  -5.353   8.294  1.00  0.00     0.031 C 
ATOM     30  C   UNL     1       0.786  -9.962   3.172  1.00  0.00     0.029 A 
ATOM     31  C   UNL     1       0.128 -10.413   4.396  1.00  0.00     0.049 A 
ATOM     32  H   UNL     1      -0.140  -9.338   6.159  1.00  0.00     0.167 HD
ATOM     33  C   UNL     1      -0.715  -6.915   9.764  1.00  0.00     0.037 A 
ATOM     34  C   UNL     1      -0.431 -11.622   4.590  1.00  0.00     0.037 A 
ATOM     35  C   UNL     1      -1.352  -8.172  10.055  1.00  0.00     0.049 A 
ATOM     36  C   UNL     1      -1.091 -11.928   5.908  1.00  0.00     0.074 A 
ATOM     37  C   UNL     1      -2.009  -8.562  11.209  1.00  0.00     0.029 A 
ATOM     38  N   UNL     1      -1.415  -9.244   9.177  1.00  0.00    -0.354 N 
ATOM     39  N   UNL     1      -1.243 -11.157   6.957  1.00  0.00    -0.248 NA
ATOM     40  C   UNL     1      -1.661 -13.273   6.066  1.00  0.00     0.031 C 
ATOM     41  C   UNL     1      -2.444  -9.881  11.040  1.00  0.00     0.029 A 
ATOM     42  C   UNL     1      -2.091 -10.299   9.767  1.00  0.00     0.049 A 
ATOM     43  H   UNL     1      -1.035  -9.253   8.269  1.00  0.00     0.167 HD
ATOM     44  C   UNL     1      -1.949 -11.909   7.885  1.00  0.00     0.074 A 
ATOM     45  C   UNL     1      -2.204 -13.197   7.273  1.00  0.00     0.031 C 
ATOM     46  C   UNL     1      -2.351 -11.565   9.133  1.00  0.00     0.037 A 
BRANCH  33  47
ATOM     47  C   UNL     1      -0.705  -5.859  10.828  1.00  0.00     0.064 A 
ATOM     48  C   UNL     1      -1.513  -4.716  10.741  1.00  0.00     0.173 A 
ATOM     49  C   UNL     1       0.113  -6.003  11.958  1.00  0.00     0.173 A 
ATOM     50  F   UNL     1      -2.300  -4.525   9.671  1.00  0.00    -0.203 F 
ATOM     51  C   UNL     1      -1.485  -3.744  11.739  1.00  0.00     0.198 A 
ATOM     52  C   UNL     1       0.120  -5.042  12.964  1.00  0.00     0.198 A 
ATOM     53  F   UNL     1       0.903  -7.080  12.088  1.00  0.00    -0.203 F 
ATOM     54  F   UNL     1      -2.233  -2.639  11.616  1.00  0.00    -0.200 F 
ATOM     55  C   UNL     1      -0.673  -3.910  12.851  1.00  0.00     0.200 A 
ATOM     56  F   UNL     1       0.900  -5.207  14.042  1.00  0.00    -0.200 F 
ATOM     57  F   UNL     1      -0.649  -2.974  13.810  1.00  0.00    -0.200 F 
ENDBRANCH  33  47
BRANCH  34  58
ATOM     58  C   UNL     1      -0.399 -12.635   3.505  1.00  0.00     0.064 A 
ATOM     59  C   UNL     1      -1.568 -13.001   2.825  1.00  0.00     0.173 A 
ATOM     60  C   UNL     1       0.798 -13.263   3.134  1.00  0.00     0.173 A 
ATOM     61  F   UNL     1      -2.741 -12.446   3.164  1.00  0.00    -0.203 F 
ATOM     62  C   UNL     1      -1.544 -13.970   1.824  1.00  0.00     0.198 A 
ATOM     63  C   UNL     1       0.826 -14.214   2.116  1.00  0.00     0.198 A 
ATOM     64  F   UNL     1       1.943 -12.949   3.758  1.00  0.00    -0.203 F 
ATOM     65  F   UNL     1      -2.683 -14.333   1.218  1.00  0.00    -0.200 F 
ATOM     66  C   UNL     1      -0.346 -14.571   1.466  1.00  0.00     0.200 A 
ATOM     67  F   UNL     1       1.986 -14.787   1.769  1.00  0.00    -0.200 F 
ATOM     68  F   UNL     1      -0.323 -15.502   0.503  1.00  0.00    -0.200 F 
ENDBRANCH  34  58
BRANCH  46  69
ATOM     69  C   UNL     1      -3.150 -12.578   9.899  1.00  0.00     0.064 A 
ATOM     70  C   UNL     1      -2.552 -13.715  10.460  1.00  0.00     0.173 A 
ATOM     71  C   UNL     1      -4.526 -12.390  10.097  1.00  0.00     0.173 A 
ATOM     72  F   UNL     1      -1.242 -13.945  10.284  1.00  0.00    -0.203 F 
ATOM     73  C   UNL     1      -3.309 -14.642  11.171  1.00  0.00     0.198 A 
ATOM     74  C   UNL     1      -5.275 -13.306  10.830  1.00  0.00     0.198 A 
ATOM     75  F   UNL     1      -5.142 -11.314   9.585  1.00  0.00    -0.203 F 
ATOM     76  F   UNL     1      -2.726 -15.745  11.662  1.00  0.00    -0.200 F 
ATOM     77  C   UNL     1      -4.667 -14.435  11.360  1.00  0.00     0.200 A 
ATOM     78  F   UNL     1      -6.585 -13.100  11.019  1.00  0.00    -0.200 F 
ATOM     79  F   UNL     1      -5.394 -15.328  12.046  1.00  0.00    -0.200 F 
ENDBRANCH  46  69
ENDBRANCH  20  21
ENDBRANCH  13  15
ENDBRANCH  12  13
ENDBRANCH   1  12
TORSDOF 12
