REMARK SMILES O=C(OCCOC(=O)c1c(S(=O)(=O)N2CCCCC2)sc2c1CC[NH2+]C2)c1ccc(-c2c3nc(c(-c4c(F)c(F)c(F)c(F)c4F)c4ccc([nH]4)c(-c4c(F)c(F)c(F)c(F)c4F)c4nc(c(-c5c(F)c(F)c(F)c(F)c5F)c5ccc2[nH]5)C=C4)C=C3)cc1
REMARK SMILES IDX 4 1 3 2 2 3 1 4 27 5 28 6 89 7 29 8 88 9 30 10 31 11 32 12
REMARK SMILES IDX 82 13 33 14 87 15 81 16 83 17 34 18 86 19 80 20 79 21 35 23
REMARK SMILES IDX 67 24 47 25 66 26 48 27 51 28 65 29 84 30 49 31 50 32 64 34
REMARK SMILES IDX 85 35 52 36 36 37 37 38 45 39 38 40 39 41 43 42 46 43 40 44
REMARK SMILES IDX 41 45 44 46 42 47 68 48 69 49 77 50 70 51 71 52 75 53 78 54
REMARK SMILES IDX 72 55 73 56 76 57 74 58 53 59 54 60 62 61 55 62 56 63 60 64
REMARK SMILES IDX 63 65 57 66 58 67 61 68 59 69 5 70 6 71 7 72 8 73 9 74 10 75
REMARK SMILES IDX 22 76 20 77 21 78 23 79 26 80 24 81 25 82 11 85 12 86 13 87
REMARK SMILES IDX 14 88 15 89 19 90 16 91 18 92 17 93
REMARK H PARENT 83 22 51 33 25 83 25 84
REMARK Flexibility Score: inf
ROOT
ATOM      1  C   UNL     1       4.816   0.016   0.770  1.00  0.00     0.275 C 
ENDROOT
BRANCH   1   2
ATOM      2  O   UNL     1       3.881   1.111   0.686  1.00  0.00    -0.458 OA
BRANCH   2   3
ATOM      3  C   UNL     1       2.696   0.904   0.084  1.00  0.00     0.338 C 
ATOM      4  O   UNL     1       1.730   0.350   0.577  1.00  0.00    -0.246 OA
BRANCH   3   5
ATOM      5  C   UNL     1       2.665   1.568  -1.232  1.00  0.00     0.060 A 
ATOM      6  C   UNL     1       3.766   1.549  -2.092  1.00  0.00     0.016 A 
ATOM      7  C   UNL     1       1.453   2.118  -1.651  1.00  0.00     0.016 A 
ATOM      8  C   UNL     1       3.656   2.095  -3.365  1.00  0.00     0.010 A 
ATOM      9  C   UNL     1       1.328   2.599  -2.949  1.00  0.00     0.010 A 
ATOM     10  C   UNL     1       2.433   2.619  -3.807  1.00  0.00    -0.014 A 
BRANCH  10  11
ATOM     11  C   UNL     1       2.333   3.082  -5.200  1.00  0.00     0.031 A 
ATOM     12  C   UNL     1       2.909   2.180  -6.257  1.00  0.00     0.074 A 
ATOM     13  C   UNL     1       1.651   4.182  -5.589  1.00  0.00     0.049 A 
ATOM     14  N   UNL     1       3.754   2.473  -7.194  1.00  0.00    -0.248 NA
ATOM     15  C   UNL     1       2.520   0.762  -6.252  1.00  0.00     0.031 C 
ATOM     16  C   UNL     1       0.804   5.073  -4.790  1.00  0.00     0.029 A 
ATOM     17  N   UNL     1       1.512   4.688  -6.851  1.00  0.00    -0.354 N 
ATOM     18  C   UNL     1       3.905   1.326  -7.977  1.00  0.00     0.074 A 
ATOM     19  C   UNL     1       3.147   0.289  -7.330  1.00  0.00     0.031 C 
ATOM     20  C   UNL     1       0.074   5.860  -5.610  1.00  0.00     0.029 A 
ATOM     21  C   UNL     1       0.527   5.657  -6.973  1.00  0.00     0.049 A 
ATOM     22  H   UNL     1       2.064   4.389  -7.609  1.00  0.00     0.167 HD
ATOM     23  C   UNL     1       4.558   1.351  -9.173  1.00  0.00     0.037 A 
ATOM     24  C   UNL     1       0.103   6.260  -8.108  1.00  0.00     0.037 A 
ATOM     25  C   UNL     1       5.480   2.453  -9.232  1.00  0.00     0.049 A 
ATOM     26  C   UNL     1       1.173   6.114  -9.120  1.00  0.00     0.074 A 
ATOM     27  C   UNL     1       6.573   2.831  -8.475  1.00  0.00     0.029 A 
ATOM     28  N   UNL     1       5.152   3.562  -9.970  1.00  0.00    -0.354 N 
ATOM     29  N   UNL     1       2.321   6.726  -9.060  1.00  0.00    -0.248 NA
ATOM     30  C   UNL     1       1.118   4.967 -10.011  1.00  0.00     0.031 C 
ATOM     31  C   UNL     1       6.480   4.251  -8.391  1.00  0.00     0.029 A 
ATOM     32  C   UNL     1       5.381   4.641  -9.157  1.00  0.00     0.049 A 
ATOM     33  H   UNL     1       4.820   3.579 -10.896  1.00  0.00     0.167 HD
ATOM     34  C   UNL     1       3.232   5.803  -9.544  1.00  0.00     0.074 A 
ATOM     35  C   UNL     1       2.425   4.788 -10.216  1.00  0.00     0.031 C 
ATOM     36  C   UNL     1       4.528   5.802  -9.119  1.00  0.00     0.037 A 
BRANCH  23  37
ATOM     37  C   UNL     1       4.146   0.578 -10.405  1.00  0.00     0.064 A 
ATOM     38  C   UNL     1       4.923   0.688 -11.580  1.00  0.00     0.173 A 
ATOM     39  C   UNL     1       2.864   0.016 -10.579  1.00  0.00     0.173 A 
ATOM     40  F   UNL     1       6.166   1.193 -11.536  1.00  0.00    -0.203 F 
ATOM     41  C   UNL     1       4.408   0.383 -12.842  1.00  0.00     0.198 A 
ATOM     42  C   UNL     1       2.369  -0.329 -11.838  1.00  0.00     0.198 A 
ATOM     43  F   UNL     1       2.009  -0.127  -9.561  1.00  0.00    -0.203 F 
ATOM     44  F   UNL     1       5.136   0.640 -13.938  1.00  0.00    -0.200 F 
ATOM     45  C   UNL     1       3.123  -0.108 -12.972  1.00  0.00     0.200 A 
ATOM     46  F   UNL     1       1.119  -0.801 -11.948  1.00  0.00    -0.200 F 
ATOM     47  F   UNL     1       2.598  -0.326 -14.185  1.00  0.00    -0.200 F 
ENDBRANCH  23  37
BRANCH  24  48
ATOM     48  C   UNL     1      -1.236   6.788  -8.445  1.00  0.00     0.064 A 
ATOM     49  C   UNL     1      -1.414   7.700  -9.498  1.00  0.00     0.173 A 
ATOM     50  C   UNL     1      -2.400   6.192  -7.925  1.00  0.00     0.173 A 
ATOM     51  F   UNL     1      -0.352   8.285 -10.072  1.00  0.00    -0.203 F 
ATOM     52  C   UNL     1      -2.680   7.971 -10.024  1.00  0.00     0.198 A 
ATOM     53  C   UNL     1      -3.664   6.468  -8.447  1.00  0.00     0.198 A 
ATOM     54  F   UNL     1      -2.322   5.257  -6.966  1.00  0.00    -0.203 F 
ATOM     55  F   UNL     1      -2.804   8.796 -11.074  1.00  0.00    -0.200 F 
ATOM     56  C   UNL     1      -3.802   7.345  -9.507  1.00  0.00     0.200 A 
ATOM     57  F   UNL     1      -4.738   5.832  -7.960  1.00  0.00    -0.200 F 
ATOM     58  F   UNL     1      -5.007   7.554 -10.056  1.00  0.00    -0.200 F 
ENDBRANCH  24  48
BRANCH  36  59
ATOM     59  C   UNL     1       5.025   6.980  -8.331  1.00  0.00     0.064 A 
ATOM     60  C   UNL     1       4.486   7.392  -7.099  1.00  0.00     0.173 A 
ATOM     61  C   UNL     1       6.192   7.622  -8.769  1.00  0.00     0.173 A 
ATOM     62  F   UNL     1       3.439   6.761  -6.553  1.00  0.00    -0.203 F 
ATOM     63  C   UNL     1       5.063   8.431  -6.370  1.00  0.00     0.198 A 
ATOM     64  C   UNL     1       6.789   8.630  -8.018  1.00  0.00     0.198 A 
ATOM     65  F   UNL     1       6.787   7.232  -9.908  1.00  0.00    -0.203 F 
ATOM     66  F   UNL     1       4.521   8.815  -5.205  1.00  0.00    -0.200 F 
ATOM     67  C   UNL     1       6.218   9.043  -6.826  1.00  0.00     0.200 A 
ATOM     68  F   UNL     1       7.937   9.180  -8.438  1.00  0.00    -0.200 F 
ATOM     69  F   UNL     1       6.798  10.011  -6.103  1.00  0.00    -0.200 F 
ENDBRANCH  36  59
ENDBRANCH  10  11
ENDBRANCH   3   5
ENDBRANCH   2   3
ENDBRANCH   1   2
BRANCH   1  70
ATOM     70  C   UNL     1       4.277  -1.413   0.628  1.00  0.00     0.275 C 
BRANCH  70  71
ATOM     71  O   UNL     1       3.810  -1.659  -0.714  1.00  0.00    -0.458 OA
BRANCH  71  72
ATOM     72  C   UNL     1       2.628  -2.341  -0.829  1.00  0.00     0.340 C 
ATOM     73  O   UNL     1       1.923  -2.710   0.091  1.00  0.00    -0.246 OA
BRANCH  72  74
ATOM     74  C   UNL     1       2.282  -2.564  -2.229  1.00  0.00     0.095 A 
ATOM     75  C   UNL     1       2.994  -3.462  -3.012  1.00  0.00     0.150 A 
ATOM     76  C   UNL     1       1.160  -2.025  -2.954  1.00  0.00    -0.007 A 
ATOM     77  S   UNL     1       2.473  -3.422  -4.639  1.00  0.00    -0.120 S 
ATOM     78  C   UNL     1       1.149  -2.442  -4.269  1.00  0.00     0.064 A 
ATOM     79  C   UNL     1       0.093  -1.099  -2.461  1.00  0.00     0.099 C 
ATOM     80  C   UNL     1       0.087  -2.112  -5.273  1.00  0.00     0.308 C 
ATOM     81  C   UNL     1      -1.069  -0.955  -3.472  1.00  0.00     0.265 C 
ATOM     82  N   UNL     1      -0.650  -0.898  -4.887  1.00  0.00    -0.342 N 
ATOM     83  H   UNL     1      -0.048  -0.086  -5.024  1.00  0.00     0.346 HD
ATOM     84  H   UNL     1      -1.485  -0.829  -5.469  1.00  0.00     0.346 HD
BRANCH  75  85
ATOM     85  S   UNL     1       4.293  -4.610  -2.555  1.00  0.00     0.253 S 
ATOM     86  O   UNL     1       5.486  -3.792  -2.505  1.00  0.00    -0.206 OA
ATOM     87  O   UNL     1       3.769  -5.248  -1.367  1.00  0.00    -0.206 OA
BRANCH  85  88
ATOM     88  N   UNL     1       4.506  -5.829  -3.746  1.00  0.00    -0.197 NA
ATOM     89  C   UNL     1       3.329  -6.720  -3.934  1.00  0.00     0.102 C 
ATOM     90  C   UNL     1       5.283  -5.395  -4.933  1.00  0.00     0.102 C 
ATOM     91  C   UNL     1       3.503  -7.726  -5.061  1.00  0.00     0.017 C 
ATOM     92  C   UNL     1       5.373  -6.448  -6.025  1.00  0.00     0.017 C 
ATOM     93  C   UNL     1       4.016  -7.058  -6.324  1.00  0.00     0.003 C 
ENDBRANCH  85  88
ENDBRANCH  75  85
ENDBRANCH  72  74
ENDBRANCH  71  72
ENDBRANCH  70  71
ENDBRANCH   1  70
TORSDOF 13
