REMARK SMILES NC(=O)C[C@H](C(=O)OCCOC(=O)c1ccc(-c2c3nc(c(-c4c(F)c(F)c(F)c(F)c4F)c4ccc([nH]4)c(-c4c(F)c(F)c(F)c(F)c4F)c4nc(c(-c5c(F)c(F)c(F)c(F)c5F)c5ccc2[nH]5)C=C4)C=C3)cc1)N1C(=O)/C(=C/c2ccccc2)SC1=S
REMARK SMILES IDX 9 1 8 2 6 3 7 4 5 5 4 6 2 7 1 8 3 11 77 12 78 13 89 14 79 15
REMARK SMILES IDX 80 16 88 17 90 18 81 19 82 20 83 21 87 22 84 23 86 24 85 25
REMARK SMILES IDX 10 26 11 27 12 28 13 29 14 30 15 31 76 32 16 33 75 34 17 35
REMARK SMILES IDX 18 36 19 37 69 38 20 39 74 40 68 41 70 42 21 43 73 44 67 45
REMARK SMILES IDX 66 46 22 48 54 49 34 50 53 51 35 52 38 53 52 54 71 55 36 56
REMARK SMILES IDX 37 57 51 59 72 60 39 61 23 62 24 63 32 64 25 65 26 66 30 67
REMARK SMILES IDX 33 68 27 69 28 70 31 71 29 72 55 73 56 74 64 75 57 76 58 77
REMARK SMILES IDX 62 78 65 79 59 80 60 81 63 82 61 83 40 84 41 85 49 86 42 87
REMARK SMILES IDX 43 88 47 89 50 90 44 91 45 92 48 93 46 94
REMARK H PARENT 1 9 1 10 70 47 38 58
REMARK Flexibility Score: inf
ROOT
ATOM      1  C   UNL     1      -0.809  -0.948  -1.590  1.00  0.00     0.274 C 
ENDROOT
BRANCH   1   2
ATOM      2  O   UNL     1       0.232   0.052  -1.640  1.00  0.00    -0.461 OA
BRANCH   2   3
ATOM      3  C   UNL     1       1.404  -0.303  -2.245  1.00  0.00     0.329 C 
ATOM      4  O   UNL     1       1.585  -1.372  -2.811  1.00  0.00    -0.250 OA
BRANCH   3   5
ATOM      5  C   UNL     1       2.433   0.850  -2.180  1.00  0.00     0.211 C 
BRANCH   5   6
ATOM      6  C   UNL     1       3.110   1.117  -0.837  1.00  0.00     0.137 C 
BRANCH   6   7
ATOM      7  C   UNL     1       2.383   0.508   0.330  1.00  0.00     0.220 C 
ATOM      8  N   UNL     1       1.390   1.264   0.869  1.00  0.00    -0.370 N 
ATOM      9  H   UNL     1       0.874   0.925   1.635  1.00  0.00     0.159 HD
ATOM     10  H   UNL     1       1.187   2.151   0.492  1.00  0.00     0.159 HD
ATOM     11  O   UNL     1       2.631  -0.611   0.760  1.00  0.00    -0.275 OA
ENDBRANCH   6   7
ENDBRANCH   5   6
BRANCH   5  12
ATOM     12  N   UNL     1       3.393   0.830  -3.325  1.00  0.00    -0.278 N 
ATOM     13  C   UNL     1       3.337   1.863  -4.250  1.00  0.00     0.267 C 
ATOM     14  C   UNL     1       4.374  -0.124  -3.550  1.00  0.00     0.149 C 
ATOM     15  O   UNL     1       2.627   2.856  -4.175  1.00  0.00    -0.268 OA
ATOM     16  C   UNL     1       4.272   1.617  -5.380  1.00  0.00     0.081 C 
ATOM     17  S   UNL     1       5.189   0.202  -5.081  1.00  0.00    -0.054 SA
ATOM     18  S   UNL     1       4.831  -1.424  -2.612  1.00  0.00    -0.052 S 
ATOM     19  C   UNL     1       4.294   2.398  -6.469  1.00  0.00     0.029 C 
BRANCH  19  20
ATOM     20  C   UNL     1       5.091   2.153  -7.676  1.00  0.00    -0.024 A 
ATOM     21  C   UNL     1       6.402   2.621  -7.793  1.00  0.00     0.008 A 
ATOM     22  C   UNL     1       4.522   1.439  -8.736  1.00  0.00     0.008 A 
ATOM     23  C   UNL     1       7.133   2.373  -8.960  1.00  0.00     0.001 A 
ATOM     24  C   UNL     1       5.254   1.185  -9.897  1.00  0.00     0.001 A 
ATOM     25  C   UNL     1       6.560   1.655 -10.009  1.00  0.00     0.000 A 
ENDBRANCH  19  20
ENDBRANCH   5  12
ENDBRANCH   3   5
ENDBRANCH   2   3
ENDBRANCH   1   2
BRANCH   1  26
ATOM     26  C   UNL     1      -1.926  -0.670  -2.603  1.00  0.00     0.275 C 
BRANCH  26  27
ATOM     27  O   UNL     1      -1.512  -0.977  -3.948  1.00  0.00    -0.458 OA
BRANCH  27  28
ATOM     28  C   UNL     1      -0.952   0.052  -4.618  1.00  0.00     0.338 C 
ATOM     29  O   UNL     1      -0.809   1.201  -4.227  1.00  0.00    -0.246 OA
BRANCH  28  30
ATOM     30  C   UNL     1      -0.326  -0.448  -5.849  1.00  0.00     0.060 A 
ATOM     31  C   UNL     1       1.065  -0.455  -5.880  1.00  0.00     0.016 A 
ATOM     32  C   UNL     1      -1.059  -0.825  -6.973  1.00  0.00     0.016 A 
ATOM     33  C   UNL     1       1.743  -0.808  -7.036  1.00  0.00     0.010 A 
ATOM     34  C   UNL     1      -0.375  -1.198  -8.139  1.00  0.00     0.010 A 
ATOM     35  C   UNL     1       1.031  -1.173  -8.182  1.00  0.00    -0.014 A 
BRANCH  35  36
ATOM     36  C   UNL     1       1.793  -1.441  -9.426  1.00  0.00     0.031 A 
ATOM     37  C   UNL     1       1.766  -0.440 -10.546  1.00  0.00     0.074 A 
ATOM     38  C   UNL     1       2.621  -2.501  -9.492  1.00  0.00     0.049 A 
ATOM     39  N   UNL     1       2.368  -0.482 -11.708  1.00  0.00    -0.248 NA
ATOM     40  C   UNL     1       0.994   0.791 -10.313  1.00  0.00     0.031 C 
ATOM     41  C   UNL     1       2.822  -3.480  -8.424  1.00  0.00     0.029 A 
ATOM     42  N   UNL     1       3.469  -2.914 -10.489  1.00  0.00    -0.354 N 
ATOM     43  C   UNL     1       2.050   0.712 -12.341  1.00  0.00     0.074 A 
ATOM     44  C   UNL     1       1.186   1.451 -11.446  1.00  0.00     0.031 C 
ATOM     45  C   UNL     1       3.750  -4.369  -8.813  1.00  0.00     0.029 A 
ATOM     46  C   UNL     1       4.160  -4.060 -10.180  1.00  0.00     0.049 A 
ATOM     47  H   UNL     1       3.571  -2.436 -11.343  1.00  0.00     0.167 HD
ATOM     48  C   UNL     1       2.459   1.158 -13.551  1.00  0.00     0.037 A 
ATOM     49  C   UNL     1       5.003  -4.798 -10.928  1.00  0.00     0.037 A 
ATOM     50  C   UNL     1       3.324   0.428 -14.439  1.00  0.00     0.049 A 
ATOM     51  C   UNL     1       5.305  -4.361 -12.334  1.00  0.00     0.074 A 
ATOM     52  C   UNL     1       3.755   0.777 -15.707  1.00  0.00     0.029 A 
ATOM     53  N   UNL     1       3.892  -0.803 -14.148  1.00  0.00    -0.354 N 
ATOM     54  N   UNL     1       4.939  -3.268 -12.957  1.00  0.00    -0.248 NA
ATOM     55  C   UNL     1       6.120  -5.273 -13.150  1.00  0.00     0.031 C 
ATOM     56  C   UNL     1       4.559  -0.258 -16.196  1.00  0.00     0.029 A 
ATOM     57  C   UNL     1       4.657  -1.235 -15.219  1.00  0.00     0.049 A 
ATOM     58  H   UNL     1       3.771  -1.296 -13.305  1.00  0.00     0.167 HD
ATOM     59  C   UNL     1       5.485  -3.353 -14.230  1.00  0.00     0.074 A 
ATOM     60  C   UNL     1       6.223  -4.598 -14.286  1.00  0.00     0.031 C 
ATOM     61  C   UNL     1       5.381  -2.479 -15.261  1.00  0.00     0.037 A 
BRANCH  48  62
ATOM     62  C   UNL     1       1.949   2.493 -13.996  1.00  0.00     0.064 A 
ATOM     63  C   UNL     1       2.476   3.687 -13.483  1.00  0.00     0.173 A 
ATOM     64  C   UNL     1       0.937   2.579 -14.963  1.00  0.00     0.173 A 
ATOM     65  F   UNL     1       3.433   3.652 -12.544  1.00  0.00    -0.203 F 
ATOM     66  C   UNL     1       1.995   4.921 -13.911  1.00  0.00     0.198 A 
ATOM     67  C   UNL     1       0.472   3.815 -15.403  1.00  0.00     0.198 A 
ATOM     68  F   UNL     1       0.403   1.464 -15.483  1.00  0.00    -0.203 F 
ATOM     69  F   UNL     1       2.487   6.051 -13.383  1.00  0.00    -0.200 F 
ATOM     70  C   UNL     1       0.997   4.985 -14.873  1.00  0.00     0.200 A 
ATOM     71  F   UNL     1      -0.488   3.875 -16.336  1.00  0.00    -0.200 F 
ATOM     72  F   UNL     1       0.536   6.174 -15.285  1.00  0.00    -0.200 F 
ENDBRANCH  48  62
BRANCH  49  73
ATOM     73  C   UNL     1       5.571  -6.058 -10.382  1.00  0.00     0.064 A 
ATOM     74  C   UNL     1       6.942  -6.189 -10.129  1.00  0.00     0.173 A 
ATOM     75  C   UNL     1       4.749  -7.165 -10.120  1.00  0.00     0.173 A 
ATOM     76  F   UNL     1       7.773  -5.171 -10.396  1.00  0.00    -0.203 F 
ATOM     77  C   UNL     1       7.471  -7.383  -9.640  1.00  0.00     0.198 A 
ATOM     78  C   UNL     1       5.275  -8.348  -9.606  1.00  0.00     0.198 A 
ATOM     79  F   UNL     1       3.431  -7.096 -10.359  1.00  0.00    -0.203 F 
ATOM     80  F   UNL     1       8.792  -7.498  -9.448  1.00  0.00    -0.200 F 
ATOM     81  C   UNL     1       6.637  -8.458  -9.372  1.00  0.00     0.200 A 
ATOM     82  F   UNL     1       4.463  -9.381  -9.345  1.00  0.00    -0.200 F 
ATOM     83  F   UNL     1       7.146  -9.604  -8.902  1.00  0.00    -0.200 F 
ENDBRANCH  49  73
BRANCH  61  84
ATOM     84  C   UNL     1       6.094  -2.832 -16.531  1.00  0.00     0.064 A 
ATOM     85  C   UNL     1       5.599  -3.819 -17.395  1.00  0.00     0.173 A 
ATOM     86  C   UNL     1       7.262  -2.152 -16.905  1.00  0.00     0.173 A 
ATOM     87  F   UNL     1       4.495  -4.508 -17.070  1.00  0.00    -0.203 F 
ATOM     88  C   UNL     1       6.258  -4.124 -18.582  1.00  0.00     0.198 A 
ATOM     89  C   UNL     1       7.905  -2.443 -18.104  1.00  0.00     0.198 A 
ATOM     90  F   UNL     1       7.771  -1.197 -16.113  1.00  0.00    -0.203 F 
ATOM     91  F   UNL     1       5.789  -5.097 -19.376  1.00  0.00    -0.200 F 
ATOM     92  C   UNL     1       7.406  -3.432 -18.939  1.00  0.00     0.200 A 
ATOM     93  F   UNL     1       9.009  -1.767 -18.452  1.00  0.00    -0.200 F 
ATOM     94  F   UNL     1       8.036  -3.723 -20.085  1.00  0.00    -0.200 F 
ENDBRANCH  61  84
ENDBRANCH  35  36
ENDBRANCH  28  30
ENDBRANCH  27  28
ENDBRANCH  26  27
ENDBRANCH   1  26
TORSDOF 15
