REMARK SMILES C[C@@H](Nc1ccc(C(=O)OCCOC(=O)c2ccc(-c3c4nc(c(-c5c(F)c(F)c(F)c(F)c5F)c5ccc([nH]5)c(-c5c(F)c(F)c(F)c(F)c5F)c5nc(c(-c6c(F)c(F)c(F)c(F)c6F)c6ccc3[nH]6)C=C5)C=C4)cc2)cc1)C1CC[NH+](C)CC1
REMARK SMILES IDX 11 1 10 2 8 3 9 4 7 5 4 6 5 7 80 8 6 9 79 10 3 11 2 13 1 14
REMARK SMILES IDX 81 15 82 16 87 17 83 18 86 19 84 20 85 21 12 23 13 24 14 25
REMARK SMILES IDX 15 26 16 27 17 28 78 29 18 30 77 31 19 32 20 33 21 34 71 35
REMARK SMILES IDX 22 36 76 37 70 38 72 39 23 40 75 41 69 42 68 43 24 45 56 46
REMARK SMILES IDX 36 47 55 48 37 49 40 50 54 51 73 52 38 53 39 54 53 56 74 57
REMARK SMILES IDX 41 58 25 59 26 60 34 61 27 62 28 63 32 64 35 65 29 66 30 67
REMARK SMILES IDX 33 68 31 69 57 70 58 71 66 72 59 73 60 74 64 75 67 76 61 77
REMARK SMILES IDX 62 78 65 79 63 80 42 81 43 82 51 83 44 84 45 85 49 86 52 87
REMARK SMILES IDX 46 88 47 89 50 90 48 91
REMARK H PARENT 3 12 84 22 72 44 40 55
REMARK Flexibility Score: inf
ROOT
ATOM      1  C   UNL     1      -4.326   6.413   4.183  1.00  0.00     0.275 C 
ENDROOT
BRANCH   1   2
ATOM      2  O   UNL     1      -3.217   5.574   3.808  1.00  0.00    -0.458 OA
BRANCH   2   3
ATOM      3  C   UNL     1      -2.759   5.734   2.541  1.00  0.00     0.338 C 
ATOM      4  O   UNL     1      -3.242   6.440   1.678  1.00  0.00    -0.246 OA
BRANCH   3   5
ATOM      5  C   UNL     1      -1.535   4.917   2.321  1.00  0.00     0.060 A 
ATOM      6  C   UNL     1       0.294   2.905   1.729  1.00  0.00     0.034 A 
ATOM      7  C   UNL     1      -0.174   3.743   0.716  1.00  0.00     0.026 A 
ATOM      8  C   UNL     1       0.068   3.270   3.055  1.00  0.00     0.026 A 
ATOM      9  C   UNL     1      -1.108   4.735   1.003  1.00  0.00     0.018 A 
ATOM     10  C   UNL     1      -0.852   4.278   3.362  1.00  0.00     0.018 A 
BRANCH   6  11
ATOM     11  N   UNL     1       1.029   1.801   1.409  1.00  0.00    -0.382 N 
ATOM     12  H   UNL     1       1.982   1.967   1.227  1.00  0.00     0.160 HD
BRANCH  11  13
ATOM     13  C   UNL     1       0.603   0.402   1.299  1.00  0.00     0.079 C 
ATOM     14  C   UNL     1       1.164  -0.105  -0.046  1.00  0.00     0.031 C 
BRANCH  13  15
ATOM     15  C   UNL     1      -0.891  -0.069   1.427  1.00  0.00     0.022 C 
ATOM     16  C   UNL     1      -2.093   0.858   1.209  1.00  0.00     0.067 C 
ATOM     17  C   UNL     1      -1.126  -0.904   2.696  1.00  0.00     0.067 C 
ATOM     18  C   UNL     1      -2.736   1.464   2.466  1.00  0.00     0.262 C 
ATOM     19  C   UNL     1      -1.425  -0.030   3.900  1.00  0.00     0.262 C 
ATOM     20  N   UNL     1      -2.684   0.689   3.710  1.00  0.00    -0.337 N 
ATOM     21  C   UNL     1      -2.934   1.555   4.869  1.00  0.00     0.332 C 
ATOM     22  H   UNL     1      -3.419  -0.014   3.629  1.00  0.00     0.347 HD
ENDBRANCH  13  15
ENDBRANCH  11  13
ENDBRANCH   6  11
ENDBRANCH   3   5
ENDBRANCH   2   3
ENDBRANCH   1   2
BRANCH   1  23
ATOM     23  C   UNL     1      -3.849   7.453   5.193  1.00  0.00     0.275 C 
BRANCH  23  24
ATOM     24  O   UNL     1      -2.823   8.256   4.579  1.00  0.00    -0.458 OA
BRANCH  24  25
ATOM     25  C   UNL     1      -1.597   8.190   5.144  1.00  0.00     0.338 C 
ATOM     26  O   UNL     1      -1.283   7.662   6.198  1.00  0.00    -0.246 OA
BRANCH  25  27
ATOM     27  C   UNL     1      -0.615   8.791   4.227  1.00  0.00     0.060 A 
ATOM     28  C   UNL     1      -0.419   8.200   2.982  1.00  0.00     0.016 A 
ATOM     29  C   UNL     1       0.205   9.838   4.632  1.00  0.00     0.016 A 
ATOM     30  C   UNL     1       0.634   8.580   2.167  1.00  0.00     0.010 A 
ATOM     31  C   UNL     1       1.202  10.300   3.762  1.00  0.00     0.010 A 
ATOM     32  C   UNL     1       1.444   9.656   2.531  1.00  0.00    -0.014 A 
BRANCH  32  33
ATOM     33  C   UNL     1       2.582  10.049   1.659  1.00  0.00     0.031 A 
ATOM     34  C   UNL     1       3.974  10.042   2.220  1.00  0.00     0.074 A 
ATOM     35  C   UNL     1       2.388  10.364   0.362  1.00  0.00     0.049 A 
ATOM     36  N   UNL     1       5.064  10.585   1.744  1.00  0.00    -0.248 NA
ATOM     37  C   UNL     1       4.160   9.344   3.502  1.00  0.00     0.031 C 
ATOM     38  C   UNL     1       1.106  10.314  -0.345  1.00  0.00     0.029 A 
ATOM     39  N   UNL     1       3.276  10.778  -0.600  1.00  0.00    -0.354 N 
ATOM     40  C   UNL     1       6.041  10.370   2.706  1.00  0.00     0.074 A 
ATOM     41  C   UNL     1       5.424   9.628   3.784  1.00  0.00     0.031 C 
ATOM     42  C   UNL     1       1.299  10.635  -1.633  1.00  0.00     0.029 A 
ATOM     43  C   UNL     1       2.690  11.028  -1.817  1.00  0.00     0.049 A 
ATOM     44  H   UNL     1       4.240  10.886  -0.433  1.00  0.00     0.167 HD
ATOM     45  C   UNL     1       7.332  10.777   2.689  1.00  0.00     0.037 A 
ATOM     46  C   UNL     1       3.201  11.572  -2.938  1.00  0.00     0.037 A 
ATOM     47  C   UNL     1       7.947  11.446   1.574  1.00  0.00     0.049 A 
ATOM     48  C   UNL     1       4.630  12.037  -2.928  1.00  0.00     0.074 A 
ATOM     49  C   UNL     1       9.242  11.918   1.452  1.00  0.00     0.029 A 
ATOM     50  N   UNL     1       7.309  11.711   0.370  1.00  0.00    -0.354 N 
ATOM     51  N   UNL     1       5.520  11.951  -1.970  1.00  0.00    -0.248 NA
ATOM     52  C   UNL     1       5.116  12.708  -4.141  1.00  0.00     0.031 C 
ATOM     53  C   UNL     1       9.379  12.491   0.182  1.00  0.00     0.029 A 
ATOM     54  C   UNL     1       8.183  12.340  -0.500  1.00  0.00     0.049 A 
ATOM     55  H   UNL     1       6.372  11.486   0.165  1.00  0.00     0.167 HD
ATOM     56  C   UNL     1       6.670  12.550  -2.461  1.00  0.00     0.074 A 
ATOM     57  C   UNL     1       6.372  12.976  -3.814  1.00  0.00     0.031 C 
ATOM     58  C   UNL     1       7.862  12.741  -1.846  1.00  0.00     0.037 A 
BRANCH  45  59
ATOM     59  C   UNL     1       8.142  10.562   3.933  1.00  0.00     0.064 A 
ATOM     60  C   UNL     1       8.591   9.294   4.327  1.00  0.00     0.173 A 
ATOM     61  C   UNL     1       8.483  11.659   4.742  1.00  0.00     0.173 A 
ATOM     62  F   UNL     1       8.276   8.211   3.601  1.00  0.00    -0.203 F 
ATOM     63  C   UNL     1       9.329   9.128   5.497  1.00  0.00     0.198 A 
ATOM     64  C   UNL     1       9.244  11.493   5.895  1.00  0.00     0.198 A 
ATOM     65  F   UNL     1       8.079  12.895   4.410  1.00  0.00    -0.203 F 
ATOM     66  F   UNL     1       9.705   7.901   5.881  1.00  0.00    -0.200 F 
ATOM     67  C   UNL     1       9.659  10.227   6.277  1.00  0.00     0.200 A 
ATOM     68  F   UNL     1       9.569  12.559   6.640  1.00  0.00    -0.200 F 
ATOM     69  F   UNL     1      10.371  10.065   7.401  1.00  0.00    -0.200 F 
ENDBRANCH  45  59
BRANCH  46  70
ATOM     70  C   UNL     1       2.335  11.766  -4.132  1.00  0.00     0.064 A 
ATOM     71  C   UNL     1       2.560  11.046  -5.313  1.00  0.00     0.173 A 
ATOM     72  C   UNL     1       1.258  12.667  -4.114  1.00  0.00     0.173 A 
ATOM     73  F   UNL     1       3.594  10.196  -5.392  1.00  0.00    -0.203 F 
ATOM     74  C   UNL     1       1.744  11.222  -6.429  1.00  0.00     0.198 A 
ATOM     75  C   UNL     1       0.423  12.816  -5.218  1.00  0.00     0.198 A 
ATOM     76  F   UNL     1       1.002  13.386  -3.011  1.00  0.00    -0.203 F 
ATOM     77  F   UNL     1       2.003  10.549  -7.559  1.00  0.00    -0.200 F 
ATOM     78  C   UNL     1       0.670  12.098  -6.378  1.00  0.00     0.200 A 
ATOM     79  F   UNL     1      -0.622  13.653  -5.157  1.00  0.00    -0.200 F 
ATOM     80  F   UNL     1      -0.122  12.256  -7.447  1.00  0.00    -0.200 F 
ENDBRANCH  46  70
BRANCH  58  81
ATOM     81  C   UNL     1       8.941  13.407  -2.645  1.00  0.00     0.064 A 
ATOM     82  C   UNL     1       8.924  14.787  -2.892  1.00  0.00     0.173 A 
ATOM     83  C   UNL     1      10.025  12.660  -3.129  1.00  0.00     0.173 A 
ATOM     84  F   UNL     1       7.898  15.537  -2.462  1.00  0.00    -0.203 F 
ATOM     85  C   UNL     1       9.948  15.394  -3.613  1.00  0.00     0.198 A 
ATOM     86  C   UNL     1      11.059  13.275  -3.828  1.00  0.00     0.198 A 
ATOM     87  F   UNL     1      10.085  11.338  -2.912  1.00  0.00    -0.203 F 
ATOM     88  F   UNL     1       9.895  16.707  -3.871  1.00  0.00    -0.200 F 
ATOM     89  C   UNL     1      11.017  14.639  -4.073  1.00  0.00     0.200 A 
ATOM     90  F   UNL     1      12.095  12.546  -4.264  1.00  0.00    -0.200 F 
ATOM     91  F   UNL     1      12.006  15.227  -4.761  1.00  0.00    -0.200 F 
ENDBRANCH  58  81
ENDBRANCH  32  33
ENDBRANCH  25  27
ENDBRANCH  24  25
ENDBRANCH  23  24
ENDBRANCH   1  23
TORSDOF 14
