REMARK SMILES O=C(OCCOC(=O)[C@H]1CC=CCC1C(=O)N[C@@H]1CCN(c2cccc(Cl)c2)C1)c1ccc(-c2c3nc(c(-c4c(F)c(F)c(F)c(F)c4F)c4ccc([nH]4)c(-c4c(F)c(F)c(F)c(F)c4F)c4nc(c(-c5c(F)c(F)c(F)c(F)c5F)c5ccc2[nH]5)C=C4)C=C3)cc1
REMARK SMILES IDX 5 1 4 2 3 3 2 4 1 5 30 6 31 7 92 8 32 9 91 10 33 11 34 12
REMARK SMILES IDX 35 13 85 14 36 15 90 16 84 17 86 18 37 19 89 20 83 21 82 22
REMARK SMILES IDX 38 24 70 25 50 26 69 27 51 28 54 29 68 30 87 31 52 32 53 33
REMARK SMILES IDX 67 35 88 36 55 37 39 38 40 39 48 40 41 41 42 42 46 43 49 44
REMARK SMILES IDX 43 45 44 46 47 47 45 48 71 49 72 50 80 51 73 52 74 53 78 54
REMARK SMILES IDX 81 55 75 56 76 57 79 58 77 59 56 60 57 61 65 62 58 63 59 64
REMARK SMILES IDX 63 65 66 66 60 67 61 68 64 69 62 70 6 71 7 72 8 73 9 74
REMARK SMILES IDX 10 75 14 76 11 77 13 78 12 79 15 80 16 81 17 82 18 84 19 85
REMARK SMILES IDX 29 86 20 87 21 88 22 89 23 90 28 91 24 92 26 93 25 94 27 95
REMARK H PARENT 86 23 54 34 17 83
REMARK Flexibility Score: inf
ROOT
ATOM      1  C   UNL     1       2.914  -0.701   3.124  1.00  0.00     0.274 C 
ENDROOT
BRANCH   1   2
ATOM      2  C   UNL     1       3.122   0.519   2.216  1.00  0.00     0.275 C 
BRANCH   2   3
ATOM      3  O   UNL     1       2.080   0.655   1.230  1.00  0.00    -0.458 OA
BRANCH   3   4
ATOM      4  C   UNL     1       2.005   0.059   0.015  1.00  0.00     0.338 C 
ATOM      5  O   UNL     1       1.162   0.428  -0.796  1.00  0.00    -0.246 OA
BRANCH   4   6
ATOM      6  C   UNL     1       3.026  -0.933  -0.481  1.00  0.00     0.060 A 
ATOM      7  C   UNL     1       4.422  -1.664   0.459  1.00  0.00     0.016 A 
ATOM      8  C   UNL     1       2.787  -1.479  -2.231  1.00  0.00     0.016 A 
ATOM      9  C   UNL     1       5.530  -2.879  -0.305  1.00  0.00     0.010 A 
ATOM     10  C   UNL     1       3.860  -2.778  -2.947  1.00  0.00     0.010 A 
ATOM     11  C   UNL     1       5.238  -3.496  -1.987  1.00  0.00    -0.014 A 
BRANCH  11  12
ATOM     12  C   UNL     1       5.933  -4.746  -2.449  1.00  0.00     0.031 A 
ATOM     13  C   UNL     1       6.516  -4.765  -3.833  1.00  0.00     0.074 A 
ATOM     14  C   UNL     1       5.910  -5.875  -1.690  1.00  0.00     0.049 A 
ATOM     15  N   UNL     1       7.020  -5.761  -4.513  1.00  0.00    -0.248 NA
ATOM     16  C   UNL     1       6.553  -3.479  -4.551  1.00  0.00     0.031 C 
ATOM     17  C   UNL     1       5.402  -6.005  -0.319  1.00  0.00     0.029 A 
ATOM     18  N   UNL     1       6.247  -7.180  -1.989  1.00  0.00    -0.354 N 
ATOM     19  C   UNL     1       7.433  -5.224  -5.726  1.00  0.00     0.074 A 
ATOM     20  C   UNL     1       7.056  -3.830  -5.725  1.00  0.00     0.031 C 
ATOM     21  C   UNL     1       5.290  -7.288   0.033  1.00  0.00     0.029 A 
ATOM     22  C   UNL     1       5.818  -8.093  -1.041  1.00  0.00     0.049 A 
ATOM     23  H   UNL     1       6.744  -7.436  -2.799  1.00  0.00     0.167 HD
ATOM     24  C   UNL     1       8.112  -5.840  -6.723  1.00  0.00     0.037 A 
ATOM     25  C   UNL     1       5.852  -9.437  -1.012  1.00  0.00     0.037 A 
ATOM     26  C   UNL     1       8.490  -7.228  -6.665  1.00  0.00     0.049 A 
ATOM     27  C   UNL     1       6.605 -10.098  -2.119  1.00  0.00     0.074 A 
ATOM     28  C   UNL     1       9.255  -7.961  -7.552  1.00  0.00     0.029 A 
ATOM     29  N   UNL     1       8.118  -8.095  -5.642  1.00  0.00    -0.354 N 
ATOM     30  N   UNL     1       7.090  -9.553  -3.209  1.00  0.00    -0.248 NA
ATOM     31  C   UNL     1       6.894 -11.525  -1.966  1.00  0.00     0.031 C 
ATOM     32  C   UNL     1       9.319  -9.278  -7.082  1.00  0.00     0.029 A 
ATOM     33  C   UNL     1       8.626  -9.360  -5.882  1.00  0.00     0.049 A 
ATOM     34  H   UNL     1       7.573  -7.846  -4.861  1.00  0.00     0.167 HD
ATOM     35  C   UNL     1       7.778 -10.558  -3.858  1.00  0.00     0.074 A 
ATOM     36  C   UNL     1       7.659 -11.743  -3.026  1.00  0.00     0.031 C 
ATOM     37  C   UNL     1       8.455 -10.510  -5.030  1.00  0.00     0.037 A 
BRANCH  24  38
ATOM     38  C   UNL     1       8.506  -5.017  -7.921  1.00  0.00     0.064 A 
ATOM     39  C   UNL     1       9.446  -3.977  -7.821  1.00  0.00     0.173 A 
ATOM     40  C   UNL     1       7.953  -5.270  -9.186  1.00  0.00     0.173 A 
ATOM     41  F   UNL     1      10.002  -3.680  -6.636  1.00  0.00    -0.203 F 
ATOM     42  C   UNL     1       9.786  -3.200  -8.928  1.00  0.00     0.198 A 
ATOM     43  C   UNL     1       8.317  -4.510 -10.297  1.00  0.00     0.198 A 
ATOM     44  F   UNL     1       7.055  -6.253  -9.347  1.00  0.00    -0.203 F 
ATOM     45  F   UNL     1      10.641  -2.177  -8.789  1.00  0.00    -0.200 F 
ATOM     46  C   UNL     1       9.225  -3.470 -10.166  1.00  0.00     0.200 A 
ATOM     47  F   UNL     1       7.782  -4.778 -11.496  1.00  0.00    -0.200 F 
ATOM     48  F   UNL     1       9.552  -2.722 -11.229  1.00  0.00    -0.200 F 
ENDBRANCH  24  38
BRANCH  25  49
ATOM     49  C   UNL     1       5.271 -10.191   0.138  1.00  0.00     0.064 A 
ATOM     50  C   UNL     1       6.090 -10.794   1.104  1.00  0.00     0.173 A 
ATOM     51  C   UNL     1       3.881 -10.276   0.332  1.00  0.00     0.173 A 
ATOM     52  F   UNL     1       7.423 -10.740   0.977  1.00  0.00    -0.203 F 
ATOM     53  C   UNL     1       5.548 -11.475   2.196  1.00  0.00     0.198 A 
ATOM     54  C   UNL     1       3.340 -10.936   1.438  1.00  0.00     0.198 A 
ATOM     55  F   UNL     1       3.044  -9.700  -0.543  1.00  0.00    -0.203 F 
ATOM     56  F   UNL     1       6.360 -12.069   3.081  1.00  0.00    -0.200 F 
ATOM     57  C   UNL     1       4.174 -11.542   2.365  1.00  0.00     0.200 A 
ATOM     58  F   UNL     1       2.011 -10.979   1.610  1.00  0.00    -0.200 F 
ATOM     59  F   UNL     1       3.656 -12.187   3.420  1.00  0.00    -0.200 F 
ENDBRANCH  25  49
BRANCH  37  60
ATOM     60  C   UNL     1       9.092 -11.788  -5.463  1.00  0.00     0.064 A 
ATOM     61  C   UNL     1       8.318 -12.856  -5.937  1.00  0.00     0.173 A 
ATOM     62  C   UNL     1      10.484 -11.939  -5.414  1.00  0.00     0.173 A 
ATOM     63  F   UNL     1       6.980 -12.758  -5.971  1.00  0.00    -0.203 F 
ATOM     64  C   UNL     1       8.918 -14.046  -6.326  1.00  0.00     0.198 A 
ATOM     65  C   UNL     1      11.082 -13.119  -5.837  1.00  0.00     0.198 A 
ATOM     66  F   UNL     1      11.259 -10.941  -4.964  1.00  0.00    -0.203 F 
ATOM     67  F   UNL     1       8.159 -15.076  -6.723  1.00  0.00    -0.200 F 
ATOM     68  C   UNL     1      10.299 -14.173  -6.285  1.00  0.00     0.200 A 
ATOM     69  F   UNL     1      12.416 -13.239  -5.807  1.00  0.00    -0.200 F 
ATOM     70  F   UNL     1      10.876 -15.320  -6.668  1.00  0.00    -0.200 F 
ENDBRANCH  37  60
ENDBRANCH  11  12
ENDBRANCH   4   6
ENDBRANCH   3   4
ENDBRANCH   2   3
ENDBRANCH   1   2
BRANCH   1  71
ATOM     71  O   UNL     1       2.524  -1.856   2.353  1.00  0.00    -0.462 OA
BRANCH  71  72
ATOM     72  C   UNL     1       1.214  -1.851   1.998  1.00  0.00     0.310 C 
ATOM     73  O   UNL     1       0.389  -1.128   2.544  1.00  0.00    -0.252 OA
BRANCH  72  74
ATOM     74  C   UNL     1       0.896  -2.860   0.905  1.00  0.00     0.115 C 
ATOM     75  C   UNL     1      -0.654  -2.810   0.709  1.00  0.00     0.043 C 
ATOM     76  C   UNL     1       1.637  -2.919  -0.521  1.00  0.00     0.096 C 
ATOM     77  C   UNL     1      -1.066  -1.874  -0.392  1.00  0.00    -0.030 C 
ATOM     78  C   UNL     1       0.620  -2.985  -1.732  1.00  0.00     0.041 C 
ATOM     79  C   UNL     1      -0.460  -1.968  -1.581  1.00  0.00    -0.030 C 
BRANCH  76  80
ATOM     80  C   UNL     1       3.434  -2.908  -0.874  1.00  0.00     0.224 C 
ATOM     81  O   UNL     1       3.639  -4.148  -0.713  1.00  0.00    -0.275 OA
ATOM     82  N   UNL     1       4.636  -1.505  -1.552  1.00  0.00    -0.351 N 
ATOM     83  H   UNL     1       5.075  -1.867  -2.355  1.00  0.00     0.163 HD
BRANCH  82  84
ATOM     84  C   UNL     1       5.252   0.124  -1.324  1.00  0.00     0.103 C 
ATOM     85  C   UNL     1       4.269   1.244  -1.226  1.00  0.00     0.048 C 
ATOM     86  C   UNL     1       6.055   0.863  -2.603  1.00  0.00     0.141 C 
ATOM     87  C   UNL     1       3.785   1.280  -2.679  1.00  0.00     0.119 C 
ATOM     88  N   UNL     1       5.007   1.767  -3.269  1.00  0.00    -0.369 N 
BRANCH  88  89
ATOM     89  C   UNL     1       4.909   3.185  -3.323  1.00  0.00     0.038 A 
ATOM     90  C   UNL     1       3.912   3.904  -2.577  1.00  0.00     0.026 A 
ATOM     91  C   UNL     1       5.536   3.910  -4.329  1.00  0.00     0.046 A 
ATOM     92  C   UNL     1       3.410   5.149  -2.936  1.00  0.00     0.004 A 
ATOM     93  C   UNL     1       5.064   5.199  -4.664  1.00  0.00     0.043 A 
ATOM     94  C   UNL     1       3.978   5.793  -4.010  1.00  0.00     0.020 A 
ATOM     95  Cl  UNL     1       5.781   6.058  -5.973  1.00  0.00    -0.084 Cl
ENDBRANCH  88  89
ENDBRANCH  82  84
ENDBRANCH  76  80
ENDBRANCH  72  74
ENDBRANCH  71  72
ENDBRANCH   1  71
TORSDOF 14
