REMARK SMILES C=C(C)COc1ccc2c(C)c(CC(=O)OCCOC(=O)c3ccc(-c4c5nc(c(-c6c(F)c(F)c(F)c(F)c6F)c6ccc([nH]6)c(-c6c(F)c(F)c(F)c(F)c6F)c6nc(c(-c7c(F)c(F)c(F)c(F)c7F)c7ccc4[nH]7)C=C6)C=C5)cc3)c(=O)oc2c1
REMARK SMILES IDX 17 1 16 2 14 3 15 4 13 5 12 6 6 7 7 8 89 9 8 10 88 11 9 12
REMARK SMILES IDX 87 13 10 14 85 15 11 16 86 17 5 18 4 19 2 20 1 21 3 22 18 23
REMARK SMILES IDX 19 24 20 25 21 26 22 27 23 28 84 29 24 30 83 31 25 32 26 33
REMARK SMILES IDX 27 34 77 35 28 36 82 37 76 38 78 39 29 40 81 41 75 42 74 43
REMARK SMILES IDX 30 45 62 46 42 47 61 48 43 49 46 50 60 51 79 52 44 53 45 54
REMARK SMILES IDX 59 56 80 57 47 58 31 59 32 60 40 61 33 62 34 63 38 64 41 65
REMARK SMILES IDX 35 66 36 67 39 68 37 69 63 70 64 71 72 72 65 73 66 74 70 75
REMARK SMILES IDX 73 76 67 77 68 78 71 79 69 80 48 81 49 82 57 83 50 84 51 85
REMARK SMILES IDX 55 86 58 87 52 88 53 89 56 90 54 91
REMARK H PARENT 78 44 46 55
REMARK Flexibility Score: inf
ROOT
ATOM      1  C   UNL     1      -0.267   6.135   7.330  1.00  0.00     0.274 C 
ENDROOT
BRANCH   1   2
ATOM      2  O   UNL     1      -0.877   5.658   6.115  1.00  0.00    -0.462 OA
BRANCH   2   3
ATOM      3  C   UNL     1      -2.208   5.899   5.971  1.00  0.00     0.310 C 
ATOM      4  O   UNL     1      -2.918   6.436   6.815  1.00  0.00    -0.252 OA
BRANCH   3   5
ATOM      5  C   UNL     1      -2.745   5.529   4.597  1.00  0.00     0.166 C 
BRANCH   5   6
ATOM      6  C   UNL     1      -1.724   4.928   3.661  1.00  0.00     0.052 A 
ATOM      7  C   UNL     1       1.442   3.160   0.166  1.00  0.00     0.123 A 
ATOM      8  C   UNL     1       1.374   4.527  -0.079  1.00  0.00     0.047 A 
ATOM      9  C   UNL     1       0.815   2.614   1.276  1.00  0.00     0.094 A 
ATOM     10  C   UNL     1       0.578   5.337   0.741  1.00  0.00     0.016 A 
ATOM     11  C   UNL     1       0.018   3.431   2.071  1.00  0.00     0.142 A 
ATOM     12  C   UNL     1      -0.153   4.787   1.808  1.00  0.00     0.021 A 
ATOM     13  O   UNL     1      -0.618   2.800   3.146  1.00  0.00    -0.422 OA
ATOM     14  C   UNL     1      -1.115   5.551   2.627  1.00  0.00    -0.029 A 
ATOM     15  C   UNL     1      -1.448   3.502   3.993  1.00  0.00     0.340 A 
ATOM     16  C   UNL     1      -1.371   6.975   2.208  1.00  0.00     0.046 C 
ATOM     17  O   UNL     1      -1.970   2.959   4.962  1.00  0.00    -0.246 OA
BRANCH   7  18
ATOM     18  O   UNL     1       2.145   2.350  -0.683  1.00  0.00    -0.489 OA
BRANCH  18  19
ATOM     19  C   UNL     1       1.276   1.803  -1.694  1.00  0.00     0.260 C 
BRANCH  19  20
ATOM     20  C   UNL     1       0.550   0.564  -1.209  1.00  0.00    -0.043 C 
ATOM     21  C   UNL     1       1.201  -0.482  -0.672  1.00  0.00     0.011 C 
ATOM     22  C   UNL     1      -0.947   0.589  -1.323  1.00  0.00     0.042 C 
ENDBRANCH  19  20
ENDBRANCH  18  19
ENDBRANCH   7  18
ENDBRANCH   5   6
ENDBRANCH   3   5
ENDBRANCH   2   3
ENDBRANCH   1   2
BRANCH   1  23
ATOM     23  C   UNL     1       0.571   7.372   7.021  1.00  0.00     0.275 C 
BRANCH  23  24
ATOM     24  O   UNL     1      -0.274   8.362   6.406  1.00  0.00    -0.458 OA
BRANCH  24  25
ATOM     25  C   UNL     1       0.212   8.951   5.291  1.00  0.00     0.338 C 
ATOM     26  O   UNL     1       1.326   8.820   4.809  1.00  0.00    -0.246 OA
BRANCH  25  27
ATOM     27  C   UNL     1      -0.825   9.816   4.692  1.00  0.00     0.060 A 
ATOM     28  C   UNL     1      -2.164   9.419   4.661  1.00  0.00     0.016 A 
ATOM     29  C   UNL     1      -0.442  11.014   4.085  1.00  0.00     0.016 A 
ATOM     30  C   UNL     1      -3.108  10.190   3.983  1.00  0.00     0.010 A 
ATOM     31  C   UNL     1      -1.407  11.833   3.492  1.00  0.00     0.010 A 
ATOM     32  C   UNL     1      -2.751  11.427   3.428  1.00  0.00    -0.014 A 
BRANCH  32  33
ATOM     33  C   UNL     1      -3.781  12.327   2.841  1.00  0.00     0.031 A 
ATOM     34  C   UNL     1      -3.688  12.780   1.411  1.00  0.00     0.074 A 
ATOM     35  C   UNL     1      -4.785  12.780   3.619  1.00  0.00     0.049 A 
ATOM     36  N   UNL     1      -4.372  13.710   0.792  1.00  0.00    -0.248 NA
ATOM     37  C   UNL     1      -2.690  12.108   0.566  1.00  0.00     0.031 C 
ATOM     38  C   UNL     1      -5.005  12.412   5.018  1.00  0.00     0.029 A 
ATOM     39  N   UNL     1      -5.804  13.659   3.344  1.00  0.00    -0.354 N 
ATOM     40  C   UNL     1      -3.858  13.768  -0.496  1.00  0.00     0.074 A 
ATOM     41  C   UNL     1      -2.806  12.777  -0.575  1.00  0.00     0.031 C 
ATOM     42  C   UNL     1      -6.102  13.035   5.471  1.00  0.00     0.029 A 
ATOM     43  C   UNL     1      -6.613  13.912   4.425  1.00  0.00     0.049 A 
ATOM     44  H   UNL     1      -5.942  14.068   2.459  1.00  0.00     0.167 HD
ATOM     45  C   UNL     1      -4.231  14.579  -1.516  1.00  0.00     0.037 A 
ATOM     46  C   UNL     1      -7.624  14.786   4.580  1.00  0.00     0.037 A 
ATOM     47  C   UNL     1      -5.308  15.534  -1.451  1.00  0.00     0.049 A 
ATOM     48  C   UNL     1      -7.994  15.694   3.446  1.00  0.00     0.074 A 
ATOM     49  C   UNL     1      -5.786  16.365  -2.450  1.00  0.00     0.029 A 
ATOM     50  N   UNL     1      -6.079  15.779  -0.326  1.00  0.00    -0.354 N 
ATOM     51  N   UNL     1      -7.477  15.766   2.245  1.00  0.00    -0.248 NA
ATOM     52  C   UNL     1      -9.070  16.662   3.700  1.00  0.00     0.031 C 
ATOM     53  C   UNL     1      -6.826  17.137  -1.920  1.00  0.00     0.029 A 
ATOM     54  C   UNL     1      -7.017  16.763  -0.600  1.00  0.00     0.049 A 
ATOM     55  H   UNL     1      -5.976  15.323   0.540  1.00  0.00     0.167 HD
ATOM     56  C   UNL     1      -8.159  16.786   1.599  1.00  0.00     0.074 A 
ATOM     57  C   UNL     1      -9.145  17.289   2.534  1.00  0.00     0.031 C 
ATOM     58  C   UNL     1      -7.978  17.266   0.346  1.00  0.00     0.037 A 
BRANCH  45  59
ATOM     59  C   UNL     1      -3.456  14.490  -2.797  1.00  0.00     0.064 A 
ATOM     60  C   UNL     1      -3.636  13.430  -3.696  1.00  0.00     0.173 A 
ATOM     61  C   UNL     1      -2.569  15.516  -3.156  1.00  0.00     0.173 A 
ATOM     62  F   UNL     1      -4.464  12.420  -3.392  1.00  0.00    -0.203 F 
ATOM     63  C   UNL     1      -2.946  13.394  -4.905  1.00  0.00     0.198 A 
ATOM     64  C   UNL     1      -1.895  15.487  -4.375  1.00  0.00     0.198 A 
ATOM     65  F   UNL     1      -2.366  16.554  -2.331  1.00  0.00    -0.203 F 
ATOM     66  F   UNL     1      -3.111  12.358  -5.739  1.00  0.00    -0.200 F 
ATOM     67  C   UNL     1      -2.082  14.425  -5.247  1.00  0.00     0.200 A 
ATOM     68  F   UNL     1      -1.068  16.488  -4.706  1.00  0.00    -0.200 F 
ATOM     69  F   UNL     1      -1.427  14.393  -6.415  1.00  0.00    -0.200 F 
ENDBRANCH  45  59
BRANCH  46  70
ATOM     70  C   UNL     1      -8.323  14.868   5.887  1.00  0.00     0.064 A 
ATOM     71  C   UNL     1      -9.627  14.380   6.035  1.00  0.00     0.173 A 
ATOM     72  C   UNL     1      -7.689  15.404   7.018  1.00  0.00     0.173 A 
ATOM     73  F   UNL     1     -10.279  13.882   4.974  1.00  0.00    -0.203 F 
ATOM     74  C   UNL     1     -10.272  14.424   7.268  1.00  0.00     0.198 A 
ATOM     75  C   UNL     1      -8.326  15.425   8.255  1.00  0.00     0.198 A 
ATOM     76  F   UNL     1      -6.440  15.883   6.923  1.00  0.00    -0.203 F 
ATOM     77  F   UNL     1     -11.530  13.975   7.380  1.00  0.00    -0.200 F 
ATOM     78  C   UNL     1      -9.618  14.938   8.379  1.00  0.00     0.200 A 
ATOM     79  F   UNL     1      -7.686  15.909   9.328  1.00  0.00    -0.200 F 
ATOM     80  F   UNL     1     -10.235  14.966   9.568  1.00  0.00    -0.200 F 
ENDBRANCH  46  70
BRANCH  58  81
ATOM     81  C   UNL     1      -8.865  18.394  -0.081  1.00  0.00     0.064 A 
ATOM     82  C   UNL     1      -8.646  19.702   0.374  1.00  0.00     0.173 A 
ATOM     83  C   UNL     1      -9.933  18.169  -0.961  1.00  0.00     0.173 A 
ATOM     84  F   UNL     1      -7.648  19.960   1.232  1.00  0.00    -0.203 F 
ATOM     85  C   UNL     1      -9.479  20.744  -0.023  1.00  0.00     0.198 A 
ATOM     86  C   UNL     1     -10.752  19.218  -1.371  1.00  0.00     0.198 A 
ATOM     87  F   UNL     1     -10.181  16.935  -1.422  1.00  0.00    -0.203 F 
ATOM     88  F   UNL     1      -9.277  21.980   0.454  1.00  0.00    -0.200 F 
ATOM     89  C   UNL     1     -10.528  20.502  -0.898  1.00  0.00     0.200 A 
ATOM     90  F   UNL     1     -11.762  18.984  -2.220  1.00  0.00    -0.200 F 
ATOM     91  F   UNL     1     -11.330  21.506  -1.278  1.00  0.00    -0.200 F 
ENDBRANCH  58  81
ENDBRANCH  32  33
ENDBRANCH  25  27
ENDBRANCH  24  25
ENDBRANCH  23  24
ENDBRANCH   1  23
TORSDOF 15
