REMARK SMILES O=C(CCCC(=O)OCCOC(=O)c1ccc(-c2c3nc(c(-c4c(F)c(F)c(F)c(F)c4F)c4ccc([nH]4)c(-c4c(F)c(F)c(F)c(F)c4F)c4nc(c(-c5c(F)c(F)c(F)c(F)c5F)c5ccc2[nH]5)C=C4)C=C3)cc1)Nc1ccccc1F
REMARK SMILES IDX 9 1 8 2 6 3 7 4 5 5 4 6 3 7 2 8 1 9 77 10 78 12 79 13 83 14
REMARK SMILES IDX 80 15 82 16 84 17 81 18 10 19 11 20 12 21 13 22 14 23 15 24
REMARK SMILES IDX 76 25 16 26 75 27 17 28 18 29 19 30 69 31 20 32 74 33 68 34
REMARK SMILES IDX 70 35 21 36 73 37 67 38 66 39 22 41 54 42 34 43 53 44 35 45
REMARK SMILES IDX 38 46 52 47 71 48 36 49 37 50 51 52 72 53 39 54 23 55 24 56
REMARK SMILES IDX 32 57 25 58 26 59 30 60 33 61 27 62 28 63 31 64 29 65 55 66
REMARK SMILES IDX 56 67 64 68 57 69 58 70 62 71 65 72 59 73 60 74 63 75 61 76
REMARK SMILES IDX 40 77 41 78 49 79 42 80 43 81 47 82 50 83 44 84 45 85 48 86
REMARK SMILES IDX 46 87
REMARK H PARENT 77 11 70 40 38 51
REMARK Flexibility Score: inf
ROOT
ATOM      1  C   UNL     1       6.285   1.783  -0.893  1.00  0.00     0.274 C 
ENDROOT
BRANCH   1   2
ATOM      2  O   UNL     1       5.290   1.002  -0.197  1.00  0.00    -0.462 OA
BRANCH   2   3
ATOM      3  C   UNL     1       5.547  -0.310   0.010  1.00  0.00     0.305 C 
ATOM      4  O   UNL     1       6.529  -0.905  -0.416  1.00  0.00    -0.252 OA
BRANCH   3   5
ATOM      5  C   UNL     1       4.437  -1.015   0.769  1.00  0.00     0.123 C 
BRANCH   5   6
ATOM      6  C   UNL     1       3.486  -0.147   1.601  1.00  0.00     0.022 C 
BRANCH   6   7
ATOM      7  C   UNL     1       2.542   0.806   0.855  1.00  0.00     0.101 C 
BRANCH   7   8
ATOM      8  C   UNL     1       1.627   0.115  -0.139  1.00  0.00     0.224 C 
ATOM      9  O   UNL     1       0.464  -0.151   0.147  1.00  0.00    -0.275 OA
ATOM     10  N   UNL     1       2.279  -0.257  -1.301  1.00  0.00    -0.324 N 
ATOM     11  H   UNL     1       3.206   0.047  -1.434  1.00  0.00     0.170 HD
BRANCH  10  12
ATOM     12  C   UNL     1       1.689  -1.047  -2.301  1.00  0.00     0.077 A 
ATOM     13  C   UNL     1       2.416  -2.143  -2.780  1.00  0.00     0.029 A 
ATOM     14  C   UNL     1       0.431  -0.768  -2.839  1.00  0.00     0.146 A 
ATOM     15  C   UNL     1       1.857  -2.983  -3.745  1.00  0.00     0.002 A 
ATOM     16  C   UNL     1      -0.107  -1.578  -3.835  1.00  0.00     0.041 A 
ATOM     17  F   UNL     1      -0.233   0.344  -2.489  1.00  0.00    -0.205 F 
ATOM     18  C   UNL     1       0.599  -2.697  -4.277  1.00  0.00     0.003 A 
ENDBRANCH  10  12
ENDBRANCH   7   8
ENDBRANCH   6   7
ENDBRANCH   5   6
ENDBRANCH   3   5
ENDBRANCH   2   3
ENDBRANCH   1   2
BRANCH   1  19
ATOM     19  C   UNL     1       7.070   2.670   0.077  1.00  0.00     0.275 C 
BRANCH  19  20
ATOM     20  O   UNL     1       7.913   1.877   0.933  1.00  0.00    -0.458 OA
BRANCH  20  21
ATOM     21  C   UNL     1       7.379   1.571   2.138  1.00  0.00     0.338 C 
ATOM     22  O   UNL     1       6.315   1.948   2.596  1.00  0.00    -0.246 OA
BRANCH  21  23
ATOM     23  C   UNL     1       8.186   0.515   2.767  1.00  0.00     0.060 A 
ATOM     24  C   UNL     1       7.594  -0.741   2.893  1.00  0.00     0.016 A 
ATOM     25  C   UNL     1       9.464   0.750   3.273  1.00  0.00     0.016 A 
ATOM     26  C   UNL     1       8.275  -1.780   3.509  1.00  0.00     0.010 A 
ATOM     27  C   UNL     1      10.152  -0.296   3.902  1.00  0.00     0.010 A 
ATOM     28  C   UNL     1       9.558  -1.565   4.025  1.00  0.00    -0.014 A 
BRANCH  28  29
ATOM     29  C   UNL     1      10.223  -2.682   4.734  1.00  0.00     0.031 A 
ATOM     30  C   UNL     1      10.277  -2.691   6.232  1.00  0.00     0.074 A 
ATOM     31  C   UNL     1      10.686  -3.730   4.029  1.00  0.00     0.049 A 
ATOM     32  N   UNL     1      10.780  -3.593   7.037  1.00  0.00    -0.248 NA
ATOM     33  C   UNL     1       9.683  -1.534   6.916  1.00  0.00     0.031 C 
ATOM     34  C   UNL     1      10.632  -3.853   2.573  1.00  0.00     0.029 A 
ATOM     35  N   UNL     1      11.265  -4.902   4.445  1.00  0.00    -0.354 N 
ATOM     36  C   UNL     1      10.583  -3.103   8.320  1.00  0.00     0.074 A 
ATOM     37  C   UNL     1       9.926  -1.819   8.187  1.00  0.00     0.031 C 
ATOM     38  C   UNL     1      11.124  -5.051   2.217  1.00  0.00     0.029 A 
ATOM     39  C   UNL     1      11.567  -5.758   3.416  1.00  0.00     0.049 A 
ATOM     40  H   UNL     1      11.445  -5.109   5.390  1.00  0.00     0.167 HD
ATOM     41  C   UNL     1      10.919  -3.677   9.501  1.00  0.00     0.037 A 
ATOM     42  C   UNL     1      12.144  -6.974   3.440  1.00  0.00     0.037 A 
ATOM     43  C   UNL     1      11.553  -4.963   9.627  1.00  0.00     0.049 A 
ATOM     44  C   UNL     1      12.547  -7.567   4.761  1.00  0.00     0.074 A 
ATOM     45  C   UNL     1      11.923  -5.637  10.778  1.00  0.00     0.029 A 
ATOM     46  N   UNL     1      11.913  -5.773   8.559  1.00  0.00    -0.354 N 
ATOM     47  N   UNL     1      12.373  -7.090   5.970  1.00  0.00    -0.248 NA
ATOM     48  C   UNL     1      13.236  -8.863   4.718  1.00  0.00     0.031 C 
ATOM     49  C   UNL     1      12.543  -6.836  10.405  1.00  0.00     0.029 A 
ATOM     50  C   UNL     1      12.522  -6.929   9.022  1.00  0.00     0.049 A 
ATOM     51  H   UNL     1      11.758  -5.558   7.611  1.00  0.00     0.167 HD
ATOM     52  C   UNL     1      12.923  -8.028   6.832  1.00  0.00     0.074 A 
ATOM     53  C   UNL     1      13.413  -9.114   6.008  1.00  0.00     0.031 C 
ATOM     54  C   UNL     1      13.019  -7.990   8.184  1.00  0.00     0.037 A 
BRANCH  41  55
ATOM     55  C   UNL     1      10.644  -2.887  10.746  1.00  0.00     0.064 A 
ATOM     56  C   UNL     1       9.343  -2.702  11.236  1.00  0.00     0.173 A 
ATOM     57  C   UNL     1      11.703  -2.304  11.458  1.00  0.00     0.173 A 
ATOM     58  F   UNL     1       8.294  -3.224  10.581  1.00  0.00    -0.203 F 
ATOM     59  C   UNL     1       9.110  -1.936  12.376  1.00  0.00     0.198 A 
ATOM     60  C   UNL     1      11.469  -1.560  12.611  1.00  0.00     0.198 A 
ATOM     61  F   UNL     1      12.966  -2.451  11.032  1.00  0.00    -0.203 F 
ATOM     62  F   UNL     1       7.854  -1.727  12.796  1.00  0.00    -0.200 F 
ATOM     63  C   UNL     1      10.172  -1.369  13.064  1.00  0.00     0.200 A 
ATOM     64  F   UNL     1      12.497  -1.019  13.279  1.00  0.00    -0.200 F 
ATOM     65  F   UNL     1       9.945  -0.628  14.158  1.00  0.00    -0.200 F 
ENDBRANCH  41  55
BRANCH  42  66
ATOM     66  C   UNL     1      12.372  -7.707   2.169  1.00  0.00     0.064 A 
ATOM     67  C   UNL     1      11.636  -8.857   1.859  1.00  0.00     0.173 A 
ATOM     68  C   UNL     1      13.320  -7.264   1.234  1.00  0.00     0.173 A 
ATOM     69  F   UNL     1      10.737  -9.333   2.733  1.00  0.00    -0.203 F 
ATOM     70  C   UNL     1      11.841  -9.541   0.662  1.00  0.00     0.198 A 
ATOM     71  C   UNL     1      13.506  -7.933   0.027  1.00  0.00     0.198 A 
ATOM     72  F   UNL     1      14.052  -6.170   1.487  1.00  0.00    -0.203 F 
ATOM     73  F   UNL     1      11.146 -10.656   0.402  1.00  0.00    -0.200 F 
ATOM     74  C   UNL     1      12.770  -9.073  -0.256  1.00  0.00     0.200 A 
ATOM     75  F   UNL     1      14.397  -7.472  -0.861  1.00  0.00    -0.200 F 
ATOM     76  F   UNL     1      12.959  -9.725  -1.412  1.00  0.00    -0.200 F 
ENDBRANCH  42  66
BRANCH  54  77
ATOM     77  C   UNL     1      13.679  -9.164   8.847  1.00  0.00     0.064 A 
ATOM     78  C   UNL     1      15.065  -9.365   8.765  1.00  0.00     0.173 A 
ATOM     79  C   UNL     1      12.921 -10.093   9.574  1.00  0.00     0.173 A 
ATOM     80  F   UNL     1      15.830  -8.513   8.065  1.00  0.00    -0.203 F 
ATOM     81  C   UNL     1      15.663 -10.471   9.361  1.00  0.00     0.198 A 
ATOM     82  C   UNL     1      13.526 -11.184  10.191  1.00  0.00     0.198 A 
ATOM     83  F   UNL     1      11.592  -9.943   9.685  1.00  0.00    -0.203 F 
ATOM     84  F   UNL     1      16.981 -10.673   9.224  1.00  0.00    -0.200 F 
ATOM     85  C   UNL     1      14.895 -11.377  10.076  1.00  0.00     0.200 A 
ATOM     86  F   UNL     1      12.784 -12.055  10.889  1.00  0.00    -0.200 F 
ATOM     87  F   UNL     1      15.472 -12.445  10.645  1.00  0.00    -0.200 F 
ENDBRANCH  54  77
ENDBRANCH  28  29
ENDBRANCH  21  23
ENDBRANCH  20  21
ENDBRANCH  19  20
ENDBRANCH   1  19
TORSDOF 15
