REMARK SMILES NC(=O)C[C@@H](NC(=O)c1ccc(CO)cc1)C(=O)OCCOC(=O)c1ccc(-c2c3nc(c(-c4c(F)c(F)c(F)c(F)c4F)c4ccc([nH]4)c(-c4c(F)c(F)c(F)c(F)c4F)c4nc(c(-c5c(F)c(F)c(F)c(F)c5F)c5ccc2[nH]5)C=C4)C=C3)cc1
REMARK SMILES IDX 20 1 19 2 17 3 18 4 5 5 4 6 2 7 1 8 3 11 6 12 7 13 8 15 9 16
REMARK SMILES IDX 10 17 16 18 11 19 15 20 12 21 13 22 14 23 21 25 22 26 23 27
REMARK SMILES IDX 24 28 25 29 26 30 87 31 27 32 86 33 28 34 29 35 30 36 80 37
REMARK SMILES IDX 31 38 85 39 79 40 81 41 32 42 84 43 78 44 77 45 33 47 65 48
REMARK SMILES IDX 45 49 64 50 46 51 49 52 63 53 82 54 47 55 48 56 62 58 83 59
REMARK SMILES IDX 50 60 34 61 35 62 43 63 36 64 37 65 41 66 44 67 38 68 39 69
REMARK SMILES IDX 42 70 40 71 66 72 67 73 75 74 68 75 69 76 73 77 76 78 70 79
REMARK SMILES IDX 71 80 74 81 72 82 51 83 52 84 60 85 53 86 54 87 58 88 61 89
REMARK SMILES IDX 55 90 56 91 59 92 57 93
REMARK H PARENT 1 9 1 10 6 14 14 24 81 46 49 57
REMARK Flexibility Score: inf
ROOT
ATOM      1  C   UNL     1       3.471  -5.822  -0.615  1.00  0.00     0.274 C 
ENDROOT
BRANCH   1   2
ATOM      2  O   UNL     1       3.042  -4.468  -0.358  1.00  0.00    -0.461 OA
BRANCH   2   3
ATOM      3  C   UNL     1       2.851  -3.698  -1.462  1.00  0.00     0.329 C 
ATOM      4  O   UNL     1       2.941  -4.109  -2.615  1.00  0.00    -0.250 OA
BRANCH   3   5
ATOM      5  C   UNL     1       2.584  -2.221  -1.150  1.00  0.00     0.201 C 
BRANCH   5   6
ATOM      6  C   UNL     1       1.605  -2.097   0.025  1.00  0.00     0.136 C 
BRANCH   6   7
ATOM      7  C   UNL     1       0.688  -0.928  -0.213  1.00  0.00     0.220 C 
ATOM      8  N   UNL     1       1.075   0.248   0.357  1.00  0.00    -0.370 N 
ATOM      9  H   UNL     1       0.523   1.055   0.243  1.00  0.00     0.159 HD
ATOM     10  H   UNL     1       1.906   0.290   0.883  1.00  0.00     0.159 HD
ATOM     11  O   UNL     1      -0.307  -0.993  -0.926  1.00  0.00    -0.275 OA
ENDBRANCH   6   7
ENDBRANCH   5   6
BRANCH   5  12
ATOM     12  N   UNL     1       3.735  -1.307  -0.958  1.00  0.00    -0.338 N 
ATOM     13  C   UNL     1       4.948  -1.259  -1.599  1.00  0.00     0.251 C 
ATOM     14  H   UNL     1       3.610  -0.626  -0.258  1.00  0.00     0.164 HD
ATOM     15  O   UNL     1       5.545  -0.196  -1.719  1.00  0.00    -0.269 OA
BRANCH  13  16
ATOM     16  C   UNL     1       5.605  -2.512  -1.989  1.00  0.00     0.039 A 
ATOM     17  C   UNL     1       6.318  -3.214  -1.014  1.00  0.00     0.014 A 
ATOM     18  C   UNL     1       5.484  -3.008  -3.285  1.00  0.00     0.014 A 
ATOM     19  C   UNL     1       6.823  -4.479  -1.310  1.00  0.00     0.007 A 
ATOM     20  C   UNL     1       5.964  -4.290  -3.568  1.00  0.00     0.007 A 
ATOM     21  C   UNL     1       6.593  -5.052  -2.570  1.00  0.00    -0.023 A 
BRANCH  21  22
ATOM     22  C   UNL     1       6.972  -6.487  -2.825  1.00  0.00     0.191 C 
BRANCH  22  23
ATOM     23  O   UNL     1       8.312  -6.591  -3.270  1.00  0.00    -0.392 OA
ATOM     24  H   UNL     1       8.415  -6.102  -4.102  1.00  0.00     0.211 HD
ENDBRANCH  22  23
ENDBRANCH  21  22
ENDBRANCH  13  16
ENDBRANCH   5  12
ENDBRANCH   3   5
ENDBRANCH   2   3
ENDBRANCH   1   2
BRANCH   1  25
ATOM     25  C   UNL     1       2.329  -6.828  -0.806  1.00  0.00     0.275 C 
BRANCH  25  26
ATOM     26  O   UNL     1       1.636  -6.644  -2.054  1.00  0.00    -0.458 OA
BRANCH  26  27
ATOM     27  C   UNL     1       0.595  -5.779  -1.997  1.00  0.00     0.338 C 
ATOM     28  O   UNL     1       0.165  -5.229  -0.996  1.00  0.00    -0.246 OA
BRANCH  27  29
ATOM     29  C   UNL     1       0.128  -5.433  -3.354  1.00  0.00     0.060 A 
ATOM     30  C   UNL     1      -0.097  -4.079  -3.632  1.00  0.00     0.016 A 
ATOM     31  C   UNL     1      -0.147  -6.407  -4.317  1.00  0.00     0.016 A 
ATOM     32  C   UNL     1      -0.617  -3.691  -4.863  1.00  0.00     0.010 A 
ATOM     33  C   UNL     1      -0.691  -6.019  -5.546  1.00  0.00     0.010 A 
ATOM     34  C   UNL     1      -0.950  -4.662  -5.813  1.00  0.00    -0.014 A 
BRANCH  34  35
ATOM     35  C   UNL     1      -1.709  -4.265  -7.021  1.00  0.00     0.031 A 
ATOM     36  C   UNL     1      -3.200  -4.439  -7.025  1.00  0.00     0.074 A 
ATOM     37  C   UNL     1      -1.083  -3.727  -8.081  1.00  0.00     0.049 A 
ATOM     38  N   UNL     1      -4.059  -4.242  -7.992  1.00  0.00    -0.248 NA
ATOM     39  C   UNL     1      -3.805  -4.897  -5.764  1.00  0.00     0.031 C 
ATOM     40  C   UNL     1       0.349  -3.449  -8.162  1.00  0.00     0.029 A 
ATOM     41  N   UNL     1      -1.577  -3.325  -9.296  1.00  0.00    -0.354 N 
ATOM     42  C   UNL     1      -5.300  -4.567  -7.463  1.00  0.00     0.074 A 
ATOM     43  C   UNL     1      -5.084  -4.989  -6.096  1.00  0.00     0.031 C 
ATOM     44  C   UNL     1       0.623  -2.934  -9.373  1.00  0.00     0.029 A 
ATOM     45  C   UNL     1      -0.607  -2.885 -10.162  1.00  0.00     0.049 A 
ATOM     46  H   UNL     1      -2.534  -3.349  -9.525  1.00  0.00     0.167 HD
ATOM     47  C   UNL     1      -6.511  -4.515  -8.066  1.00  0.00     0.037 A 
ATOM     48  C   UNL     1      -0.702  -2.517 -11.454  1.00  0.00     0.037 A 
ATOM     49  C   UNL     1      -6.718  -4.085  -9.424  1.00  0.00     0.049 A 
ATOM     50  C   UNL     1      -2.050  -2.538 -12.127  1.00  0.00     0.074 A 
ATOM     51  C   UNL     1      -7.905  -3.988 -10.128  1.00  0.00     0.029 A 
ATOM     52  N   UNL     1      -5.707  -3.681 -10.284  1.00  0.00    -0.354 N 
ATOM     53  N   UNL     1      -3.221  -2.855 -11.627  1.00  0.00    -0.248 NA
ATOM     54  C   UNL     1      -2.090  -2.157 -13.546  1.00  0.00     0.031 C 
ATOM     55  C   UNL     1      -7.606  -3.569 -11.429  1.00  0.00     0.029 A 
ATOM     56  C   UNL     1      -6.240  -3.358 -11.521  1.00  0.00     0.049 A 
ATOM     57  H   UNL     1      -4.752  -3.631 -10.049  1.00  0.00     0.167 HD
ATOM     58  C   UNL     1      -4.136  -2.691 -12.658  1.00  0.00     0.074 A 
ATOM     59  C   UNL     1      -3.387  -2.233 -13.810  1.00  0.00     0.031 C 
ATOM     60  C   UNL     1      -5.476  -2.900 -12.653  1.00  0.00     0.037 A 
BRANCH  47  61
ATOM     61  C   UNL     1      -7.698  -4.974  -7.272  1.00  0.00     0.064 A 
ATOM     62  C   UNL     1      -8.219  -4.215  -6.214  1.00  0.00     0.173 A 
ATOM     63  C   UNL     1      -8.333  -6.184  -7.589  1.00  0.00     0.173 A 
ATOM     64  F   UNL     1      -7.638  -3.059  -5.862  1.00  0.00    -0.203 F 
ATOM     65  C   UNL     1      -9.317  -4.665  -5.485  1.00  0.00     0.198 A 
ATOM     66  C   UNL     1      -9.447  -6.617  -6.875  1.00  0.00     0.198 A 
ATOM     67  F   UNL     1      -7.874  -6.947  -8.593  1.00  0.00    -0.203 F 
ATOM     68  F   UNL     1      -9.771  -3.947  -4.448  1.00  0.00    -0.200 F 
ATOM     69  C   UNL     1      -9.933  -5.862  -5.819  1.00  0.00     0.200 A 
ATOM     70  F   UNL     1     -10.046  -7.769  -7.206  1.00  0.00    -0.200 F 
ATOM     71  F   UNL     1     -10.992  -6.291  -5.119  1.00  0.00    -0.200 F 
ENDBRANCH  47  61
BRANCH  48  72
ATOM     72  C   UNL     1       0.519  -2.126 -12.205  1.00  0.00     0.064 A 
ATOM     73  C   UNL     1       0.719  -0.805 -12.627  1.00  0.00     0.173 A 
ATOM     74  C   UNL     1       1.507  -3.069 -12.523  1.00  0.00     0.173 A 
ATOM     75  F   UNL     1      -0.211   0.128 -12.371  1.00  0.00    -0.203 F 
ATOM     76  C   UNL     1       1.855  -0.444 -13.348  1.00  0.00     0.198 A 
ATOM     77  C   UNL     1       2.655  -2.703 -13.221  1.00  0.00     0.198 A 
ATOM     78  F   UNL     1       1.361  -4.349 -12.148  1.00  0.00    -0.203 F 
ATOM     79  F   UNL     1       2.003   0.817 -13.777  1.00  0.00    -0.200 F 
ATOM     80  C   UNL     1       2.826  -1.392 -13.639  1.00  0.00     0.200 A 
ATOM     81  F   UNL     1       3.595  -3.620 -13.491  1.00  0.00    -0.200 F 
ATOM     82  F   UNL     1       3.921  -1.044 -14.329  1.00  0.00    -0.200 F 
ENDBRANCH  48  72
BRANCH  60  83
ATOM     83  C   UNL     1      -6.222  -2.607 -13.921  1.00  0.00     0.064 A 
ATOM     84  C   UNL     1      -6.134  -3.452 -15.037  1.00  0.00     0.173 A 
ATOM     85  C   UNL     1      -7.074  -1.496 -14.003  1.00  0.00     0.173 A 
ATOM     86  F   UNL     1      -5.322  -4.520 -15.013  1.00  0.00    -0.203 F 
ATOM     87  C   UNL     1      -6.857  -3.183 -16.196  1.00  0.00     0.198 A 
ATOM     88  C   UNL     1      -7.817  -1.245 -15.153  1.00  0.00     0.198 A 
ATOM     89  F   UNL     1      -7.199  -0.661 -12.960  1.00  0.00    -0.203 F 
ATOM     90  F   UNL     1      -6.728  -3.981 -17.265  1.00  0.00    -0.200 F 
ATOM     91  C   UNL     1      -7.703  -2.085 -16.250  1.00  0.00     0.200 A 
ATOM     92  F   UNL     1      -8.643  -0.191 -15.199  1.00  0.00    -0.200 F 
ATOM     93  F   UNL     1      -8.405  -1.833 -17.364  1.00  0.00    -0.200 F 
ENDBRANCH  60  83
ENDBRANCH  34  35
ENDBRANCH  27  29
ENDBRANCH  26  27
ENDBRANCH  25  26
ENDBRANCH   1  25
TORSDOF 17
