REMARK SMILES Cc1cc(C(=O)OCCOC(=O)c2ccc(-c3c4nc(c(-c5c(F)c(F)c(F)c(F)c5F)c5ccc([nH]5)c(-c5c(F)c(F)c(F)c(F)c5F)c5nc(c(-c6c(F)c(F)c(F)c(F)c6F)c6ccc3[nH]6)C=C5)C=C4)cc2)c(O)c(S(=O)(=O)N2CCCc3cc(F)cc(F)c32)c1
REMARK SMILES IDX 8 1 7 2 5 3 6 4 4 5 1 6 2 7 3 8 94 9 78 10 76 11 79 12 80 13
REMARK SMILES IDX 81 14 82 15 83 16 93 17 84 18 86 19 91 20 85 21 87 22 90 23
REMARK SMILES IDX 92 24 88 25 89 26 77 27 9 29 10 30 11 31 12 32 13 33 14 34
REMARK SMILES IDX 75 35 15 36 74 37 16 38 17 39 18 40 68 41 19 42 73 43 67 44
REMARK SMILES IDX 69 45 20 46 72 47 66 48 65 49 21 51 53 52 33 53 52 54 34 55
REMARK SMILES IDX 37 56 51 57 70 58 35 59 36 60 50 62 71 63 38 64 22 65 23 66
REMARK SMILES IDX 31 67 24 68 25 69 29 70 32 71 26 72 27 73 30 74 28 75 54 76
REMARK SMILES IDX 55 77 63 78 56 79 57 80 61 81 64 82 58 83 59 84 62 85 60 86
REMARK SMILES IDX 39 87 40 88 48 89 41 90 42 91 46 92 49 93 43 94 44 95 47 96
REMARK SMILES IDX 45 97
REMARK H PARENT 77 28 69 50 37 61
REMARK Flexibility Score: inf
ROOT
ATOM      1  C   UNL     1      -3.134   3.470  -0.163  1.00  0.00     0.275 C 
ENDROOT
BRANCH   1   2
ATOM      2  O   UNL     1      -2.348   2.281   0.045  1.00  0.00    -0.458 OA
BRANCH   2   3
ATOM      3  C   UNL     1      -1.313   2.076  -0.806  1.00  0.00     0.342 C 
ATOM      4  O   UNL     1      -0.867   2.872  -1.621  1.00  0.00    -0.246 OA
BRANCH   3   5
ATOM      5  C   UNL     1      -0.720   0.735  -0.607  1.00  0.00     0.103 A 
ATOM      6  C   UNL     1       2.715  -0.806  -0.124  1.00  0.00     0.044 C 
ATOM      7  C   UNL     1       1.237  -0.720  -0.384  1.00  0.00    -0.049 A 
ATOM      8  C   UNL     1       0.660   0.562  -0.472  1.00  0.00     0.023 A 
ATOM      9  C   UNL     1       0.430  -1.859  -0.545  1.00  0.00     0.029 A 
ATOM     10  C   UNL     1      -0.943  -1.682  -0.697  1.00  0.00     0.130 A 
ATOM     11  C   UNL     1      -1.522  -0.390  -0.670  1.00  0.00     0.150 A 
BRANCH  10  12
ATOM     12  S   UNL     1      -2.124  -2.938  -0.994  1.00  0.00     0.268 S 
ATOM     13  O   UNL     1      -3.105  -2.659   0.047  1.00  0.00    -0.201 OA
ATOM     14  O   UNL     1      -2.498  -2.763  -2.384  1.00  0.00    -0.201 OA
BRANCH  12  15
ATOM     15  N   UNL     1      -1.630  -4.608  -0.802  1.00  0.00    -0.263 N 
ATOM     16  C   UNL     1      -0.880  -4.982   0.430  1.00  0.00     0.136 C 
ATOM     17  C   UNL     1      -2.898  -5.366  -0.979  1.00  0.00     0.091 A 
ATOM     18  C   UNL     1      -1.690  -5.797   1.440  1.00  0.00     0.028 C 
ATOM     19  C   UNL     1      -3.750  -5.375   0.147  1.00  0.00    -0.018 A 
ATOM     20  C   UNL     1      -3.456  -5.463  -2.264  1.00  0.00     0.150 A 
ATOM     21  C   UNL     1      -3.139  -5.332   1.523  1.00  0.00     0.040 C 
ATOM     22  C   UNL     1      -5.122  -5.178  -0.047  1.00  0.00     0.045 A 
ATOM     23  C   UNL     1      -4.825  -5.317  -2.451  1.00  0.00     0.080 A 
ATOM     24  F   UNL     1      -2.657  -5.530  -3.340  1.00  0.00    -0.205 F 
ATOM     25  C   UNL     1      -5.633  -5.103  -1.342  1.00  0.00     0.126 A 
ATOM     26  F   UNL     1      -6.919  -4.773  -1.519  1.00  0.00    -0.207 F 
ENDBRANCH  12  15
ENDBRANCH  10  12
BRANCH  11  27
ATOM     27  O   UNL     1      -2.879  -0.188  -0.756  1.00  0.00    -0.506 OA
ATOM     28  H   UNL     1      -3.226   0.683  -0.735  1.00  0.00     0.293 HD
ENDBRANCH  11  27
ENDBRANCH   3   5
ENDBRANCH   2   3
ENDBRANCH   1   2
BRANCH   1  29
ATOM     29  C   UNL     1      -2.937   4.461   0.981  1.00  0.00     0.275 C 
BRANCH  29  30
ATOM     30  O   UNL     1      -1.582   4.942   0.992  1.00  0.00    -0.458 OA
BRANCH  30  31
ATOM     31  C   UNL     1      -0.771   4.320   1.875  1.00  0.00     0.338 C 
ATOM     32  O   UNL     1      -1.066   3.487   2.714  1.00  0.00    -0.246 OA
BRANCH  31  33
ATOM     33  C   UNL     1       0.621   4.701   1.619  1.00  0.00     0.060 A 
ATOM     34  C   UNL     1       1.311   3.991   0.646  1.00  0.00     0.016 A 
ATOM     35  C   UNL     1       1.295   5.591   2.445  1.00  0.00     0.016 A 
ATOM     36  C   UNL     1       2.694   4.056   0.569  1.00  0.00     0.010 A 
ATOM     37  C   UNL     1       2.677   5.753   2.285  1.00  0.00     0.010 A 
ATOM     38  C   UNL     1       3.398   4.954   1.376  1.00  0.00    -0.014 A 
BRANCH  38  39
ATOM     39  C   UNL     1       4.883   5.020   1.287  1.00  0.00     0.031 A 
ATOM     40  C   UNL     1       5.723   4.785   2.513  1.00  0.00     0.074 A 
ATOM     41  C   UNL     1       5.482   5.264   0.104  1.00  0.00     0.049 A 
ATOM     42  N   UNL     1       7.008   4.968   2.687  1.00  0.00    -0.248 NA
ATOM     43  C   UNL     1       5.024   4.292   3.710  1.00  0.00     0.031 C 
ATOM     44  C   UNL     1       4.792   5.450  -1.175  1.00  0.00     0.029 A 
ATOM     45  N   UNL     1       6.810   5.393  -0.219  1.00  0.00    -0.354 N 
ATOM     46  C   UNL     1       7.256   4.678   4.023  1.00  0.00     0.074 A 
ATOM     47  C   UNL     1       5.989   4.312   4.617  1.00  0.00     0.031 C 
ATOM     48  C   UNL     1       5.698   5.626  -2.146  1.00  0.00     0.029 A 
ATOM     49  C   UNL     1       7.025   5.676  -1.546  1.00  0.00     0.049 A 
ATOM     50  H   UNL     1       7.538   5.293   0.436  1.00  0.00     0.167 HD
ATOM     51  C   UNL     1       8.436   4.720   4.689  1.00  0.00     0.037 A 
ATOM     52  C   UNL     1       8.156   5.995  -2.203  1.00  0.00     0.037 A 
ATOM     53  C   UNL     1       9.699   5.038   4.072  1.00  0.00     0.049 A 
ATOM     54  C   UNL     1       9.442   6.086  -1.432  1.00  0.00     0.074 A 
ATOM     55  C   UNL     1      10.956   5.081   4.651  1.00  0.00     0.029 A 
ATOM     56  N   UNL     1       9.866   5.360   2.732  1.00  0.00    -0.354 N 
ATOM     57  N   UNL     1       9.662   5.853  -0.162  1.00  0.00    -0.248 NA
ATOM     58  C   UNL     1      10.632   6.504  -2.184  1.00  0.00     0.031 C 
ATOM     59  C   UNL     1      11.874   5.482   3.674  1.00  0.00     0.029 A 
ATOM     60  C   UNL     1      11.201   5.628   2.472  1.00  0.00     0.049 A 
ATOM     61  H   UNL     1       9.143   5.393   2.065  1.00  0.00     0.167 HD
ATOM     62  C   UNL     1      11.017   6.076   0.037  1.00  0.00     0.074 A 
ATOM     63  C   UNL     1      11.571   6.444  -1.250  1.00  0.00     0.031 C 
ATOM     64  C   UNL     1      11.736   5.987   1.183  1.00  0.00     0.037 A 
BRANCH  51  65
ATOM     65  C   UNL     1       8.411   4.463   6.170  1.00  0.00     0.064 A 
ATOM     66  C   UNL     1       8.141   3.196   6.707  1.00  0.00     0.173 A 
ATOM     67  C   UNL     1       8.686   5.507   7.068  1.00  0.00     0.173 A 
ATOM     68  F   UNL     1       7.860   2.164   5.897  1.00  0.00    -0.203 F 
ATOM     69  C   UNL     1       8.114   2.991   8.086  1.00  0.00     0.198 A 
ATOM     70  C   UNL     1       8.692   5.292   8.444  1.00  0.00     0.198 A 
ATOM     71  F   UNL     1       8.957   6.739   6.611  1.00  0.00    -0.203 F 
ATOM     72  F   UNL     1       7.798   1.785   8.576  1.00  0.00    -0.200 F 
ATOM     73  C   UNL     1       8.396   4.037   8.952  1.00  0.00     0.200 A 
ATOM     74  F   UNL     1       8.980   6.301   9.278  1.00  0.00    -0.200 F 
ATOM     75  F   UNL     1       8.373   3.837  10.277  1.00  0.00    -0.200 F 
ENDBRANCH  51  65
BRANCH  52  76
ATOM     76  C   UNL     1       8.107   6.294  -3.659  1.00  0.00     0.064 A 
ATOM     77  C   UNL     1       8.725   5.448  -4.590  1.00  0.00     0.173 A 
ATOM     78  C   UNL     1       7.430   7.421  -4.152  1.00  0.00     0.173 A 
ATOM     79  F   UNL     1       9.405   4.372  -4.167  1.00  0.00    -0.203 F 
ATOM     80  C   UNL     1       8.676   5.722  -5.955  1.00  0.00     0.198 A 
ATOM     81  C   UNL     1       7.352   7.674  -5.519  1.00  0.00     0.198 A 
ATOM     82  F   UNL     1       6.822   8.264  -3.305  1.00  0.00    -0.203 F 
ATOM     83  F   UNL     1       9.312   4.920  -6.820  1.00  0.00    -0.200 F 
ATOM     84  C   UNL     1       7.981   6.829  -6.419  1.00  0.00     0.200 A 
ATOM     85  F   UNL     1       6.664   8.735  -5.963  1.00  0.00    -0.200 F 
ATOM     86  F   UNL     1       7.924   7.084  -7.733  1.00  0.00    -0.200 F 
ENDBRANCH  52  76
BRANCH  64  87
ATOM     87  C   UNL     1      13.211   6.250   1.084  1.00  0.00     0.064 A 
ATOM     88  C   UNL     1      13.719   7.539   0.864  1.00  0.00     0.173 A 
ATOM     89  C   UNL     1      14.128   5.199   1.240  1.00  0.00     0.173 A 
ATOM     90  F   UNL     1      12.883   8.574   0.691  1.00  0.00    -0.203 F 
ATOM     91  C   UNL     1      15.091   7.761   0.773  1.00  0.00     0.198 A 
ATOM     92  C   UNL     1      15.499   5.431   1.182  1.00  0.00     0.198 A 
ATOM     93  F   UNL     1      13.694   3.949   1.458  1.00  0.00    -0.203 F 
ATOM     94  F   UNL     1      15.552   8.990   0.507  1.00  0.00    -0.200 F 
ATOM     95  C   UNL     1      15.979   6.708   0.941  1.00  0.00     0.200 A 
ATOM     96  F   UNL     1      16.356   4.415   1.358  1.00  0.00    -0.200 F 
ATOM     97  F   UNL     1      17.299   6.925   0.859  1.00  0.00    -0.200 F 
ENDBRANCH  64  87
ENDBRANCH  38  39
ENDBRANCH  31  33
ENDBRANCH  30  31
ENDBRANCH  29  30
ENDBRANCH   1  29
TORSDOF 14
