REMARK SMILES Cc1cc(OCC(=O)OCCOC(=O)c2ccc(-c3c4nc(c(-c5c(F)c(F)c(F)c(F)c5F)c5ccc([nH]5)c(-c5c(F)c(F)c(F)c(F)c5F)c5nc(c(-c6c(F)c(F)c(F)c(F)c6F)c6ccc3[nH]6)C=C5)C=C4)cc2)nc(-n2nc(C)cc2C)n1
REMARK SMILES IDX 10 1 9 2 7 3 8 4 6 5 5 6 4 7 1 8 2 9 3 10 87 11 79 12 78 13
REMARK SMILES IDX 80 14 81 15 85 16 82 17 84 18 86 19 83 20 11 21 12 22 13 23
REMARK SMILES IDX 14 24 15 25 16 26 77 27 17 28 76 29 18 30 19 31 20 32 70 33
REMARK SMILES IDX 21 34 75 35 69 36 71 37 22 38 74 39 68 40 67 41 23 43 55 44
REMARK SMILES IDX 35 45 54 46 36 47 39 48 53 49 72 50 37 51 38 52 52 54 73 55
REMARK SMILES IDX 40 56 24 57 25 58 33 59 26 60 27 61 31 62 34 63 28 64 29 65
REMARK SMILES IDX 32 66 30 67 56 68 57 69 65 70 58 71 59 72 63 73 66 74 60 75
REMARK SMILES IDX 61 76 64 77 62 78 41 79 42 80 50 81 43 82 44 83 48 84 51 85
REMARK SMILES IDX 45 86 46 87 49 88 47 89
REMARK H PARENT 71 42 39 53
REMARK Flexibility Score: inf
ROOT
ATOM      1  C   UNL     1       0.611  -3.846   3.355  1.00  0.00     0.274 C 
ENDROOT
BRANCH   1   2
ATOM      2  O   UNL     1       1.271  -3.191   2.251  1.00  0.00    -0.460 OA
BRANCH   2   3
ATOM      3  C   UNL     1       1.313  -3.891   1.086  1.00  0.00     0.344 C 
ATOM      4  O   UNL     1       0.822  -5.003   0.916  1.00  0.00    -0.248 OA
BRANCH   3   5
ATOM      5  C   UNL     1       2.038  -3.148  -0.035  1.00  0.00     0.353 C 
BRANCH   5   6
ATOM      6  O   UNL     1       2.505  -1.836   0.197  1.00  0.00    -0.466 OA
BRANCH   6   7
ATOM      7  C   UNL     1       1.653  -0.782   0.050  1.00  0.00     0.219 A 
ATOM      8  C   UNL     1      -1.882   0.349  -0.471  1.00  0.00     0.067 C 
ATOM      9  C   UNL     1      -0.415   0.312  -0.181  1.00  0.00     0.047 A 
ATOM     10  C   UNL     1       0.294  -0.872  -0.156  1.00  0.00     0.092 A 
ATOM     11  N   UNL     1       0.170   1.494   0.054  1.00  0.00    -0.216 NA
ATOM     12  C   UNL     1       1.516   1.500   0.165  1.00  0.00     0.254 A 
ATOM     13  N   UNL     1       2.286   0.396   0.147  1.00  0.00    -0.175 NA
BRANCH  12  14
ATOM     14  N   UNL     1       2.140   2.788   0.232  1.00  0.00    -0.203 N 
ATOM     15  N   UNL     1       3.253   3.081  -0.500  1.00  0.00    -0.170 NA
ATOM     16  C   UNL     1       1.639   3.919   0.864  1.00  0.00     0.045 A 
ATOM     17  C   UNL     1       3.291   4.417  -0.524  1.00  0.00     0.060 A 
ATOM     18  C   UNL     1       2.346   4.985   0.354  1.00  0.00     0.049 A 
ATOM     19  C   UNL     1       0.568   3.866   1.891  1.00  0.00     0.067 C 
ATOM     20  C   UNL     1       4.237   5.125  -1.419  1.00  0.00     0.069 C 
ENDBRANCH  12  14
ENDBRANCH   6   7
ENDBRANCH   5   6
ENDBRANCH   3   5
ENDBRANCH   2   3
ENDBRANCH   1   2
BRANCH   1  21
ATOM     21  C   UNL     1      -0.830  -3.361   3.488  1.00  0.00     0.275 C 
BRANCH  21  22
ATOM     22  O   UNL     1      -1.536  -3.615   2.261  1.00  0.00    -0.458 OA
BRANCH  22  23
ATOM     23  C   UNL     1      -2.418  -2.665   1.893  1.00  0.00     0.338 C 
ATOM     24  O   UNL     1      -2.718  -1.657   2.527  1.00  0.00    -0.246 OA
BRANCH  23  25
ATOM     25  C   UNL     1      -2.983  -2.954   0.559  1.00  0.00     0.060 A 
ATOM     26  C   UNL     1      -2.239  -3.604  -0.433  1.00  0.00     0.016 A 
ATOM     27  C   UNL     1      -4.251  -2.450   0.257  1.00  0.00     0.016 A 
ATOM     28  C   UNL     1      -2.731  -3.681  -1.738  1.00  0.00     0.010 A 
ATOM     29  C   UNL     1      -4.773  -2.595  -1.029  1.00  0.00     0.010 A 
ATOM     30  C   UNL     1      -4.009  -3.191  -2.044  1.00  0.00    -0.014 A 
BRANCH  30  31
ATOM     31  C   UNL     1      -4.588  -3.339  -3.403  1.00  0.00     0.031 A 
ATOM     32  C   UNL     1      -4.923  -2.131  -4.233  1.00  0.00     0.074 A 
ATOM     33  C   UNL     1      -4.879  -4.570  -3.862  1.00  0.00     0.049 A 
ATOM     34  N   UNL     1      -5.612  -2.054  -5.343  1.00  0.00    -0.248 NA
ATOM     35  C   UNL     1      -4.420  -0.837  -3.749  1.00  0.00     0.031 C 
ATOM     36  C   UNL     1      -4.588  -5.822  -3.162  1.00  0.00     0.029 A 
ATOM     37  N   UNL     1      -5.508  -4.969  -5.014  1.00  0.00    -0.354 N 
ATOM     38  C   UNL     1      -5.648  -0.707  -5.677  1.00  0.00     0.074 A 
ATOM     39  C   UNL     1      -4.915   0.002  -4.649  1.00  0.00     0.031 C 
ATOM     40  C   UNL     1      -5.041  -6.849  -3.895  1.00  0.00     0.029 A 
ATOM     41  C   UNL     1      -5.713  -6.325  -5.079  1.00  0.00     0.049 A 
ATOM     42  H   UNL     1      -5.785  -4.345  -5.723  1.00  0.00     0.167 HD
ATOM     43  C   UNL     1      -6.240  -0.119  -6.744  1.00  0.00     0.037 A 
ATOM     44  C   UNL     1      -6.409  -7.062  -5.963  1.00  0.00     0.037 A 
ATOM     45  C   UNL     1      -6.951  -0.830  -7.775  1.00  0.00     0.049 A 
ATOM     46  C   UNL     1      -7.107  -6.383  -7.103  1.00  0.00     0.074 A 
ATOM     47  C   UNL     1      -7.556  -0.325  -8.914  1.00  0.00     0.029 A 
ATOM     48  N   UNL     1      -7.154  -2.202  -7.791  1.00  0.00    -0.354 N 
ATOM     49  N   UNL     1      -7.152  -5.107  -7.399  1.00  0.00    -0.248 NA
ATOM     50  C   UNL     1      -7.863  -7.243  -8.022  1.00  0.00     0.031 C 
ATOM     51  C   UNL     1      -8.152  -1.388  -9.602  1.00  0.00     0.029 A 
ATOM     52  C   UNL     1      -7.890  -2.558  -8.909  1.00  0.00     0.049 A 
ATOM     53  H   UNL     1      -6.823  -2.829  -7.109  1.00  0.00     0.167 HD
ATOM     54  C   UNL     1      -7.932  -5.010  -8.541  1.00  0.00     0.074 A 
ATOM     55  C   UNL     1      -8.330  -6.359  -8.892  1.00  0.00     0.031 C 
ATOM     56  C   UNL     1      -8.287  -3.903  -9.236  1.00  0.00     0.037 A 
BRANCH  43  57
ATOM     57  C   UNL     1      -6.165   1.374  -6.852  1.00  0.00     0.064 A 
ATOM     58  C   UNL     1      -4.996   2.021  -7.275  1.00  0.00     0.173 A 
ATOM     59  C   UNL     1      -7.298   2.160  -6.595  1.00  0.00     0.173 A 
ATOM     60  F   UNL     1      -3.884   1.313  -7.522  1.00  0.00    -0.203 F 
ATOM     61  C   UNL     1      -4.962   3.405  -7.430  1.00  0.00     0.198 A 
ATOM     62  C   UNL     1      -7.265   3.542  -6.768  1.00  0.00     0.198 A 
ATOM     63  F   UNL     1      -8.441   1.587  -6.191  1.00  0.00    -0.203 F 
ATOM     64  F   UNL     1      -3.828   4.007  -7.816  1.00  0.00    -0.200 F 
ATOM     65  C   UNL     1      -6.098   4.163  -7.184  1.00  0.00     0.200 A 
ATOM     66  F   UNL     1      -8.366   4.271  -6.538  1.00  0.00    -0.200 F 
ATOM     67  F   UNL     1      -6.066   5.493  -7.346  1.00  0.00    -0.200 F 
ENDBRANCH  43  57
BRANCH  44  68
ATOM     68  C   UNL     1      -6.504  -8.529  -5.766  1.00  0.00     0.064 A 
ATOM     69  C   UNL     1      -5.792  -9.411  -6.588  1.00  0.00     0.173 A 
ATOM     70  C   UNL     1      -7.272  -9.072  -4.725  1.00  0.00     0.173 A 
ATOM     71  F   UNL     1      -5.063  -8.935  -7.607  1.00  0.00    -0.203 F 
ATOM     72  C   UNL     1      -5.844 -10.786  -6.374  1.00  0.00     0.198 A 
ATOM     73  C   UNL     1      -7.304 -10.445  -4.499  1.00  0.00     0.198 A 
ATOM     74  F   UNL     1      -7.966  -8.263  -3.911  1.00  0.00    -0.203 F 
ATOM     75  F   UNL     1      -5.171 -11.613  -7.186  1.00  0.00    -0.200 F 
ATOM     76  C   UNL     1      -6.592 -11.301  -5.325  1.00  0.00     0.200 A 
ATOM     77  F   UNL     1      -8.015 -10.936  -3.475  1.00  0.00    -0.200 F 
ATOM     78  F   UNL     1      -6.627 -12.623  -5.110  1.00  0.00    -0.200 F 
ENDBRANCH  44  68
BRANCH  56  79
ATOM     79  C   UNL     1      -9.136  -4.109 -10.451  1.00  0.00     0.064 A 
ATOM     80  C   UNL     1     -10.508  -4.378 -10.343  1.00  0.00     0.173 A 
ATOM     81  C   UNL     1      -8.577  -4.020 -11.734  1.00  0.00     0.173 A 
ATOM     82  F   UNL     1     -11.081  -4.491  -9.135  1.00  0.00    -0.203 F 
ATOM     83  C   UNL     1     -11.288  -4.571 -11.480  1.00  0.00     0.198 A 
ATOM     84  C   UNL     1      -9.364  -4.194 -12.868  1.00  0.00     0.198 A 
ATOM     85  F   UNL     1      -7.270  -3.764 -11.885  1.00  0.00    -0.203 F 
ATOM     86  F   UNL     1     -12.589  -4.865 -11.356  1.00  0.00    -0.200 F 
ATOM     87  C   UNL     1     -10.717  -4.474 -12.741  1.00  0.00     0.200 A 
ATOM     88  F   UNL     1      -8.812  -4.096 -14.086  1.00  0.00    -0.200 F 
ATOM     89  F   UNL     1     -11.469  -4.662 -13.834  1.00  0.00    -0.200 F 
ENDBRANCH  56  79
ENDBRANCH  30  31
ENDBRANCH  23  25
ENDBRANCH  22  23
ENDBRANCH  21  22
ENDBRANCH   1  21
TORSDOF 14
