REMARK SMILES CC[N@@H+](C[C@@H]1CCCO1)[C@@H](C)c1ccc(C(=O)OCCOC(=O)c2ccc(-c3c4nc(c(-c5c(F)c(F)c(F)c(F)c5F)c5ccc([nH]5)c(-c5c(F)c(F)c(F)c(F)c5F)c5nc(c(-c6c(F)c(F)c(F)c(F)c6F)c6ccc3[nH]6)C=C5)C=C4)cc2)o1
REMARK SMILES IDX 19 1 18 2 16 3 17 4 15 5 12 6 13 7 87 8 14 9 10 10 11 11
REMARK SMILES IDX 3 12 2 14 1 15 4 16 5 17 6 18 9 19 7 20 8 21 20 22 21 23
REMARK SMILES IDX 22 24 23 25 24 26 25 27 86 28 26 29 85 30 27 31 28 32 29 33
REMARK SMILES IDX 79 34 30 35 84 36 78 37 80 38 31 39 83 40 77 41 76 42 32 44
REMARK SMILES IDX 64 45 44 46 63 47 45 48 48 49 62 50 81 51 46 52 47 53 61 55
REMARK SMILES IDX 82 56 49 57 33 58 34 59 42 60 35 61 36 62 40 63 43 64 37 65
REMARK SMILES IDX 38 66 41 67 39 68 65 69 66 70 74 71 67 72 68 73 72 74 75 75
REMARK SMILES IDX 69 76 70 77 73 78 71 79 50 80 51 81 59 82 52 83 53 84 57 85
REMARK SMILES IDX 60 86 54 87 55 88 58 89 56 90
REMARK H PARENT 3 13 80 43 48 54
REMARK Flexibility Score: inf
ROOT
ATOM      1  C   UNL     1       3.221  -4.451  -2.208  1.00  0.00     0.275 C 
ENDROOT
BRANCH   1   2
ATOM      2  O   UNL     1       3.474  -3.043  -2.374  1.00  0.00    -0.456 OA
BRANCH   2   3
ATOM      3  C   UNL     1       2.519  -2.232  -1.832  1.00  0.00     0.374 C 
ATOM      4  O   UNL     1       1.513  -2.646  -1.263  1.00  0.00    -0.242 OA
BRANCH   3   5
ATOM      5  C   UNL     1       2.875  -0.841  -1.966  1.00  0.00     0.212 A 
ATOM      6  C   UNL     1       2.741   1.269  -1.302  1.00  0.00     0.162 A 
ATOM      7  C   UNL     1       3.554   1.255  -2.422  1.00  0.00     0.053 A 
ATOM      8  O   UNL     1       2.356   0.002  -1.029  1.00  0.00    -0.448 OA
ATOM      9  C   UNL     1       3.666  -0.106  -2.829  1.00  0.00     0.059 A 
BRANCH   6  10
ATOM     10  C   UNL     1       2.434   2.323  -0.267  1.00  0.00     0.248 C 
ATOM     11  C   UNL     1       3.451   2.147   0.867  1.00  0.00     0.084 C 
BRANCH  10  12
ATOM     12  N   UNL     1       1.010   2.556   0.097  1.00  0.00    -0.324 N 
ATOM     13  H   UNL     1       0.634   2.606  -0.850  1.00  0.00     0.348 HD
BRANCH  12  14
ATOM     14  C   UNL     1       0.167   1.498   0.677  1.00  0.00     0.259 C 
ATOM     15  C   UNL     1      -0.209   0.280  -0.156  1.00  0.00     0.071 C 
ENDBRANCH  12  14
BRANCH  12  16
ATOM     16  C   UNL     1       0.841   3.808   0.891  1.00  0.00     0.295 C 
BRANCH  16  17
ATOM     17  C   UNL     1       1.071   3.863   2.442  1.00  0.00     0.173 C 
ATOM     18  C   UNL     1       2.058   4.945   2.856  1.00  0.00     0.040 C 
ATOM     19  O   UNL     1       1.560   2.647   3.023  1.00  0.00    -0.372 OA
ATOM     20  C   UNL     1       2.628   4.441   4.160  1.00  0.00     0.031 C 
ATOM     21  C   UNL     1       2.463   2.941   4.091  1.00  0.00     0.161 C 
ENDBRANCH  16  17
ENDBRANCH  12  16
ENDBRANCH  10  12
ENDBRANCH   6  10
ENDBRANCH   3   5
ENDBRANCH   2   3
ENDBRANCH   1   2
BRANCH   1  22
ATOM     22  C   UNL     1       3.847  -5.030  -0.931  1.00  0.00     0.275 C 
BRANCH  22  23
ATOM     23  O   UNL     1       3.227  -4.535   0.274  1.00  0.00    -0.458 OA
BRANCH  23  24
ATOM     24  C   UNL     1       3.884  -3.518   0.882  1.00  0.00     0.338 C 
ATOM     25  O   UNL     1       4.939  -3.018   0.526  1.00  0.00    -0.246 OA
BRANCH  24  26
ATOM     26  C   UNL     1       3.082  -2.957   1.988  1.00  0.00     0.060 A 
ATOM     27  C   UNL     1       2.808  -1.592   1.930  1.00  0.00     0.016 A 
ATOM     28  C   UNL     1       2.681  -3.697   3.104  1.00  0.00     0.016 A 
ATOM     29  C   UNL     1       2.132  -0.965   2.971  1.00  0.00     0.010 A 
ATOM     30  C   UNL     1       2.000  -3.057   4.158  1.00  0.00     0.010 A 
ATOM     31  C   UNL     1       1.723  -1.681   4.098  1.00  0.00    -0.014 A 
BRANCH  31  32
ATOM     32  C   UNL     1       1.075  -0.926   5.203  1.00  0.00     0.031 A 
ATOM     33  C   UNL     1       1.883  -0.497   6.394  1.00  0.00     0.074 A 
ATOM     34  C   UNL     1      -0.201  -0.512   5.086  1.00  0.00     0.049 A 
ATOM     35  N   UNL     1       1.524   0.222   7.430  1.00  0.00    -0.248 NA
ATOM     36  C   UNL     1       3.289  -0.924   6.417  1.00  0.00     0.031 C 
ATOM     37  C   UNL     1      -1.073  -0.782   3.945  1.00  0.00     0.029 A 
ATOM     38  N   UNL     1      -0.979   0.242   5.932  1.00  0.00    -0.354 N 
ATOM     39  C   UNL     1       2.655   0.330   8.228  1.00  0.00     0.074 A 
ATOM     40  C   UNL     1       3.707  -0.416   7.567  1.00  0.00     0.031 C 
ATOM     41  C   UNL     1      -2.265  -0.201   4.159  1.00  0.00     0.029 A 
ATOM     42  C   UNL     1      -2.252   0.455   5.465  1.00  0.00     0.049 A 
ATOM     43  H   UNL     1      -0.654   0.596   6.792  1.00  0.00     0.167 HD
ATOM     44  C   UNL     1       2.805   0.994   9.400  1.00  0.00     0.037 A 
ATOM     45  C   UNL     1      -3.295   1.094   6.031  1.00  0.00     0.037 A 
ATOM     46  C   UNL     1       1.760   1.732  10.065  1.00  0.00     0.049 A 
ATOM     47  C   UNL     1      -3.124   1.750   7.378  1.00  0.00     0.074 A 
ATOM     48  C   UNL     1       1.823   2.431  11.260  1.00  0.00     0.029 A 
ATOM     49  N   UNL     1       0.460   1.861   9.599  1.00  0.00    -0.354 N 
ATOM     50  N   UNL     1      -2.050   1.852   8.123  1.00  0.00    -0.248 NA
ATOM     51  C   UNL     1      -4.316   2.387   7.958  1.00  0.00     0.031 C 
ATOM     52  C   UNL     1       0.549   2.936  11.543  1.00  0.00     0.029 A 
ATOM     53  C   UNL     1      -0.294   2.607  10.495  1.00  0.00     0.049 A 
ATOM     54  H   UNL     1       0.122   1.479   8.757  1.00  0.00     0.167 HD
ATOM     55  C   UNL     1      -2.429   2.584   9.242  1.00  0.00     0.074 A 
ATOM     56  C   UNL     1      -3.825   2.922   9.066  1.00  0.00     0.031 C 
ATOM     57  C   UNL     1      -1.685   2.942  10.318  1.00  0.00     0.037 A 
BRANCH  44  58
ATOM     58  C   UNL     1       4.149   0.919  10.065  1.00  0.00     0.064 A 
ATOM     59  C   UNL     1       5.266   1.593   9.551  1.00  0.00     0.173 A 
ATOM     60  C   UNL     1       4.312   0.185  11.250  1.00  0.00     0.173 A 
ATOM     61  F   UNL     1       5.166   2.299   8.415  1.00  0.00    -0.203 F 
ATOM     62  C   UNL     1       6.505   1.512  10.184  1.00  0.00     0.198 A 
ATOM     63  C   UNL     1       5.544   0.131  11.896  1.00  0.00     0.198 A 
ATOM     64  F   UNL     1       3.273  -0.472  11.788  1.00  0.00    -0.203 F 
ATOM     65  F   UNL     1       7.570   2.124   9.650  1.00  0.00    -0.200 F 
ATOM     66  C   UNL     1       6.641   0.786  11.359  1.00  0.00     0.200 A 
ATOM     67  F   UNL     1       5.670  -0.559  13.039  1.00  0.00    -0.200 F 
ATOM     68  F   UNL     1       7.832   0.714  11.970  1.00  0.00    -0.200 F 
ENDBRANCH  44  58
BRANCH  45  69
ATOM     69  C   UNL     1      -4.612   1.131   5.341  1.00  0.00     0.064 A 
ATOM     70  C   UNL     1      -5.157   2.335   4.874  1.00  0.00     0.173 A 
ATOM     71  C   UNL     1      -5.375  -0.035   5.179  1.00  0.00     0.173 A 
ATOM     72  F   UNL     1      -4.481   3.483   5.036  1.00  0.00    -0.203 F 
ATOM     73  C   UNL     1      -6.423   2.376   4.294  1.00  0.00     0.198 A 
ATOM     74  C   UNL     1      -6.627   0.001   4.570  1.00  0.00     0.198 A 
ATOM     75  F   UNL     1      -4.906  -1.212   5.619  1.00  0.00    -0.203 F 
ATOM     76  F   UNL     1      -6.946   3.549   3.914  1.00  0.00    -0.200 F 
ATOM     77  C   UNL     1      -7.155   1.208   4.138  1.00  0.00     0.200 A 
ATOM     78  F   UNL     1      -7.328  -1.130   4.416  1.00  0.00    -0.200 F 
ATOM     79  F   UNL     1      -8.376   1.248   3.586  1.00  0.00    -0.200 F 
ENDBRANCH  45  69
BRANCH  57  80
ATOM     80  C   UNL     1      -2.358   3.776  11.373  1.00  0.00     0.064 A 
ATOM     81  C   UNL     1      -3.370   3.256  12.196  1.00  0.00     0.173 A 
ATOM     82  C   UNL     1      -1.985   5.116  11.567  1.00  0.00     0.173 A 
ATOM     83  F   UNL     1      -3.775   1.986  12.046  1.00  0.00    -0.203 F 
ATOM     84  C   UNL     1      -4.011   4.056  13.140  1.00  0.00     0.198 A 
ATOM     85  C   UNL     1      -2.603   5.902  12.536  1.00  0.00     0.198 A 
ATOM     86  F   UNL     1      -1.018   5.664  10.816  1.00  0.00    -0.203 F 
ATOM     87  F   UNL     1      -5.020   3.555  13.866  1.00  0.00    -0.200 F 
ATOM     88  C   UNL     1      -3.624   5.376  13.312  1.00  0.00     0.200 A 
ATOM     89  F   UNL     1      -2.218   7.174  12.711  1.00  0.00    -0.200 F 
ATOM     90  F   UNL     1      -4.244   6.145  14.218  1.00  0.00    -0.200 F 
ENDBRANCH  57  80
ENDBRANCH  31  32
ENDBRANCH  24  26
ENDBRANCH  23  24
ENDBRANCH  22  23
ENDBRANCH   1  22
TORSDOF 16
