REMARK SMILES O=C(CCCc1nc(-c2cccc(Cl)c2)no1)OCCOC(=O)c1ccc(-c2c3nc(c(-c4c(F)c(F)c(F)c(F)c4F)c4ccc([nH]4)c(-c4c(F)c(F)c(F)c(F)c4F)c4nc(c(-c5c(F)c(F)c(F)c(F)c5F)c5ccc2[nH]5)C=C4)C=C3)cc1
REMARK SMILES IDX 19 1 18 2 2 3 1 4 3 5 4 6 5 7 6 8 7 9 17 10 8 11 16 12 9 13
REMARK SMILES IDX 10 14 15 15 11 16 13 17 12 18 14 19 20 20 21 21 22 22 23 23
REMARK SMILES IDX 24 24 25 25 86 26 26 27 85 28 27 29 28 30 29 31 79 32 30 33
REMARK SMILES IDX 84 34 78 35 80 36 31 37 83 38 77 39 76 40 32 42 64 43 44 44
REMARK SMILES IDX 63 45 45 46 48 47 62 48 81 49 46 50 47 51 61 53 82 54 49 55
REMARK SMILES IDX 33 56 34 57 42 58 35 59 36 60 40 61 43 62 37 63 38 64 41 65
REMARK SMILES IDX 39 66 65 67 66 68 74 69 67 70 68 71 72 72 75 73 69 74 70 75
REMARK SMILES IDX 73 76 71 77 50 78 51 79 59 80 52 81 53 82 57 83 60 84 54 85
REMARK SMILES IDX 55 86 58 87 56 88
REMARK H PARENT 80 41 48 52
REMARK Flexibility Score: inf
ROOT
ATOM      1  C   UNL     1       3.783   1.345   0.683  1.00  0.00     0.274 C 
ENDROOT
BRANCH   1   2
ATOM      2  O   UNL     1       2.576   0.933   0.013  1.00  0.00    -0.462 OA
BRANCH   2   3
ATOM      3  C   UNL     1       2.573  -0.045  -0.926  1.00  0.00     0.305 C 
ATOM      4  O   UNL     1       1.825   0.019  -1.898  1.00  0.00    -0.252 OA
BRANCH   3   5
ATOM      5  C   UNL     1       3.419  -1.276  -0.676  1.00  0.00     0.123 C 
BRANCH   5   6
ATOM      6  C   UNL     1       4.368  -1.623  -1.825  1.00  0.00     0.022 C 
BRANCH   6   7
ATOM      7  C   UNL     1       5.644  -0.775  -1.888  1.00  0.00     0.101 C 
BRANCH   7   8
ATOM      8  C   UNL     1       6.461  -0.851  -0.648  1.00  0.00     0.226 A 
ATOM      9  N   UNL     1       6.689  -1.860   0.162  1.00  0.00    -0.191 NA
ATOM     10  O   UNL     1       6.977   0.329  -0.195  1.00  0.00    -0.339 OA
ATOM     11  C   UNL     1       7.362  -1.256   1.201  1.00  0.00     0.202 A 
ATOM     12  N   UNL     1       7.538   0.065   1.052  1.00  0.00    -0.057 NA
BRANCH  11  13
ATOM     13  C   UNL     1       7.849  -1.996   2.346  1.00  0.00     0.024 A 
ATOM     14  C   UNL     1       8.887  -2.921   2.178  1.00  0.00     0.012 A 
ATOM     15  C   UNL     1       7.309  -1.779   3.620  1.00  0.00     0.032 A 
ATOM     16  C   UNL     1       9.396  -3.615   3.277  1.00  0.00     0.002 A 
ATOM     17  C   UNL     1       7.813  -2.489   4.710  1.00  0.00     0.041 A 
ATOM     18  C   UNL     1       8.857  -3.400   4.546  1.00  0.00     0.020 A 
ATOM     19  Cl  UNL     1       7.137  -2.242   6.273  1.00  0.00    -0.084 Cl
ENDBRANCH  11  13
ENDBRANCH   7   8
ENDBRANCH   6   7
ENDBRANCH   5   6
ENDBRANCH   3   5
ENDBRANCH   2   3
ENDBRANCH   1   2
BRANCH   1  20
ATOM     20  C   UNL     1       3.765   1.060   2.185  1.00  0.00     0.275 C 
BRANCH  20  21
ATOM     21  O   UNL     1       3.526  -0.334   2.436  1.00  0.00    -0.458 OA
BRANCH  21  22
ATOM     22  C   UNL     1       2.218  -0.647   2.627  1.00  0.00     0.338 C 
ATOM     23  O   UNL     1       1.298   0.135   2.765  1.00  0.00    -0.246 OA
BRANCH  22  24
ATOM     24  C   UNL     1       2.019  -2.108   2.495  1.00  0.00     0.060 A 
ATOM     25  C   UNL     1       0.795  -2.540   1.968  1.00  0.00     0.016 A 
ATOM     26  C   UNL     1       2.983  -3.043   2.888  1.00  0.00     0.016 A 
ATOM     27  C   UNL     1       0.506  -3.901   1.891  1.00  0.00     0.010 A 
ATOM     28  C   UNL     1       2.693  -4.410   2.807  1.00  0.00     0.010 A 
ATOM     29  C   UNL     1       1.438  -4.842   2.348  1.00  0.00    -0.014 A 
BRANCH  29  30
ATOM     30  C   UNL     1       1.016  -6.255   2.501  1.00  0.00     0.031 A 
ATOM     31  C   UNL     1       0.530  -6.723   3.844  1.00  0.00     0.074 A 
ATOM     32  C   UNL     1       1.009  -7.097   1.453  1.00  0.00     0.049 A 
ATOM     33  N   UNL     1       0.041  -7.885   4.194  1.00  0.00    -0.248 NA
ATOM     34  C   UNL     1       0.605  -5.746   4.942  1.00  0.00     0.031 C 
ATOM     35  C   UNL     1       1.433  -6.762   0.096  1.00  0.00     0.029 A 
ATOM     36  N   UNL     1       0.621  -8.411   1.373  1.00  0.00    -0.354 N 
ATOM     37  C   UNL     1      -0.264  -7.774   5.543  1.00  0.00     0.074 A 
ATOM     38  C   UNL     1       0.139  -6.449   5.963  1.00  0.00     0.031 C 
ATOM     39  C   UNL     1       1.281  -7.845  -0.686  1.00  0.00     0.029 A 
ATOM     40  C   UNL     1       0.761  -8.950   0.119  1.00  0.00     0.049 A 
ATOM     41  H   UNL     1       0.276  -8.919   2.142  1.00  0.00     0.167 HD
ATOM     42  C   UNL     1      -0.845  -8.686   6.358  1.00  0.00     0.037 A 
ATOM     43  C   UNL     1       0.497 -10.194  -0.325  1.00  0.00     0.037 A 
ATOM     44  C   UNL     1      -1.238 -10.008   5.951  1.00  0.00     0.049 A 
ATOM     45  C   UNL     1      -0.081 -11.217   0.619  1.00  0.00     0.074 A 
ATOM     46  C   UNL     1      -1.855 -10.995   6.699  1.00  0.00     0.029 A 
ATOM     47  N   UNL     1      -1.038 -10.532   4.683  1.00  0.00    -0.354 N 
ATOM     48  N   UNL     1      -0.420 -11.085   1.878  1.00  0.00    -0.248 NA
ATOM     49  C   UNL     1      -0.320 -12.562   0.074  1.00  0.00     0.031 C 
ATOM     50  C   UNL     1      -1.986 -12.133   5.896  1.00  0.00     0.029 A 
ATOM     51  C   UNL     1      -1.492 -11.840   4.636  1.00  0.00     0.049 A 
ATOM     52  H   UNL     1      -0.633 -10.047   3.928  1.00  0.00     0.167 HD
ATOM     53  C   UNL     1      -0.941 -12.313   2.266  1.00  0.00     0.074 A 
ATOM     54  C   UNL     1      -0.878 -13.178   1.107  1.00  0.00     0.031 C 
ATOM     55  C   UNL     1      -1.432 -12.688   3.473  1.00  0.00     0.037 A 
BRANCH  42  56
ATOM     56  C   UNL     1      -1.072  -8.281   7.783  1.00  0.00     0.064 A 
ATOM     57  C   UNL     1      -2.068  -7.356   8.132  1.00  0.00     0.173 A 
ATOM     58  C   UNL     1      -0.292  -8.828   8.812  1.00  0.00     0.173 A 
ATOM     59  F   UNL     1      -2.828  -6.792   7.181  1.00  0.00    -0.203 F 
ATOM     60  C   UNL     1      -2.255  -6.972   9.457  1.00  0.00     0.198 A 
ATOM     61  C   UNL     1      -0.499  -8.461  10.139  1.00  0.00     0.198 A 
ATOM     62  F   UNL     1       0.671  -9.718   8.530  1.00  0.00    -0.203 F 
ATOM     63  F   UNL     1      -3.179  -6.050   9.761  1.00  0.00    -0.200 F 
ATOM     64  C   UNL     1      -1.474  -7.528  10.459  1.00  0.00     0.200 A 
ATOM     65  F   UNL     1       0.251  -9.004  11.107  1.00  0.00    -0.200 F 
ATOM     66  F   UNL     1      -1.655  -7.157  11.734  1.00  0.00    -0.200 F 
ENDBRANCH  42  56
BRANCH  43  67
ATOM     67  C   UNL     1       0.761 -10.544  -1.744  1.00  0.00     0.064 A 
ATOM     68  C   UNL     1      -0.293 -10.766  -2.641  1.00  0.00     0.173 A 
ATOM     69  C   UNL     1       2.070 -10.680  -2.226  1.00  0.00     0.173 A 
ATOM     70  F   UNL     1      -1.562 -10.674  -2.217  1.00  0.00    -0.203 F 
ATOM     71  C   UNL     1      -0.047 -11.126  -3.964  1.00  0.00     0.198 A 
ATOM     72  C   UNL     1       2.316 -11.017  -3.555  1.00  0.00     0.198 A 
ATOM     73  F   UNL     1       3.112 -10.482  -1.405  1.00  0.00    -0.203 F 
ATOM     74  F   UNL     1      -1.072 -11.373  -4.791  1.00  0.00    -0.200 F 
ATOM     75  C   UNL     1       1.257 -11.246  -4.421  1.00  0.00     0.200 A 
ATOM     76  F   UNL     1       3.577 -11.127  -3.995  1.00  0.00    -0.200 F 
ATOM     77  F   UNL     1       1.494 -11.592  -5.694  1.00  0.00    -0.200 F 
ENDBRANCH  43  67
BRANCH  55  78
ATOM     78  C   UNL     1      -1.972 -14.082   3.599  1.00  0.00     0.064 A 
ATOM     79  C   UNL     1      -1.124 -15.198   3.644  1.00  0.00     0.173 A 
ATOM     80  C   UNL     1      -3.352 -14.300   3.727  1.00  0.00     0.173 A 
ATOM     81  F   UNL     1       0.202 -15.044   3.512  1.00  0.00    -0.203 F 
ATOM     82  C   UNL     1      -1.640 -16.483   3.794  1.00  0.00     0.198 A 
ATOM     83  C   UNL     1      -3.863 -15.583   3.903  1.00  0.00     0.198 A 
ATOM     84  F   UNL     1      -4.206 -13.265   3.696  1.00  0.00    -0.203 F 
ATOM     85  F   UNL     1      -0.814 -17.539   3.796  1.00  0.00    -0.200 F 
ATOM     86  C   UNL     1      -3.007 -16.674   3.930  1.00  0.00     0.200 A 
ATOM     87  F   UNL     1      -5.183 -15.764   4.047  1.00  0.00    -0.200 F 
ATOM     88  F   UNL     1      -3.500 -17.910   4.083  1.00  0.00    -0.200 F 
ENDBRANCH  55  78
ENDBRANCH  29  30
ENDBRANCH  22  24
ENDBRANCH  21  22
ENDBRANCH  20  21
ENDBRANCH   1  20
TORSDOF 15
