REMARK SMILES C[C@@](O)(CNC(=O)Cc1ccc(F)cc1F)C(=O)OCCOC(=O)c1ccc(-c2c3nc(c(-c4c(F)c(F)c(F)c(F)c4F)c4ccc([nH]4)c(-c4c(F)c(F)c(F)c(F)c4F)c4nc(c(-c5c(F)c(F)c(F)c(F)c5F)c5ccc2[nH]5)C=C4)C=C3)cc1
REMARK SMILES IDX 20 1 19 2 17 3 18 4 2 5 1 6 3 7 4 9 5 10 6 11 7 13 8 14 9 15
REMARK SMILES IDX 10 16 15 17 11 18 14 19 16 20 12 21 13 22 21 23 22 24 23 25
REMARK SMILES IDX 24 26 25 27 26 28 87 29 27 30 86 31 28 32 29 33 30 34 80 35
REMARK SMILES IDX 31 36 85 37 79 38 81 39 32 40 84 41 78 42 77 43 33 45 65 46
REMARK SMILES IDX 45 47 64 48 46 49 49 50 63 51 82 52 47 53 48 54 62 56 83 57
REMARK SMILES IDX 50 58 34 59 35 60 43 61 36 62 37 63 41 64 44 65 38 66 39 67
REMARK SMILES IDX 42 68 40 69 66 70 67 71 75 72 68 73 69 74 73 75 76 76 70 77
REMARK SMILES IDX 71 78 74 79 72 80 51 81 52 82 60 83 53 84 54 85 58 86 61 87
REMARK SMILES IDX 55 88 56 89 59 90 57 91
REMARK H PARENT 3 8 5 12 81 44 49 55
REMARK Flexibility Score: inf
ROOT
ATOM      1  C   UNL     1       1.889   3.170  -2.605  1.00  0.00     0.274 C 
ENDROOT
BRANCH   1   2
ATOM      2  O   UNL     1       0.987   2.169  -2.080  1.00  0.00    -0.460 OA
BRANCH   2   3
ATOM      3  C   UNL     1       1.368   0.890  -2.314  1.00  0.00     0.339 C 
ATOM      4  O   UNL     1       2.421   0.580  -2.872  1.00  0.00    -0.249 OA
BRANCH   3   5
ATOM      5  C   UNL     1       0.415  -0.192  -1.766  1.00  0.00     0.176 C 
ATOM      6  C   UNL     1       0.856  -0.678  -0.386  1.00  0.00     0.057 C 
BRANCH   5   7
ATOM      7  O   UNL     1       0.611  -1.334  -2.648  1.00  0.00    -0.377 OA
ATOM      8  H   UNL     1       0.039  -2.064  -2.365  1.00  0.00     0.212 HD
ENDBRANCH   5   7
BRANCH   5   9
ATOM      9  C   UNL     1      -1.092   0.109  -1.797  1.00  0.00     0.162 C 
BRANCH   9  10
ATOM     10  N   UNL     1      -1.564   1.322  -1.153  1.00  0.00    -0.352 N 
ATOM     11  C   UNL     1      -2.532   2.184  -1.596  1.00  0.00     0.224 C 
ATOM     12  H   UNL     1      -1.137   1.553  -0.297  1.00  0.00     0.163 HD
ATOM     13  O   UNL     1      -3.021   2.976  -0.789  1.00  0.00    -0.275 OA
BRANCH  11  14
ATOM     14  C   UNL     1      -3.042   2.097  -3.027  1.00  0.00     0.138 C 
BRANCH  14  15
ATOM     15  C   UNL     1      -2.031   2.493  -4.077  1.00  0.00    -0.003 A 
ATOM     16  C   UNL     1      -1.493   1.544  -4.962  1.00  0.00     0.010 A 
ATOM     17  C   UNL     1      -1.611   3.822  -4.193  1.00  0.00     0.129 A 
ATOM     18  C   UNL     1      -0.517   1.913  -5.888  1.00  0.00     0.040 A 
ATOM     19  C   UNL     1      -0.661   4.204  -5.134  1.00  0.00     0.078 A 
ATOM     20  F   UNL     1      -2.127   4.760  -3.389  1.00  0.00    -0.207 F 
ATOM     21  C   UNL     1      -0.111   3.239  -5.965  1.00  0.00     0.126 A 
ATOM     22  F   UNL     1       0.835   3.587  -6.846  1.00  0.00    -0.207 F 
ENDBRANCH  14  15
ENDBRANCH  11  14
ENDBRANCH   9  10
ENDBRANCH   5   9
ENDBRANCH   3   5
ENDBRANCH   2   3
ENDBRANCH   1   2
BRANCH   1  23
ATOM     23  C   UNL     1       1.561   4.537  -2.009  1.00  0.00     0.275 C 
BRANCH  23  24
ATOM     24  O   UNL     1       1.911   4.487  -0.617  1.00  0.00    -0.458 OA
BRANCH  24  25
ATOM     25  C   UNL     1       0.870   4.368   0.231  1.00  0.00     0.338 C 
ATOM     26  O   UNL     1      -0.313   4.566   0.019  1.00  0.00    -0.246 OA
BRANCH  25  27
ATOM     27  C   UNL     1       1.373   3.746   1.455  1.00  0.00     0.060 A 
ATOM     28  C   UNL     1       1.646   2.378   1.417  1.00  0.00     0.016 A 
ATOM     29  C   UNL     1       1.494   4.470   2.635  1.00  0.00     0.016 A 
ATOM     30  C   UNL     1       1.992   1.705   2.581  1.00  0.00     0.010 A 
ATOM     31  C   UNL     1       1.909   3.807   3.791  1.00  0.00     0.010 A 
ATOM     32  C   UNL     1       2.138   2.417   3.778  1.00  0.00    -0.014 A 
BRANCH  32  33
ATOM     33  C   UNL     1       2.491   1.706   5.030  1.00  0.00     0.031 A 
ATOM     34  C   UNL     1       1.508   1.666   6.163  1.00  0.00     0.074 A 
ATOM     35  C   UNL     1       3.686   1.096   5.146  1.00  0.00     0.049 A 
ATOM     36  N   UNL     1       1.684   1.271   7.397  1.00  0.00    -0.248 NA
ATOM     37  C   UNL     1       0.146   2.142   5.872  1.00  0.00     0.031 C 
ATOM     38  C   UNL     1       4.698   1.014   4.093  1.00  0.00     0.029 A 
ATOM     39  N   UNL     1       4.250   0.428   6.203  1.00  0.00    -0.354 N 
ATOM     40  C   UNL     1       0.477   1.502   8.042  1.00  0.00     0.074 A 
ATOM     41  C   UNL     1      -0.430   2.062   7.064  1.00  0.00     0.031 C 
ATOM     42  C   UNL     1       5.748   0.312   4.547  1.00  0.00     0.029 A 
ATOM     43  C   UNL     1       5.517  -0.036   5.945  1.00  0.00     0.049 A 
ATOM     44  H   UNL     1       3.791   0.293   7.063  1.00  0.00     0.167 HD
ATOM     45  C   UNL     1       0.164   1.271   9.338  1.00  0.00     0.037 A 
ATOM     46  C   UNL     1       6.407  -0.637   6.756  1.00  0.00     0.037 A 
ATOM     47  C   UNL     1       1.060   0.669  10.289  1.00  0.00     0.049 A 
ATOM     48  C   UNL     1       6.046  -0.859   8.198  1.00  0.00     0.074 A 
ATOM     49  C   UNL     1       0.841   0.390  11.626  1.00  0.00     0.029 A 
ATOM     50  N   UNL     1       2.345   0.235   9.993  1.00  0.00    -0.354 N 
ATOM     51  N   UNL     1       4.928  -0.575   8.819  1.00  0.00    -0.248 NA
ATOM     52  C   UNL     1       7.076  -1.460   9.057  1.00  0.00     0.031 C 
ATOM     53  C   UNL     1       2.002  -0.189  12.146  1.00  0.00     0.029 A 
ATOM     54  C   UNL     1       2.932  -0.302  11.125  1.00  0.00     0.049 A 
ATOM     55  H   UNL     1       2.774   0.301   9.110  1.00  0.00     0.167 HD
ATOM     56  C   UNL     1       5.114  -0.962  10.138  1.00  0.00     0.074 A 
ATOM     57  C   UNL     1       6.449  -1.519  10.225  1.00  0.00     0.031 C 
ATOM     58  C   UNL     1       4.260  -0.856  11.184  1.00  0.00     0.037 A 
BRANCH  45  59
ATOM     59  C   UNL     1      -1.190   1.698   9.818  1.00  0.00     0.064 A 
ATOM     60  C   UNL     1      -1.319   2.814  10.658  1.00  0.00     0.173 A 
ATOM     61  C   UNL     1      -2.349   0.978   9.496  1.00  0.00     0.173 A 
ATOM     62  F   UNL     1      -0.239   3.534  10.997  1.00  0.00    -0.203 F 
ATOM     63  C   UNL     1      -2.560   3.188  11.168  1.00  0.00     0.198 A 
ATOM     64  C   UNL     1      -3.591   1.367   9.991  1.00  0.00     0.198 A 
ATOM     65  F   UNL     1      -2.277  -0.088   8.685  1.00  0.00    -0.203 F 
ATOM     66  F   UNL     1      -2.655   4.243  11.989  1.00  0.00    -0.200 F 
ATOM     67  C   UNL     1      -3.695   2.466  10.832  1.00  0.00     0.200 A 
ATOM     68  F   UNL     1      -4.691   0.682   9.649  1.00  0.00    -0.200 F 
ATOM     69  F   UNL     1      -4.889   2.830  11.317  1.00  0.00    -0.200 F 
ENDBRANCH  45  59
BRANCH  46  70
ATOM     70  C   UNL     1       7.731  -1.041   6.218  1.00  0.00     0.064 A 
ATOM     71  C   UNL     1       8.689  -0.087   5.844  1.00  0.00     0.173 A 
ATOM     72  C   UNL     1       8.044  -2.392   6.023  1.00  0.00     0.173 A 
ATOM     73  F   UNL     1       8.437   1.220   6.010  1.00  0.00    -0.203 F 
ATOM     74  C   UNL     1       9.897  -0.469   5.265  1.00  0.00     0.198 A 
ATOM     75  C   UNL     1       9.263  -2.774   5.467  1.00  0.00     0.198 A 
ATOM     76  F   UNL     1       7.168  -3.341   6.386  1.00  0.00    -0.203 F 
ATOM     77  F   UNL     1      10.777   0.464   4.876  1.00  0.00    -0.200 F 
ATOM     78  C   UNL     1      10.184  -1.812   5.078  1.00  0.00     0.200 A 
ATOM     79  F   UNL     1       9.546  -4.074   5.307  1.00  0.00    -0.200 F 
ATOM     80  F   UNL     1      11.347  -2.180   4.524  1.00  0.00    -0.200 F 
ENDBRANCH  46  70
BRANCH  58  81
ATOM     81  C   UNL     1       4.730  -1.362  12.512  1.00  0.00     0.064 A 
ATOM     82  C   UNL     1       4.232  -2.567  13.029  1.00  0.00     0.173 A 
ATOM     83  C   UNL     1       5.600  -0.606  13.309  1.00  0.00     0.173 A 
ATOM     84  F   UNL     1       3.392  -3.318  12.302  1.00  0.00    -0.203 F 
ATOM     85  C   UNL     1       4.578  -2.990  14.308  1.00  0.00     0.198 A 
ATOM     86  C   UNL     1       5.958  -1.042  14.581  1.00  0.00     0.198 A 
ATOM     87  F   UNL     1       6.108   0.546  12.848  1.00  0.00    -0.203 F 
ATOM     88  F   UNL     1       4.069  -4.129  14.796  1.00  0.00    -0.200 F 
ATOM     89  C   UNL     1       5.440  -2.227  15.083  1.00  0.00     0.200 A 
ATOM     90  F   UNL     1       6.804  -0.314  15.323  1.00  0.00    -0.200 F 
ATOM     91  F   UNL     1       5.772  -2.636  16.315  1.00  0.00    -0.200 F 
ENDBRANCH  58  81
ENDBRANCH  32  33
ENDBRANCH  25  27
ENDBRANCH  24  25
ENDBRANCH  23  24
ENDBRANCH   1  23
TORSDOF 16
