REMARK SMILES Cn1cncc1COc1c(F)cc(C(=O)OCCOC(=O)c2ccc(-c3c4nc(c(-c5c(F)c(F)c(F)c(F)c5F)c5ccc([nH]5)c(-c5c(F)c(F)c(F)c(F)c5F)c5nc(c(-c6c(F)c(F)c(F)c(F)c6F)c6ccc3[nH]6)C=C5)C=C4)cc2)cc1F
REMARK SMILES IDX 17 1 16 2 14 3 15 4 13 5 9 6 10 7 86 8 11 9 12 10 85 11
REMARK SMILES IDX 87 12 8 13 7 14 6 15 1 16 2 17 3 18 4 19 5 20 18 21 19 22
REMARK SMILES IDX 20 23 21 24 22 25 23 26 84 27 24 28 83 29 25 30 26 31 27 32
REMARK SMILES IDX 77 33 28 34 82 35 76 36 78 37 29 38 81 39 75 40 74 41 30 43
REMARK SMILES IDX 62 44 42 45 61 46 43 47 46 48 60 49 79 50 44 51 45 52 59 54
REMARK SMILES IDX 80 55 47 56 31 57 32 58 40 59 33 60 34 61 38 62 41 63 35 64
REMARK SMILES IDX 36 65 39 66 37 67 63 68 64 69 72 70 65 71 66 72 70 73 73 74
REMARK SMILES IDX 67 75 68 76 71 77 69 78 48 79 49 80 57 81 50 82 51 83 55 84
REMARK SMILES IDX 58 85 52 86 53 87 56 88 54 89
REMARK H PARENT 78 42 46 53
REMARK Flexibility Score: inf
ROOT
ATOM      1  C   UNL     1       1.122   0.420   8.014  1.00  0.00     0.275 C 
ENDROOT
BRANCH   1   2
ATOM      2  O   UNL     1       0.859   0.058   6.645  1.00  0.00    -0.458 OA
BRANCH   2   3
ATOM      3  C   UNL     1       1.620  -0.929   6.113  1.00  0.00     0.338 C 
ATOM      4  O   UNL     1       2.549  -1.504   6.649  1.00  0.00    -0.246 OA
BRANCH   3   5
ATOM      5  C   UNL     1       1.091  -1.319   4.779  1.00  0.00     0.066 A 
ATOM      6  C   UNL     1       0.013  -2.211   2.353  1.00  0.00     0.191 A 
ATOM      7  C   UNL     1      -0.360  -0.979   2.887  1.00  0.00     0.169 A 
ATOM      8  C   UNL     1       0.920  -3.002   3.050  1.00  0.00     0.169 A 
ATOM      9  F   UNL     1      -1.251  -0.204   2.257  1.00  0.00    -0.203 F 
ATOM     10  C   UNL     1       0.180  -0.520   4.084  1.00  0.00     0.059 A 
ATOM     11  C   UNL     1       1.479  -2.556   4.244  1.00  0.00     0.059 A 
ATOM     12  F   UNL     1       1.264  -4.209   2.582  1.00  0.00    -0.203 F 
BRANCH   6  13
ATOM     13  O   UNL     1      -0.560  -2.667   1.198  1.00  0.00    -0.481 OA
BRANCH  13  14
ATOM     14  C   UNL     1       0.253  -2.379   0.050  1.00  0.00     0.285 C 
BRANCH  14  15
ATOM     15  C   UNL     1      -0.112  -1.025  -0.442  1.00  0.00     0.075 A 
ATOM     16  C   UNL     1       2.136   0.093  -0.180  1.00  0.00     0.151 C 
ATOM     17  N   UNL     1       0.732   0.057  -0.505  1.00  0.00    -0.335 N 
ATOM     18  C   UNL     1       0.000   1.131  -0.926  1.00  0.00     0.199 A 
ATOM     19  N   UNL     1      -1.244   0.800  -1.178  1.00  0.00    -0.245 NA
ATOM     20  C   UNL     1      -1.329  -0.532  -0.871  1.00  0.00     0.138 A 
ENDBRANCH  14  15
ENDBRANCH  13  14
ENDBRANCH   6  13
ENDBRANCH   3   5
ENDBRANCH   2   3
ENDBRANCH   1   2
BRANCH   1  21
ATOM     21  C   UNL     1       0.020  -0.112   8.932  1.00  0.00     0.275 C 
BRANCH  21  22
ATOM     22  O   UNL     1       0.111  -1.544   9.066  1.00  0.00    -0.458 OA
BRANCH  22  23
ATOM     23  C   UNL     1      -0.752  -2.254   8.305  1.00  0.00     0.338 C 
ATOM     24  O   UNL     1      -1.611  -1.827   7.553  1.00  0.00    -0.246 OA
BRANCH  23  25
ATOM     25  C   UNL     1      -0.414  -3.682   8.391  1.00  0.00     0.060 A 
ATOM     26  C   UNL     1       0.365  -4.218   7.368  1.00  0.00     0.016 A 
ATOM     27  C   UNL     1      -0.938  -4.507   9.384  1.00  0.00     0.016 A 
ATOM     28  C   UNL     1       0.600  -5.586   7.304  1.00  0.00     0.010 A 
ATOM     29  C   UNL     1      -0.660  -5.881   9.347  1.00  0.00     0.010 A 
ATOM     30  C   UNL     1       0.098  -6.435   8.298  1.00  0.00    -0.014 A 
BRANCH  30  31
ATOM     31  C   UNL     1       0.343  -7.900   8.206  1.00  0.00     0.031 A 
ATOM     32  C   UNL     1      -0.808  -8.849   8.012  1.00  0.00     0.074 A 
ATOM     33  C   UNL     1       1.601  -8.381   8.251  1.00  0.00     0.049 A 
ATOM     34  N   UNL     1      -0.816 -10.158   8.040  1.00  0.00    -0.248 NA
ATOM     35  C   UNL     1      -2.125  -8.246   7.758  1.00  0.00     0.031 C 
ATOM     36  C   UNL     1       2.811  -7.567   8.372  1.00  0.00     0.029 A 
ATOM     37  N   UNL     1       2.074  -9.669   8.185  1.00  0.00    -0.354 N 
ATOM     38  C   UNL     1      -2.140 -10.533   7.853  1.00  0.00     0.074 A 
ATOM     39  C   UNL     1      -2.909  -9.315   7.716  1.00  0.00     0.031 C 
ATOM     40  C   UNL     1       3.886  -8.368   8.335  1.00  0.00     0.029 A 
ATOM     41  C   UNL     1       3.442  -9.758   8.269  1.00  0.00     0.049 A 
ATOM     42  H   UNL     1       1.488 -10.454   8.088  1.00  0.00     0.167 HD
ATOM     43  C   UNL     1      -2.661 -11.782   7.801  1.00  0.00     0.037 A 
ATOM     44  C   UNL     1       4.250 -10.835   8.323  1.00  0.00     0.037 A 
ATOM     45  C   UNL     1      -1.884 -12.991   7.886  1.00  0.00     0.049 A 
ATOM     46  C   UNL     1       3.644 -12.210   8.305  1.00  0.00     0.074 A 
ATOM     47  C   UNL     1      -2.323 -14.303   7.839  1.00  0.00     0.029 A 
ATOM     48  N   UNL     1      -0.504 -13.037   8.016  1.00  0.00    -0.354 N 
ATOM     49  N   UNL     1       2.384 -12.554   8.194  1.00  0.00    -0.248 NA
ATOM     50  C   UNL     1       4.566 -13.346   8.440  1.00  0.00     0.031 C 
ATOM     51  C   UNL     1      -1.214 -15.142   7.977  1.00  0.00     0.029 A 
ATOM     52  C   UNL     1      -0.077 -14.355   8.064  1.00  0.00     0.049 A 
ATOM     53  H   UNL     1       0.086 -12.250   8.067  1.00  0.00     0.167 HD
ATOM     54  C   UNL     1       2.362 -13.941   8.238  1.00  0.00     0.074 A 
ATOM     55  C   UNL     1       3.736 -14.378   8.365  1.00  0.00     0.031 C 
ATOM     56  C   UNL     1       1.295 -14.774   8.185  1.00  0.00     0.037 A 
BRANCH  43  57
ATOM     57  C   UNL     1      -4.150 -11.916   7.673  1.00  0.00     0.064 A 
ATOM     58  C   UNL     1      -4.911 -12.383   8.757  1.00  0.00     0.173 A 
ATOM     59  C   UNL     1      -4.817 -11.651   6.469  1.00  0.00     0.173 A 
ATOM     60  F   UNL     1      -4.319 -12.658   9.930  1.00  0.00    -0.203 F 
ATOM     61  C   UNL     1      -6.281 -12.592   8.635  1.00  0.00     0.198 A 
ATOM     62  C   UNL     1      -6.194 -11.836   6.359  1.00  0.00     0.198 A 
ATOM     63  F   UNL     1      -4.138 -11.192   5.408  1.00  0.00    -0.203 F 
ATOM     64  F   UNL     1      -6.980 -13.069   9.675  1.00  0.00    -0.200 F 
ATOM     65  C   UNL     1      -6.923 -12.314   7.438  1.00  0.00     0.200 A 
ATOM     66  F   UNL     1      -6.817 -11.546   5.208  1.00  0.00    -0.200 F 
ATOM     67  F   UNL     1      -8.244 -12.507   7.325  1.00  0.00    -0.200 F 
ENDBRANCH  43  57
BRANCH  44  68
ATOM     68  C   UNL     1       5.721 -10.645   8.429  1.00  0.00     0.064 A 
ATOM     69  C   UNL     1       6.304 -10.097   9.582  1.00  0.00     0.173 A 
ATOM     70  C   UNL     1       6.569 -10.977   7.364  1.00  0.00     0.173 A 
ATOM     71  F   UNL     1       5.536  -9.765  10.630  1.00  0.00    -0.203 F 
ATOM     72  C   UNL     1       7.675  -9.860   9.652  1.00  0.00     0.198 A 
ATOM     73  C   UNL     1       7.944 -10.767   7.447  1.00  0.00     0.198 A 
ATOM     74  F   UNL     1       6.062 -11.529   6.252  1.00  0.00    -0.203 F 
ATOM     75  F   UNL     1       8.199  -9.296  10.749  1.00  0.00    -0.200 F 
ATOM     76  C   UNL     1       8.494 -10.198   8.586  1.00  0.00     0.200 A 
ATOM     77  F   UNL     1       8.736 -11.118   6.426  1.00  0.00    -0.200 F 
ATOM     78  F   UNL     1       9.814  -9.977   8.658  1.00  0.00    -0.200 F 
ENDBRANCH  44  68
BRANCH  56  79
ATOM     79  C   UNL     1       1.564 -16.248   8.244  1.00  0.00     0.064 A 
ATOM     80  C   UNL     1       1.395 -17.048   7.104  1.00  0.00     0.173 A 
ATOM     81  C   UNL     1       1.917 -16.879   9.446  1.00  0.00     0.173 A 
ATOM     82  F   UNL     1       1.051 -16.491   5.933  1.00  0.00    -0.203 F 
ATOM     83  C   UNL     1       1.556 -18.429   7.168  1.00  0.00     0.198 A 
ATOM     84  C   UNL     1       2.102 -18.258   9.501  1.00  0.00     0.198 A 
ATOM     85  F   UNL     1       2.104 -16.154  10.559  1.00  0.00    -0.203 F 
ATOM     86  F   UNL     1       1.359 -19.177   6.074  1.00  0.00    -0.200 F 
ATOM     87  C   UNL     1       1.912 -19.032   8.365  1.00  0.00     0.200 A 
ATOM     88  F   UNL     1       2.468 -18.838  10.652  1.00  0.00    -0.200 F 
ATOM     89  F   UNL     1       2.075 -20.361   8.424  1.00  0.00    -0.200 F 
ENDBRANCH  56  79
ENDBRANCH  30  31
ENDBRANCH  23  25
ENDBRANCH  22  23
ENDBRANCH  21  22
ENDBRANCH   1  21
TORSDOF 14
