REMARK SMILES O=C(Cc1ccc(NC(=O)C2CCCC2)cc1)OCCOC(=O)c1ccc(-c2c3nc(c(-c4c(F)c(F)c(F)c(F)c4F)c4ccc([nH]4)c(-c4c(F)c(F)c(F)c(F)c4F)c4nc(c(-c5c(F)c(F)c(F)c(F)c5F)c5ccc2[nH]5)C=C4)C=C3)cc1
REMARK SMILES IDX 19 1 18 2 2 3 1 4 3 5 4 6 5 7 17 8 6 9 16 10 7 11 8 12 9 13
REMARK SMILES IDX 10 15 11 16 12 17 15 18 13 19 14 20 20 21 21 22 22 23 23 24
REMARK SMILES IDX 24 25 25 26 86 27 26 28 85 29 27 30 28 31 29 32 79 33 30 34
REMARK SMILES IDX 84 35 78 36 80 37 31 38 83 39 77 40 76 41 32 43 64 44 44 45
REMARK SMILES IDX 63 46 45 47 48 48 62 49 81 50 46 51 47 52 61 54 82 55 49 56
REMARK SMILES IDX 33 57 34 58 42 59 35 60 36 61 40 62 43 63 37 64 38 65 41 66
REMARK SMILES IDX 39 67 65 68 66 69 74 70 67 71 68 72 72 73 75 74 69 75 70 76
REMARK SMILES IDX 73 77 71 78 50 79 51 80 59 81 52 82 53 83 57 84 60 85 54 86
REMARK SMILES IDX 55 87 58 88 56 89
REMARK H PARENT 8 14 80 42 48 53
REMARK Flexibility Score: inf
ROOT
ATOM      1  C   UNL     1       4.138   0.569   1.194  1.00  0.00     0.274 C 
ENDROOT
BRANCH   1   2
ATOM      2  O   UNL     1       2.761   0.975   1.036  1.00  0.00    -0.462 OA
BRANCH   2   3
ATOM      3  C   UNL     1       2.053   0.971  -0.116  1.00  0.00     0.310 C 
ATOM      4  O   UNL     1       0.982   1.574  -0.183  1.00  0.00    -0.252 OA
BRANCH   3   5
ATOM      5  C   UNL     1       2.541   0.159  -1.283  1.00  0.00     0.158 C 
BRANCH   5   6
ATOM      6  C   UNL     1       3.662   0.724  -2.106  1.00  0.00    -0.037 A 
ATOM      7  C   UNL     1       4.807  -0.051  -2.326  1.00  0.00     0.006 A 
ATOM      8  C   UNL     1       3.562   1.968  -2.727  1.00  0.00     0.006 A 
ATOM      9  C   UNL     1       5.811   0.389  -3.187  1.00  0.00     0.026 A 
ATOM     10  C   UNL     1       4.557   2.386  -3.616  1.00  0.00     0.026 A 
ATOM     11  C   UNL     1       5.655   1.565  -3.909  1.00  0.00     0.041 A 
BRANCH  11  12
ATOM     12  N   UNL     1       6.497   1.987  -4.949  1.00  0.00    -0.326 N 
ATOM     13  C   UNL     1       7.409   1.360  -5.748  1.00  0.00     0.227 C 
ATOM     14  H   UNL     1       6.412   2.948  -5.146  1.00  0.00     0.169 HD
ATOM     15  O   UNL     1       7.999   2.068  -6.571  1.00  0.00    -0.274 OA
BRANCH  13  16
ATOM     16  C   UNL     1       7.697  -0.132  -5.656  1.00  0.00     0.079 C 
ATOM     17  C   UNL     1       6.522  -1.046  -6.008  1.00  0.00     0.013 C 
ATOM     18  C   UNL     1       8.734  -0.606  -6.682  1.00  0.00     0.013 C 
ATOM     19  C   UNL     1       7.182  -2.411  -6.159  1.00  0.00     0.001 C 
ATOM     20  C   UNL     1       8.567  -2.124  -6.732  1.00  0.00     0.001 C 
ENDBRANCH  13  16
ENDBRANCH  11  12
ENDBRANCH   5   6
ENDBRANCH   3   5
ENDBRANCH   2   3
ENDBRANCH   1   2
BRANCH   1  21
ATOM     21  C   UNL     1       4.262  -0.766   1.928  1.00  0.00     0.275 C 
BRANCH  21  22
ATOM     22  O   UNL     1       3.933  -1.861   1.054  1.00  0.00    -0.458 OA
BRANCH  22  23
ATOM     23  C   UNL     1       2.677  -2.359   1.170  1.00  0.00     0.338 C 
ATOM     24  O   UNL     1       1.817  -2.010   1.958  1.00  0.00    -0.246 OA
BRANCH  23  25
ATOM     25  C   UNL     1       2.430  -3.279   0.038  1.00  0.00     0.060 A 
ATOM     26  C   UNL     1       1.202  -3.188  -0.633  1.00  0.00     0.016 A 
ATOM     27  C   UNL     1       3.404  -4.186  -0.389  1.00  0.00     0.016 A 
ATOM     28  C   UNL     1       0.941  -4.013  -1.728  1.00  0.00     0.010 A 
ATOM     29  C   UNL     1       3.135  -5.022  -1.472  1.00  0.00     0.010 A 
ATOM     30  C   UNL     1       1.897  -4.953  -2.134  1.00  0.00    -0.014 A 
BRANCH  30  31
ATOM     31  C   UNL     1       1.561  -5.992  -3.132  1.00  0.00     0.031 A 
ATOM     32  C   UNL     1       1.053  -7.314  -2.637  1.00  0.00     0.074 A 
ATOM     33  C   UNL     1       1.766  -5.791  -4.444  1.00  0.00     0.049 A 
ATOM     34  N   UNL     1       0.822  -8.418  -3.297  1.00  0.00    -0.248 NA
ATOM     35  C   UNL     1       0.785  -7.404  -1.193  1.00  0.00     0.031 C 
ATOM     36  C   UNL     1       2.235  -4.546  -5.046  1.00  0.00     0.029 A 
ATOM     37  N   UNL     1       1.634  -6.654  -5.504  1.00  0.00    -0.354 N 
ATOM     38  C   UNL     1       0.392  -9.336  -2.350  1.00  0.00     0.074 A 
ATOM     39  C   UNL     1       0.415  -8.668  -1.067  1.00  0.00     0.031 C 
ATOM     40  C   UNL     1       2.386  -4.734  -6.369  1.00  0.00     0.029 A 
ATOM     41  C   UNL     1       2.052  -6.120  -6.697  1.00  0.00     0.049 A 
ATOM     42  H   UNL     1       1.274  -7.566  -5.417  1.00  0.00     0.167 HD
ATOM     43  C   UNL     1       0.014 -10.623  -2.533  1.00  0.00     0.037 A 
ATOM     44  C   UNL     1       2.181  -6.699  -7.907  1.00  0.00     0.037 A 
ATOM     45  C   UNL     1       0.007 -11.290  -3.806  1.00  0.00     0.049 A 
ATOM     46  C   UNL     1       1.807  -8.149  -8.082  1.00  0.00     0.074 A 
ATOM     47  C   UNL     1      -0.383 -12.584  -4.101  1.00  0.00     0.029 A 
ATOM     48  N   UNL     1       0.426 -10.714  -4.997  1.00  0.00    -0.354 N 
ATOM     49  N   UNL     1       1.362  -9.002  -7.192  1.00  0.00    -0.248 NA
ATOM     50  C   UNL     1       1.954  -8.717  -9.431  1.00  0.00     0.031 C 
ATOM     51  C   UNL     1      -0.154 -12.806  -5.464  1.00  0.00     0.029 A 
ATOM     52  C   UNL     1       0.332 -11.636  -6.026  1.00  0.00     0.049 A 
ATOM     53  H   UNL     1       0.744  -9.788  -5.095  1.00  0.00     0.167 HD
ATOM     54  C   UNL     1       1.149 -10.194  -7.873  1.00  0.00     0.074 A 
ATOM     55  C   UNL     1       1.513  -9.955  -9.254  1.00  0.00     0.031 C 
ATOM     56  C   UNL     1       0.688 -11.377  -7.398  1.00  0.00     0.037 A 
BRANCH  43  57
ATOM     57  C   UNL     1      -0.380 -11.395  -1.311  1.00  0.00     0.064 A 
ATOM     58  C   UNL     1      -1.579 -11.136  -0.630  1.00  0.00     0.173 A 
ATOM     59  C   UNL     1       0.462 -12.395  -0.803  1.00  0.00     0.173 A 
ATOM     60  F   UNL     1      -2.408 -10.175  -1.065  1.00  0.00    -0.203 F 
ATOM     61  C   UNL     1      -1.903 -11.825   0.535  1.00  0.00     0.198 A 
ATOM     62  C   UNL     1       0.123 -13.101   0.347  1.00  0.00     0.198 A 
ATOM     63  F   UNL     1       1.621 -12.679  -1.417  1.00  0.00    -0.203 F 
ATOM     64  F   UNL     1      -3.023 -11.518   1.204  1.00  0.00    -0.200 F 
ATOM     65  C   UNL     1      -1.053 -12.808   1.021  1.00  0.00     0.200 A 
ATOM     66  F   UNL     1       0.941 -14.054   0.812  1.00  0.00    -0.200 F 
ATOM     67  F   UNL     1      -1.362 -13.465   2.148  1.00  0.00    -0.200 F 
ENDBRANCH  43  57
BRANCH  44  68
ATOM     68  C   UNL     1       2.705  -5.904  -9.047  1.00  0.00     0.064 A 
ATOM     69  C   UNL     1       1.866  -5.508 -10.097  1.00  0.00     0.173 A 
ATOM     70  C   UNL     1       4.051  -5.516  -9.103  1.00  0.00     0.173 A 
ATOM     71  F   UNL     1       0.577  -5.877 -10.099  1.00  0.00    -0.203 F 
ATOM     72  C   UNL     1       2.357  -4.761 -11.166  1.00  0.00     0.198 A 
ATOM     73  C   UNL     1       4.536  -4.749 -10.160  1.00  0.00     0.198 A 
ATOM     74  F   UNL     1       4.894  -5.871  -8.122  1.00  0.00    -0.203 F 
ATOM     75  F   UNL     1       1.541  -4.422 -12.174  1.00  0.00    -0.200 F 
ATOM     76  C   UNL     1       3.689  -4.375 -11.193  1.00  0.00     0.200 A 
ATOM     77  F   UNL     1       5.821  -4.370 -10.177  1.00  0.00    -0.200 F 
ATOM     78  F   UNL     1       4.158  -3.650 -12.217  1.00  0.00    -0.200 F 
ENDBRANCH  44  68
BRANCH  56  79
ATOM     79  C   UNL     1       0.509 -12.501  -8.377  1.00  0.00     0.064 A 
ATOM     80  C   UNL     1       1.602 -13.217  -8.883  1.00  0.00     0.173 A 
ATOM     81  C   UNL     1      -0.780 -12.916  -8.747  1.00  0.00     0.173 A 
ATOM     82  F   UNL     1       2.853 -12.851  -8.568  1.00  0.00    -0.203 F 
ATOM     83  C   UNL     1       1.412 -14.304  -9.733  1.00  0.00     0.198 A 
ATOM     84  C   UNL     1      -0.967 -14.018  -9.577  1.00  0.00     0.198 A 
ATOM     85  F   UNL     1      -1.858 -12.267  -8.283  1.00  0.00    -0.203 F 
ATOM     86  F   UNL     1       2.471 -14.959 -10.228  1.00  0.00    -0.200 F 
ATOM     87  C   UNL     1       0.129 -14.709 -10.071  1.00  0.00     0.200 A 
ATOM     88  F   UNL     1      -2.208 -14.415  -9.891  1.00  0.00    -0.200 F 
ATOM     89  F   UNL     1      -0.052 -15.766 -10.876  1.00  0.00    -0.200 F 
ENDBRANCH  56  79
ENDBRANCH  30  31
ENDBRANCH  23  25
ENDBRANCH  22  23
ENDBRANCH  21  22
ENDBRANCH   1  21
TORSDOF 14
