REMARK SMILES CC1=C(C)C[C@@H](C(=O)N[C@H](C)C(C)(C)C)[C@@H](C(=O)OCCOC(=O)c2ccc(-c3c4nc(c(-c5c(F)c(F)c(F)c(F)c5F)c5ccc([nH]5)c(-c5c(F)c(F)c(F)c(F)c5F)c5nc(c(-c6c(F)c(F)c(F)c(F)c6F)c6ccc3[nH]6)C=C5)C=C4)cc2)C1
REMARK SMILES IDX 20 1 19 2 17 3 18 4 16 5 1 6 2 7 3 8 88 9 4 10 5 11 6 12
REMARK SMILES IDX 7 13 8 14 9 15 10 17 11 18 12 19 13 20 14 21 15 22 21 23
REMARK SMILES IDX 22 24 23 25 24 26 25 27 26 28 87 29 27 30 86 31 28 32 29 33
REMARK SMILES IDX 30 34 80 35 31 36 85 37 79 38 81 39 32 40 84 41 78 42 77 43
REMARK SMILES IDX 33 45 65 46 45 47 64 48 46 49 49 50 63 51 82 52 47 53 48 54
REMARK SMILES IDX 62 56 83 57 50 58 34 59 35 60 43 61 36 62 37 63 41 64 44 65
REMARK SMILES IDX 38 66 39 67 42 68 40 69 66 70 67 71 75 72 68 73 69 74 73 75
REMARK SMILES IDX 76 76 70 77 71 78 74 79 72 80 51 81 52 82 60 83 53 84 54 85
REMARK SMILES IDX 58 86 61 87 55 88 56 89 59 90 57 91
REMARK H PARENT 9 16 81 44 49 55
REMARK Flexibility Score: inf
ROOT
ATOM      1  C   UNL     1       4.101  -0.377   4.727  1.00  0.00     0.274 C 
ENDROOT
BRANCH   1   2
ATOM      2  O   UNL     1       3.468  -0.247   3.425  1.00  0.00    -0.462 OA
BRANCH   2   3
ATOM      3  C   UNL     1       2.489   0.656   3.247  1.00  0.00     0.310 C 
ATOM      4  O   UNL     1       2.194   1.479   4.112  1.00  0.00    -0.252 OA
BRANCH   3   5
ATOM      5  C   UNL     1       1.619   0.512   1.972  1.00  0.00     0.116 C 
ATOM      6  C   UNL     1       1.442  -1.840  -1.258  1.00  0.00     0.039 C 
ATOM      7  C   UNL     1       0.961  -0.961  -0.125  1.00  0.00    -0.073 C 
ATOM      8  C   UNL     1      -0.339  -0.952   0.241  1.00  0.00    -0.074 C 
ATOM      9  C   UNL     1       2.036  -0.167   0.642  1.00  0.00     0.046 C 
ATOM     10  C   UNL     1      -1.454  -1.716  -0.431  1.00  0.00     0.039 C 
ATOM     11  C   UNL     1      -0.789  -0.144   1.419  1.00  0.00     0.045 C 
ATOM     12  C   UNL     1       0.274   0.017   2.493  1.00  0.00     0.097 C 
BRANCH  12  13
ATOM     13  C   UNL     1       0.362  -1.120   3.522  1.00  0.00     0.224 C 
ATOM     14  O   UNL     1      -0.440  -1.150   4.461  1.00  0.00    -0.275 OA
ATOM     15  N   UNL     1       1.391  -2.035   3.534  1.00  0.00    -0.353 N 
ATOM     16  H   UNL     1       1.969  -2.035   4.331  1.00  0.00     0.163 HD
BRANCH  15  17
ATOM     17  C   UNL     1       1.719  -3.016   2.482  1.00  0.00     0.084 C 
ATOM     18  C   UNL     1       0.777  -4.214   2.744  1.00  0.00     0.031 C 
BRANCH  17  19
ATOM     19  C   UNL     1       3.244  -3.499   2.345  1.00  0.00    -0.018 C 
ATOM     20  C   UNL     1       3.277  -4.649   1.303  1.00  0.00     0.013 C 
ATOM     21  C   UNL     1       4.300  -2.525   1.752  1.00  0.00     0.013 C 
ATOM     22  C   UNL     1       3.772  -4.018   3.700  1.00  0.00     0.013 C 
ENDBRANCH  17  19
ENDBRANCH  15  17
ENDBRANCH  12  13
ENDBRANCH   3   5
ENDBRANCH   2   3
ENDBRANCH   1   2
BRANCH   1  23
ATOM     23  C   UNL     1       5.575   0.033   4.680  1.00  0.00     0.275 C 
BRANCH  23  24
ATOM     24  O   UNL     1       5.668   1.460   4.606  1.00  0.00    -0.458 OA
BRANCH  24  25
ATOM     25  C   UNL     1       5.483   1.966   3.365  1.00  0.00     0.338 C 
ATOM     26  O   UNL     1       5.601   1.376   2.300  1.00  0.00    -0.246 OA
BRANCH  25  27
ATOM     27  C   UNL     1       4.798   3.260   3.514  1.00  0.00     0.060 A 
ATOM     28  C   UNL     1       3.731   3.515   2.644  1.00  0.00     0.016 A 
ATOM     29  C   UNL     1       5.105   4.147   4.550  1.00  0.00     0.016 A 
ATOM     30  C   UNL     1       2.916   4.616   2.846  1.00  0.00     0.010 A 
ATOM     31  C   UNL     1       4.329   5.290   4.713  1.00  0.00     0.010 A 
ATOM     32  C   UNL     1       3.237   5.522   3.859  1.00  0.00    -0.014 A 
BRANCH  32  33
ATOM     33  C   UNL     1       2.575   6.835   3.850  1.00  0.00     0.031 A 
ATOM     34  C   UNL     1       3.275   7.939   3.122  1.00  0.00     0.074 A 
ATOM     35  C   UNL     1       1.375   7.007   4.425  1.00  0.00     0.049 A 
ATOM     36  N   UNL     1       2.971   9.204   3.036  1.00  0.00    -0.248 NA
ATOM     37  C   UNL     1       4.496   7.558   2.388  1.00  0.00     0.031 C 
ATOM     38  C   UNL     1       0.589   5.959   5.074  1.00  0.00     0.029 A 
ATOM     39  N   UNL     1       0.612   8.136   4.554  1.00  0.00    -0.354 N 
ATOM     40  C   UNL     1       3.973   9.772   2.261  1.00  0.00     0.074 A 
ATOM     41  C   UNL     1       4.903   8.723   1.914  1.00  0.00     0.031 C 
ATOM     42  C   UNL     1      -0.544   6.502   5.553  1.00  0.00     0.029 A 
ATOM     43  C   UNL     1      -0.534   7.938   5.283  1.00  0.00     0.049 A 
ATOM     44  H   UNL     1       0.860   9.004   4.163  1.00  0.00     0.167 HD
ATOM     45  C   UNL     1       4.097  11.063   1.880  1.00  0.00     0.037 A 
ATOM     46  C   UNL     1      -1.441   8.837   5.708  1.00  0.00     0.037 A 
ATOM     47  C   UNL     1       3.153  12.083   2.245  1.00  0.00     0.049 A 
ATOM     48  C   UNL     1      -1.238  10.285   5.337  1.00  0.00     0.074 A 
ATOM     49  C   UNL     1       3.170  13.428   1.934  1.00  0.00     0.029 A 
ATOM     50  N   UNL     1       2.018  11.858   3.016  1.00  0.00    -0.354 N 
ATOM     51  N   UNL     1      -0.282  10.832   4.622  1.00  0.00    -0.248 NA
ATOM     52  C   UNL     1      -2.237  11.240   5.831  1.00  0.00     0.031 C 
ATOM     53  C   UNL     1       2.075  14.029   2.564  1.00  0.00     0.029 A 
ATOM     54  C   UNL     1       1.337  13.047   3.210  1.00  0.00     0.049 A 
ATOM     55  H   UNL     1       1.740  10.983   3.370  1.00  0.00     0.167 HD
ATOM     56  C   UNL     1      -0.578  12.187   4.555  1.00  0.00     0.074 A 
ATOM     57  C   UNL     1      -1.813  12.374   5.291  1.00  0.00     0.031 C 
ATOM     58  C   UNL     1       0.104  13.189   3.945  1.00  0.00     0.037 A 
BRANCH  45  59
ATOM     59  C   UNL     1       5.316  11.434   1.089  1.00  0.00     0.064 A 
ATOM     60  C   UNL     1       5.513  10.994  -0.230  1.00  0.00     0.173 A 
ATOM     61  C   UNL     1       6.312  12.234   1.667  1.00  0.00     0.173 A 
ATOM     62  F   UNL     1       4.605  10.202  -0.821  1.00  0.00    -0.203 F 
ATOM     63  C   UNL     1       6.674  11.319  -0.927  1.00  0.00     0.198 A 
ATOM     64  C   UNL     1       7.456  12.584   0.955  1.00  0.00     0.198 A 
ATOM     65  F   UNL     1       6.181  12.672   2.928  1.00  0.00    -0.203 F 
ATOM     66  F   UNL     1       6.868  10.837  -2.163  1.00  0.00    -0.200 F 
ATOM     67  C   UNL     1       7.640  12.119  -0.338  1.00  0.00     0.200 A 
ATOM     68  F   UNL     1       8.385  13.364   1.525  1.00  0.00    -0.200 F 
ATOM     69  F   UNL     1       8.755  12.434  -1.011  1.00  0.00    -0.200 F 
ENDBRANCH  45  59
BRANCH  46  70
ATOM     70  C   UNL     1      -2.590   8.404   6.548  1.00  0.00     0.064 A 
ATOM     71  C   UNL     1      -3.907   8.490   6.079  1.00  0.00     0.173 A 
ATOM     72  C   UNL     1      -2.394   7.907   7.846  1.00  0.00     0.173 A 
ATOM     73  F   UNL     1      -4.152   8.982   4.855  1.00  0.00    -0.203 F 
ATOM     74  C   UNL     1      -4.985   8.114   6.880  1.00  0.00     0.198 A 
ATOM     75  C   UNL     1      -3.470   7.501   8.634  1.00  0.00     0.198 A 
ATOM     76  F   UNL     1      -1.155   7.808   8.349  1.00  0.00    -0.203 F 
ATOM     77  F   UNL     1      -6.237   8.255   6.424  1.00  0.00    -0.200 F 
ATOM     78  C   UNL     1      -4.765   7.613   8.154  1.00  0.00     0.200 A 
ATOM     79  F   UNL     1      -3.251   7.008   9.861  1.00  0.00    -0.200 F 
ATOM     80  F   UNL     1      -5.801   7.250   8.922  1.00  0.00    -0.200 F 
ENDBRANCH  46  70
BRANCH  58  81
ATOM     81  C   UNL     1      -0.499  14.562   4.010  1.00  0.00     0.064 A 
ATOM     82  C   UNL     1      -0.534  15.299   5.202  1.00  0.00     0.173 A 
ATOM     83  C   UNL     1      -1.010  15.162   2.848  1.00  0.00     0.173 A 
ATOM     84  F   UNL     1      -0.068  14.765   6.341  1.00  0.00    -0.203 F 
ATOM     85  C   UNL     1      -1.092  16.574   5.236  1.00  0.00     0.198 A 
ATOM     86  C   UNL     1      -1.532  16.451   2.879  1.00  0.00     0.198 A 
ATOM     87  F   UNL     1      -0.988  14.503   1.680  1.00  0.00    -0.203 F 
ATOM     88  F   UNL     1      -1.169  17.237   6.398  1.00  0.00    -0.200 F 
ATOM     89  C   UNL     1      -1.582  17.151   4.074  1.00  0.00     0.200 A 
ATOM     90  F   UNL     1      -1.985  17.015   1.751  1.00  0.00    -0.200 F 
ATOM     91  F   UNL     1      -2.111  18.382   4.108  1.00  0.00    -0.200 F 
ENDBRANCH  58  81
ENDBRANCH  32  33
ENDBRANCH  25  27
ENDBRANCH  24  25
ENDBRANCH  23  24
ENDBRANCH   1  23
TORSDOF 14
