REMARK SMILES O=C(Cc1c(F)cc(Cl)cc1F)OCCOC(=O)c1ccc(-c2c3nc(c(-c4c(F)c(F)c(F)c(F)c4F)c4ccc([nH]4)c(-c4c(F)c(F)c(F)c(F)c4F)c4nc(c(-c5c(F)c(F)c(F)c(F)c5F)c5ccc2[nH]5)C=C4)C=C3)cc1
REMARK SMILES IDX 15 1 14 2 13 3 2 4 1 5 3 6 4 7 5 8 11 9 6 10 7 11 10 12
REMARK SMILES IDX 12 13 8 14 9 15 16 16 17 17 18 18 19 19 20 20 81 21 21 22
REMARK SMILES IDX 80 23 22 24 23 25 24 26 74 27 25 28 79 29 73 30 75 31 26 32
REMARK SMILES IDX 78 33 72 34 71 35 27 37 59 38 39 39 58 40 40 41 43 42 57 43
REMARK SMILES IDX 76 44 41 45 42 46 56 48 77 49 44 50 28 51 29 52 37 53 30 54
REMARK SMILES IDX 31 55 35 56 38 57 32 58 33 59 36 60 34 61 60 62 61 63 69 64
REMARK SMILES IDX 62 65 63 66 67 67 70 68 64 69 65 70 68 71 66 72 45 73 46 74
REMARK SMILES IDX 54 75 47 76 48 77 52 78 55 79 49 80 50 81 53 82 51 83
REMARK H PARENT 75 36 43 47
REMARK Flexibility Score: inf
ROOT
ATOM      1  C   UNL     1       4.324  -2.085  -0.759  1.00  0.00     0.275 C 
ENDROOT
BRANCH   1   2
ATOM      2  C   UNL     1       4.103  -1.298   0.535  1.00  0.00     0.274 C 
BRANCH   2   3
ATOM      3  O   UNL     1       2.805  -0.677   0.602  1.00  0.00    -0.462 OA
BRANCH   3   4
ATOM      4  C   UNL     1       2.667   0.675   0.605  1.00  0.00     0.310 C 
ATOM      5  O   UNL     1       1.794   1.208   1.286  1.00  0.00    -0.252 OA
BRANCH   4   6
ATOM      6  C   UNL     1       3.515   1.469  -0.366  1.00  0.00     0.164 C 
BRANCH   6   7
ATOM      7  C   UNL     1       4.257   2.614   0.262  1.00  0.00     0.035 A 
ATOM      8  C   UNL     1       3.695   3.888   0.332  1.00  0.00     0.131 A 
ATOM      9  C   UNL     1       5.540   2.436   0.782  1.00  0.00     0.131 A 
ATOM     10  F   UNL     1       2.480   4.111  -0.187  1.00  0.00    -0.207 F 
ATOM     11  C   UNL     1       4.388   4.955   0.898  1.00  0.00     0.060 A 
ATOM     12  C   UNL     1       6.248   3.484   1.355  1.00  0.00     0.060 A 
ATOM     13  F   UNL     1       6.134   1.239   0.703  1.00  0.00    -0.207 F 
ATOM     14  C   UNL     1       5.665   4.745   1.409  1.00  0.00     0.046 A 
ATOM     15  Cl  UNL     1       6.541   6.055   2.096  1.00  0.00    -0.084 Cl
ENDBRANCH   6   7
ENDBRANCH   4   6
ENDBRANCH   3   4
ENDBRANCH   2   3
ENDBRANCH   1   2
BRANCH   1  16
ATOM     16  O   UNL     1       4.002  -1.292  -1.912  1.00  0.00    -0.458 OA
BRANCH  16  17
ATOM     17  C   UNL     1       2.718  -1.412  -2.334  1.00  0.00     0.338 C 
ATOM     18  O   UNL     1       1.888  -2.212  -1.939  1.00  0.00    -0.246 OA
BRANCH  17  19
ATOM     19  C   UNL     1       2.397  -0.297  -3.248  1.00  0.00     0.060 A 
ATOM     20  C   UNL     1       1.145   0.315  -3.113  1.00  0.00     0.016 A 
ATOM     21  C   UNL     1       3.295   0.139  -4.227  1.00  0.00     0.016 A 
ATOM     22  C   UNL     1       0.768   1.336  -3.986  1.00  0.00     0.010 A 
ATOM     23  C   UNL     1       2.914   1.155  -5.107  1.00  0.00     0.010 A 
ATOM     24  C   UNL     1       1.637   1.734  -5.011  1.00  0.00    -0.014 A 
BRANCH  24  25
ATOM     25  C   UNL     1       1.150   2.627  -6.088  1.00  0.00     0.031 A 
ATOM     26  C   UNL     1       0.606   2.009  -7.344  1.00  0.00     0.074 A 
ATOM     27  C   UNL     1       1.168   3.963  -5.950  1.00  0.00     0.049 A 
ATOM     28  N   UNL     1       0.154   2.585  -8.429  1.00  0.00    -0.248 NA
ATOM     29  C   UNL     1       0.561   0.538  -7.378  1.00  0.00     0.031 C 
ATOM     30  C   UNL     1       1.611   4.684  -4.761  1.00  0.00     0.029 A 
ATOM     31  N   UNL     1       0.796   4.949  -6.829  1.00  0.00    -0.354 N 
ATOM     32  C   UNL     1      -0.246   1.551  -9.264  1.00  0.00     0.074 A 
ATOM     33  C   UNL     1       0.059   0.311  -8.582  1.00  0.00     0.031 C 
ATOM     34  C   UNL     1       1.484   6.004  -4.983  1.00  0.00     0.029 A 
ATOM     35  C   UNL     1       0.978   6.218  -6.339  1.00  0.00     0.049 A 
ATOM     36  H   UNL     1       0.434   4.764  -7.726  1.00  0.00     0.167 HD
ATOM     37  C   UNL     1      -0.831   1.626 -10.483  1.00  0.00     0.037 A 
ATOM     38  C   UNL     1       0.765   7.412  -6.925  1.00  0.00     0.037 A 
ATOM     39  C   UNL     1      -1.101   2.853 -11.182  1.00  0.00     0.049 A 
ATOM     40  C   UNL     1       0.232   7.471  -8.332  1.00  0.00     0.074 A 
ATOM     41  C   UNL     1      -1.647   3.029 -12.441  1.00  0.00     0.029 A 
ATOM     42  N   UNL     1      -0.836   4.120 -10.681  1.00  0.00    -0.354 N 
ATOM     43  N   UNL     1      -0.128   6.491  -9.125  1.00  0.00    -0.248 NA
ATOM     44  C   UNL     1       0.076   8.808  -8.925  1.00  0.00     0.031 C 
ATOM     45  C   UNL     1      -1.673   4.400 -12.720  1.00  0.00     0.029 A 
ATOM     46  C   UNL     1      -1.193   5.082 -11.613  1.00  0.00     0.049 A 
ATOM     47  H   UNL     1      -0.452   4.308  -9.794  1.00  0.00     0.167 HD
ATOM     48  C   UNL     1      -0.582   7.090 -10.294  1.00  0.00     0.074 A 
ATOM     49  C   UNL     1      -0.454   8.520 -10.106  1.00  0.00     0.031 C 
ATOM     50  C   UNL     1      -1.066   6.504 -11.417  1.00  0.00     0.037 A 
BRANCH  37  51
ATOM     51  C   UNL     1      -1.195   0.329 -11.141  1.00  0.00     0.064 A 
ATOM     52  C   UNL     1      -2.260  -0.455 -10.670  1.00  0.00     0.173 A 
ATOM     53  C   UNL     1      -0.478  -0.136 -12.253  1.00  0.00     0.173 A 
ATOM     54  F   UNL     1      -2.963  -0.063  -9.597  1.00  0.00    -0.203 F 
ATOM     55  C   UNL     1      -2.575  -1.670 -11.271  1.00  0.00     0.198 A 
ATOM     56  C   UNL     1      -0.814  -1.338 -12.869  1.00  0.00     0.198 A 
ATOM     57  F   UNL     1       0.549   0.576 -12.742  1.00  0.00    -0.203 F 
ATOM     58  F   UNL     1      -3.562  -2.427 -10.772  1.00  0.00    -0.200 F 
ATOM     59  C   UNL     1      -1.856  -2.108 -12.373  1.00  0.00     0.200 A 
ATOM     60  F   UNL     1      -0.123  -1.757 -13.939  1.00  0.00    -0.200 F 
ATOM     61  F   UNL     1      -2.160  -3.278 -12.951  1.00  0.00    -0.200 F 
ENDBRANCH  37  51
BRANCH  38  62
ATOM     62  C   UNL     1       1.036   8.658  -6.164  1.00  0.00     0.064 A 
ATOM     63  C   UNL     1      -0.018   9.461  -5.709  1.00  0.00     0.173 A 
ATOM     64  C   UNL     1       2.345   9.061  -5.863  1.00  0.00     0.173 A 
ATOM     65  F   UNL     1      -1.285   9.129  -5.998  1.00  0.00    -0.203 F 
ATOM     66  C   UNL     1       0.227  10.623  -4.980  1.00  0.00     0.198 A 
ATOM     67  C   UNL     1       2.588  10.211  -5.115  1.00  0.00     0.198 A 
ATOM     68  F   UNL     1       3.387   8.329  -6.283  1.00  0.00    -0.203 F 
ATOM     69  F   UNL     1      -0.797  11.388  -4.579  1.00  0.00    -0.200 F 
ATOM     70  C   UNL     1       1.529  10.992  -4.676  1.00  0.00     0.200 A 
ATOM     71  F   UNL     1       3.846  10.561  -4.817  1.00  0.00    -0.200 F 
ATOM     72  F   UNL     1       1.763  12.103  -3.965  1.00  0.00    -0.200 F 
ENDBRANCH  38  62
BRANCH  50  73
ATOM     73  C   UNL     1      -1.533   7.404 -12.526  1.00  0.00     0.064 A 
ATOM     74  C   UNL     1      -0.631   8.121 -13.324  1.00  0.00     0.173 A 
ATOM     75  C   UNL     1      -2.901   7.505 -12.828  1.00  0.00     0.173 A 
ATOM     76  F   UNL     1       0.685   8.069 -13.070  1.00  0.00    -0.203 F 
ATOM     77  C   UNL     1      -1.082   8.924 -14.370  1.00  0.00     0.198 A 
ATOM     78  C   UNL     1      -3.345   8.285 -13.892  1.00  0.00     0.198 A 
ATOM     79  F   UNL     1      -3.805   6.832 -12.101  1.00  0.00    -0.203 F 
ATOM     80  F   UNL     1      -0.205   9.632 -15.095  1.00  0.00    -0.200 F 
ATOM     81  C   UNL     1      -2.437   8.998 -14.658  1.00  0.00     0.200 A 
ATOM     82  F   UNL     1      -4.654   8.344 -14.177  1.00  0.00    -0.200 F 
ATOM     83  F   UNL     1      -2.867   9.763 -15.671  1.00  0.00    -0.200 F 
ENDBRANCH  50  73
ENDBRANCH  24  25
ENDBRANCH  17  19
ENDBRANCH  16  17
ENDBRANCH   1  16
TORSDOF 12
