REMARK SMILES CC1(C)CCN(C(=O)[C@@H]([NH3+])CC(=O)OCCOC(=O)c2ccc(-c3c4nc(c(-c5c(F)c(F)c(F)c(F)c5F)c5ccc([nH]5)c(-c5c(F)c(F)c(F)c(F)c5F)c5nc(c(-c6c(F)c(F)c(F)c(F)c6F)c6ccc3[nH]6)C=C5)C=C4)cc2)C1
REMARK SMILES IDX 15 1 14 2 12 3 13 4 11 5 9 6 7 7 8 8 6 9 1 10 2 11 3 12 4 13
REMARK SMILES IDX 83 14 5 15 10 16 16 20 17 21 18 22 19 23 20 24 21 25 82 26
REMARK SMILES IDX 22 27 81 28 23 29 24 30 25 31 75 32 26 33 80 34 74 35 76 36
REMARK SMILES IDX 27 37 79 38 73 39 72 40 28 42 60 43 40 44 59 45 41 46 44 47
REMARK SMILES IDX 58 48 77 49 42 50 43 51 57 53 78 54 45 55 29 56 30 57 38 58
REMARK SMILES IDX 31 59 32 60 36 61 39 62 33 63 34 64 37 65 35 66 61 67 62 68
REMARK SMILES IDX 70 69 63 70 64 71 68 72 71 73 65 74 66 75 69 76 67 77 46 78
REMARK SMILES IDX 47 79 55 80 48 81 49 82 53 83 56 84 50 85 51 86 54 87 52 88
REMARK H PARENT 10 17 10 18 10 19 76 41 44 52
REMARK Flexibility Score: inf
ROOT
ATOM      1  C   UNL     1       4.457   1.833   3.014  1.00  0.00     0.274 C 
ENDROOT
BRANCH   1   2
ATOM      2  O   UNL     1       3.513   2.076   1.955  1.00  0.00    -0.462 OA
BRANCH   2   3
ATOM      3  C   UNL     1       2.594   3.046   2.154  1.00  0.00     0.312 C 
ATOM      4  O   UNL     1       2.470   3.691   3.189  1.00  0.00    -0.252 OA
BRANCH   3   5
ATOM      5  C   UNL     1       1.688   3.272   0.967  1.00  0.00     0.198 C 
BRANCH   5   6
ATOM      6  C   UNL     1       2.199   2.721  -0.361  1.00  0.00     0.282 C 
BRANCH   6   7
ATOM      7  C   UNL     1       2.314   1.179  -0.433  1.00  0.00     0.281 C 
ATOM      8  O   UNL     1       3.369   0.668  -0.825  1.00  0.00    -0.268 OA
BRANCH   7   9
ATOM      9  N   UNL     1       1.234   0.389  -0.108  1.00  0.00    -0.337 N 
ATOM     10  C   UNL     1      -1.340  -0.501  -1.616  1.00  0.00     0.013 C 
ATOM     11  C   UNL     1      -0.982  -0.445  -0.123  1.00  0.00    -0.016 C 
ATOM     12  C   UNL     1      -2.259  -0.464   0.716  1.00  0.00     0.013 C 
ATOM     13  C   UNL     1      -0.015  -1.576   0.270  1.00  0.00     0.030 C 
ATOM     14  C   UNL     1      -0.134   0.795   0.179  1.00  0.00     0.126 C 
ATOM     15  C   UNL     1       1.348  -1.057  -0.169  1.00  0.00     0.120 C 
ENDBRANCH   7   9
ENDBRANCH   6   7
BRANCH   6  16
ATOM     16  N   UNL     1       1.359   3.205  -1.489  1.00  0.00    -0.347 N 
ATOM     17  H   UNL     1       0.413   2.835  -1.392  1.00  0.00     0.345 HD
ATOM     18  H   UNL     1       1.759   2.887  -2.372  1.00  0.00     0.345 HD
ATOM     19  H   UNL     1       1.328   4.225  -1.477  1.00  0.00     0.345 HD
ENDBRANCH   6  16
ENDBRANCH   5   6
ENDBRANCH   3   5
ENDBRANCH   2   3
ENDBRANCH   1   2
BRANCH   1  20
ATOM     20  C   UNL     1       5.814   2.467   2.698  1.00  0.00     0.275 C 
BRANCH  20  21
ATOM     21  O   UNL     1       5.739   3.906   2.722  1.00  0.00    -0.458 OA
BRANCH  21  22
ATOM     22  C   UNL     1       5.529   4.487   1.519  1.00  0.00     0.338 C 
ATOM     23  O   UNL     1       5.438   3.947   0.432  1.00  0.00    -0.246 OA
BRANCH  22  24
ATOM     24  C   UNL     1       5.258   5.918   1.702  1.00  0.00     0.060 A 
ATOM     25  C   UNL     1       3.956   6.364   1.469  1.00  0.00     0.016 A 
ATOM     26  C   UNL     1       6.280   6.822   1.983  1.00  0.00     0.016 A 
ATOM     27  C   UNL     1       3.662   7.720   1.505  1.00  0.00     0.010 A 
ATOM     28  C   UNL     1       5.984   8.188   2.028  1.00  0.00     0.010 A 
ATOM     29  C   UNL     1       4.676   8.643   1.777  1.00  0.00    -0.014 A 
BRANCH  29  30
ATOM     30  C   UNL     1       4.365  10.089   1.744  1.00  0.00     0.031 A 
ATOM     31  C   UNL     1       4.828  10.922   0.586  1.00  0.00     0.074 A 
ATOM     32  C   UNL     1       3.636  10.637   2.732  1.00  0.00     0.049 A 
ATOM     33  N   UNL     1       4.751  12.216   0.415  1.00  0.00    -0.248 NA
ATOM     34  C   UNL     1       5.460  10.201  -0.530  1.00  0.00     0.031 C 
ATOM     35  C   UNL     1       3.077   9.908   3.870  1.00  0.00     0.029 A 
ATOM     36  N   UNL     1       3.241  11.934   2.935  1.00  0.00    -0.354 N 
ATOM     37  C   UNL     1       5.351  12.470  -0.809  1.00  0.00     0.074 A 
ATOM     38  C   UNL     1       5.788  11.197  -1.342  1.00  0.00     0.031 C 
ATOM     39  C   UNL     1       2.409  10.770   4.654  1.00  0.00     0.029 A 
ATOM     40  C   UNL     1       2.538  12.114   4.099  1.00  0.00     0.049 A 
ATOM     41  H   UNL     1       3.442  12.665   2.306  1.00  0.00     0.167 HD
ATOM     42  C   UNL     1       5.523  13.662  -1.427  1.00  0.00     0.037 A 
ATOM     43  C   UNL     1       2.081  13.245   4.670  1.00  0.00     0.037 A 
ATOM     44  C   UNL     1       5.063  14.920  -0.901  1.00  0.00     0.049 A 
ATOM     45  C   UNL     1       2.328  14.560   3.987  1.00  0.00     0.074 A 
ATOM     46  C   UNL     1       5.188  16.185  -1.449  1.00  0.00     0.029 A 
ATOM     47  N   UNL     1       4.380  15.068   0.297  1.00  0.00    -0.354 N 
ATOM     48  N   UNL     1       2.930  14.799   2.847  1.00  0.00    -0.248 NA
ATOM     49  C   UNL     1       1.843  15.765   4.674  1.00  0.00     0.031 C 
ATOM     50  C   UNL     1       4.606  17.102  -0.568  1.00  0.00     0.029 A 
ATOM     51  C   UNL     1       4.088  16.405   0.512  1.00  0.00     0.049 A 
ATOM     52  H   UNL     1       4.138  14.332   0.904  1.00  0.00     0.167 HD
ATOM     53  C   UNL     1       2.885  16.174   2.672  1.00  0.00     0.074 A 
ATOM     54  C   UNL     1       2.185  16.718   3.818  1.00  0.00     0.031 C 
ATOM     55  C   UNL     1       3.383  16.921   1.657  1.00  0.00     0.037 A 
BRANCH  42  56
ATOM     56  C   UNL     1       6.271  13.666  -2.725  1.00  0.00     0.064 A 
ATOM     57  C   UNL     1       5.683  13.220  -3.917  1.00  0.00     0.173 A 
ATOM     58  C   UNL     1       7.586  14.152  -2.780  1.00  0.00     0.173 A 
ATOM     59  F   UNL     1       4.434  12.731  -3.912  1.00  0.00    -0.203 F 
ATOM     60  C   UNL     1       6.392  13.245  -5.116  1.00  0.00     0.198 A 
ATOM     61  C   UNL     1       8.284  14.195  -3.983  1.00  0.00     0.198 A 
ATOM     62  F   UNL     1       8.191  14.590  -1.665  1.00  0.00    -0.203 F 
ATOM     63  F   UNL     1       5.825  12.781  -6.238  1.00  0.00    -0.200 F 
ATOM     64  C   UNL     1       7.689  13.737  -5.149  1.00  0.00     0.200 A 
ATOM     65  F   UNL     1       9.534  14.677  -4.014  1.00  0.00    -0.200 F 
ATOM     66  F   UNL     1       8.368  13.764  -6.304  1.00  0.00    -0.200 F 
ENDBRANCH  42  56
BRANCH  43  67
ATOM     67  C   UNL     1       1.372  13.177   5.972  1.00  0.00     0.064 A 
ATOM     68  C   UNL     1      -0.004  13.424   6.058  1.00  0.00     0.173 A 
ATOM     69  C   UNL     1       2.054  12.851   7.153  1.00  0.00     0.173 A 
ATOM     70  F   UNL     1      -0.693  13.763   4.958  1.00  0.00    -0.203 F 
ATOM     71  C   UNL     1      -0.670  13.355   7.279  1.00  0.00     0.198 A 
ATOM     72  C   UNL     1       1.383  12.758   8.370  1.00  0.00     0.198 A 
ATOM     73  F   UNL     1       3.373  12.607   7.122  1.00  0.00    -0.203 F 
ATOM     74  F   UNL     1      -1.981  13.629   7.341  1.00  0.00    -0.200 F 
ATOM     75  C   UNL     1       0.022  13.015   8.432  1.00  0.00     0.200 A 
ATOM     76  F   UNL     1       2.053  12.419   9.479  1.00  0.00    -0.200 F 
ATOM     77  F   UNL     1      -0.622  12.942   9.605  1.00  0.00    -0.200 F 
ENDBRANCH  43  67
BRANCH  55  78
ATOM     78  C   UNL     1       3.163  18.400   1.726  1.00  0.00     0.064 A 
ATOM     79  C   UNL     1       3.924  19.212   2.579  1.00  0.00     0.173 A 
ATOM     80  C   UNL     1       2.213  19.016   0.899  1.00  0.00     0.173 A 
ATOM     81  F   UNL     1       4.832  18.664   3.399  1.00  0.00    -0.203 F 
ATOM     82  C   UNL     1       3.730  20.590   2.611  1.00  0.00     0.198 A 
ATOM     83  C   UNL     1       2.037  20.396   0.918  1.00  0.00     0.198 A 
ATOM     84  F   UNL     1       1.464  18.279   0.064  1.00  0.00    -0.203 F 
ATOM     85  F   UNL     1       4.445  21.346   3.456  1.00  0.00    -0.200 F 
ATOM     86  C   UNL     1       2.792  21.181   1.776  1.00  0.00     0.200 A 
ATOM     87  F   UNL     1       1.136  20.967   0.107  1.00  0.00    -0.200 F 
ATOM     88  F   UNL     1       2.612  22.509   1.805  1.00  0.00    -0.200 F 
ENDBRANCH  55  78
ENDBRANCH  29  30
ENDBRANCH  22  24
ENDBRANCH  21  22
ENDBRANCH  20  21
ENDBRANCH   1  20
TORSDOF 15
