REMARK SMILES O=C(Cn1c(=O)[nH]c2ccccc2c1=O)NC[C@H]1CC[C@@H](C(=O)N2CCC(C(=O)OCCOC(=O)c3ccc(-c4c5nc(c(-c6c(F)c(F)c(F)c(F)c6F)c6ccc([nH]6)c(-c6c(F)c(F)c(F)c(F)c6F)c6nc(c(-c7c(F)c(F)c(F)c(F)c7F)c7ccc4[nH]7)C=C6)C=C5)cc3)CC2)CC1
REMARK SMILES IDX 30 1 28 2 29 3 27 4 22 5 23 6 24 7 25 8 100 9 26 10 99 11
REMARK SMILES IDX 21 12 18 13 19 14 102 15 20 16 101 17 17 18 16 19 1 20 2 21
REMARK SMILES IDX 3 23 4 24 5 25 14 26 6 27 7 28 13 29 15 30 8 31 12 33 9 34
REMARK SMILES IDX 11 35 10 36 31 37 32 38 33 39 34 40 35 41 36 42 37 43 98 44
REMARK SMILES IDX 38 45 97 46 39 47 40 48 41 49 91 50 42 51 96 52 90 53 92 54
REMARK SMILES IDX 43 55 95 56 89 57 88 58 44 60 76 61 56 62 75 63 57 64 60 65
REMARK SMILES IDX 74 66 93 67 58 68 59 69 73 71 94 72 61 73 45 74 46 75 54 76
REMARK SMILES IDX 47 77 48 78 52 79 55 80 49 81 50 82 53 83 51 84 77 85 78 86
REMARK SMILES IDX 86 87 79 88 80 89 84 90 87 91 81 92 82 93 85 94 83 95 62 96
REMARK SMILES IDX 63 97 71 98 64 99 65 100 69 101 72 102 66 103 67 104 70 105
REMARK SMILES IDX 68 106
REMARK H PARENT 16 22 7 32 92 59 60 70
REMARK Flexibility Score: inf
ROOT
ATOM      1  O   UNL     1      -4.773   4.525  -0.839  1.00  0.00    -0.462 OA
ENDROOT
BRANCH   1   2
ATOM      2  C   UNL     1      -3.993   3.421  -0.925  1.00  0.00     0.309 C 
ATOM      3  O   UNL     1      -4.358   2.276  -0.687  1.00  0.00    -0.252 OA
BRANCH   2   4
ATOM      4  C   UNL     1      -2.581   3.749  -1.343  1.00  0.00     0.103 C 
ATOM      5  C   UNL     1       0.738   6.266  -1.304  1.00  0.00     0.225 C 
ATOM      6  O   UNL     1       0.337   7.422  -1.471  1.00  0.00    -0.275 OA
ATOM      7  N   UNL     1      -0.118   5.199  -1.469  1.00  0.00    -0.342 N 
ATOM      8  C   UNL     1      -1.008   5.202  -2.623  1.00  0.00     0.120 C 
ATOM      9  C   UNL     1      -0.258   4.109  -0.517  1.00  0.00     0.120 C 
ATOM     10  C   UNL     1      -2.455   4.993  -2.225  1.00  0.00     0.037 C 
ATOM     11  C   UNL     1      -1.704   3.876  -0.107  1.00  0.00     0.037 C 
BRANCH   5  12
ATOM     12  C   UNL     1       2.251   5.998  -1.219  1.00  0.00     0.078 C 
ATOM     13  C   UNL     1       3.179   3.171  -1.731  1.00  0.00     0.008 C 
ATOM     14  C   UNL     1       2.604   4.060  -2.835  1.00  0.00     0.006 C 
ATOM     15  C   UNL     1       2.904   3.654  -0.297  1.00  0.00     0.006 C 
ATOM     16  C   UNL     1       2.793   5.546  -2.577  1.00  0.00     0.014 C 
ATOM     17  C   UNL     1       2.815   5.162  -0.077  1.00  0.00     0.014 C 
BRANCH  13  18
ATOM     18  C   UNL     1       2.660   1.732  -1.936  1.00  0.00     0.119 C 
BRANCH  18  19
ATOM     19  N   UNL     1       3.170   0.839  -0.925  1.00  0.00    -0.354 N 
ATOM     20  O   UNL     1       1.163   0.202  -0.013  1.00  0.00    -0.273 OA
ATOM     21  C   UNL     1       2.388   0.118  -0.044  1.00  0.00     0.240 C 
ATOM     22  H   UNL     1       4.146   0.735  -0.858  1.00  0.00     0.163 HD
BRANCH  21  23
ATOM     23  C   UNL     1       3.196  -0.716   0.963  1.00  0.00     0.230 C 
BRANCH  23  24
ATOM     24  N   UNL     1       3.951  -1.756   0.267  1.00  0.00    -0.250 N 
ATOM     25  C   UNL     1       3.542  -3.071   0.400  1.00  0.00     0.329 A 
ATOM     26  C   UNL     1       5.079  -1.372  -0.450  1.00  0.00     0.264 A 
ATOM     27  O   UNL     1       2.633  -3.442   1.139  1.00  0.00    -0.248 OA
ATOM     28  N   UNL     1       4.224  -4.003  -0.335  1.00  0.00    -0.307 N 
ATOM     29  C   UNL     1       5.676  -2.376  -1.341  1.00  0.00     0.064 A 
ATOM     30  O   UNL     1       5.552  -0.236  -0.420  1.00  0.00    -0.268 OA
ATOM     31  C   UNL     1       5.236  -3.688  -1.238  1.00  0.00     0.055 A 
ATOM     32  H   UNL     1       3.985  -4.950  -0.219  1.00  0.00     0.171 HD
ATOM     33  C   UNL     1       6.631  -2.013  -2.295  1.00  0.00     0.016 A 
ATOM     34  C   UNL     1       5.783  -4.671  -2.060  1.00  0.00     0.027 A 
ATOM     35  C   UNL     1       7.155  -2.988  -3.142  1.00  0.00     0.001 A 
ATOM     36  C   UNL     1       6.739  -4.315  -3.017  1.00  0.00     0.002 A 
ENDBRANCH  23  24
ENDBRANCH  21  23
ENDBRANCH  18  19
ENDBRANCH  13  18
ENDBRANCH   5  12
ENDBRANCH   2   4
ENDBRANCH   1   2
BRANCH   1  37
ATOM     37  C   UNL     1      -6.168   4.291  -0.591  1.00  0.00     0.274 C 
BRANCH  37  38
ATOM     38  C   UNL     1      -6.940   4.224  -1.909  1.00  0.00     0.275 C 
BRANCH  38  39
ATOM     39  O   UNL     1      -6.610   3.031  -2.646  1.00  0.00    -0.458 OA
BRANCH  39  40
ATOM     40  C   UNL     1      -5.706   3.176  -3.643  1.00  0.00     0.338 C 
ATOM     41  O   UNL     1      -5.173   4.197  -4.030  1.00  0.00    -0.246 OA
BRANCH  40  42
ATOM     42  C   UNL     1      -5.388   1.845  -4.176  1.00  0.00     0.060 A 
ATOM     43  C   UNL     1      -6.304   1.202  -5.004  1.00  0.00     0.016 A 
ATOM     44  C   UNL     1      -4.161   1.250  -3.872  1.00  0.00     0.016 A 
ATOM     45  C   UNL     1      -6.005  -0.073  -5.484  1.00  0.00     0.010 A 
ATOM     46  C   UNL     1      -3.853  -0.013  -4.370  1.00  0.00     0.010 A 
ATOM     47  C   UNL     1      -4.784  -0.694  -5.162  1.00  0.00    -0.014 A 
BRANCH  47  48
ATOM     48  C   UNL     1      -4.488  -2.054  -5.669  1.00  0.00     0.031 A 
ATOM     49  C   UNL     1      -4.460  -3.228  -4.732  1.00  0.00     0.074 A 
ATOM     50  C   UNL     1      -4.268  -2.223  -6.986  1.00  0.00     0.049 A 
ATOM     51  N   UNL     1      -4.310  -4.499  -5.011  1.00  0.00    -0.248 NA
ATOM     52  C   UNL     1      -4.615  -2.944  -3.297  1.00  0.00     0.031 C 
ATOM     53  C   UNL     1      -4.233  -1.145  -7.974  1.00  0.00     0.029 A 
ATOM     54  N   UNL     1      -4.052  -3.360  -7.721  1.00  0.00    -0.354 N 
ATOM     55  C   UNL     1      -4.373  -5.163  -3.794  1.00  0.00     0.074 A 
ATOM     56  C   UNL     1      -4.513  -4.155  -2.766  1.00  0.00     0.031 C 
ATOM     57  C   UNL     1      -4.056  -1.675  -9.194  1.00  0.00     0.029 A 
ATOM     58  C   UNL     1      -3.930  -3.125  -9.069  1.00  0.00     0.049 A 
ATOM     59  H   UNL     1      -3.990  -4.257  -7.322  1.00  0.00     0.167 HD
ATOM     60  C   UNL     1      -4.345  -6.497  -3.563  1.00  0.00     0.037 A 
ATOM     61  C   UNL     1      -3.748  -3.985 -10.088  1.00  0.00     0.037 A 
ATOM     62  C   UNL     1      -4.204  -7.493  -4.595  1.00  0.00     0.049 A 
ATOM     63  C   UNL     1      -3.683  -5.459  -9.794  1.00  0.00     0.074 A 
ATOM     64  C   UNL     1      -4.190  -8.871  -4.465  1.00  0.00     0.029 A 
ATOM     65  N   UNL     1      -4.049  -7.216  -5.945  1.00  0.00    -0.354 N 
ATOM     66  N   UNL     1      -3.808  -6.081  -8.647  1.00  0.00    -0.248 NA
ATOM     67  C   UNL     1      -3.460  -6.352 -10.939  1.00  0.00     0.031 C 
ATOM     68  C   UNL     1      -3.973  -9.426  -5.729  1.00  0.00     0.029 A 
ATOM     69  C   UNL     1      -3.916  -8.399  -6.657  1.00  0.00     0.049 A 
ATOM     70  H   UNL     1      -4.036  -6.315  -6.340  1.00  0.00     0.167 HD
ATOM     71  C   UNL     1      -3.708  -7.435  -8.934  1.00  0.00     0.074 A 
ATOM     72  C   UNL     1      -3.534  -7.546 -10.367  1.00  0.00     0.031 C 
ATOM     73  C   UNL     1      -3.751  -8.492  -8.085  1.00  0.00     0.037 A 
BRANCH  60  74
ATOM     74  C   UNL     1      -4.494  -6.975  -2.147  1.00  0.00     0.064 A 
ATOM     75  C   UNL     1      -5.724  -6.890  -1.476  1.00  0.00     0.173 A 
ATOM     76  C   UNL     1      -3.435  -7.621  -1.493  1.00  0.00     0.173 A 
ATOM     77  F   UNL     1      -6.768  -6.278  -2.055  1.00  0.00    -0.203 F 
ATOM     78  C   UNL     1      -5.886  -7.432  -0.204  1.00  0.00     0.198 A 
ATOM     79  C   UNL     1      -3.608  -8.187  -0.232  1.00  0.00     0.198 A 
ATOM     80  F   UNL     1      -2.240  -7.739  -2.093  1.00  0.00    -0.203 F 
ATOM     81  F   UNL     1      -7.066  -7.325   0.423  1.00  0.00    -0.200 F 
ATOM     82  C   UNL     1      -4.833  -8.091   0.411  1.00  0.00     0.200 A 
ATOM     83  F   UNL     1      -2.596  -8.844   0.351  1.00  0.00    -0.200 F 
ATOM     84  F   UNL     1      -5.001  -8.642   1.622  1.00  0.00    -0.200 F 
ENDBRANCH  60  74
BRANCH  61  85
ATOM     85  C   UNL     1      -3.651  -3.473 -11.480  1.00  0.00     0.064 A 
ATOM     86  C   UNL     1      -4.650  -3.754 -12.424  1.00  0.00     0.173 A 
ATOM     87  C   UNL     1      -2.566  -2.687 -11.896  1.00  0.00     0.173 A 
ATOM     88  F   UNL     1      -5.699  -4.516 -12.082  1.00  0.00    -0.203 F 
ATOM     89  C   UNL     1      -4.557  -3.286 -13.733  1.00  0.00     0.198 A 
ATOM     90  C   UNL     1      -2.490  -2.192 -13.196  1.00  0.00     0.198 A 
ATOM     91  F   UNL     1      -1.585  -2.385 -11.032  1.00  0.00    -0.203 F 
ATOM     92  F   UNL     1      -5.501  -3.609 -14.626  1.00  0.00    -0.200 F 
ATOM     93  C   UNL     1      -3.481  -2.498 -14.116  1.00  0.00     0.200 A 
ATOM     94  F   UNL     1      -1.458  -1.417 -13.556  1.00  0.00    -0.200 F 
ATOM     95  F   UNL     1      -3.396  -2.042 -15.372  1.00  0.00    -0.200 F 
ENDBRANCH  61  85
BRANCH  73  96
ATOM     96  C   UNL     1      -3.635  -9.865  -8.683  1.00  0.00     0.064 A 
ATOM     97  C   UNL     1      -2.429 -10.331  -9.227  1.00  0.00     0.173 A 
ATOM     98  C   UNL     1      -4.727 -10.746  -8.659  1.00  0.00     0.173 A 
ATOM     99  F   UNL     1      -1.358  -9.525  -9.284  1.00  0.00    -0.203 F 
ATOM    100  C   UNL     1      -2.329 -11.617  -9.750  1.00  0.00     0.198 A 
ATOM    101  C   UNL     1      -4.613 -12.043  -9.149  1.00  0.00     0.198 A 
ATOM    102  F   UNL     1      -5.901 -10.355  -8.139  1.00  0.00    -0.203 F 
ATOM    103  F   UNL     1      -1.181 -12.023 -10.309  1.00  0.00    -0.200 F 
ATOM    104  C   UNL     1      -3.417 -12.475  -9.701  1.00  0.00     0.200 A 
ATOM    105  F   UNL     1      -5.660 -12.878  -9.082  1.00  0.00    -0.200 F 
ATOM    106  F   UNL     1      -3.314 -13.718 -10.191  1.00  0.00    -0.200 F 
ENDBRANCH  73  96
ENDBRANCH  47  48
ENDBRANCH  40  42
ENDBRANCH  39  40
ENDBRANCH  38  39
ENDBRANCH  37  38
ENDBRANCH   1  37
TORSDOF 16
