REMARK SMILES O=C(Cc1ccc(F)c(F)c1)N[C@H]1COC[C@@H]1C(=O)OCCOC(=O)c1ccc(-c2c3nc(c(-c4c(F)c(F)c(F)c(F)c4F)c4ccc([nH]4)c(-c4c(F)c(F)c(F)c(F)c4F)c4nc(c(-c5c(F)c(F)c(F)c(F)c5F)c5ccc2[nH]5)C=C4)C=C3)cc1
REMARK SMILES IDX 21 1 20 2 18 3 19 4 17 5 13 6 14 7 15 8 16 9 12 10 1 11 2 12
REMARK SMILES IDX 3 14 4 15 5 16 11 17 6 18 9 19 7 20 10 21 8 22 22 23 23 24
REMARK SMILES IDX 24 25 25 26 26 27 27 28 88 29 28 30 87 31 29 32 30 33 31 34
REMARK SMILES IDX 81 35 32 36 86 37 80 38 82 39 33 40 85 41 79 42 78 43 34 45
REMARK SMILES IDX 66 46 46 47 65 48 47 49 50 50 64 51 83 52 48 53 49 54 63 56
REMARK SMILES IDX 84 57 51 58 35 59 36 60 44 61 37 62 38 63 42 64 45 65 39 66
REMARK SMILES IDX 40 67 43 68 41 69 67 70 68 71 76 72 69 73 70 74 74 75 77 76
REMARK SMILES IDX 71 77 72 78 75 79 73 80 52 81 53 82 61 83 54 84 55 85 59 86
REMARK SMILES IDX 62 87 56 88 57 89 60 90 58 91
REMARK H PARENT 12 13 82 44 50 55
REMARK Flexibility Score: inf
ROOT
ATOM      1  C   UNL     1       5.495  -0.351   3.087  1.00  0.00     0.274 C 
ENDROOT
BRANCH   1   2
ATOM      2  O   UNL     1       4.130   0.085   2.881  1.00  0.00    -0.462 OA
BRANCH   2   3
ATOM      3  C   UNL     1       3.648   0.945   3.821  1.00  0.00     0.313 C 
ATOM      4  O   UNL     1       4.296   1.343   4.782  1.00  0.00    -0.252 OA
BRANCH   3   5
ATOM      5  C   UNL     1       2.171   1.240   3.626  1.00  0.00     0.149 C 
ATOM      6  C   UNL     1       1.759   1.619   2.209  1.00  0.00     0.124 C 
ATOM      7  C   UNL     1       2.157   3.093   2.160  1.00  0.00     0.186 C 
ATOM      8  O   UNL     1       2.086   3.606   3.501  1.00  0.00    -0.378 OA
ATOM      9  C   UNL     1       1.817   2.510   4.384  1.00  0.00     0.177 C 
BRANCH   6  10
ATOM     10  N   UNL     1       0.314   1.403   2.030  1.00  0.00    -0.350 N 
ATOM     11  O   UNL     1       0.071   2.719   0.158  1.00  0.00    -0.275 OA
ATOM     12  C   UNL     1      -0.411   1.969   1.001  1.00  0.00     0.224 C 
ATOM     13  H   UNL     1      -0.158   0.827   2.675  1.00  0.00     0.163 HD
BRANCH  12  14
ATOM     14  C   UNL     1      -1.856   1.512   0.935  1.00  0.00     0.135 C 
BRANCH  14  15
ATOM     15  C   UNL     1      -2.083   0.352  -0.010  1.00  0.00    -0.036 A 
ATOM     16  C   UNL     1      -3.360  -0.232  -0.069  1.00  0.00     0.007 A 
ATOM     17  C   UNL     1      -1.074  -0.150  -0.851  1.00  0.00     0.046 A 
ATOM     18  C   UNL     1      -3.616  -1.298  -0.936  1.00  0.00     0.043 A 
ATOM     19  C   UNL     1      -1.335  -1.215  -1.706  1.00  0.00     0.159 A 
ATOM     20  C   UNL     1      -2.598  -1.786  -1.748  1.00  0.00     0.158 A 
ATOM     21  F   UNL     1      -0.352  -1.683  -2.486  1.00  0.00    -0.204 F 
ATOM     22  F   UNL     1      -2.847  -2.812  -2.573  1.00  0.00    -0.204 F 
ENDBRANCH  14  15
ENDBRANCH  12  14
ENDBRANCH   6  10
ENDBRANCH   3   5
ENDBRANCH   2   3
ENDBRANCH   1   2
BRANCH   1  23
ATOM     23  C   UNL     1       6.456   0.397   2.166  1.00  0.00     0.275 C 
BRANCH  23  24
ATOM     24  O   UNL     1       6.330   1.810   2.393  1.00  0.00    -0.458 OA
BRANCH  24  25
ATOM     25  C   UNL     1       6.419   2.589   1.289  1.00  0.00     0.338 C 
ATOM     26  O   UNL     1       6.683   2.215   0.159  1.00  0.00    -0.246 OA
BRANCH  25  27
ATOM     27  C   UNL     1       6.080   3.996   1.614  1.00  0.00     0.060 A 
ATOM     28  C   UNL     1       5.256   4.315   2.694  1.00  0.00     0.016 A 
ATOM     29  C   UNL     1       6.480   5.007   0.737  1.00  0.00     0.016 A 
ATOM     30  C   UNL     1       4.723   5.600   2.810  1.00  0.00     0.010 A 
ATOM     31  C   UNL     1       6.043   6.322   0.932  1.00  0.00     0.010 A 
ATOM     32  C   UNL     1       5.122   6.631   1.947  1.00  0.00    -0.014 A 
BRANCH  32  33
ATOM     33  C   UNL     1       4.571   8.012   2.081  1.00  0.00     0.031 A 
ATOM     34  C   UNL     1       3.932   8.701   0.901  1.00  0.00     0.074 A 
ATOM     35  C   UNL     1       4.633   8.668   3.257  1.00  0.00     0.049 A 
ATOM     36  N   UNL     1       3.645   9.969   0.737  1.00  0.00    -0.248 NA
ATOM     37  C   UNL     1       3.584   7.857  -0.252  1.00  0.00     0.031 C 
ATOM     38  C   UNL     1       5.158   8.123   4.509  1.00  0.00     0.029 A 
ATOM     39  N   UNL     1       4.237   9.941   3.594  1.00  0.00    -0.354 N 
ATOM     40  C   UNL     1       3.157  10.085  -0.558  1.00  0.00     0.074 A 
ATOM     41  C   UNL     1       3.168   8.757  -1.133  1.00  0.00     0.031 C 
ATOM     42  C   UNL     1       4.994   9.024   5.487  1.00  0.00     0.029 A 
ATOM     43  C   UNL     1       4.460  10.254   4.912  1.00  0.00     0.049 A 
ATOM     44  H   UNL     1       3.833  10.568   2.952  1.00  0.00     0.167 HD
ATOM     45  C   UNL     1       2.747  11.202  -1.207  1.00  0.00     0.037 A 
ATOM     46  C   UNL     1       4.306  11.412   5.583  1.00  0.00     0.037 A 
ATOM     47  C   UNL     1       2.658  12.509  -0.606  1.00  0.00     0.049 A 
ATOM     48  C   UNL     1       3.869  12.641   4.844  1.00  0.00     0.074 A 
ATOM     49  C   UNL     1       2.257  13.701  -1.185  1.00  0.00     0.029 A 
ATOM     50  N   UNL     1       2.944  12.787   0.722  1.00  0.00    -0.354 N 
ATOM     51  N   UNL     1       3.542  12.771   3.583  1.00  0.00    -0.248 NA
ATOM     52  C   UNL     1       3.821  13.893   5.612  1.00  0.00     0.031 C 
ATOM     53  C   UNL     1       2.318  14.704  -0.212  1.00  0.00     0.029 A 
ATOM     54  C   UNL     1       2.727  14.131   0.980  1.00  0.00     0.049 A 
ATOM     55  H   UNL     1       3.255  12.127   1.383  1.00  0.00     0.167 HD
ATOM     56  C   UNL     1       3.261  14.117   3.400  1.00  0.00     0.074 A 
ATOM     57  C   UNL     1       3.429  14.760   4.687  1.00  0.00     0.031 C 
ATOM     58  C   UNL     1       2.909  14.761   2.262  1.00  0.00     0.037 A 
BRANCH  45  59
ATOM     59  C   UNL     1       2.389  11.080  -2.658  1.00  0.00     0.064 A 
ATOM     60  C   UNL     1       3.246  11.607  -3.638  1.00  0.00     0.173 A 
ATOM     61  C   UNL     1       1.177  10.516  -3.080  1.00  0.00     0.173 A 
ATOM     62  F   UNL     1       4.412  12.167  -3.285  1.00  0.00    -0.203 F 
ATOM     63  C   UNL     1       2.897  11.583  -4.985  1.00  0.00     0.198 A 
ATOM     64  C   UNL     1       0.842  10.472  -4.431  1.00  0.00     0.198 A 
ATOM     65  F   UNL     1       0.329   9.992  -2.183  1.00  0.00    -0.203 F 
ATOM     66  F   UNL     1       3.717  12.120  -5.899  1.00  0.00    -0.200 F 
ATOM     67  C   UNL     1       1.697  11.013  -5.381  1.00  0.00     0.200 A 
ATOM     68  F   UNL     1      -0.311   9.907  -4.816  1.00  0.00    -0.200 F 
ATOM     69  F   UNL     1       1.363  10.986  -6.679  1.00  0.00    -0.200 F 
ENDBRANCH  45  59
BRANCH  46  70
ATOM     70  C   UNL     1       4.621  11.454   7.032  1.00  0.00     0.064 A 
ATOM     71  C   UNL     1       5.940  11.341   7.497  1.00  0.00     0.173 A 
ATOM     72  C   UNL     1       3.596  11.541   7.983  1.00  0.00     0.173 A 
ATOM     73  F   UNL     1       6.954  11.256   6.624  1.00  0.00    -0.203 F 
ATOM     74  C   UNL     1       6.218  11.271   8.859  1.00  0.00     0.198 A 
ATOM     75  C   UNL     1       3.878  11.497   9.346  1.00  0.00     0.198 A 
ATOM     76  F   UNL     1       2.323  11.678   7.584  1.00  0.00    -0.203 F 
ATOM     77  F   UNL     1       7.481  11.109   9.276  1.00  0.00    -0.200 F 
ATOM     78  C   UNL     1       5.187  11.348   9.783  1.00  0.00     0.200 A 
ATOM     79  F   UNL     1       2.882  11.594  10.238  1.00  0.00    -0.200 F 
ATOM     80  F   UNL     1       5.454  11.277  11.094  1.00  0.00    -0.200 F 
ENDBRANCH  46  70
BRANCH  58  81
ATOM     81  C   UNL     1       2.683  16.238   2.351  1.00  0.00     0.064 A 
ATOM     82  C   UNL     1       1.384  16.764   2.330  1.00  0.00     0.173 A 
ATOM     83  C   UNL     1       3.760  17.134   2.405  1.00  0.00     0.173 A 
ATOM     84  F   UNL     1       0.324  15.945   2.276  1.00  0.00    -0.203 F 
ATOM     85  C   UNL     1       1.171  18.139   2.351  1.00  0.00     0.198 A 
ATOM     86  C   UNL     1       3.543  18.508   2.444  1.00  0.00     0.198 A 
ATOM     87  F   UNL     1       5.020  16.674   2.442  1.00  0.00    -0.203 F 
ATOM     88  F   UNL     1      -0.078  18.623   2.312  1.00  0.00    -0.200 F 
ATOM     89  C   UNL     1       2.249  19.010   2.411  1.00  0.00     0.200 A 
ATOM     90  F   UNL     1       4.584  19.348   2.522  1.00  0.00    -0.200 F 
ATOM     91  F   UNL     1       2.042  20.333   2.442  1.00  0.00    -0.200 F 
ENDBRANCH  58  81
ENDBRANCH  32  33
ENDBRANCH  25  27
ENDBRANCH  24  25
ENDBRANCH  23  24
ENDBRANCH   1  23
TORSDOF 14
