REMARK SMILES COc1ccc(CCC(=O)Nc2ccc(N3CCCC3)cc2C(=O)OCCOC(=O)c2ccc(-c3c4nc(c(-c5c(F)c(F)c(F)c(F)c5F)c5ccc([nH]5)c(-c5c(F)c(F)c(F)c(F)c5F)c5nc(c(-c6c(F)c(F)c(F)c(F)c6F)c6ccc3[nH]6)C=C5)C=C4)cc2)cc1
REMARK SMILES IDX 25 1 23 2 24 3 22 4 12 5 13 6 14 7 21 8 15 9 11 10 9 11
REMARK SMILES IDX 10 12 8 14 7 15 6 16 3 17 4 18 95 19 5 20 94 21 2 22 1 23
REMARK SMILES IDX 16 24 17 25 20 26 18 27 19 28 26 29 27 30 28 31 29 32 30 33
REMARK SMILES IDX 31 34 32 35 93 36 33 37 92 38 34 39 35 40 36 41 86 42 37 43
REMARK SMILES IDX 91 44 85 45 87 46 38 47 90 48 84 49 83 50 39 52 71 53 51 54
REMARK SMILES IDX 70 55 52 56 55 57 69 58 88 59 53 60 54 61 68 63 89 64 56 65
REMARK SMILES IDX 40 66 41 67 49 68 42 69 43 70 47 71 50 72 44 73 45 74 48 75
REMARK SMILES IDX 46 76 72 77 73 78 81 79 74 80 75 81 79 82 82 83 76 84 77 85
REMARK SMILES IDX 80 86 78 87 57 88 58 89 66 90 59 91 60 92 64 93 67 94 61 95
REMARK SMILES IDX 62 96 65 97 63 98
REMARK H PARENT 11 13 87 51 55 62
REMARK Flexibility Score: inf
ROOT
ATOM      1  O   UNL     1      -0.029   4.002   4.236  1.00  0.00    -0.458 OA
ENDROOT
BRANCH   1   2
ATOM      2  C   UNL     1       1.041   3.623   3.226  1.00  0.00     0.340 C 
ATOM      3  O   UNL     1       1.732   2.936   4.023  1.00  0.00    -0.246 OA
BRANCH   2   4
ATOM      4  C   UNL     1       1.281   4.169   1.161  1.00  0.00     0.085 A 
ATOM      5  C   UNL     1       0.715   5.255   0.260  1.00  0.00     0.055 A 
ATOM      6  C   UNL     1       0.428   5.005  -1.130  1.00  0.00     0.029 A 
ATOM      7  C   UNL     1       0.940   3.919  -1.839  1.00  0.00     0.028 A 
ATOM      8  C   UNL     1       2.166   3.468   0.105  1.00  0.00     0.043 A 
ATOM      9  C   UNL     1       1.913   3.169  -1.246  1.00  0.00     0.038 A 
BRANCH   5  10
ATOM     10  N   UNL     1       0.408   6.653   0.523  1.00  0.00    -0.325 N 
ATOM     11  C   UNL     1       0.848   7.640   1.369  1.00  0.00     0.224 C 
ATOM     12  O   UNL     1       0.094   8.610   1.526  1.00  0.00    -0.275 OA
ATOM     13  H   UNL     1      -0.311   6.979  -0.065  1.00  0.00     0.169 HD
BRANCH  11  14
ATOM     14  C   UNL     1       2.224   7.663   2.025  1.00  0.00     0.105 C 
BRANCH  14  15
ATOM     15  C   UNL     1       2.538   6.673   3.129  1.00  0.00     0.045 C 
BRANCH  15  16
ATOM     16  C   UNL     1       1.945   5.366   2.784  1.00  0.00    -0.047 A 
ATOM     17  C   UNL     1       0.295   2.295   1.790  1.00  0.00     0.118 A 
ATOM     18  C   UNL     1      -0.670   3.781   2.034  1.00  0.00     0.046 A 
ATOM     19  C   UNL     1       2.078   2.295   2.043  1.00  0.00     0.046 A 
ATOM     20  C   UNL     1       0.126   5.317   2.585  1.00  0.00     0.007 A 
ATOM     21  C   UNL     1       2.941   3.874   2.491  1.00  0.00     0.007 A 
BRANCH  17  22
ATOM     22  O   UNL     1      -0.479   1.253   1.370  1.00  0.00    -0.497 OA
ATOM     23  C   UNL     1       0.113  -0.006   1.132  1.00  0.00     0.278 C 
ENDBRANCH  17  22
ENDBRANCH  15  16
ENDBRANCH  14  15
ENDBRANCH  11  14
ENDBRANCH   5  10
BRANCH   9  24
ATOM     24  N   UNL     1       2.568   2.129  -1.888  1.00  0.00    -0.372 N 
ATOM     25  C   UNL     1       2.568   0.791  -1.276  1.00  0.00     0.116 C 
ATOM     26  C   UNL     1       3.853   2.371  -2.551  1.00  0.00     0.116 C 
ATOM     27  C   UNL     1       4.021   0.334  -1.316  1.00  0.00     0.023 C 
ATOM     28  C   UNL     1       4.523   0.990  -2.587  1.00  0.00     0.023 C 
ENDBRANCH   9  24
ENDBRANCH   2   4
ENDBRANCH   1   2
BRANCH   1  29
ATOM     29  C   UNL     1       0.486   4.436   5.535  1.00  0.00     0.275 C 
BRANCH  29  30
ATOM     30  C   UNL     1       0.395   3.411   6.670  1.00  0.00     0.275 C 
BRANCH  30  31
ATOM     31  O   UNL     1       1.418   2.402   6.566  1.00  0.00    -0.458 OA
BRANCH  31  32
ATOM     32  C   UNL     1       0.985   1.192   6.139  1.00  0.00     0.338 C 
ATOM     33  O   UNL     1      -0.176   0.815   6.073  1.00  0.00    -0.246 OA
BRANCH  32  34
ATOM     34  C   UNL     1       2.102   0.340   5.659  1.00  0.00     0.060 A 
ATOM     35  C   UNL     1       3.147   0.887   4.932  1.00  0.00     0.016 A 
ATOM     36  C   UNL     1       1.955  -1.045   5.679  1.00  0.00     0.016 A 
ATOM     37  C   UNL     1       3.798   0.104   3.988  1.00  0.00     0.010 A 
ATOM     38  C   UNL     1       2.812  -1.851   4.918  1.00  0.00     0.010 A 
ATOM     39  C   UNL     1       3.696  -1.286   3.982  1.00  0.00    -0.014 A 
BRANCH  39  40
ATOM     40  C   UNL     1       4.474  -2.134   3.019  1.00  0.00     0.031 A 
ATOM     41  C   UNL     1       3.840  -3.378   2.439  1.00  0.00     0.074 A 
ATOM     42  C   UNL     1       5.748  -1.842   2.669  1.00  0.00     0.049 A 
ATOM     43  N   UNL     1       4.407  -4.475   2.005  1.00  0.00    -0.248 NA
ATOM     44  C   UNL     1       2.368  -3.406   2.373  1.00  0.00     0.031 C 
ATOM     45  C   UNL     1       6.495  -0.630   3.018  1.00  0.00     0.029 A 
ATOM     46  N   UNL     1       6.668  -2.575   1.948  1.00  0.00    -0.354 N 
ATOM     47  C   UNL     1       3.369  -5.360   1.732  1.00  0.00     0.074 A 
ATOM     48  C   UNL     1       2.134  -4.664   2.024  1.00  0.00     0.031 C 
ATOM     49  C   UNL     1       7.716  -0.672   2.477  1.00  0.00     0.029 A 
ATOM     50  C   UNL     1       7.919  -2.000   1.934  1.00  0.00     0.049 A 
ATOM     51  H   UNL     1       6.452  -3.420   1.492  1.00  0.00     0.167 HD
ATOM     52  C   UNL     1       3.457  -6.644   1.306  1.00  0.00     0.037 A 
ATOM     53  C   UNL     1       9.134  -2.508   1.659  1.00  0.00     0.037 A 
ATOM     54  C   UNL     1       4.704  -7.280   0.961  1.00  0.00     0.049 A 
ATOM     55  C   UNL     1       9.229  -3.956   1.290  1.00  0.00     0.074 A 
ATOM     56  C   UNL     1       4.926  -8.569   0.508  1.00  0.00     0.029 A 
ATOM     57  N   UNL     1       5.945  -6.660   1.017  1.00  0.00    -0.354 N 
ATOM     58  N   UNL     1       8.270  -4.836   1.149  1.00  0.00    -0.248 NA
ATOM     59  C   UNL     1      10.578  -4.487   1.069  1.00  0.00     0.031 C 
ATOM     60  C   UNL     1       6.304  -8.746   0.353  1.00  0.00     0.029 A 
ATOM     61  C   UNL     1       6.938  -7.546   0.634  1.00  0.00     0.049 A 
ATOM     62  H   UNL     1       6.097  -5.726   1.290  1.00  0.00     0.167 HD
ATOM     63  C   UNL     1       8.894  -6.022   0.799  1.00  0.00     0.074 A 
ATOM     64  C   UNL     1      10.314  -5.739   0.726  1.00  0.00     0.031 C 
ATOM     65  C   UNL     1       8.344  -7.238   0.562  1.00  0.00     0.037 A 
BRANCH  52  66
ATOM     66  C   UNL     1       2.196  -7.468   1.257  1.00  0.00     0.064 A 
ATOM     67  C   UNL     1       1.160  -7.217   0.346  1.00  0.00     0.173 A 
ATOM     68  C   UNL     1       2.039  -8.557   2.132  1.00  0.00     0.173 A 
ATOM     69  F   UNL     1       1.248  -6.187  -0.509  1.00  0.00    -0.203 F 
ATOM     70  C   UNL     1       0.004  -7.998   0.337  1.00  0.00     0.198 A 
ATOM     71  C   UNL     1       0.900  -9.360   2.095  1.00  0.00     0.198 A 
ATOM     72  F   UNL     1       2.998  -8.855   3.022  1.00  0.00    -0.203 F 
ATOM     73  F   UNL     1      -0.996  -7.700  -0.504  1.00  0.00    -0.200 F 
ATOM     74  C   UNL     1      -0.121  -9.072   1.205  1.00  0.00     0.200 A 
ATOM     75  F   UNL     1       0.793 -10.408   2.922  1.00  0.00    -0.200 F 
ATOM     76  F   UNL     1      -1.230  -9.826   1.188  1.00  0.00    -0.200 F 
ENDBRANCH  52  66
BRANCH  53  77
ATOM     77  C   UNL     1      10.354  -1.669   1.833  1.00  0.00     0.064 A 
ATOM     78  C   UNL     1      11.148  -1.325   0.733  1.00  0.00     0.173 A 
ATOM     79  C   UNL     1      10.742  -1.177   3.092  1.00  0.00     0.173 A 
ATOM     80  F   UNL     1      10.833  -1.784  -0.487  1.00  0.00    -0.203 F 
ATOM     81  C   UNL     1      12.287  -0.536   0.884  1.00  0.00     0.198 A 
ATOM     82  C   UNL     1      11.854  -0.350   3.235  1.00  0.00     0.198 A 
ATOM     83  F   UNL     1      10.017  -1.467   4.183  1.00  0.00    -0.203 F 
ATOM     84  F   UNL     1      13.054  -0.264  -0.180  1.00  0.00    -0.200 F 
ATOM     85  C   UNL     1      12.633  -0.040   2.132  1.00  0.00     0.200 A 
ATOM     86  F   UNL     1      12.165   0.151   4.439  1.00  0.00    -0.200 F 
ATOM     87  F   UNL     1      13.718   0.734   2.272  1.00  0.00    -0.200 F 
ENDBRANCH  53  77
BRANCH  65  88
ATOM     88  C   UNL     1       9.281  -8.332   0.143  1.00  0.00     0.064 A 
ATOM     89  C   UNL     1      10.210  -8.892   1.031  1.00  0.00     0.173 A 
ATOM     90  C   UNL     1       9.236  -8.832  -1.167  1.00  0.00     0.173 A 
ATOM     91  F   UNL     1      10.308  -8.431   2.287  1.00  0.00    -0.203 F 
ATOM     92  C   UNL     1      11.083  -9.892   0.613  1.00  0.00     0.198 A 
ATOM     93  C   UNL     1      10.081  -9.860  -1.569  1.00  0.00     0.198 A 
ATOM     94  F   UNL     1       8.364  -8.329  -2.054  1.00  0.00    -0.203 F 
ATOM     95  F   UNL     1      12.009 -10.366   1.458  1.00  0.00    -0.200 F 
ATOM     96  C   UNL     1      11.011 -10.381  -0.683  1.00  0.00     0.200 A 
ATOM     97  F   UNL     1       9.998 -10.343  -2.816  1.00  0.00    -0.200 F 
ATOM     98  F   UNL     1      11.848 -11.349  -1.082  1.00  0.00    -0.200 F 
ENDBRANCH  65  88
ENDBRANCH  39  40
ENDBRANCH  32  34
ENDBRANCH  31  32
ENDBRANCH  30  31
ENDBRANCH  29  30
ENDBRANCH   1  29
TORSDOF 17
