REMARK SMILES C=CC[N@@H+](CC(=O)OCCOC(=O)c1ccc(-c2c3nc(c(-c4c(F)c(F)c(F)c(F)c4F)c4ccc([nH]4)c(-c4c(F)c(F)c(F)c(F)c4F)c4nc(c(-c5c(F)c(F)c(F)c(F)c5F)c5ccc2[nH]5)C=C4)C=C3)cc1)Cc1ccc([N+](=O)[O-])o1
REMARK SMILES IDX 9 1 8 2 6 3 7 4 5 5 4 6 3 8 2 9 1 10 77 11 78 12 79 13 85 14
REMARK SMILES IDX 80 15 81 16 82 17 83 18 84 19 10 20 11 21 12 22 13 23 14 24
REMARK SMILES IDX 15 25 76 26 16 27 75 28 17 29 18 30 19 31 69 32 20 33 74 34
REMARK SMILES IDX 68 35 70 36 21 37 73 38 67 39 66 40 22 42 54 43 34 44 53 45
REMARK SMILES IDX 35 46 38 47 52 48 71 49 36 50 37 51 51 53 72 54 39 55 23 56
REMARK SMILES IDX 24 57 32 58 25 59 26 60 30 61 33 62 27 63 28 64 31 65 29 66
REMARK SMILES IDX 55 67 56 68 64 69 57 70 58 71 62 72 65 73 59 74 60 75 63 76
REMARK SMILES IDX 61 77 40 78 41 79 49 80 42 81 43 82 47 83 50 84 44 85 45 86
REMARK SMILES IDX 48 87 46 88
REMARK H PARENT 4 7 70 41 38 52
REMARK Flexibility Score: inf
ROOT
ATOM      1  C   UNL     1      -4.578  -0.926   0.903  1.00  0.00     0.274 C 
ENDROOT
BRANCH   1   2
ATOM      2  O   UNL     1      -3.431  -0.143   0.499  1.00  0.00    -0.458 OA
BRANCH   2   3
ATOM      3  C   UNL     1      -3.725   0.996  -0.178  1.00  0.00     0.361 C 
ATOM      4  O   UNL     1      -4.873   1.367  -0.422  1.00  0.00    -0.245 OA
BRANCH   3   5
ATOM      5  C   UNL     1      -2.540   1.821  -0.656  1.00  0.00     0.387 C 
BRANCH   5   6
ATOM      6  N   UNL     1      -1.192   1.389  -0.310  1.00  0.00    -0.316 N 
ATOM      7  H   UNL     1      -0.611   2.066  -0.803  1.00  0.00     0.349 HD
BRANCH   6   8
ATOM      8  C   UNL     1      -0.623   0.284  -1.045  1.00  0.00     0.291 C 
BRANCH   8   9
ATOM      9  C   UNL     1       0.838   0.497  -1.318  1.00  0.00     0.025 C 
ATOM     10  C   UNL     1       1.821  -0.328  -0.933  1.00  0.00     0.010 C 
ENDBRANCH   8   9
ENDBRANCH   6   8
BRANCH   6  11
ATOM     11  C   UNL     1      -0.576   1.889   0.910  1.00  0.00     0.339 C 
BRANCH  11  12
ATOM     12  C   UNL     1      -0.520   0.964   2.077  1.00  0.00     0.165 A 
ATOM     13  C   UNL     1      -0.325  -0.395   2.264  1.00  0.00     0.059 A 
ATOM     14  O   UNL     1      -0.685   1.569   3.298  1.00  0.00    -0.400 OA
ATOM     15  C   UNL     1      -0.498  -0.656   3.648  1.00  0.00     0.134 A 
ATOM     16  C   UNL     1      -0.748   0.569   4.217  1.00  0.00     0.433 A 
BRANCH  16  17
ATOM     17  N   UNL     1      -1.181   0.936   5.528  1.00  0.00     0.102 N 
ATOM     18  O   UNL     1      -1.437   0.003   6.303  1.00  0.00    -0.256 OA
ATOM     19  O   UNL     1      -1.260   2.143   5.803  1.00  0.00    -0.256 OA
ENDBRANCH  16  17
ENDBRANCH  11  12
ENDBRANCH   6  11
ENDBRANCH   5   6
ENDBRANCH   3   5
ENDBRANCH   2   3
ENDBRANCH   1   2
BRANCH   1  20
ATOM     20  C   UNL     1      -5.031  -0.624   2.333  1.00  0.00     0.275 C 
BRANCH  20  21
ATOM     21  O   UNL     1      -5.399   0.762   2.490  1.00  0.00    -0.458 OA
BRANCH  21  22
ATOM     22  C   UNL     1      -4.420   1.506   3.043  1.00  0.00     0.338 C 
ATOM     23  O   UNL     1      -3.340   1.097   3.432  1.00  0.00    -0.246 OA
BRANCH  22  24
ATOM     24  C   UNL     1      -4.772   2.915   3.199  1.00  0.00     0.060 A 
ATOM     25  C   UNL     1      -4.686   3.791   2.116  1.00  0.00     0.016 A 
ATOM     26  C   UNL     1      -4.987   3.393   4.494  1.00  0.00     0.016 A 
ATOM     27  C   UNL     1      -4.824   5.160   2.331  1.00  0.00     0.010 A 
ATOM     28  C   UNL     1      -5.170   4.758   4.702  1.00  0.00     0.010 A 
ATOM     29  C   UNL     1      -5.094   5.648   3.621  1.00  0.00    -0.014 A 
BRANCH  29  30
ATOM     30  C   UNL     1      -5.459   7.069   3.808  1.00  0.00     0.031 A 
ATOM     31  C   UNL     1      -4.529   8.051   4.448  1.00  0.00     0.074 A 
ATOM     32  C   UNL     1      -6.687   7.444   3.406  1.00  0.00     0.049 A 
ATOM     33  N   UNL     1      -4.732   9.316   4.716  1.00  0.00    -0.248 NA
ATOM     34  C   UNL     1      -3.202   7.555   4.841  1.00  0.00     0.031 C 
ATOM     35  C   UNL     1      -7.669   6.553   2.783  1.00  0.00     0.029 A 
ATOM     36  N   UNL     1      -7.320   8.656   3.460  1.00  0.00    -0.354 N 
ATOM     37  C   UNL     1      -3.567   9.770   5.316  1.00  0.00     0.074 A 
ATOM     38  C   UNL     1      -2.660   8.641   5.382  1.00  0.00     0.031 C 
ATOM     39  C   UNL     1      -8.776   7.252   2.499  1.00  0.00     0.029 A 
ATOM     40  C   UNL     1      -8.596   8.624   2.959  1.00  0.00     0.049 A 
ATOM     41  H   UNL     1      -6.901   9.469   3.823  1.00  0.00     0.167 HD
ATOM     42  C   UNL     1      -3.290  11.017   5.769  1.00  0.00     0.037 A 
ATOM     43  C   UNL     1      -9.528   9.589   2.893  1.00  0.00     0.037 A 
ATOM     44  C   UNL     1      -4.204  12.130   5.697  1.00  0.00     0.049 A 
ATOM     45  C   UNL     1      -9.198  10.953   3.415  1.00  0.00     0.074 A 
ATOM     46  C   UNL     1      -4.004  13.441   6.097  1.00  0.00     0.029 A 
ATOM     47  N   UNL     1      -5.496  12.060   5.197  1.00  0.00    -0.354 N 
ATOM     48  N   UNL     1      -8.085  11.377   3.960  1.00  0.00    -0.248 NA
ATOM     49  C   UNL     1     -10.252  11.969   3.318  1.00  0.00     0.031 C 
ATOM     50  C   UNL     1      -5.187  14.155   5.869  1.00  0.00     0.029 A 
ATOM     51  C   UNL     1      -6.113  13.297   5.297  1.00  0.00     0.049 A 
ATOM     52  H   UNL     1      -5.914  11.249   4.825  1.00  0.00     0.167 HD
ATOM     53  C   UNL     1      -8.300  12.708   4.275  1.00  0.00     0.074 A 
ATOM     54  C   UNL     1      -9.645  13.028   3.838  1.00  0.00     0.031 C 
ATOM     55  C   UNL     1      -7.460  13.585   4.877  1.00  0.00     0.037 A 
BRANCH  42  56
ATOM     56  C   UNL     1      -1.951  11.248   6.402  1.00  0.00     0.064 A 
ATOM     57  C   UNL     1      -0.789  11.383   5.629  1.00  0.00     0.173 A 
ATOM     58  C   UNL     1      -1.839  11.403   7.792  1.00  0.00     0.173 A 
ATOM     59  F   UNL     1      -0.844  11.238   4.297  1.00  0.00    -0.203 F 
ATOM     60  C   UNL     1       0.440  11.655   6.226  1.00  0.00     0.198 A 
ATOM     61  C   UNL     1      -0.612  11.691   8.384  1.00  0.00     0.198 A 
ATOM     62  F   UNL     1      -2.924  11.291   8.573  1.00  0.00    -0.203 F 
ATOM     63  F   UNL     1       1.542  11.763   5.471  1.00  0.00    -0.200 F 
ATOM     64  C   UNL     1       0.526  11.816   7.602  1.00  0.00     0.200 A 
ATOM     65  F   UNL     1      -0.532  11.856   9.712  1.00  0.00    -0.200 F 
ATOM     66  F   UNL     1       1.707  12.089   8.174  1.00  0.00    -0.200 F 
ENDBRANCH  42  56
BRANCH  43  67
ATOM     67  C   UNL     1     -10.851   9.273   2.307  1.00  0.00     0.064 A 
ATOM     68  C   UNL     1     -11.191   9.716   1.024  1.00  0.00     0.173 A 
ATOM     69  C   UNL     1     -11.767   8.457   2.988  1.00  0.00     0.173 A 
ATOM     70  F   UNL     1     -10.349  10.508   0.344  1.00  0.00    -0.203 F 
ATOM     71  C   UNL     1     -12.401   9.351   0.439  1.00  0.00     0.198 A 
ATOM     72  C   UNL     1     -12.966   8.076   2.393  1.00  0.00     0.198 A 
ATOM     73  F   UNL     1     -11.477   8.001   4.215  1.00  0.00    -0.203 F 
ATOM     74  F   UNL     1     -12.711   9.797  -0.786  1.00  0.00    -0.200 F 
ATOM     75  C   UNL     1     -13.283   8.524   1.119  1.00  0.00     0.200 A 
ATOM     76  F   UNL     1     -13.807   7.263   3.047  1.00  0.00    -0.200 F 
ATOM     77  F   UNL     1     -14.437   8.156   0.547  1.00  0.00    -0.200 F 
ENDBRANCH  43  67
BRANCH  55  78
ATOM     78  C   UNL     1      -7.989  14.967   5.101  1.00  0.00     0.064 A 
ATOM     79  C   UNL     1      -8.894  15.236   6.137  1.00  0.00     0.173 A 
ATOM     80  C   UNL     1      -7.590  16.027   4.276  1.00  0.00     0.173 A 
ATOM     81  F   UNL     1      -9.319  14.246   6.937  1.00  0.00    -0.203 F 
ATOM     82  C   UNL     1      -9.399  16.519   6.327  1.00  0.00     0.198 A 
ATOM     83  C   UNL     1      -8.082  17.313   4.481  1.00  0.00     0.198 A 
ATOM     84  F   UNL     1      -6.727  15.815   3.271  1.00  0.00    -0.203 F 
ATOM     85  F   UNL     1     -10.295  16.748   7.296  1.00  0.00    -0.200 F 
ATOM     86  C   UNL     1      -8.990  17.556   5.501  1.00  0.00     0.200 A 
ATOM     87  F   UNL     1      -7.687  18.315   3.683  1.00  0.00    -0.200 F 
ATOM     88  F   UNL     1      -9.482  18.790   5.680  1.00  0.00    -0.200 F 
ENDBRANCH  55  78
ENDBRANCH  29  30
ENDBRANCH  22  24
ENDBRANCH  21  22
ENDBRANCH  20  21
ENDBRANCH   1  20
TORSDOF 17
