REMARK SMILES CCN(CC)S(=O)(=O)c1cccc(C(=O)N2C[C@H](O)C[C@H]2C(=O)OCCOC(=O)c2ccc(-c3c4nc(c(-c5c(F)c(F)c(F)c(F)c5F)c5ccc([nH]5)c(-c5c(F)c(F)c(F)c(F)c5F)c5nc(c(-c6c(F)c(F)c(F)c(F)c6F)c6ccc3[nH]6)C=C5)C=C4)cc2)c1
REMARK SMILES IDX 24 1 22 2 23 3 21 4 16 5 17 6 18 7 20 8 14 9 15 10 13 11
REMARK SMILES IDX 9 12 10 13 93 14 11 15 12 16 6 17 7 18 8 19 3 20 2 21 1 22
REMARK SMILES IDX 4 23 5 24 19 25 25 27 26 28 27 29 28 30 29 31 30 32 31 33
REMARK SMILES IDX 92 34 32 35 91 36 33 37 34 38 35 39 85 40 36 41 90 42 84 43
REMARK SMILES IDX 86 44 37 45 89 46 83 47 82 48 38 50 70 51 50 52 69 53 51 54
REMARK SMILES IDX 54 55 68 56 87 57 52 58 53 59 67 61 88 62 55 63 39 64 40 65
REMARK SMILES IDX 48 66 41 67 42 68 46 69 49 70 43 71 44 72 47 73 45 74 71 75
REMARK SMILES IDX 72 76 80 77 73 78 74 79 78 80 81 81 75 82 76 83 79 84 77 85
REMARK SMILES IDX 56 86 57 87 65 88 58 89 59 90 63 91 66 92 60 93 61 94 64 95
REMARK SMILES IDX 62 96
REMARK H PARENT 19 26 86 49 54 60
REMARK Flexibility Score: inf
ROOT
ATOM      1  O   UNL     1       2.595   8.893   2.470  1.00  0.00    -0.461 OA
ENDROOT
BRANCH   1   2
ATOM      2  C   UNL     1       3.182   8.313   1.400  1.00  0.00     0.329 C 
ATOM      3  O   UNL     1       3.974   8.879   0.649  1.00  0.00    -0.250 OA
BRANCH   2   4
ATOM      4  C   UNL     1       2.779   6.851   1.168  1.00  0.00     0.198 C 
ATOM      5  N   UNL     1       1.889   6.119   2.065  1.00  0.00    -0.322 N 
ATOM      6  C   UNL     1       0.749   5.555   1.360  1.00  0.00     0.152 C 
ATOM      7  C   UNL     1       1.179   5.566  -0.106  1.00  0.00     0.136 C 
ATOM      8  C   UNL     1       2.072   6.794  -0.198  1.00  0.00     0.071 C 
BRANCH   5   9
ATOM      9  C   UNL     1       2.204   5.868   3.384  1.00  0.00     0.254 C 
ATOM     10  O   UNL     1       2.062   6.735   4.240  1.00  0.00    -0.269 OA
BRANCH   9  11
ATOM     11  C   UNL     1       2.741   4.522   3.775  1.00  0.00     0.041 A 
ATOM     12  C   UNL     1       3.167   2.165   3.407  1.00  0.00     0.083 A 
ATOM     13  C   UNL     1       3.687   2.019   4.692  1.00  0.00     0.022 A 
ATOM     14  C   UNL     1       2.730   3.411   2.932  1.00  0.00     0.035 A 
ATOM     15  C   UNL     1       3.740   3.133   5.525  1.00  0.00     0.002 A 
ATOM     16  C   UNL     1       3.262   4.370   5.073  1.00  0.00     0.014 A 
BRANCH  12  17
ATOM     17  S   UNL     1       2.950   0.748   2.355  1.00  0.00     0.243 S 
ATOM     18  O   UNL     1       3.510  -0.410   3.020  1.00  0.00    -0.207 OA
ATOM     19  O   UNL     1       3.415   1.150   1.047  1.00  0.00    -0.207 OA
BRANCH  17  20
ATOM     20  N   UNL     1       1.243   0.583   2.329  1.00  0.00    -0.198 NA
BRANCH  20  21
ATOM     21  C   UNL     1       0.696  -0.394   1.342  1.00  0.00     0.099 C 
ATOM     22  C   UNL     1       0.859   0.069  -0.094  1.00  0.00     0.022 C 
ENDBRANCH  20  21
BRANCH  20  23
ATOM     23  C   UNL     1       0.537   0.504   3.646  1.00  0.00     0.099 C 
ATOM     24  C   UNL     1       0.768  -0.791   4.406  1.00  0.00     0.022 C 
ENDBRANCH  20  23
ENDBRANCH  17  20
ENDBRANCH  12  17
ENDBRANCH   9  11
ENDBRANCH   5   9
BRANCH   7  25
ATOM     25  O   UNL     1       1.905   4.391  -0.456  1.00  0.00    -0.391 OA
ATOM     26  H   UNL     1       2.682   4.308   0.118  1.00  0.00     0.211 HD
ENDBRANCH   7  25
ENDBRANCH   2   4
ENDBRANCH   1   2
BRANCH   1  27
ATOM     27  C   UNL     1       3.046  10.222   2.796  1.00  0.00     0.274 C 
BRANCH  27  28
ATOM     28  C   UNL     1       4.154  10.189   3.850  1.00  0.00     0.275 C 
BRANCH  28  29
ATOM     29  O   UNL     1       5.331   9.534   3.338  1.00  0.00    -0.458 OA
BRANCH  29  30
ATOM     30  C   UNL     1       5.545   8.289   3.815  1.00  0.00     0.338 C 
ATOM     31  O   UNL     1       4.900   7.674   4.646  1.00  0.00    -0.246 OA
BRANCH  30  32
ATOM     32  C   UNL     1       6.717   7.687   3.178  1.00  0.00     0.060 A 
ATOM     33  C   UNL     1       6.555   6.957   2.002  1.00  0.00     0.016 A 
ATOM     34  C   UNL     1       7.931   7.677   3.863  1.00  0.00     0.016 A 
ATOM     35  C   UNL     1       7.589   6.154   1.536  1.00  0.00     0.010 A 
ATOM     36  C   UNL     1       8.990   6.923   3.359  1.00  0.00     0.010 A 
ATOM     37  C   UNL     1       8.818   6.135   2.208  1.00  0.00    -0.014 A 
BRANCH  37  38
ATOM     38  C   UNL     1       9.928   5.294   1.705  1.00  0.00     0.031 A 
ATOM     39  C   UNL     1      10.433   4.140   2.521  1.00  0.00     0.074 A 
ATOM     40  C   UNL     1      10.489   5.591   0.520  1.00  0.00     0.049 A 
ATOM     41  N   UNL     1      11.486   3.388   2.328  1.00  0.00    -0.248 NA
ATOM     42  C   UNL     1       9.657   3.793   3.721  1.00  0.00     0.031 C 
ATOM     43  C   UNL     1      10.057   6.672  -0.368  1.00  0.00     0.029 A 
ATOM     44  N   UNL     1      11.552   5.024  -0.135  1.00  0.00    -0.354 N 
ATOM     45  C   UNL     1      11.515   2.496   3.392  1.00  0.00     0.074 A 
ATOM     46  C   UNL     1      10.387   2.816   4.241  1.00  0.00     0.031 C 
ATOM     47  C   UNL     1      10.846   6.690  -1.452  1.00  0.00     0.029 A 
ATOM     48  C   UNL     1      11.878   5.670  -1.301  1.00  0.00     0.049 A 
ATOM     49  H   UNL     1      12.032   4.232   0.198  1.00  0.00     0.167 HD
ATOM     50  C   UNL     1      12.405   1.502   3.631  1.00  0.00     0.037 A 
ATOM     51  C   UNL     1      12.920   5.492  -2.132  1.00  0.00     0.037 A 
ATOM     52  C   UNL     1      13.516   1.192   2.767  1.00  0.00     0.049 A 
ATOM     53  C   UNL     1      13.923   4.419  -1.818  1.00  0.00     0.074 A 
ATOM     54  C   UNL     1      14.470   0.199   2.907  1.00  0.00     0.029 A 
ATOM     55  N   UNL     1      13.821   1.876   1.597  1.00  0.00    -0.354 N 
ATOM     56  N   UNL     1      13.953   3.587  -0.805  1.00  0.00    -0.248 NA
ATOM     57  C   UNL     1      15.039   4.263  -2.758  1.00  0.00     0.031 C 
ATOM     58  C   UNL     1      15.379   0.313   1.849  1.00  0.00     0.029 A 
ATOM     59  C   UNL     1      14.962   1.341   1.018  1.00  0.00     0.049 A 
ATOM     60  H   UNL     1      13.304   2.630   1.233  1.00  0.00     0.167 HD
ATOM     61  C   UNL     1      15.078   2.798  -0.992  1.00  0.00     0.074 A 
ATOM     62  C   UNL     1      15.693   3.239  -2.228  1.00  0.00     0.031 C 
ATOM     63  C   UNL     1      15.560   1.801  -0.210  1.00  0.00     0.037 A 
BRANCH  50  64
ATOM     64  C   UNL     1      12.230   0.701   4.890  1.00  0.00     0.064 A 
ATOM     65  C   UNL     1      11.163  -0.195   5.057  1.00  0.00     0.173 A 
ATOM     66  C   UNL     1      13.159   0.813   5.937  1.00  0.00     0.173 A 
ATOM     67  F   UNL     1      10.240  -0.333   4.094  1.00  0.00    -0.203 F 
ATOM     68  C   UNL     1      11.015  -0.923   6.236  1.00  0.00     0.198 A 
ATOM     69  C   UNL     1      13.025   0.061   7.101  1.00  0.00     0.198 A 
ATOM     70  F   UNL     1      14.202   1.650   5.829  1.00  0.00    -0.203 F 
ATOM     71  F   UNL     1       9.959  -1.733   6.394  1.00  0.00    -0.200 F 
ATOM     72  C   UNL     1      11.948  -0.799   7.254  1.00  0.00     0.200 A 
ATOM     73  F   UNL     1      13.935   0.173   8.079  1.00  0.00    -0.200 F 
ATOM     74  F   UNL     1      11.806  -1.502   8.386  1.00  0.00    -0.200 F 
ENDBRANCH  50  64
BRANCH  51  75
ATOM     75  C   UNL     1      13.070   6.374  -3.317  1.00  0.00     0.064 A 
ATOM     76  C   UNL     1      12.891   5.878  -4.614  1.00  0.00     0.173 A 
ATOM     77  C   UNL     1      13.365   7.739  -3.173  1.00  0.00     0.173 A 
ATOM     78  F   UNL     1      12.627   4.577  -4.803  1.00  0.00    -0.203 F 
ATOM     79  C   UNL     1      13.009   6.712  -5.724  1.00  0.00     0.198 A 
ATOM     80  C   UNL     1      13.452   8.578  -4.281  1.00  0.00     0.198 A 
ATOM     81  F   UNL     1      13.540   8.264  -1.951  1.00  0.00    -0.203 F 
ATOM     82  F   UNL     1      12.867   6.206  -6.957  1.00  0.00    -0.200 F 
ATOM     83  C   UNL     1      13.280   8.062  -5.556  1.00  0.00     0.200 A 
ATOM     84  F   UNL     1      13.695   9.884  -4.112  1.00  0.00    -0.200 F 
ATOM     85  F   UNL     1      13.379   8.866  -6.624  1.00  0.00    -0.200 F 
ENDBRANCH  51  75
BRANCH  63  86
ATOM     86  C   UNL     1      16.802   1.105  -0.687  1.00  0.00     0.064 A 
ATOM     87  C   UNL     1      18.056   1.732  -0.648  1.00  0.00     0.173 A 
ATOM     88  C   UNL     1      16.739  -0.213  -1.163  1.00  0.00     0.173 A 
ATOM     89  F   UNL     1      18.165   2.998  -0.219  1.00  0.00    -0.203 F 
ATOM     90  C   UNL     1      19.198   1.073  -1.095  1.00  0.00     0.198 A 
ATOM     91  C   UNL     1      17.887  -0.879  -1.581  1.00  0.00     0.198 A 
ATOM     92  F   UNL     1      15.564  -0.858  -1.216  1.00  0.00    -0.203 F 
ATOM     93  F   UNL     1      20.378   1.709  -1.098  1.00  0.00    -0.200 F 
ATOM     94  C   UNL     1      19.114  -0.233  -1.554  1.00  0.00     0.200 A 
ATOM     95  F   UNL     1      17.806  -2.145  -2.012  1.00  0.00    -0.200 F 
ATOM     96  F   UNL     1      20.215  -0.867  -1.980  1.00  0.00    -0.200 F 
ENDBRANCH  63  86
ENDBRANCH  37  38
ENDBRANCH  30  32
ENDBRANCH  29  30
ENDBRANCH  28  29
ENDBRANCH  27  28
ENDBRANCH   1  27
TORSDOF 18
