REMARK SMILES Nc1ncccc1C[N@@H+]1CC2(CC[NH2+]CC2)C[C@H]1C(=O)OCCOC(=O)c1ccc(-c2c3nc(c(-c4c(F)c(F)c(F)c(F)c4F)c4ccc([nH]4)c(-c4c(F)c(F)c(F)c(F)c4F)c4nc(c(-c5c(F)c(F)c(F)c(F)c5F)c5ccc2[nH]5)C=C4)C=C3)cc1
REMARK SMILES IDX 22 1 21 2 19 3 20 4 18 5 9 6 10 7 11 9 17 10 12 11 16 12
REMARK SMILES IDX 13 13 15 14 14 15 8 18 7 19 2 20 3 21 4 22 6 23 5 24 1 25
REMARK SMILES IDX 23 28 24 29 25 30 26 31 27 32 28 33 89 34 29 35 88 36 30 37
REMARK SMILES IDX 31 38 32 39 82 40 33 41 87 42 81 43 83 44 34 45 86 46 80 47
REMARK SMILES IDX 79 48 35 50 67 51 47 52 66 53 48 54 51 55 65 56 84 57 49 58
REMARK SMILES IDX 50 59 64 61 85 62 52 63 36 64 37 65 45 66 38 67 39 68 43 69
REMARK SMILES IDX 46 70 40 71 41 72 44 73 42 74 68 75 69 76 77 77 70 78 71 79
REMARK SMILES IDX 75 80 78 81 72 82 73 83 76 84 74 85 53 86 54 87 62 88 55 89
REMARK SMILES IDX 56 90 60 91 63 92 57 93 58 94 61 95 59 96
REMARK H PARENT 9 8 14 16 14 17 1 26 1 27 83 49 51 60
REMARK Flexibility Score: inf
ROOT
ATOM      1  C   UNL     1      -0.227  -4.365   5.344  1.00  0.00     0.274 C 
ENDROOT
BRANCH   1   2
ATOM      2  O   UNL     1      -0.303  -3.734   4.052  1.00  0.00    -0.458 OA
BRANCH   2   3
ATOM      3  C   UNL     1       0.003  -2.409   4.001  1.00  0.00     0.365 C 
ATOM      4  O   UNL     1       0.325  -1.740   4.980  1.00  0.00    -0.245 OA
BRANCH   3   5
ATOM      5  C   UNL     1      -0.145  -1.783   2.604  1.00  0.00     0.296 C 
ATOM      6  N   UNL     1      -0.093  -2.762   1.502  1.00  0.00    -0.319 N 
ATOM      7  C   UNL     1      -1.467  -3.134   1.152  1.00  0.00     0.270 C 
ATOM      8  H   UNL     1       0.391  -3.597   1.833  1.00  0.00     0.349 HD
ATOM      9  C   UNL     1      -2.429  -2.114   1.808  1.00  0.00     0.036 C 
ATOM     10  C   UNL     1      -1.490  -1.083   2.460  1.00  0.00     0.091 C 
ATOM     11  C   UNL     1      -3.340  -2.774   2.873  1.00  0.00     0.074 C 
ATOM     12  C   UNL     1      -3.359  -1.436   0.779  1.00  0.00     0.074 C 
ATOM     13  C   UNL     1      -4.414  -3.674   2.255  1.00  0.00     0.261 C 
ATOM     14  C   UNL     1      -4.394  -2.403   0.206  1.00  0.00     0.261 C 
ATOM     15  N   UNL     1      -5.226  -2.967   1.265  1.00  0.00    -0.346 N 
ATOM     16  H   UNL     1      -5.732  -2.212   1.728  1.00  0.00     0.346 HD
ATOM     17  H   UNL     1      -5.877  -3.632   0.846  1.00  0.00     0.346 HD
BRANCH   6  18
ATOM     18  C   UNL     1       0.786  -2.405   0.370  1.00  0.00     0.303 C 
BRANCH  18  19
ATOM     19  C   UNL     1       0.628  -1.020  -0.221  1.00  0.00     0.048 A 
ATOM     20  C   UNL     1       1.463   0.050   0.112  1.00  0.00     0.132 A 
ATOM     21  N   UNL     1       1.197   1.326  -0.225  1.00  0.00    -0.239 NA
ATOM     22  C   UNL     1       0.110   1.562  -0.984  1.00  0.00     0.113 A 
ATOM     23  C   UNL     1      -0.428  -0.745  -1.097  1.00  0.00     0.015 A 
ATOM     24  C   UNL     1      -0.707   0.564  -1.471  1.00  0.00     0.021 A 
BRANCH  20  25
ATOM     25  N   UNL     1       2.635  -0.107   0.828  1.00  0.00    -0.383 N 
ATOM     26  H   UNL     1       3.191   0.677   1.040  1.00  0.00     0.158 HD
ATOM     27  H   UNL     1       2.913  -1.003   1.127  1.00  0.00     0.158 HD
ENDBRANCH  20  25
ENDBRANCH  18  19
ENDBRANCH   6  18
ENDBRANCH   3   5
ENDBRANCH   2   3
ENDBRANCH   1   2
BRANCH   1  28
ATOM     28  C   UNL     1       0.987  -5.288   5.434  1.00  0.00     0.275 C 
BRANCH  28  29
ATOM     29  O   UNL     1       2.208  -4.539   5.317  1.00  0.00    -0.458 OA
BRANCH  29  30
ATOM     30  C   UNL     1       2.756  -4.531   4.080  1.00  0.00     0.338 C 
ATOM     31  O   UNL     1       2.391  -5.141   3.091  1.00  0.00    -0.246 OA
BRANCH  30  32
ATOM     32  C   UNL     1       3.862  -3.567   4.055  1.00  0.00     0.060 A 
ATOM     33  C   UNL     1       3.695  -2.395   3.317  1.00  0.00     0.016 A 
ATOM     34  C   UNL     1       5.080  -3.853   4.673  1.00  0.00     0.016 A 
ATOM     35  C   UNL     1       4.758  -1.509   3.172  1.00  0.00     0.010 A 
ATOM     36  C   UNL     1       6.147  -2.959   4.528  1.00  0.00     0.010 A 
ATOM     37  C   UNL     1       5.997  -1.793   3.758  1.00  0.00    -0.014 A 
BRANCH  37  38
ATOM     38  C   UNL     1       7.150  -0.900   3.494  1.00  0.00     0.031 A 
ATOM     39  C   UNL     1       8.225  -1.341   2.542  1.00  0.00     0.074 A 
ATOM     40  C   UNL     1       7.208   0.316   4.065  1.00  0.00     0.049 A 
ATOM     41  N   UNL     1       9.355  -0.756   2.238  1.00  0.00    -0.248 NA
ATOM     42  C   UNL     1       7.991  -2.607   1.828  1.00  0.00     0.031 C 
ATOM     43  C   UNL     1       6.189   0.884   4.947  1.00  0.00     0.029 A 
ATOM     44  N   UNL     1       8.167   1.294   3.987  1.00  0.00    -0.354 N 
ATOM     45  C   UNL     1       9.972  -1.583   1.309  1.00  0.00     0.074 A 
ATOM     46  C   UNL     1       9.100  -2.722   1.111  1.00  0.00     0.031 C 
ATOM     47  C   UNL     1       6.579   2.111   5.333  1.00  0.00     0.029 A 
ATOM     48  C   UNL     1       7.894   2.393   4.764  1.00  0.00     0.049 A 
ATOM     49  H   UNL     1       8.973   1.216   3.427  1.00  0.00     0.167 HD
ATOM     50  C   UNL     1      11.155  -1.403   0.676  1.00  0.00     0.037 A 
ATOM     51  C   UNL     1       8.639   3.486   5.013  1.00  0.00     0.037 A 
ATOM     52  C   UNL     1      12.018  -0.269   0.875  1.00  0.00     0.049 A 
ATOM     53  C   UNL     1       9.992   3.616   4.364  1.00  0.00     0.074 A 
ATOM     54  C   UNL     1      13.257  -0.015   0.313  1.00  0.00     0.029 A 
ATOM     55  N   UNL     1      11.725   0.807   1.699  1.00  0.00    -0.354 N 
ATOM     56  N   UNL     1      10.586   2.811   3.517  1.00  0.00    -0.248 NA
ATOM     57  C   UNL     1      10.781   4.807   4.711  1.00  0.00     0.031 C 
ATOM     58  C   UNL     1      13.726   1.202   0.818  1.00  0.00     0.029 A 
ATOM     59  C   UNL     1      12.762   1.725   1.665  1.00  0.00     0.049 A 
ATOM     60  H   UNL     1      10.902   0.905   2.230  1.00  0.00     0.167 HD
ATOM     61  C   UNL     1      11.801   3.408   3.210  1.00  0.00     0.074 A 
ATOM     62  C   UNL     1      11.855   4.651   3.951  1.00  0.00     0.031 C 
ATOM     63  C   UNL     1      12.786   2.966   2.392  1.00  0.00     0.037 A 
BRANCH  50  64
ATOM     64  C   UNL     1      11.598  -2.467  -0.282  1.00  0.00     0.064 A 
ATOM     65  C   UNL     1      11.011  -2.602  -1.548  1.00  0.00     0.173 A 
ATOM     66  C   UNL     1      12.655  -3.329   0.049  1.00  0.00     0.173 A 
ATOM     67  F   UNL     1       9.987  -1.812  -1.905  1.00  0.00    -0.203 F 
ATOM     68  C   UNL     1      11.459  -3.569  -2.445  1.00  0.00     0.198 A 
ATOM     69  C   UNL     1      13.115  -4.279  -0.858  1.00  0.00     0.198 A 
ATOM     70  F   UNL     1      13.251  -3.238   1.247  1.00  0.00    -0.203 F 
ATOM     71  F   UNL     1      10.864  -3.701  -3.639  1.00  0.00    -0.200 F 
ATOM     72  C   UNL     1      12.514  -4.401  -2.103  1.00  0.00     0.200 A 
ATOM     73  F   UNL     1      14.141  -5.076  -0.530  1.00  0.00    -0.200 F 
ATOM     74  F   UNL     1      12.951  -5.324  -2.971  1.00  0.00    -0.200 F 
ENDBRANCH  50  64
BRANCH  51  75
ATOM     75  C   UNL     1       8.145   4.534   5.944  1.00  0.00     0.064 A 
ATOM     76  C   UNL     1       7.824   5.818   5.484  1.00  0.00     0.173 A 
ATOM     77  C   UNL     1       8.024   4.284   7.319  1.00  0.00     0.173 A 
ATOM     78  F   UNL     1       7.952   6.113   4.182  1.00  0.00    -0.203 F 
ATOM     79  C   UNL     1       7.424   6.819   6.366  1.00  0.00     0.198 A 
ATOM     80  C   UNL     1       7.596   5.278   8.197  1.00  0.00     0.198 A 
ATOM     81  F   UNL     1       8.326   3.074   7.812  1.00  0.00    -0.203 F 
ATOM     82  F   UNL     1       7.179   8.054   5.907  1.00  0.00    -0.200 F 
ATOM     83  C   UNL     1       7.307   6.547   7.721  1.00  0.00     0.200 A 
ATOM     84  F   UNL     1       7.478   5.009   9.504  1.00  0.00    -0.200 F 
ATOM     85  F   UNL     1       6.929   7.513   8.570  1.00  0.00    -0.200 F 
ENDBRANCH  51  75
BRANCH  63  86
ATOM     86  C   UNL     1      13.982   3.853   2.219  1.00  0.00     0.064 A 
ATOM     87  C   UNL     1      14.947   3.992   3.227  1.00  0.00     0.173 A 
ATOM     88  C   UNL     1      14.182   4.545   1.015  1.00  0.00     0.173 A 
ATOM     89  F   UNL     1      14.790   3.362   4.401  1.00  0.00    -0.203 F 
ATOM     90  C   UNL     1      16.057   4.812   3.045  1.00  0.00     0.198 A 
ATOM     91  C   UNL     1      15.306   5.344   0.827  1.00  0.00     0.198 A 
ATOM     92  F   UNL     1      13.290   4.440   0.018  1.00  0.00    -0.203 F 
ATOM     93  F   UNL     1      16.944   4.965   4.038  1.00  0.00    -0.200 F 
ATOM     94  C   UNL     1      16.239   5.482   1.844  1.00  0.00     0.200 A 
ATOM     95  F   UNL     1      15.486   5.983  -0.338  1.00  0.00    -0.200 F 
ATOM     96  F   UNL     1      17.310   6.268   1.669  1.00  0.00    -0.200 F 
ENDBRANCH  63  86
ENDBRANCH  37  38
ENDBRANCH  30  32
ENDBRANCH  29  30
ENDBRANCH  28  29
ENDBRANCH   1  28
TORSDOF 14
