REMARK SMILES COc1ccc(/C=C2\SC(=O)N(CC(=O)N[C@H](C)C(=O)OCCOC(=O)c3ccc(-c4c5nc(c(-c6c(F)c(F)c(F)c(F)c6F)c6ccc([nH]6)c(-c6c(F)c(F)c(F)c(F)c6F)c6nc(c(-c7c(F)c(F)c(F)c(F)c7F)c7ccc4[nH]7)C=C6)C=C5)cc3)C2=O)cc1OC
REMARK SMILES IDX 21 1 19 2 20 3 17 4 18 5 16 6 14 7 15 8 13 10 12 11 7 12
REMARK SMILES IDX 8 13 9 14 90 15 10 16 91 17 11 18 6 19 3 20 4 21 93 22 5 23
REMARK SMILES IDX 92 24 2 25 1 26 94 27 95 28 22 29 23 30 24 31 25 32 26 33
REMARK SMILES IDX 27 34 28 35 89 36 29 37 88 38 30 39 31 40 32 41 82 42 33 43
REMARK SMILES IDX 87 44 81 45 83 46 34 47 86 48 80 49 79 50 35 52 67 53 47 54
REMARK SMILES IDX 66 55 48 56 51 57 65 58 84 59 49 60 50 61 64 63 85 64 52 65
REMARK SMILES IDX 36 66 37 67 45 68 38 69 39 70 43 71 46 72 40 73 41 74 44 75
REMARK SMILES IDX 42 76 68 77 69 78 77 79 70 80 71 81 75 82 78 83 72 84 73 85
REMARK SMILES IDX 76 86 74 87 53 88 54 89 62 90 55 91 56 92 60 93 63 94 57 95
REMARK SMILES IDX 58 96 61 97 59 98
REMARK H PARENT 16 9 83 51 51 62
REMARK Flexibility Score: inf
ROOT
ATOM      1  O   UNL     1       3.551   0.995 -13.172  1.00  0.00    -0.461 OA
ENDROOT
BRANCH   1   2
ATOM      2  C   UNL     1       3.841   0.666 -11.889  1.00  0.00     0.328 C 
ATOM      3  O   UNL     1       4.446  -0.347 -11.552  1.00  0.00    -0.250 OA
BRANCH   2   4
ATOM      4  C   UNL     1       3.276   1.664 -10.863  1.00  0.00     0.189 C 
ATOM      5  C   UNL     1       2.825   3.008 -11.424  1.00  0.00     0.043 C 
BRANCH   4   6
ATOM      6  N   UNL     1       2.208   0.992 -10.128  1.00  0.00    -0.341 N 
ATOM      7  C   UNL     1       1.704   1.248  -8.891  1.00  0.00     0.240 C 
ATOM      8  O   UNL     1       0.681   0.645  -8.560  1.00  0.00    -0.273 OA
ATOM      9  H   UNL     1       1.789   0.236 -10.600  1.00  0.00     0.164 HD
BRANCH   7  10
ATOM     10  C   UNL     1       2.328   2.302  -7.973  1.00  0.00     0.229 C 
BRANCH  10  11
ATOM     11  N   UNL     1       3.676   1.973  -7.548  1.00  0.00    -0.259 N 
ATOM     12  C   UNL     1       5.929  -0.517  -6.378  1.00  0.00     0.029 C 
ATOM     13  C   UNL     1       5.391   0.693  -6.593  1.00  0.00     0.083 C 
ATOM     14  S   UNL     1       6.126   2.222  -6.834  1.00  0.00    -0.022 SA
ATOM     15  C   UNL     1       3.929   0.809  -6.855  1.00  0.00     0.268 C 
ATOM     16  C   UNL     1       4.706   2.853  -7.646  1.00  0.00     0.294 C 
ATOM     17  O   UNL     1       3.113  -0.029  -6.528  1.00  0.00    -0.268 OA
ATOM     18  O   UNL     1       4.698   3.945  -8.223  1.00  0.00    -0.261 OA
BRANCH  12  19
ATOM     19  C   UNL     1       7.340  -0.936  -6.326  1.00  0.00    -0.020 A 
ATOM     20  C   UNL     1      10.064  -1.906  -6.463  1.00  0.00     0.160 A 
ATOM     21  C   UNL     1       8.995  -2.599  -7.030  1.00  0.00     0.051 A 
ATOM     22  C   UNL     1       9.679  -0.695  -5.682  1.00  0.00     0.161 A 
ATOM     23  C   UNL     1       7.679  -2.132  -6.972  1.00  0.00     0.012 A 
ATOM     24  C   UNL     1       8.339  -0.245  -5.646  1.00  0.00     0.058 A 
BRANCH  20  25
ATOM     25  O   UNL     1      11.212  -2.656  -6.837  1.00  0.00    -0.493 OA
ATOM     26  C   UNL     1      12.651  -2.690  -7.373  1.00  0.00     0.278 C 
ENDBRANCH  20  25
BRANCH  22  27
ATOM     27  O   UNL     1      10.551   0.012  -4.896  1.00  0.00    -0.493 OA
ATOM     28  C   UNL     1      10.500   1.265  -4.185  1.00  0.00     0.278 C 
ENDBRANCH  22  27
ENDBRANCH  12  19
ENDBRANCH  10  11
ENDBRANCH   7  10
ENDBRANCH   4   6
ENDBRANCH   2   4
ENDBRANCH   1   2
BRANCH   1  29
ATOM     29  C   UNL     1       4.198   0.215 -14.194  1.00  0.00     0.274 C 
BRANCH  29  30
ATOM     30  C   UNL     1       5.458   0.934 -14.686  1.00  0.00     0.275 C 
BRANCH  30  31
ATOM     31  O   UNL     1       6.497   0.976 -13.675  1.00  0.00    -0.458 OA
BRANCH  31  32
ATOM     32  C   UNL     1       6.499   2.080 -12.890  1.00  0.00     0.338 C 
ATOM     33  O   UNL     1       5.705   3.006 -12.935  1.00  0.00    -0.246 OA
BRANCH  32  34
ATOM     34  C   UNL     1       7.579   2.047 -11.880  1.00  0.00     0.060 A 
ATOM     35  C   UNL     1       7.316   1.592 -10.589  1.00  0.00     0.016 A 
ATOM     36  C   UNL     1       8.808   2.649 -12.154  1.00  0.00     0.016 A 
ATOM     37  C   UNL     1       8.265   1.792  -9.567  1.00  0.00     0.010 A 
ATOM     38  C   UNL     1       9.752   2.841 -11.122  1.00  0.00     0.010 A 
ATOM     39  C   UNL     1       9.477   2.471  -9.792  1.00  0.00    -0.014 A 
BRANCH  39  40
ATOM     40  C   UNL     1      10.470   2.700  -8.653  1.00  0.00     0.031 A 
ATOM     41  C   UNL     1      10.878   4.045  -8.228  1.00  0.00     0.074 A 
ATOM     42  C   UNL     1      11.191   1.694  -8.106  1.00  0.00     0.049 A 
ATOM     43  N   UNL     1      11.742   4.333  -7.295  1.00  0.00    -0.248 NA
ATOM     44  C   UNL     1      10.383   5.178  -9.008  1.00  0.00     0.031 C 
ATOM     45  C   UNL     1      11.056   0.454  -8.756  1.00  0.00     0.029 A 
ATOM     46  N   UNL     1      12.118   1.448  -7.056  1.00  0.00    -0.354 N 
ATOM     47  C   UNL     1      12.013   5.666  -7.464  1.00  0.00     0.074 A 
ATOM     48  C   UNL     1      11.174   6.139  -8.552  1.00  0.00     0.031 C 
ATOM     49  C   UNL     1      11.695  -0.436  -8.025  1.00  0.00     0.029 A 
ATOM     50  C   UNL     1      12.339   0.050  -6.752  1.00  0.00     0.049 A 
ATOM     51  H   UNL     1      12.575   2.174  -6.572  1.00  0.00     0.167 HD
ATOM     52  C   UNL     1      12.937   6.389  -6.799  1.00  0.00     0.037 A 
ATOM     53  C   UNL     1      12.786  -0.595  -5.505  1.00  0.00     0.037 A 
ATOM     54  C   UNL     1      13.776   5.895  -5.735  1.00  0.00     0.049 A 
ATOM     55  C   UNL     1      13.618   0.376  -4.678  1.00  0.00     0.074 A 
ATOM     56  C   UNL     1      14.607   6.636  -4.914  1.00  0.00     0.029 A 
ATOM     57  N   UNL     1      13.934   4.564  -5.359  1.00  0.00    -0.354 N 
ATOM     58  N   UNL     1      13.783   1.667  -4.821  1.00  0.00    -0.248 NA
ATOM     59  C   UNL     1      14.375  -0.204  -3.558  1.00  0.00     0.031 C 
ATOM     60  C   UNL     1      15.315   5.758  -4.090  1.00  0.00     0.029 A 
ATOM     61  C   UNL     1      14.851   4.473  -4.315  1.00  0.00     0.049 A 
ATOM     62  H   UNL     1      13.467   3.801  -5.771  1.00  0.00     0.167 HD
ATOM     63  C   UNL     1      14.661   2.050  -3.826  1.00  0.00     0.074 A 
ATOM     64  C   UNL     1      14.939   0.871  -3.033  1.00  0.00     0.031 C 
ATOM     65  C   UNL     1      15.198   3.270  -3.596  1.00  0.00     0.037 A 
BRANCH  52  66
ATOM     66  C   UNL     1      13.116   7.796  -7.260  1.00  0.00     0.064 A 
ATOM     67  C   UNL     1      12.111   8.760  -7.100  1.00  0.00     0.173 A 
ATOM     68  C   UNL     1      14.316   8.176  -7.873  1.00  0.00     0.173 A 
ATOM     69  F   UNL     1      10.934   8.428  -6.549  1.00  0.00    -0.203 F 
ATOM     70  C   UNL     1      12.294  10.055  -7.567  1.00  0.00     0.198 A 
ATOM     71  C   UNL     1      14.511   9.483  -8.299  1.00  0.00     0.198 A 
ATOM     72  F   UNL     1      15.297   7.280  -8.062  1.00  0.00    -0.203 F 
ATOM     73  F   UNL     1      11.298  10.945  -7.468  1.00  0.00    -0.200 F 
ATOM     74  C   UNL     1      13.497  10.419  -8.153  1.00  0.00     0.200 A 
ATOM     75  F   UNL     1      15.677   9.836  -8.856  1.00  0.00    -0.200 F 
ATOM     76  F   UNL     1      13.677  11.672  -8.589  1.00  0.00    -0.200 F 
ENDBRANCH  52  66
BRANCH  53  77
ATOM     77  C   UNL     1      12.378  -2.058  -4.518  1.00  0.00     0.064 A 
ATOM     78  C   UNL     1      11.865  -1.878  -3.187  1.00  0.00     0.173 A 
ATOM     79  C   UNL     1      12.436  -3.504  -4.746  1.00  0.00     0.173 A 
ATOM     80  F   UNL     1      11.854  -0.669  -2.616  1.00  0.00    -0.203 F 
ATOM     81  C   UNL     1      11.437  -2.925  -2.304  1.00  0.00     0.198 A 
ATOM     82  C   UNL     1      11.883  -4.522  -3.932  1.00  0.00     0.198 A 
ATOM     83  F   UNL     1      13.106  -4.113  -5.732  1.00  0.00    -0.203 F 
ATOM     84  F   UNL     1      11.095  -2.632  -1.040  1.00  0.00    -0.200 F 
ATOM     85  C   UNL     1      11.411  -4.242  -2.691  1.00  0.00     0.200 A 
ATOM     86  F   UNL     1      11.905  -5.795  -4.366  1.00  0.00    -0.200 F 
ATOM     87  F   UNL     1      11.040  -5.229  -1.863  1.00  0.00    -0.200 F 
ENDBRANCH  53  77
BRANCH  65  88
ATOM     88  C   UNL     1      16.164   3.352  -2.447  1.00  0.00     0.064 A 
ATOM     89  C   UNL     1      17.404   2.692  -2.469  1.00  0.00     0.173 A 
ATOM     90  C   UNL     1      15.814   4.047  -1.281  1.00  0.00     0.173 A 
ATOM     91  F   UNL     1      17.776   1.986  -3.548  1.00  0.00    -0.203 F 
ATOM     92  C   UNL     1      18.231   2.683  -1.348  1.00  0.00     0.198 A 
ATOM     93  C   UNL     1      16.662   4.071  -0.178  1.00  0.00     0.198 A 
ATOM     94  F   UNL     1      14.638   4.688  -1.202  1.00  0.00    -0.203 F 
ATOM     95  F   UNL     1      19.366   1.970  -1.360  1.00  0.00    -0.200 F 
ATOM     96  C   UNL     1      17.861   3.375  -0.206  1.00  0.00     0.200 A 
ATOM     97  F   UNL     1      16.306   4.748   0.922  1.00  0.00    -0.200 F 
ATOM     98  F   UNL     1      18.650   3.355   0.877  1.00  0.00    -0.200 F 
ENDBRANCH  65  88
ENDBRANCH  39  40
ENDBRANCH  32  34
ENDBRANCH  31  32
ENDBRANCH  30  31
ENDBRANCH  29  30
ENDBRANCH   1  29
TORSDOF 17
