REMARK SMILES COc1ccc(NS(=O)(=O)c2ccc(Cl)c(C(=O)OCCOC(=O)c3ccc(-c4c5nc(c(-c6c(F)c(F)c(F)c(F)c6F)c6ccc([nH]6)c(-c6c(F)c(F)c(F)c(F)c6F)c6nc(c(-c7c(F)c(F)c(F)c(F)c7F)c7ccc4[nH]7)C=C6)C=C5)cc3)c2)cc1Cl
REMARK SMILES IDX 20 1 19 2 17 3 18 4 16 5 11 6 12 7 88 8 13 9 14 10 15 11
REMARK SMILES IDX 8 12 9 13 10 14 7 15 6 17 3 18 4 19 90 20 5 21 89 22 91 23
REMARK SMILES IDX 2 24 1 25 21 26 22 27 23 28 24 29 25 30 26 31 87 32 27 33
REMARK SMILES IDX 86 34 28 35 29 36 30 37 80 38 31 39 85 40 79 41 81 42 32 43
REMARK SMILES IDX 84 44 78 45 77 46 33 48 65 49 45 50 64 51 46 52 49 53 63 54
REMARK SMILES IDX 82 55 47 56 48 57 62 59 83 60 50 61 34 62 35 63 43 64 36 65
REMARK SMILES IDX 37 66 41 67 44 68 38 69 39 70 42 71 40 72 66 73 67 74 75 75
REMARK SMILES IDX 68 76 69 77 73 78 76 79 70 80 71 81 74 82 72 83 51 84 52 85
REMARK SMILES IDX 60 86 53 87 54 88 58 89 61 90 55 91 56 92 59 93 57 94
REMARK H PARENT 7 16 81 47 49 58
REMARK Flexibility Score: inf
ROOT
ATOM      1  C   UNL     1      -6.912  -5.912   4.189  1.00  0.00     0.275 C 
ENDROOT
BRANCH   1   2
ATOM      2  O   UNL     1      -5.637  -5.235   4.176  1.00  0.00    -0.458 OA
BRANCH   2   3
ATOM      3  C   UNL     1      -4.724  -5.686   5.067  1.00  0.00     0.339 C 
ATOM      4  O   UNL     1      -4.830  -6.651   5.808  1.00  0.00    -0.246 OA
BRANCH   3   5
ATOM      5  C   UNL     1      -3.460  -4.935   4.957  1.00  0.00     0.080 A 
ATOM      6  C   UNL     1      -1.048  -5.073   4.644  1.00  0.00     0.088 A 
ATOM      7  C   UNL     1      -0.933  -3.705   4.875  1.00  0.00     0.024 A 
ATOM      8  C   UNL     1      -2.300  -5.687   4.731  1.00  0.00     0.039 A 
ATOM      9  C   UNL     1      -2.092  -2.948   5.102  1.00  0.00     0.023 A 
ATOM     10  C   UNL     1      -3.358  -3.555   5.131  1.00  0.00     0.055 A 
ATOM     11  Cl  UNL     1      -4.726  -2.549   5.434  1.00  0.00    -0.083 Cl
BRANCH   6  12
ATOM     12  S   UNL     1       0.290  -6.103   4.064  1.00  0.00     0.261 S 
ATOM     13  O   UNL     1      -0.218  -6.832   2.923  1.00  0.00    -0.201 OA
ATOM     14  O   UNL     1       0.801  -6.790   5.231  1.00  0.00    -0.201 OA
BRANCH  12  15
ATOM     15  N   UNL     1       1.512  -5.099   3.542  1.00  0.00    -0.280 N 
ATOM     16  H   UNL     1       2.402  -5.242   3.939  1.00  0.00     0.180 HD
BRANCH  15  17
ATOM     17  C   UNL     1       1.401  -4.058   2.580  1.00  0.00     0.051 A 
ATOM     18  C   UNL     1       1.148  -1.631   1.219  1.00  0.00     0.137 A 
ATOM     19  C   UNL     1       0.089  -2.539   1.230  1.00  0.00     0.050 A 
ATOM     20  C   UNL     1       2.369  -1.979   1.799  1.00  0.00     0.085 A 
ATOM     21  C   UNL     1       0.230  -3.770   1.876  1.00  0.00     0.030 A 
ATOM     22  C   UNL     1       2.497  -3.197   2.470  1.00  0.00     0.051 A 
ATOM     23  Cl  UNL     1       3.719  -0.906   1.784  1.00  0.00    -0.080 Cl
BRANCH  18  24
ATOM     24  O   UNL     1       0.897  -0.352   0.801  1.00  0.00    -0.495 OA
ATOM     25  C   UNL     1       1.108  -0.206  -0.599  1.00  0.00     0.278 C 
ENDBRANCH  18  24
ENDBRANCH  15  17
ENDBRANCH  12  15
ENDBRANCH   6  12
ENDBRANCH   3   5
ENDBRANCH   2   3
ENDBRANCH   1   2
BRANCH   1  26
ATOM     26  C   UNL     1      -7.054  -6.830   2.978  1.00  0.00     0.275 C 
BRANCH  26  27
ATOM     27  O   UNL     1      -6.075  -7.880   3.062  1.00  0.00    -0.458 OA
BRANCH  27  28
ATOM     28  C   UNL     1      -5.380  -8.134   1.930  1.00  0.00     0.338 C 
ATOM     29  O   UNL     1      -5.533  -7.622   0.834  1.00  0.00    -0.246 OA
BRANCH  28  30
ATOM     30  C   UNL     1      -4.344  -9.146   2.205  1.00  0.00     0.060 A 
ATOM     31  C   UNL     1      -3.473  -8.968   3.276  1.00  0.00     0.016 A 
ATOM     32  C   UNL     1      -4.154 -10.209   1.325  1.00  0.00     0.016 A 
ATOM     33  C   UNL     1      -2.338  -9.769   3.401  1.00  0.00     0.010 A 
ATOM     34  C   UNL     1      -3.082 -11.088   1.524  1.00  0.00     0.010 A 
ATOM     35  C   UNL     1      -2.130 -10.852   2.534  1.00  0.00    -0.014 A 
BRANCH  35  36
ATOM     36  C   UNL     1      -0.907 -11.703   2.644  1.00  0.00     0.031 A 
ATOM     37  C   UNL     1      -0.001 -11.882   1.451  1.00  0.00     0.074 A 
ATOM     38  C   UNL     1      -0.588 -12.320   3.800  1.00  0.00     0.049 A 
ATOM     39  N   UNL     1       0.966 -12.747   1.262  1.00  0.00    -0.248 NA
ATOM     40  C   UNL     1      -0.226 -10.982   0.309  1.00  0.00     0.031 C 
ATOM     41  C   UNL     1      -1.330 -12.213   5.056  1.00  0.00     0.029 A 
ATOM     42  N   UNL     1       0.458 -13.160   4.107  1.00  0.00    -0.354 N 
ATOM     43  C   UNL     1       1.406 -12.547  -0.041  1.00  0.00     0.074 A 
ATOM     44  C   UNL     1       0.611 -11.473  -0.596  1.00  0.00     0.031 C 
ATOM     45  C   UNL     1      -0.693 -12.913   6.007  1.00  0.00     0.029 A 
ATOM     46  C   UNL     1       0.450 -13.596   5.410  1.00  0.00     0.049 A 
ATOM     47  H   UNL     1       1.147 -13.423   3.455  1.00  0.00     0.167 HD
ATOM     48  C   UNL     1       2.382 -13.204  -0.713  1.00  0.00     0.037 A 
ATOM     49  C   UNL     1       1.244 -14.477   6.048  1.00  0.00     0.037 A 
ATOM     50  C   UNL     1       3.239 -14.207  -0.136  1.00  0.00     0.049 A 
ATOM     51  C   UNL     1       2.334 -15.178   5.288  1.00  0.00     0.074 A 
ATOM     52  C   UNL     1       4.268 -14.915  -0.735  1.00  0.00     0.029 A 
ATOM     53  N   UNL     1       3.188 -14.620   1.187  1.00  0.00    -0.354 N 
ATOM     54  N   UNL     1       2.681 -15.048   4.032  1.00  0.00    -0.248 NA
ATOM     55  C   UNL     1       3.126 -16.170   6.029  1.00  0.00     0.031 C 
ATOM     56  C   UNL     1       4.828 -15.769   0.221  1.00  0.00     0.029 A 
ATOM     57  C   UNL     1       4.169 -15.571   1.422  1.00  0.00     0.049 A 
ATOM     58  H   UNL     1       2.551 -14.287   1.859  1.00  0.00     0.167 HD
ATOM     59  C   UNL     1       3.728 -15.935   3.832  1.00  0.00     0.074 A 
ATOM     60  C   UNL     1       3.980 -16.582   5.103  1.00  0.00     0.031 C 
ATOM     61  C   UNL     1       4.411 -16.200   2.692  1.00  0.00     0.037 A 
BRANCH  48  62
ATOM     62  C   UNL     1       2.567 -12.883  -2.167  1.00  0.00     0.064 A 
ATOM     63  C   UNL     1       3.186 -11.701  -2.595  1.00  0.00     0.173 A 
ATOM     64  C   UNL     1       2.166 -13.808  -3.144  1.00  0.00     0.173 A 
ATOM     65  F   UNL     1       3.578 -10.781  -1.701  1.00  0.00    -0.203 F 
ATOM     66  C   UNL     1       3.381 -11.448  -3.951  1.00  0.00     0.198 A 
ATOM     67  C   UNL     1       2.385 -13.563  -4.497  1.00  0.00     0.198 A 
ATOM     68  F   UNL     1       1.576 -14.958  -2.785  1.00  0.00    -0.203 F 
ATOM     69  F   UNL     1       3.946 -10.297  -4.342  1.00  0.00    -0.200 F 
ATOM     70  C   UNL     1       2.988 -12.382  -4.899  1.00  0.00     0.200 A 
ATOM     71  F   UNL     1       2.016 -14.472  -5.410  1.00  0.00    -0.200 F 
ATOM     72  F   UNL     1       3.189 -12.141  -6.203  1.00  0.00    -0.200 F 
ENDBRANCH  48  62
BRANCH  49  73
ATOM     73  C   UNL     1       1.008 -14.778   7.484  1.00  0.00     0.064 A 
ATOM     74  C   UNL     1       1.921 -14.366   8.465  1.00  0.00     0.173 A 
ATOM     75  C   UNL     1      -0.131 -15.479   7.905  1.00  0.00     0.173 A 
ATOM     76  F   UNL     1       3.041 -13.720   8.108  1.00  0.00    -0.203 F 
ATOM     77  C   UNL     1       1.705 -14.649   9.812  1.00  0.00     0.198 A 
ATOM     78  C   UNL     1      -0.361 -15.736   9.254  1.00  0.00     0.198 A 
ATOM     79  F   UNL     1      -1.032 -15.900   7.005  1.00  0.00    -0.203 F 
ATOM     80  F   UNL     1       2.612 -14.279  10.726  1.00  0.00    -0.200 F 
ATOM     81  C   UNL     1       0.560 -15.326  10.206  1.00  0.00     0.200 A 
ATOM     82  F   UNL     1      -1.473 -16.381   9.632  1.00  0.00    -0.200 F 
ATOM     83  F   UNL     1       0.349 -15.591  11.503  1.00  0.00    -0.200 F 
ENDBRANCH  49  73
BRANCH  61  84
ATOM     84  C   UNL     1       5.509 -17.216   2.775  1.00  0.00     0.064 A 
ATOM     85  C   UNL     1       5.229 -18.589   2.840  1.00  0.00     0.173 A 
ATOM     86  C   UNL     1       6.853 -16.816   2.758  1.00  0.00     0.173 A 
ATOM     87  F   UNL     1       3.958 -19.017   2.874  1.00  0.00    -0.203 F 
ATOM     88  C   UNL     1       6.257 -19.525   2.906  1.00  0.00     0.198 A 
ATOM     89  C   UNL     1       7.878 -17.756   2.804  1.00  0.00     0.198 A 
ATOM     90  F   UNL     1       7.170 -15.514   2.694  1.00  0.00    -0.203 F 
ATOM     91  F   UNL     1       5.968 -20.829   3.006  1.00  0.00    -0.200 F 
ATOM     92  C   UNL     1       7.580 -19.108   2.883  1.00  0.00     0.200 A 
ATOM     93  F   UNL     1       9.156 -17.353   2.775  1.00  0.00    -0.200 F 
ATOM     94  F   UNL     1       8.569 -20.011   2.945  1.00  0.00    -0.200 F 
ENDBRANCH  61  84
ENDBRANCH  35  36
ENDBRANCH  28  30
ENDBRANCH  27  28
ENDBRANCH  26  27
ENDBRANCH   1  26
TORSDOF 15
