REMARK SMILES C[C@H](Oc1ccc(-c2ccccc2)cc1)C(=O)N[C@H](C)C(=O)OCCOC(=O)c1ccc(-c2c3nc(c(-c4c(F)c(F)c(F)c(F)c4F)c4ccc([nH]4)c(-c4c(F)c(F)c(F)c(F)c4F)c4nc(c(-c5c(F)c(F)c(F)c(F)c5F)c5ccc2[nH]5)C=C4)C=C3)cc1
REMARK SMILES IDX 23 1 21 2 22 3 19 4 20 5 18 6 16 7 17 8 2 10 1 11 3 12 4 13
REMARK SMILES IDX 5 14 15 15 6 16 14 17 7 18 8 19 9 20 13 21 10 22 12 23 11 24
REMARK SMILES IDX 24 25 25 26 26 27 27 28 28 29 29 30 30 31 91 32 31 33 90 34
REMARK SMILES IDX 32 35 33 36 34 37 84 38 35 39 89 40 83 41 85 42 36 43 88 44
REMARK SMILES IDX 82 45 81 46 37 48 69 49 49 50 68 51 50 52 53 53 67 54 86 55
REMARK SMILES IDX 51 56 52 57 66 59 87 60 54 61 38 62 39 63 47 64 40 65 41 66
REMARK SMILES IDX 45 67 48 68 42 69 43 70 46 71 44 72 70 73 71 74 79 75 72 76
REMARK SMILES IDX 73 77 77 78 80 79 74 80 75 81 78 82 76 83 55 84 56 85 64 86
REMARK SMILES IDX 57 87 58 88 62 89 65 90 59 91 60 92 63 93 61 94
REMARK H PARENT 18 9 85 47 53 58
REMARK Flexibility Score: inf
ROOT
ATOM      1  O   UNL     1      -2.242  -0.899  -3.829  1.00  0.00    -0.461 OA
ENDROOT
BRANCH   1   2
ATOM      2  C   UNL     1      -1.577  -1.874  -3.165  1.00  0.00     0.328 C 
ATOM      3  O   UNL     1      -1.249  -2.949  -3.657  1.00  0.00    -0.250 OA
BRANCH   2   4
ATOM      4  C   UNL     1      -1.325  -1.520  -1.686  1.00  0.00     0.189 C 
ATOM      5  C   UNL     1      -1.363  -0.048  -1.315  1.00  0.00     0.043 C 
BRANCH   4   6
ATOM      6  N   UNL     1      -2.058  -2.417  -0.783  1.00  0.00    -0.340 N 
ATOM      7  C   UNL     1      -3.318  -2.424  -0.263  1.00  0.00     0.261 C 
ATOM      8  O   UNL     1      -3.626  -3.413   0.413  1.00  0.00    -0.271 OA
ATOM      9  H   UNL     1      -1.519  -3.186  -0.488  1.00  0.00     0.164 HD
BRANCH   7  10
ATOM     10  C   UNL     1      -4.352  -1.306  -0.514  1.00  0.00     0.258 C 
ATOM     11  C   UNL     1      -4.706  -1.294  -1.998  1.00  0.00     0.064 C 
BRANCH  10  12
ATOM     12  O   UNL     1      -3.847  -0.123   0.104  1.00  0.00    -0.481 OA
BRANCH  12  13
ATOM     13  C   UNL     1      -4.280   1.138  -0.166  1.00  0.00     0.120 A 
ATOM     14  C   UNL     1      -5.357   1.506  -0.955  1.00  0.00     0.047 A 
ATOM     15  C   UNL     1      -3.472   2.144   0.375  1.00  0.00     0.047 A 
ATOM     16  C   UNL     1      -5.549   2.852  -1.299  1.00  0.00     0.012 A 
ATOM     17  C   UNL     1      -3.677   3.490   0.053  1.00  0.00     0.012 A 
ATOM     18  C   UNL     1      -4.706   3.869  -0.818  1.00  0.00    -0.018 A 
BRANCH  18  19
ATOM     19  C   UNL     1      -4.899   5.275  -1.225  1.00  0.00    -0.018 A 
ATOM     20  C   UNL     1      -6.183   5.848  -1.252  1.00  0.00     0.009 A 
ATOM     21  C   UNL     1      -3.817   6.082  -1.621  1.00  0.00     0.009 A 
ATOM     22  C   UNL     1      -6.381   7.167  -1.667  1.00  0.00     0.001 A 
ATOM     23  C   UNL     1      -4.012   7.405  -2.031  1.00  0.00     0.001 A 
ATOM     24  C   UNL     1      -5.295   7.945  -2.057  1.00  0.00     0.000 A 
ENDBRANCH  18  19
ENDBRANCH  12  13
ENDBRANCH  10  12
ENDBRANCH   7  10
ENDBRANCH   4   6
ENDBRANCH   2   4
ENDBRANCH   1   2
BRANCH   1  25
ATOM     25  C   UNL     1      -2.573  -1.135  -5.213  1.00  0.00     0.274 C 
BRANCH  25  26
ATOM     26  C   UNL     1      -2.384   0.162  -5.999  1.00  0.00     0.275 C 
BRANCH  26  27
ATOM     27  O   UNL     1      -0.992   0.529  -5.978  1.00  0.00    -0.458 OA
BRANCH  27  28
ATOM     28  C   UNL     1      -0.644   1.338  -4.952  1.00  0.00     0.338 C 
ATOM     29  O   UNL     1      -1.370   1.896  -4.150  1.00  0.00    -0.246 OA
BRANCH  28  30
ATOM     30  C   UNL     1       0.815   1.326  -4.820  1.00  0.00     0.060 A 
ATOM     31  C   UNL     1       1.373   0.568  -3.789  1.00  0.00     0.016 A 
ATOM     32  C   UNL     1       1.612   2.127  -5.632  1.00  0.00     0.016 A 
ATOM     33  C   UNL     1       2.726   0.670  -3.504  1.00  0.00     0.010 A 
ATOM     34  C   UNL     1       2.985   2.180  -5.386  1.00  0.00     0.010 A 
ATOM     35  C   UNL     1       3.543   1.476  -4.303  1.00  0.00    -0.014 A 
BRANCH  35  36
ATOM     36  C   UNL     1       4.981   1.607  -3.981  1.00  0.00     0.031 A 
ATOM     37  C   UNL     1       5.515   2.917  -3.483  1.00  0.00     0.074 A 
ATOM     38  C   UNL     1       5.794   0.545  -4.125  1.00  0.00     0.049 A 
ATOM     39  N   UNL     1       6.754   3.281  -3.274  1.00  0.00    -0.248 NA
ATOM     40  C   UNL     1       4.521   3.961  -3.187  1.00  0.00     0.031 C 
ATOM     41  C   UNL     1       5.370  -0.793  -4.540  1.00  0.00     0.029 A 
ATOM     42  N   UNL     1       7.146   0.424  -3.937  1.00  0.00    -0.354 N 
ATOM     43  C   UNL     1       6.692   4.604  -2.859  1.00  0.00     0.074 A 
ATOM     44  C   UNL     1       5.295   4.983  -2.852  1.00  0.00     0.031 C 
ATOM     45  C   UNL     1       6.439  -1.604  -4.564  1.00  0.00     0.029 A 
ATOM     46  C   UNL     1       7.628  -0.826  -4.232  1.00  0.00     0.049 A 
ATOM     47  H   UNL     1       7.716   1.163  -3.622  1.00  0.00     0.167 HD
ATOM     48  C   UNL     1       7.715   5.424  -2.517  1.00  0.00     0.037 A 
ATOM     49  C   UNL     1       8.894  -1.281  -4.268  1.00  0.00     0.037 A 
ATOM     50  C   UNL     1       9.097   5.023  -2.502  1.00  0.00     0.049 A 
ATOM     51  C   UNL     1      10.014  -0.332  -3.947  1.00  0.00     0.074 A 
ATOM     52  C   UNL     1      10.210   5.767  -2.156  1.00  0.00     0.029 A 
ATOM     53  N   UNL     1       9.553   3.758  -2.847  1.00  0.00    -0.354 N 
ATOM     54  N   UNL     1       9.954   0.925  -3.580  1.00  0.00    -0.248 NA
ATOM     55  C   UNL     1      11.379  -0.861  -4.062  1.00  0.00     0.031 C 
ATOM     56  C   UNL     1      11.344   4.965  -2.331  1.00  0.00     0.029 A 
ATOM     57  C   UNL     1      10.933   3.707  -2.744  1.00  0.00     0.049 A 
ATOM     58  H   UNL     1       8.979   3.007  -3.125  1.00  0.00     0.167 HD
ATOM     59  C   UNL     1      11.267   1.333  -3.398  1.00  0.00     0.074 A 
ATOM     60  C   UNL     1      12.103   0.184  -3.685  1.00  0.00     0.031 C 
ATOM     61  C   UNL     1      11.741   2.548  -3.029  1.00  0.00     0.037 A 
BRANCH  48  62
ATOM     62  C   UNL     1       7.376   6.844  -2.174  1.00  0.00     0.064 A 
ATOM     63  C   UNL     1       6.731   7.186  -0.977  1.00  0.00     0.173 A 
ATOM     64  C   UNL     1       7.713   7.881  -3.058  1.00  0.00     0.173 A 
ATOM     65  F   UNL     1       6.372   6.231  -0.106  1.00  0.00    -0.203 F 
ATOM     66  C   UNL     1       6.411   8.511  -0.689  1.00  0.00     0.198 A 
ATOM     67  C   UNL     1       7.415   9.207  -2.755  1.00  0.00     0.198 A 
ATOM     68  F   UNL     1       8.331   7.609  -4.217  1.00  0.00    -0.203 F 
ATOM     69  F   UNL     1       5.750   8.810   0.438  1.00  0.00    -0.200 F 
ATOM     70  C   UNL     1       6.758   9.521  -1.575  1.00  0.00     0.200 A 
ATOM     71  F   UNL     1       7.757  10.182  -3.609  1.00  0.00    -0.200 F 
ATOM     72  F   UNL     1       6.448  10.794  -1.297  1.00  0.00    -0.200 F 
ENDBRANCH  48  62
BRANCH  49  73
ATOM     73  C   UNL     1       9.164  -2.692  -4.641  1.00  0.00     0.064 A 
ATOM     74  C   UNL     1       9.645  -3.606  -3.694  1.00  0.00     0.173 A 
ATOM     75  C   UNL     1       8.940  -3.159  -5.945  1.00  0.00     0.173 A 
ATOM     76  F   UNL     1       9.896  -3.200  -2.440  1.00  0.00    -0.203 F 
ATOM     77  C   UNL     1       9.902  -4.931  -4.039  1.00  0.00     0.198 A 
ATOM     78  C   UNL     1       9.171  -4.490  -6.282  1.00  0.00     0.198 A 
ATOM     79  F   UNL     1       8.479  -2.324  -6.888  1.00  0.00    -0.203 F 
ATOM     80  F   UNL     1      10.397  -5.775  -3.124  1.00  0.00    -0.200 F 
ATOM     81  C   UNL     1       9.658  -5.374  -5.331  1.00  0.00     0.200 A 
ATOM     82  F   UNL     1       8.922  -4.917  -7.527  1.00  0.00    -0.200 F 
ATOM     83  F   UNL     1       9.899  -6.650  -5.660  1.00  0.00    -0.200 F 
ENDBRANCH  49  73
BRANCH  61  84
ATOM     84  C   UNL     1      13.227   2.682  -2.881  1.00  0.00     0.064 A 
ATOM     85  C   UNL     1      14.074   2.736  -3.997  1.00  0.00     0.173 A 
ATOM     86  C   UNL     1      13.805   2.786  -1.607  1.00  0.00     0.173 A 
ATOM     87  F   UNL     1      13.568   2.622  -5.234  1.00  0.00    -0.203 F 
ATOM     88  C   UNL     1      15.450   2.869  -3.841  1.00  0.00     0.198 A 
ATOM     89  C   UNL     1      15.179   2.945  -1.457  1.00  0.00     0.198 A 
ATOM     90  F   UNL     1      13.035   2.743  -0.509  1.00  0.00    -0.203 F 
ATOM     91  F   UNL     1      16.247   2.873  -4.919  1.00  0.00    -0.200 F 
ATOM     92  C   UNL     1      16.001   2.979  -2.573  1.00  0.00     0.200 A 
ATOM     93  F   UNL     1      15.708   3.062  -0.231  1.00  0.00    -0.200 F 
ATOM     94  F   UNL     1      17.326   3.111  -2.426  1.00  0.00    -0.200 F 
ENDBRANCH  61  84
ENDBRANCH  35  36
ENDBRANCH  28  30
ENDBRANCH  27  28
ENDBRANCH  26  27
ENDBRANCH  25  26
ENDBRANCH   1  25
TORSDOF 16
