REMARK SMILES C[C@H](C(=O)OCCOC(=O)c1ccc(-c2c3nc(c(-c4c(F)c(F)c(F)c(F)c4F)c4ccc([nH]4)c(-c4c(F)c(F)c(F)c(F)c4F)c4nc(c(-c5c(F)c(F)c(F)c(F)c5F)c5ccc2[nH]5)C=C4)C=C3)cc1)n1c(=O)ssc1=O
REMARK SMILES IDX 7 1 6 2 5 3 3 4 4 5 2 6 1 7 74 8 75 9 79 10 76 11 77 12
REMARK SMILES IDX 78 13 80 14 8 15 9 16 10 17 11 18 12 19 73 20 13 21 72 22
REMARK SMILES IDX 14 23 15 24 16 25 66 26 17 27 71 28 65 29 67 30 18 31 70 32
REMARK SMILES IDX 64 33 63 34 19 36 51 37 31 38 50 39 32 40 35 41 49 42 68 43
REMARK SMILES IDX 33 44 34 45 48 47 69 48 36 49 20 50 21 51 29 52 22 53 23 54
REMARK SMILES IDX 27 55 30 56 24 57 25 58 28 59 26 60 52 61 53 62 61 63 54 64
REMARK SMILES IDX 55 65 59 66 62 67 56 68 57 69 60 70 58 71 37 72 38 73 46 74
REMARK SMILES IDX 39 75 40 76 44 77 47 78 41 79 42 80 45 81 43 82
REMARK H PARENT 67 35 35 46
REMARK Flexibility Score: inf
ROOT
ATOM      1  C   UNL     1       0.371  -1.175  -2.526  1.00  0.00     0.275 C 
ENDROOT
BRANCH   1   2
ATOM      2  C   UNL     1       0.989  -1.645  -1.210  1.00  0.00     0.274 C 
BRANCH   2   3
ATOM      3  O   UNL     1       0.328  -1.016  -0.092  1.00  0.00    -0.461 OA
BRANCH   3   4
ATOM      4  C   UNL     1       1.091  -0.252   0.738  1.00  0.00     0.329 C 
ATOM      5  O   UNL     1       2.291  -0.055   0.583  1.00  0.00    -0.250 OA
BRANCH   4   6
ATOM      6  C   UNL     1       0.310   0.208   1.982  1.00  0.00     0.202 C 
ATOM      7  C   UNL     1       0.965   1.441   2.613  1.00  0.00     0.044 C 
BRANCH   6   8
ATOM      8  N   UNL     1      -1.138   0.309   1.745  1.00  0.00    -0.242 N 
ATOM      9  C   UNL     1      -1.892  -0.843   1.868  1.00  0.00     0.321 A 
ATOM     10  C   UNL     1      -1.729   1.478   1.311  1.00  0.00     0.321 A 
ATOM     11  O   UNL     1      -1.464  -1.925   2.248  1.00  0.00    -0.256 OA
ATOM     12  S   UNL     1      -3.572  -0.640   1.421  1.00  0.00    -0.014 S 
ATOM     13  S   UNL     1      -3.469   1.363   1.136  1.00  0.00    -0.014 S 
ATOM     14  O   UNL     1      -1.157   2.540   1.110  1.00  0.00    -0.256 OA
ENDBRANCH   6   8
ENDBRANCH   4   6
ENDBRANCH   3   4
ENDBRANCH   2   3
ENDBRANCH   1   2
BRANCH   1  15
ATOM     15  O   UNL     1       0.613   0.231  -2.716  1.00  0.00    -0.458 OA
BRANCH  15  16
ATOM     16  C   UNL     1      -0.359   1.038  -2.236  1.00  0.00     0.338 C 
ATOM     17  O   UNL     1      -1.418   0.711  -1.726  1.00  0.00    -0.246 OA
BRANCH  16  18
ATOM     18  C   UNL     1       0.103   2.428  -2.286  1.00  0.00     0.060 A 
ATOM     19  C   UNL     1       0.758   2.938  -1.167  1.00  0.00     0.016 A 
ATOM     20  C   UNL     1      -0.236   3.256  -3.352  1.00  0.00     0.016 A 
ATOM     21  C   UNL     1       0.995   4.303  -1.063  1.00  0.00     0.010 A 
ATOM     22  C   UNL     1       0.077   4.617  -3.280  1.00  0.00     0.010 A 
ATOM     23  C   UNL     1       0.663   5.159  -2.121  1.00  0.00    -0.014 A 
BRANCH  23  24
ATOM     24  C   UNL     1       0.893   6.623  -1.998  1.00  0.00     0.031 A 
ATOM     25  C   UNL     1      -0.271   7.575  -2.038  1.00  0.00     0.074 A 
ATOM     26  C   UNL     1       2.143   7.100  -1.844  1.00  0.00     0.049 A 
ATOM     27  N   UNL     1      -0.271   8.881  -2.128  1.00  0.00    -0.248 NA
ATOM     28  C   UNL     1      -1.614   6.977  -1.981  1.00  0.00     0.031 C 
ATOM     29  C   UNL     1       3.353   6.284  -1.734  1.00  0.00     0.029 A 
ATOM     30  N   UNL     1       2.603   8.390  -1.756  1.00  0.00    -0.354 N 
ATOM     31  C   UNL     1      -1.607   9.257  -2.192  1.00  0.00     0.074 A 
ATOM     32  C   UNL     1      -2.391   8.041  -2.132  1.00  0.00     0.031 C 
ATOM     33  C   UNL     1       4.413   7.090  -1.575  1.00  0.00     0.029 A 
ATOM     34  C   UNL     1       3.969   8.478  -1.650  1.00  0.00     0.049 A 
ATOM     35  H   UNL     1       2.011   9.177  -1.767  1.00  0.00     0.167 HD
ATOM     36  C   UNL     1      -2.127  10.504  -2.291  1.00  0.00     0.037 A 
ATOM     37  C   UNL     1       4.779   9.553  -1.658  1.00  0.00     0.037 A 
ATOM     38  C   UNL     1      -1.343  11.712  -2.293  1.00  0.00     0.049 A 
ATOM     39  C   UNL     1       4.179  10.923  -1.805  1.00  0.00     0.074 A 
ATOM     40  C   UNL     1      -1.779  13.024  -2.365  1.00  0.00     0.029 A 
ATOM     41  N   UNL     1       0.041  11.756  -2.207  1.00  0.00    -0.354 N 
ATOM     42  N   UNL     1       2.919  11.267  -1.908  1.00  0.00    -0.248 NA
ATOM     43  C   UNL     1       5.116  12.053  -1.852  1.00  0.00     0.031 C 
ATOM     44  C   UNL     1      -0.657  13.860  -2.358  1.00  0.00     0.029 A 
ATOM     45  C   UNL     1       0.475  13.072  -2.238  1.00  0.00     0.049 A 
ATOM     46  H   UNL     1       0.627  10.969  -2.133  1.00  0.00     0.167 HD
ATOM     47  C   UNL     1       2.909  12.651  -2.014  1.00  0.00     0.074 A 
ATOM     48  C   UNL     1       4.289  13.085  -1.946  1.00  0.00     0.031 C 
ATOM     49  C   UNL     1       1.852  13.486  -2.160  1.00  0.00     0.037 A 
BRANCH  36  50
ATOM     50  C   UNL     1      -3.615  10.630  -2.440  1.00  0.00     0.064 A 
ATOM     51  C   UNL     1      -4.492  10.399  -1.371  1.00  0.00     0.173 A 
ATOM     52  C   UNL     1      -4.166  11.039  -3.665  1.00  0.00     0.173 A 
ATOM     53  F   UNL     1      -4.017   9.996  -0.183  1.00  0.00    -0.203 F 
ATOM     54  C   UNL     1      -5.868  10.551  -1.528  1.00  0.00     0.198 A 
ATOM     55  C   UNL     1      -5.539  11.217  -3.811  1.00  0.00     0.198 A 
ATOM     56  F   UNL     1      -3.371  11.281  -4.718  1.00  0.00    -0.203 F 
ATOM     57  F   UNL     1      -6.691  10.287  -0.504  1.00  0.00    -0.200 F 
ATOM     58  C   UNL     1      -6.389  10.967  -2.745  1.00  0.00     0.200 A 
ATOM     59  F   UNL     1      -6.039  11.633  -4.983  1.00  0.00    -0.200 F 
ATOM     60  F   UNL     1      -7.713  11.124  -2.890  1.00  0.00    -0.200 F 
ENDBRANCH  36  50
BRANCH  37  61
ATOM     61  C   UNL     1       6.250   9.371  -1.559  1.00  0.00     0.064 A 
ATOM     62  C   UNL     1       6.952   9.787  -0.420  1.00  0.00     0.173 A 
ATOM     63  C   UNL     1       6.983   8.778  -2.598  1.00  0.00     0.173 A 
ATOM     64  F   UNL     1       6.299  10.383   0.588  1.00  0.00    -0.203 F 
ATOM     65  C   UNL     1       8.334   9.628  -0.329  1.00  0.00     0.198 A 
ATOM     66  C   UNL     1       8.359   8.591  -2.493  1.00  0.00     0.198 A 
ATOM     67  F   UNL     1       6.358   8.363  -3.710  1.00  0.00    -0.203 F 
ATOM     68  F   UNL     1       8.987  10.073   0.752  1.00  0.00    -0.200 F 
ATOM     69  C   UNL     1       9.034   9.023  -1.362  1.00  0.00     0.200 A 
ATOM     70  F   UNL     1       9.030   7.994  -3.488  1.00  0.00    -0.200 F 
ATOM     71  F   UNL     1      10.362   8.864  -1.271  1.00  0.00    -0.200 F 
ENDBRANCH  37  61
BRANCH  49  72
ATOM     72  C   UNL     1       2.146  14.956  -2.220  1.00  0.00     0.064 A 
ATOM     73  C   UNL     1       2.724  15.544  -3.354  1.00  0.00     0.173 A 
ATOM     74  C   UNL     1       1.820  15.789  -1.139  1.00  0.00     0.173 A 
ATOM     75  F   UNL     1       3.070  14.786  -4.406  1.00  0.00    -0.203 F 
ATOM     76  C   UNL     1       2.986  16.910  -3.395  1.00  0.00     0.198 A 
ATOM     77  C   UNL     1       2.059  17.158  -1.194  1.00  0.00     0.198 A 
ATOM     78  F   UNL     1       1.262  15.274  -0.033  1.00  0.00    -0.203 F 
ATOM     79  F   UNL     1       3.580  17.445  -4.471  1.00  0.00    -0.200 F 
ATOM     80  C   UNL     1       2.647  17.717  -2.319  1.00  0.00     0.200 A 
ATOM     81  F   UNL     1       1.722  17.938  -0.157  1.00  0.00    -0.200 F 
ATOM     82  F   UNL     1       2.897  19.033  -2.361  1.00  0.00    -0.200 F 
ENDBRANCH  49  72
ENDBRANCH  23  24
ENDBRANCH  16  18
ENDBRANCH  15  16
ENDBRANCH   1  15
TORSDOF 12
