REMARK SMILES O=C(OCCOC(=O)c1cccc(S(=O)(=O)Nc2ccccc2N2CCOCC2)c1)c1ccc(-c2c3nc(c(-c4c(F)c(F)c(F)c(F)c4F)c4ccc([nH]4)c(-c4c(F)c(F)c(F)c(F)c4F)c4nc(c(-c5c(F)c(F)c(F)c(F)c5F)c5ccc2[nH]5)C=C4)C=C3)cc1
REMARK SMILES IDX 5 1 4 2 3 3 2 4 1 5 31 6 32 7 93 8 33 9 92 10 34 11 35 12
REMARK SMILES IDX 36 13 86 14 37 15 91 16 85 17 87 18 38 19 90 20 84 21 83 22
REMARK SMILES IDX 39 24 71 25 51 26 70 27 52 28 55 29 69 30 88 31 53 32 54 33
REMARK SMILES IDX 68 35 89 36 56 37 40 38 41 39 49 40 42 41 43 42 47 43 50 44
REMARK SMILES IDX 44 45 45 46 48 47 46 48 72 49 73 50 81 51 74 52 75 53 79 54
REMARK SMILES IDX 82 55 76 56 77 57 80 58 78 59 57 60 58 61 66 62 59 63 60 64
REMARK SMILES IDX 64 65 67 66 61 67 62 68 65 69 63 70 6 71 7 72 8 73 9 74
REMARK SMILES IDX 10 75 30 76 11 77 13 78 12 79 14 80 15 81 16 82 17 83 18 85
REMARK SMILES IDX 19 86 23 87 20 88 22 89 21 90 24 91 25 92 29 93 26 94 28 95
REMARK SMILES IDX 27 96
REMARK H PARENT 87 23 55 34 17 84
REMARK Flexibility Score: inf
ROOT
ATOM      1  C   UNL     1       3.967   1.583  -0.273  1.00  0.00     0.275 C 
ENDROOT
BRANCH   1   2
ATOM      2  C   UNL     1       4.364   0.519  -1.294  1.00  0.00     0.275 C 
BRANCH   2   3
ATOM      3  O   UNL     1       3.462  -0.601  -1.400  1.00  0.00    -0.458 OA
BRANCH   3   4
ATOM      4  C   UNL     1       3.440  -1.751  -0.684  1.00  0.00     0.338 C 
ATOM      5  O   UNL     1       2.688  -2.667  -1.007  1.00  0.00    -0.246 OA
BRANCH   4   6
ATOM      6  C   UNL     1       4.201  -1.901   0.585  1.00  0.00     0.060 A 
ATOM      7  C   UNL     1       5.556  -1.598   0.736  1.00  0.00     0.016 A 
ATOM      8  C   UNL     1       3.507  -2.450   1.674  1.00  0.00     0.016 A 
ATOM      9  C   UNL     1       6.186  -1.762   1.976  1.00  0.00     0.010 A 
ATOM     10  C   UNL     1       4.128  -2.603   2.917  1.00  0.00     0.010 A 
ATOM     11  C   UNL     1       5.481  -2.272   3.072  1.00  0.00    -0.014 A 
BRANCH  11  12
ATOM     12  C   UNL     1       6.199  -2.659   4.310  1.00  0.00     0.031 A 
ATOM     13  C   UNL     1       6.535  -4.105   4.520  1.00  0.00     0.074 A 
ATOM     14  C   UNL     1       6.608  -1.761   5.224  1.00  0.00     0.049 A 
ATOM     15  N   UNL     1       7.249  -4.647   5.473  1.00  0.00    -0.248 NA
ATOM     16  C   UNL     1       6.061  -5.055   3.501  1.00  0.00     0.031 C 
ATOM     17  C   UNL     1       6.455  -0.315   5.128  1.00  0.00     0.029 A 
ATOM     18  N   UNL     1       7.210  -1.954   6.447  1.00  0.00    -0.354 N 
ATOM     19  C   UNL     1       7.422  -5.965   5.093  1.00  0.00     0.074 A 
ATOM     20  C   UNL     1       6.610  -6.186   3.917  1.00  0.00     0.031 C 
ATOM     21  C   UNL     1       6.850   0.232   6.292  1.00  0.00     0.029 A 
ATOM     22  C   UNL     1       7.253  -0.817   7.211  1.00  0.00     0.049 A 
ATOM     23  H   UNL     1       7.574  -2.821   6.742  1.00  0.00     0.167 HD
ATOM     24  C   UNL     1       8.270  -6.879   5.619  1.00  0.00     0.037 A 
ATOM     25  C   UNL     1       7.549  -0.634   8.511  1.00  0.00     0.037 A 
ATOM     26  C   UNL     1       9.020  -6.691   6.828  1.00  0.00     0.049 A 
ATOM     27  C   UNL     1       8.190  -1.757   9.258  1.00  0.00     0.074 A 
ATOM     28  C   UNL     1       9.910  -7.552   7.443  1.00  0.00     0.029 A 
ATOM     29  N   UNL     1       8.930  -5.565   7.635  1.00  0.00    -0.354 N 
ATOM     30  N   UNL     1       8.458  -2.967   8.841  1.00  0.00    -0.248 NA
ATOM     31  C   UNL     1       8.672  -1.459  10.613  1.00  0.00     0.031 C 
ATOM     32  C   UNL     1      10.328  -6.963   8.644  1.00  0.00     0.029 A 
ATOM     33  C   UNL     1       9.723  -5.722   8.761  1.00  0.00     0.049 A 
ATOM     34  H   UNL     1       8.383  -4.771   7.437  1.00  0.00     0.167 HD
ATOM     35  C   UNL     1       9.228  -3.545   9.835  1.00  0.00     0.074 A 
ATOM     36  C   UNL     1       9.333  -2.571  10.903  1.00  0.00     0.031 C 
ATOM     37  C   UNL     1       9.840  -4.753   9.820  1.00  0.00     0.037 A 
BRANCH  24  38
ATOM     38  C   UNL     1       8.456  -8.125   4.815  1.00  0.00     0.064 A 
ATOM     39  C   UNL     1       9.177  -8.085   3.609  1.00  0.00     0.173 A 
ATOM     40  C   UNL     1       7.880  -9.339   5.203  1.00  0.00     0.173 A 
ATOM     41  F   UNL     1       9.725  -6.935   3.186  1.00  0.00    -0.203 F 
ATOM     42  C   UNL     1       9.287  -9.213   2.804  1.00  0.00     0.198 A 
ATOM     43  C   UNL     1       8.008 -10.471   4.402  1.00  0.00     0.198 A 
ATOM     44  F   UNL     1       7.173  -9.419   6.339  1.00  0.00    -0.203 F 
ATOM     45  F   UNL     1       9.931  -9.138   1.631  1.00  0.00    -0.200 F 
ATOM     46  C   UNL     1       8.702 -10.405   3.201  1.00  0.00     0.200 A 
ATOM     47  F   UNL     1       7.439 -11.624   4.781  1.00  0.00    -0.200 F 
ATOM     48  F   UNL     1       8.792 -11.489   2.418  1.00  0.00    -0.200 F 
ENDBRANCH  24  38
BRANCH  25  49
ATOM     49  C   UNL     1       7.281   0.665   9.179  1.00  0.00     0.064 A 
ATOM     50  C   UNL     1       8.280   1.631   9.338  1.00  0.00     0.173 A 
ATOM     51  C   UNL     1       6.010   0.945   9.705  1.00  0.00     0.173 A 
ATOM     52  F   UNL     1       9.517   1.395   8.878  1.00  0.00    -0.203 F 
ATOM     53  C   UNL     1       8.020   2.831   9.999  1.00  0.00     0.198 A 
ATOM     54  C   UNL     1       5.745   2.153  10.347  1.00  0.00     0.198 A 
ATOM     55  F   UNL     1       5.034   0.032   9.623  1.00  0.00    -0.203 F 
ATOM     56  F   UNL     1       9.001   3.728  10.163  1.00  0.00    -0.200 F 
ATOM     57  C   UNL     1       6.751   3.094  10.497  1.00  0.00     0.200 A 
ATOM     58  F   UNL     1       4.520   2.403  10.831  1.00  0.00    -0.200 F 
ATOM     59  F   UNL     1       6.504   4.249  11.129  1.00  0.00    -0.200 F 
ENDBRANCH  25  49
BRANCH  37  60
ATOM     60  C   UNL     1      10.765  -5.049  10.958  1.00  0.00     0.064 A 
ATOM     61  C   UNL     1      10.292  -5.345  12.243  1.00  0.00     0.173 A 
ATOM     62  C   UNL     1      12.153  -5.018  10.754  1.00  0.00     0.173 A 
ATOM     63  F   UNL     1       8.973  -5.354  12.491  1.00  0.00    -0.203 F 
ATOM     64  C   UNL     1      11.178  -5.574  13.292  1.00  0.00     0.198 A 
ATOM     65  C   UNL     1      13.035  -5.274  11.798  1.00  0.00     0.198 A 
ATOM     66  F   UNL     1      12.653  -4.730   9.542  1.00  0.00    -0.203 F 
ATOM     67  F   UNL     1      10.707  -5.798  14.526  1.00  0.00    -0.200 F 
ATOM     68  C   UNL     1      12.547  -5.544  13.067  1.00  0.00     0.200 A 
ATOM     69  F   UNL     1      14.356  -5.248  11.578  1.00  0.00    -0.200 F 
ATOM     70  F   UNL     1      13.398  -5.761  14.079  1.00  0.00    -0.200 F 
ENDBRANCH  37  60
ENDBRANCH  11  12
ENDBRANCH   4   6
ENDBRANCH   3   4
ENDBRANCH   2   3
ENDBRANCH   1   2
BRANCH   1  71
ATOM     71  O   UNL     1       3.659   1.038   1.017  1.00  0.00    -0.458 OA
BRANCH  71  72
ATOM     72  C   UNL     1       2.339   0.834   1.232  1.00  0.00     0.338 C 
ATOM     73  O   UNL     1       1.433   1.067   0.436  1.00  0.00    -0.246 OA
BRANCH  72  74
ATOM     74  C   UNL     1       2.076   0.273   2.575  1.00  0.00     0.061 A 
ATOM     75  C   UNL     1       0.910  -0.488   2.737  1.00  0.00     0.016 A 
ATOM     76  C   UNL     1       2.880   0.589   3.678  1.00  0.00     0.038 A 
ATOM     77  C   UNL     1       0.537  -0.926   4.001  1.00  0.00     0.002 A 
ATOM     78  C   UNL     1       2.411   0.301   4.956  1.00  0.00     0.088 A 
ATOM     79  C   UNL     1       1.268  -0.505   5.109  1.00  0.00     0.022 A 
BRANCH  78  80
ATOM     80  S   UNL     1       3.053   1.000   6.458  1.00  0.00     0.261 S 
ATOM     81  O   UNL     1       1.916   1.438   7.243  1.00  0.00    -0.201 OA
ATOM     82  O   UNL     1       3.911  -0.027   7.007  1.00  0.00    -0.201 OA
BRANCH  80  83
ATOM     83  N   UNL     1       4.068   2.343   6.294  1.00  0.00    -0.278 N 
ATOM     84  H   UNL     1       4.532   2.661   7.103  1.00  0.00     0.180 HD
BRANCH  83  85
ATOM     85  C   UNL     1       4.309   3.057   5.075  1.00  0.00     0.072 A 
ATOM     86  C   UNL     1       5.653   3.206   4.695  1.00  0.00     0.029 A 
ATOM     87  C   UNL     1       3.281   3.584   4.262  1.00  0.00     0.061 A 
ATOM     88  C   UNL     1       5.996   3.699   3.442  1.00  0.00     0.002 A 
ATOM     89  C   UNL     1       3.654   4.064   2.992  1.00  0.00     0.028 A 
ATOM     90  C   UNL     1       4.991   4.098   2.576  1.00  0.00     0.002 A 
BRANCH  87  91
ATOM     91  N   UNL     1       1.958   3.591   4.691  1.00  0.00    -0.365 N 
ATOM     92  C   UNL     1       1.666   4.488   5.833  1.00  0.00     0.145 C 
ATOM     93  C   UNL     1       0.841   3.501   3.739  1.00  0.00     0.145 C 
ATOM     94  C   UNL     1       0.307   4.144   6.469  1.00  0.00     0.181 C 
ATOM     95  C   UNL     1      -0.416   3.068   4.503  1.00  0.00     0.181 C 
ATOM     96  O   UNL     1      -0.750   4.051   5.497  1.00  0.00    -0.378 OA
ENDBRANCH  87  91
ENDBRANCH  83  85
ENDBRANCH  80  83
ENDBRANCH  78  80
ENDBRANCH  72  74
ENDBRANCH  71  72
ENDBRANCH   1  71
TORSDOF 15
