REMARK SMILES CCCN1CCC[C@@]2(CCN(c3ccc(C(=O)OCCOC(=O)c4ccc(-c5c6nc(c(-c7c(F)c(F)c(F)c(F)c7F)c7ccc([nH]7)c(-c7c(F)c(F)c(F)c(F)c7F)c7nc(c(-c8c(F)c(F)c(F)c(F)c8F)c8ccc5[nH]8)C=C7)C=C6)cc4)cn3)C2)C1=O
REMARK SMILES IDX 19 1 18 2 16 3 17 4 15 5 12 6 13 7 88 8 14 9 87 10 11 11
REMARK SMILES IDX 4 12 5 13 90 14 6 15 8 16 91 17 7 18 9 19 89 20 10 21 3 22
REMARK SMILES IDX 2 23 1 24 20 25 21 26 22 27 23 28 24 29 25 30 86 31 26 32
REMARK SMILES IDX 85 33 27 34 28 35 29 36 79 37 30 38 84 39 78 40 80 41 31 42
REMARK SMILES IDX 83 43 77 44 76 45 32 47 64 48 44 49 63 50 45 51 48 52 62 53
REMARK SMILES IDX 81 54 46 55 47 56 61 58 82 59 49 60 33 61 34 62 42 63 35 64
REMARK SMILES IDX 36 65 40 66 43 67 37 68 38 69 41 70 39 71 65 72 66 73 74 74
REMARK SMILES IDX 67 75 68 76 72 77 75 78 69 79 70 80 73 81 71 82 50 83 51 84
REMARK SMILES IDX 59 85 52 86 53 87 57 88 60 89 54 90 55 91 58 92 56 93
REMARK H PARENT 80 46 48 57
REMARK Flexibility Score: inf
ROOT
ATOM      1  C   UNL     1       3.912   6.117  -4.541  1.00  0.00     0.275 C 
ENDROOT
BRANCH   1   2
ATOM      2  O   UNL     1       3.431   5.796  -3.219  1.00  0.00    -0.458 OA
BRANCH   2   3
ATOM      3  C   UNL     1       3.555   4.501  -2.837  1.00  0.00     0.339 C 
ATOM      4  O   UNL     1       4.005   3.585  -3.501  1.00  0.00    -0.246 OA
BRANCH   3   5
ATOM      5  C   UNL     1       3.138   4.337  -1.433  1.00  0.00     0.078 A 
ATOM      6  C   UNL     1       2.418   3.768   1.171  1.00  0.00     0.128 A 
ATOM      7  C   UNL     1       1.637   4.638   0.403  1.00  0.00     0.048 A 
ATOM      8  N   UNL     1       3.535   3.210   0.677  1.00  0.00    -0.238 NA
ATOM      9  C   UNL     1       2.008   4.945  -0.907  1.00  0.00     0.021 A 
ATOM     10  C   UNL     1       3.845   3.473  -0.611  1.00  0.00     0.129 A 
BRANCH   6  11
ATOM     11  N   UNL     1       1.909   3.285   2.369  1.00  0.00    -0.356 N 
ATOM     12  N   UNL     1       0.420  -0.824   2.530  1.00  0.00    -0.342 N 
ATOM     13  C   UNL     1      -0.963  -0.794   2.979  1.00  0.00     0.119 C 
ATOM     14  C   UNL     1       1.371  -0.032   3.172  1.00  0.00     0.230 C 
ATOM     15  C   UNL     1      -1.482   0.624   3.127  1.00  0.00     0.023 C 
ATOM     16  C   UNL     1       0.906   1.400   3.462  1.00  0.00     0.069 C 
ATOM     17  O   UNL     1       2.537  -0.388   3.329  1.00  0.00    -0.274 OA
ATOM     18  C   UNL     1      -0.530   1.436   4.002  1.00  0.00     0.021 C 
ATOM     19  C   UNL     1       1.886   2.152   4.389  1.00  0.00     0.040 C 
ATOM     20  C   UNL     1       1.014   2.154   2.118  1.00  0.00     0.135 C 
ATOM     21  C   UNL     1       2.828   2.886   3.429  1.00  0.00     0.119 C 
BRANCH  12  22
ATOM     22  C   UNL     1       0.857  -1.913   1.661  1.00  0.00     0.119 C 
BRANCH  22  23
ATOM     23  C   UNL     1       0.325  -1.775   0.227  1.00  0.00     0.018 C 
ATOM     24  C   UNL     1       0.696  -0.456  -0.441  1.00  0.00     0.006 C 
ENDBRANCH  22  23
ENDBRANCH  12  22
ENDBRANCH   6  11
ENDBRANCH   3   5
ENDBRANCH   2   3
ENDBRANCH   1   2
BRANCH   1  25
ATOM     25  C   UNL     1       5.260   6.839  -4.484  1.00  0.00     0.275 C 
BRANCH  25  26
ATOM     26  O   UNL     1       6.306   5.935  -4.078  1.00  0.00    -0.458 OA
BRANCH  26  27
ATOM     27  C   UNL     1       6.708   6.067  -2.795  1.00  0.00     0.338 C 
ATOM     28  O   UNL     1       6.316   6.877  -1.971  1.00  0.00    -0.246 OA
BRANCH  27  29
ATOM     29  C   UNL     1       7.632   4.983  -2.437  1.00  0.00     0.060 A 
ATOM     30  C   UNL     1       7.068   3.771  -2.070  1.00  0.00     0.016 A 
ATOM     31  C   UNL     1       8.992   5.201  -2.248  1.00  0.00     0.016 A 
ATOM     32  C   UNL     1       7.810   2.829  -1.371  1.00  0.00     0.010 A 
ATOM     33  C   UNL     1       9.777   4.185  -1.681  1.00  0.00     0.010 A 
ATOM     34  C   UNL     1       9.187   3.003  -1.192  1.00  0.00    -0.014 A 
BRANCH  34  35
ATOM     35  C   UNL     1       9.973   1.943  -0.495  1.00  0.00     0.031 A 
ATOM     36  C   UNL     1      10.807   2.265   0.717  1.00  0.00     0.074 A 
ATOM     37  C   UNL     1       9.917   0.669  -0.935  1.00  0.00     0.049 A 
ATOM     38  N   UNL     1      11.645   1.502   1.376  1.00  0.00    -0.248 NA
ATOM     39  C   UNL     1      10.703   3.632   1.247  1.00  0.00     0.031 C 
ATOM     40  C   UNL     1       9.133   0.205  -2.082  1.00  0.00     0.029 A 
ATOM     41  N   UNL     1      10.518  -0.475  -0.467  1.00  0.00    -0.354 N 
ATOM     42  C   UNL     1      12.208   2.309   2.357  1.00  0.00     0.074 A 
ATOM     43  C   UNL     1      11.630   3.627   2.195  1.00  0.00     0.031 C 
ATOM     44  C   UNL     1       9.258  -1.122  -2.197  1.00  0.00     0.029 A 
ATOM     45  C   UNL     1      10.216  -1.592  -1.206  1.00  0.00     0.049 A 
ATOM     46  H   UNL     1      11.108  -0.491   0.321  1.00  0.00     0.167 HD
ATOM     47  C   UNL     1      13.124   1.981   3.302  1.00  0.00     0.037 A 
ATOM     48  C   UNL     1      10.691  -2.850  -1.139  1.00  0.00     0.037 A 
ATOM     49  C   UNL     1      13.659   0.653   3.487  1.00  0.00     0.049 A 
ATOM     50  C   UNL     1      11.717  -3.188  -0.099  1.00  0.00     0.074 A 
ATOM     51  C   UNL     1      14.552   0.207   4.446  1.00  0.00     0.029 A 
ATOM     52  N   UNL     1      13.348  -0.445   2.695  1.00  0.00    -0.354 N 
ATOM     53  N   UNL     1      12.258  -2.413   0.809  1.00  0.00    -0.248 NA
ATOM     54  C   UNL     1      12.207  -4.571  -0.082  1.00  0.00     0.031 C 
ATOM     55  C   UNL     1      14.833  -1.141   4.193  1.00  0.00     0.029 A 
ATOM     56  C   UNL     1      14.062  -1.557   3.119  1.00  0.00     0.049 A 
ATOM     57  H   UNL     1      12.713  -0.436   1.942  1.00  0.00     0.167 HD
ATOM     58  C   UNL     1      13.150  -3.211   1.508  1.00  0.00     0.074 A 
ATOM     59  C   UNL     1      13.053  -4.540   0.938  1.00  0.00     0.031 C 
ATOM     60  C   UNL     1      13.979  -2.870   2.527  1.00  0.00     0.037 A 
BRANCH  47  61
ATOM     61  C   UNL     1      13.651   3.091   4.173  1.00  0.00     0.064 A 
ATOM     62  C   UNL     1      12.852   3.756   5.116  1.00  0.00     0.173 A 
ATOM     63  C   UNL     1      14.991   3.498   4.054  1.00  0.00     0.173 A 
ATOM     64  F   UNL     1      11.564   3.416   5.270  1.00  0.00    -0.203 F 
ATOM     65  C   UNL     1      13.357   4.817   5.866  1.00  0.00     0.198 A 
ATOM     66  C   UNL     1      15.503   4.532   4.833  1.00  0.00     0.198 A 
ATOM     67  F   UNL     1      15.807   2.892   3.179  1.00  0.00    -0.203 F 
ATOM     68  F   UNL     1      12.554   5.484   6.706  1.00  0.00    -0.200 F 
ATOM     69  C   UNL     1      14.682   5.201   5.727  1.00  0.00     0.200 A 
ATOM     70  F   UNL     1      16.789   4.889   4.710  1.00  0.00    -0.200 F 
ATOM     71  F   UNL     1      15.165   6.224   6.447  1.00  0.00    -0.200 F 
ENDBRANCH  47  61
BRANCH  48  72
ATOM     72  C   UNL     1      10.224  -3.854  -2.131  1.00  0.00     0.064 A 
ATOM     73  C   UNL     1       9.409  -4.928  -1.753  1.00  0.00     0.173 A 
ATOM     74  C   UNL     1      10.540  -3.721  -3.494  1.00  0.00     0.173 A 
ATOM     75  F   UNL     1       9.101  -5.113  -0.462  1.00  0.00    -0.203 F 
ATOM     76  C   UNL     1       8.924  -5.829  -2.700  1.00  0.00     0.198 A 
ATOM     77  C   UNL     1      10.025  -4.600  -4.442  1.00  0.00     0.198 A 
ATOM     78  F   UNL     1      11.315  -2.708  -3.909  1.00  0.00    -0.203 F 
ATOM     79  F   UNL     1       8.168  -6.865  -2.310  1.00  0.00    -0.200 F 
ATOM     80  C   UNL     1       9.220  -5.656  -4.044  1.00  0.00     0.200 A 
ATOM     81  F   UNL     1      10.296  -4.415  -5.741  1.00  0.00    -0.200 F 
ATOM     82  F   UNL     1       8.730  -6.507  -4.956  1.00  0.00    -0.200 F 
ENDBRANCH  48  72
BRANCH  60  83
ATOM     83  C   UNL     1      14.841  -3.963   3.092  1.00  0.00     0.064 A 
ATOM     84  C   UNL     1      15.900  -4.520   2.358  1.00  0.00     0.173 A 
ATOM     85  C   UNL     1      14.607  -4.460   4.383  1.00  0.00     0.173 A 
ATOM     86  F   UNL     1      16.156  -4.094   1.111  1.00  0.00    -0.203 F 
ATOM     87  C   UNL     1      16.666  -5.559   2.880  1.00  0.00     0.198 A 
ATOM     88  C   UNL     1      15.398  -5.474   4.916  1.00  0.00     0.198 A 
ATOM     89  F   UNL     1      13.612  -3.961   5.131  1.00  0.00    -0.203 F 
ATOM     90  F   UNL     1      17.628  -6.120   2.134  1.00  0.00    -0.200 F 
ATOM     91  C   UNL     1      16.418  -6.032   4.160  1.00  0.00     0.200 A 
ATOM     92  F   UNL     1      15.167  -5.920   6.158  1.00  0.00    -0.200 F 
ATOM     93  F   UNL     1      17.155  -7.033   4.660  1.00  0.00    -0.200 F 
ENDBRANCH  60  83
ENDBRANCH  34  35
ENDBRANCH  27  29
ENDBRANCH  26  27
ENDBRANCH  25  26
ENDBRANCH   1  25
TORSDOF 14
