REMARK SMILES Cc1ccc(C(=O)OCCOC(=O)c2ccc(-c3c4nc(c(-c5c(F)c(F)c(F)c(F)c5F)c5ccc([nH]5)c(-c5c(F)c(F)c(F)c(F)c5F)c5nc(c(-c6c(F)c(F)c(F)c(F)c6F)c6ccc3[nH]6)C=C5)C=C4)cc2)cc1N[C@H]1CCCc2cccnc21
REMARK SMILES IDX 9 1 8 2 6 3 7 4 5 5 1 6 2 7 3 8 78 9 4 10 77 11 79 12 80 14
REMARK SMILES IDX 81 15 89 16 82 17 84 18 88 19 83 20 85 21 87 22 86 23 10 24
REMARK SMILES IDX 11 25 12 26 13 27 14 28 15 29 76 30 16 31 75 32 17 33 18 34
REMARK SMILES IDX 19 35 69 36 20 37 74 38 68 39 70 40 21 41 73 42 67 43 66 44
REMARK SMILES IDX 22 46 54 47 34 48 53 49 35 50 38 51 52 52 71 53 36 54 37 55
REMARK SMILES IDX 51 57 72 58 39 59 23 60 24 61 32 62 25 63 26 64 30 65 33 66
REMARK SMILES IDX 27 67 28 68 31 69 29 70 55 71 56 72 64 73 57 74 58 75 62 76
REMARK SMILES IDX 65 77 59 78 60 79 63 80 61 81 40 82 41 83 49 84 42 85 43 86
REMARK SMILES IDX 47 87 50 88 44 89 45 90 48 91 46 92
REMARK H PARENT 79 13 70 45 38 56
REMARK Flexibility Score: inf
ROOT
ATOM      1  C   UNL     1       2.128   0.107   4.065  1.00  0.00     0.275 C 
ENDROOT
BRANCH   1   2
ATOM      2  O   UNL     1       2.929   1.176   3.543  1.00  0.00    -0.458 OA
BRANCH   2   3
ATOM      3  C   UNL     1       2.183   2.258   3.226  1.00  0.00     0.338 C 
ATOM      4  O   UNL     1       0.972   2.371   3.380  1.00  0.00    -0.246 OA
BRANCH   3   5
ATOM      5  C   UNL     1       2.903   3.261   2.434  1.00  0.00     0.062 A 
ATOM      6  C   UNL     1       3.179   6.961   0.277  1.00  0.00     0.046 C 
ATOM      7  C   UNL     1       3.092   5.622   0.958  1.00  0.00    -0.028 A 
ATOM      8  C   UNL     1       3.776   5.475   2.187  1.00  0.00     0.006 A 
ATOM      9  C   UNL     1       2.325   4.553   0.466  1.00  0.00     0.038 A 
ATOM     10  C   UNL     1       3.639   4.314   2.954  1.00  0.00     0.016 A 
ATOM     11  C   UNL     1       2.376   3.345   1.158  1.00  0.00     0.041 A 
BRANCH   9  12
ATOM     12  N   UNL     1       1.358   4.698  -0.518  1.00  0.00    -0.376 N 
ATOM     13  H   UNL     1       1.506   5.331  -1.258  1.00  0.00     0.161 HD
BRANCH  12  14
ATOM     14  C   UNL     1       0.111   3.912  -0.466  1.00  0.00     0.128 C 
ATOM     15  C   UNL     1      -0.796   4.380   0.687  1.00  0.00     0.032 C 
ATOM     16  C   UNL     1      -0.586   3.907  -1.810  1.00  0.00     0.066 A 
ATOM     17  C   UNL     1      -1.569   5.630   0.300  1.00  0.00     0.007 C 
ATOM     18  C   UNL     1      -1.796   4.575  -2.001  1.00  0.00    -0.024 A 
ATOM     19  N   UNL     1       0.010   3.159  -2.780  1.00  0.00    -0.259 NA
ATOM     20  C   UNL     1      -2.474   5.343  -0.896  1.00  0.00     0.037 C 
ATOM     21  C   UNL     1      -2.419   4.434  -3.243  1.00  0.00     0.007 A 
ATOM     22  C   UNL     1      -0.617   3.052  -3.964  1.00  0.00     0.111 A 
ATOM     23  C   UNL     1      -1.825   3.662  -4.239  1.00  0.00     0.020 A 
ENDBRANCH  12  14
ENDBRANCH   9  12
ENDBRANCH   3   5
ENDBRANCH   2   3
ENDBRANCH   1   2
BRANCH   1  24
ATOM     24  C   UNL     1       2.856  -0.731   5.119  1.00  0.00     0.275 C 
BRANCH  24  25
ATOM     25  O   UNL     1       3.836  -0.098   5.991  1.00  0.00    -0.458 OA
BRANCH  25  26
ATOM     26  C   UNL     1       3.928   1.206   6.333  1.00  0.00     0.338 C 
ATOM     27  O   UNL     1       5.003   1.769   6.518  1.00  0.00    -0.246 OA
BRANCH  26  28
ATOM     28  C   UNL     1       2.672   1.948   6.491  1.00  0.00     0.060 A 
ATOM     29  C   UNL     1       2.647   3.316   6.165  1.00  0.00     0.016 A 
ATOM     30  C   UNL     1       1.518   1.265   6.858  1.00  0.00     0.016 A 
ATOM     31  C   UNL     1       1.441   3.990   6.096  1.00  0.00     0.010 A 
ATOM     32  C   UNL     1       0.313   1.882   6.669  1.00  0.00     0.010 A 
ATOM     33  C   UNL     1       0.291   3.253   6.356  1.00  0.00    -0.014 A 
BRANCH  33  34
ATOM     34  C   UNL     1      -0.943   3.880   6.775  1.00  0.00     0.031 A 
ATOM     35  C   UNL     1      -1.994   4.170   5.795  1.00  0.00     0.074 A 
ATOM     36  C   UNL     1      -0.994   3.859   8.127  1.00  0.00     0.049 A 
ATOM     37  N   UNL     1      -2.877   5.097   5.923  1.00  0.00    -0.248 NA
ATOM     38  C   UNL     1      -2.101   3.468   4.513  1.00  0.00     0.031 C 
ATOM     39  C   UNL     1      -2.083   3.909   9.077  1.00  0.00     0.029 A 
ATOM     40  N   UNL     1       0.155   3.820   8.950  1.00  0.00    -0.354 N 
ATOM     41  C   UNL     1      -3.876   4.796   5.015  1.00  0.00     0.074 A 
ATOM     42  C   UNL     1      -3.253   3.950   4.029  1.00  0.00     0.031 C 
ATOM     43  C   UNL     1      -1.575   4.228  10.288  1.00  0.00     0.029 A 
ATOM     44  C   UNL     1      -0.155   4.525  10.108  1.00  0.00     0.049 A 
ATOM     45  H   UNL     1       1.010   3.378   8.744  1.00  0.00     0.167 HD
ATOM     46  C   UNL     1      -5.175   5.018   5.377  1.00  0.00     0.037 A 
ATOM     47  C   UNL     1       0.439   5.746  10.262  1.00  0.00     0.037 A 
ATOM     48  C   UNL     1      -5.202   5.503   6.757  1.00  0.00     0.049 A 
ATOM     49  C   UNL     1      -0.607   6.822  10.133  1.00  0.00     0.074 A 
ATOM     50  C   UNL     1      -5.371   4.808   7.945  1.00  0.00     0.029 A 
ATOM     51  N   UNL     1      -4.612   6.717   7.087  1.00  0.00    -0.354 N 
ATOM     52  N   UNL     1      -1.610   6.776   9.295  1.00  0.00    -0.248 NA
ATOM     53  C   UNL     1      -0.657   7.962  11.036  1.00  0.00     0.031 C 
ATOM     54  C   UNL     1      -4.834   5.596   8.991  1.00  0.00     0.029 A 
ATOM     55  C   UNL     1      -4.308   6.750   8.436  1.00  0.00     0.049 A 
ATOM     56  H   UNL     1      -4.436   7.449   6.452  1.00  0.00     0.167 HD
ATOM     57  C   UNL     1      -2.483   7.783   9.610  1.00  0.00     0.074 A 
ATOM     58  C   UNL     1      -1.825   8.518  10.678  1.00  0.00     0.031 C 
ATOM     59  C   UNL     1      -3.715   7.927   9.037  1.00  0.00     0.037 A 
BRANCH  46  60
ATOM     60  C   UNL     1      -6.390   4.408   4.701  1.00  0.00     0.064 A 
ATOM     61  C   UNL     1      -7.568   4.144   5.441  1.00  0.00     0.173 A 
ATOM     62  C   UNL     1      -6.462   4.048   3.342  1.00  0.00     0.173 A 
ATOM     63  F   UNL     1      -7.702   4.537   6.714  1.00  0.00    -0.203 F 
ATOM     64  C   UNL     1      -8.668   3.473   4.903  1.00  0.00     0.198 A 
ATOM     65  C   UNL     1      -7.557   3.352   2.808  1.00  0.00     0.198 A 
ATOM     66  F   UNL     1      -5.500   4.398   2.478  1.00  0.00    -0.203 F 
ATOM     67  F   UNL     1      -9.741   3.236   5.672  1.00  0.00    -0.200 F 
ATOM     68  C   UNL     1      -8.654   3.053   3.592  1.00  0.00     0.200 A 
ATOM     69  F   UNL     1      -7.545   2.978   1.520  1.00  0.00    -0.200 F 
ATOM     70  F   UNL     1      -9.701   2.391   3.082  1.00  0.00    -0.200 F 
ENDBRANCH  46  60
BRANCH  47  71
ATOM     71  C   UNL     1       1.842   5.823   9.723  1.00  0.00     0.064 A 
ATOM     72  C   UNL     1       2.790   4.864  10.156  1.00  0.00     0.173 A 
ATOM     73  C   UNL     1       2.210   6.610   8.624  1.00  0.00     0.173 A 
ATOM     74  F   UNL     1       2.512   4.075  11.207  1.00  0.00    -0.203 F 
ATOM     75  C   UNL     1       3.985   4.637   9.470  1.00  0.00     0.198 A 
ATOM     76  C   UNL     1       3.420   6.392   7.948  1.00  0.00     0.198 A 
ATOM     77  F   UNL     1       1.377   7.544   8.146  1.00  0.00    -0.203 F 
ATOM     78  F   UNL     1       4.799   3.643   9.855  1.00  0.00    -0.200 F 
ATOM     79  C   UNL     1       4.294   5.394   8.357  1.00  0.00     0.200 A 
ATOM     80  F   UNL     1       3.706   7.098   6.844  1.00  0.00    -0.200 F 
ATOM     81  F   UNL     1       5.400   5.133   7.645  1.00  0.00    -0.200 F 
ENDBRANCH  47  71
BRANCH  59  82
ATOM     82  C   UNL     1      -4.551   9.174   9.106  1.00  0.00     0.064 A 
ATOM     83  C   UNL     1      -3.998  10.455   9.236  1.00  0.00     0.173 A 
ATOM     84  C   UNL     1      -5.944   9.124   8.853  1.00  0.00     0.173 A 
ATOM     85  F   UNL     1      -2.675  10.638   9.345  1.00  0.00    -0.203 F 
ATOM     86  C   UNL     1      -4.789  11.601   9.194  1.00  0.00     0.198 A 
ATOM     87  C   UNL     1      -6.715  10.274   8.733  1.00  0.00     0.198 A 
ATOM     88  F   UNL     1      -6.594   7.964   8.678  1.00  0.00    -0.203 F 
ATOM     89  F   UNL     1      -4.222  12.800   9.383  1.00  0.00    -0.200 F 
ATOM     90  C   UNL     1      -6.142  11.512   8.927  1.00  0.00     0.200 A 
ATOM     91  F   UNL     1      -8.011  10.172   8.404  1.00  0.00    -0.200 F 
ATOM     92  F   UNL     1      -6.887  12.620   8.833  1.00  0.00    -0.200 F 
ENDBRANCH  59  82
ENDBRANCH  33  34
ENDBRANCH  26  28
ENDBRANCH  25  26
ENDBRANCH  24  25
ENDBRANCH   1  24
TORSDOF 13
