REMARK SMILES COc1ccc2c(c1)c(CC(=O)OCCOC(=O)c1ccc(-c3c4nc(c(-c5c(F)c(F)c(F)c(F)c5F)c5ccc([nH]5)c(-c5c(F)c(F)c(F)c(F)c5F)c5nc(c(-c6c(F)c(F)c(F)c(F)c6F)c6ccc3[nH]6)C=C5)C=C4)cc1)c(C(F)(F)F)n2C(=O)c1ccc(Cl)cc1
REMARK SMILES IDX 14 1 13 2 11 3 12 4 10 5 9 6 3 7 4 8 8 9 5 10 7 11 6 12
REMARK SMILES IDX 87 13 82 14 2 15 1 16 88 17 89 18 90 19 91 20 96 21 92 22
REMARK SMILES IDX 95 23 93 24 94 25 83 26 84 27 85 28 86 29 15 30 16 31 17 32
REMARK SMILES IDX 18 33 19 34 20 35 81 36 21 37 80 38 22 39 23 40 24 41 74 42
REMARK SMILES IDX 25 43 79 44 73 45 75 46 26 47 78 48 72 49 71 50 27 52 59 53
REMARK SMILES IDX 39 54 58 55 40 56 43 57 57 58 76 59 41 60 42 61 56 63 77 64
REMARK SMILES IDX 44 65 28 66 29 67 37 68 30 69 31 70 35 71 38 72 32 73 33 74
REMARK SMILES IDX 36 75 34 76 60 77 61 78 69 79 62 80 63 81 67 82 70 83 64 84
REMARK SMILES IDX 65 85 68 86 66 87 45 88 46 89 54 90 47 91 48 92 52 93 55 94
REMARK SMILES IDX 49 95 50 96 53 97 51 98
REMARK H PARENT 75 51 43 62
REMARK Flexibility Score: inf
ROOT
ATOM      1  C   UNL     1      -1.972  -6.636  -2.192  1.00  0.00     0.274 C 
ENDROOT
BRANCH   1   2
ATOM      2  O   UNL     1      -1.374  -5.675  -3.091  1.00  0.00    -0.462 OA
BRANCH   2   3
ATOM      3  C   UNL     1      -2.227  -5.116  -3.980  1.00  0.00     0.310 C 
ATOM      4  O   UNL     1      -3.429  -5.366  -4.035  1.00  0.00    -0.252 OA
BRANCH   3   5
ATOM      5  C   UNL     1      -1.592  -4.225  -5.005  1.00  0.00     0.161 C 
BRANCH   5   6
ATOM      6  C   UNL     1      -0.155  -3.781  -4.924  1.00  0.00     0.002 A 
ATOM      7  C   UNL     1       1.091  -1.738  -1.897  1.00  0.00     0.119 A 
ATOM      8  C   UNL     1       2.285  -1.345  -2.468  1.00  0.00     0.048 A 
ATOM      9  C   UNL     1       0.264  -2.641  -2.583  1.00  0.00     0.057 A 
ATOM     10  C   UNL     1       2.649  -1.816  -3.731  1.00  0.00     0.031 A 
ATOM     11  C   UNL     1       0.555  -3.069  -3.901  1.00  0.00     0.008 A 
ATOM     12  C   UNL     1       1.790  -2.686  -4.439  1.00  0.00     0.057 A 
ATOM     13  N   UNL     1       1.940  -3.365  -5.656  1.00  0.00    -0.271 N 
ATOM     14  C   UNL     1       0.679  -3.788  -6.044  1.00  0.00     0.135 A 
BRANCH   7  15
ATOM     15  O   UNL     1       0.644  -1.316  -0.673  1.00  0.00    -0.497 OA
ATOM     16  C   UNL     1       1.107  -0.037  -0.240  1.00  0.00     0.278 C 
ENDBRANCH   7  15
BRANCH  13  17
ATOM     17  C   UNL     1       3.156  -3.610  -6.341  1.00  0.00     0.262 C 
ATOM     18  O   UNL     1       3.136  -4.322  -7.338  1.00  0.00    -0.268 OA
BRANCH  17  19
ATOM     19  C   UNL     1       4.468  -3.145  -5.878  1.00  0.00     0.040 A 
ATOM     20  C   UNL     1       5.062  -3.774  -4.778  1.00  0.00     0.015 A 
ATOM     21  C   UNL     1       5.053  -2.029  -6.481  1.00  0.00     0.015 A 
ATOM     22  C   UNL     1       6.232  -3.241  -4.241  1.00  0.00     0.021 A 
ATOM     23  C   UNL     1       6.227  -1.504  -5.939  1.00  0.00     0.021 A 
ATOM     24  C   UNL     1       6.803  -2.104  -4.816  1.00  0.00     0.041 A 
ATOM     25  Cl  UNL     1       8.216  -1.418  -4.115  1.00  0.00    -0.084 Cl
ENDBRANCH  17  19
ENDBRANCH  13  17
BRANCH  14  26
ATOM     26  C   UNL     1       0.328  -4.196  -7.439  1.00  0.00     0.432 C 
ATOM     27  F   UNL     1       0.292  -5.544  -7.566  1.00  0.00    -0.165 F 
ATOM     28  F   UNL     1      -0.930  -3.757  -7.742  1.00  0.00    -0.165 F 
ATOM     29  F   UNL     1       1.108  -3.682  -8.414  1.00  0.00    -0.165 F 
ENDBRANCH  14  26
ENDBRANCH   5   6
ENDBRANCH   3   5
ENDBRANCH   2   3
ENDBRANCH   1   2
BRANCH   1  30
ATOM     30  C   UNL     1      -2.233  -6.010  -0.819  1.00  0.00     0.275 C 
BRANCH  30  31
ATOM     31  O   UNL     1      -3.324  -5.082  -0.932  1.00  0.00    -0.458 OA
BRANCH  31  32
ATOM     32  C   UNL     1      -3.049  -3.771  -0.728  1.00  0.00     0.338 C 
ATOM     33  O   UNL     1      -2.106  -3.296  -0.119  1.00  0.00    -0.246 OA
BRANCH  32  34
ATOM     34  C   UNL     1      -3.892  -3.039  -1.694  1.00  0.00     0.060 A 
ATOM     35  C   UNL     1      -5.222  -3.409  -1.889  1.00  0.00     0.016 A 
ATOM     36  C   UNL     1      -3.248  -2.185  -2.594  1.00  0.00     0.016 A 
ATOM     37  C   UNL     1      -5.843  -3.063  -3.081  1.00  0.00     0.010 A 
ATOM     38  C   UNL     1      -3.848  -1.887  -3.805  1.00  0.00     0.010 A 
ATOM     39  C   UNL     1      -5.118  -2.383  -4.072  1.00  0.00    -0.014 A 
BRANCH  39  40
ATOM     40  C   UNL     1      -5.804  -1.984  -5.287  1.00  0.00     0.031 A 
ATOM     41  C   UNL     1      -6.560  -0.727  -5.119  1.00  0.00     0.074 A 
ATOM     42  C   UNL     1      -5.778  -2.563  -6.500  1.00  0.00     0.049 A 
ATOM     43  N   UNL     1      -7.830  -0.613  -4.923  1.00  0.00    -0.248 NA
ATOM     44  C   UNL     1      -5.809   0.528  -5.021  1.00  0.00     0.031 C 
ATOM     45  C   UNL     1      -4.908  -3.600  -7.045  1.00  0.00     0.029 A 
ATOM     46  N   UNL     1      -6.604  -2.267  -7.546  1.00  0.00    -0.354 N 
ATOM     47  C   UNL     1      -8.076   0.746  -4.803  1.00  0.00     0.074 A 
ATOM     48  C   UNL     1      -6.787   1.386  -4.729  1.00  0.00     0.031 C 
ATOM     49  C   UNL     1      -5.152  -3.738  -8.373  1.00  0.00     0.029 A 
ATOM     50  C   UNL     1      -6.310  -2.928  -8.725  1.00  0.00     0.049 A 
ATOM     51  H   UNL     1      -7.351  -1.631  -7.467  1.00  0.00     0.167 HD
ATOM     52  C   UNL     1      -9.332   1.245  -4.950  1.00  0.00     0.037 A 
ATOM     53  C   UNL     1      -6.991  -2.813  -9.891  1.00  0.00     0.037 A 
ATOM     54  C   UNL     1     -10.325   0.204  -4.831  1.00  0.00     0.049 A 
ATOM     55  C   UNL     1      -8.361  -2.339  -9.562  1.00  0.00     0.074 A 
ATOM     56  C   UNL     1     -10.669  -0.687  -3.830  1.00  0.00     0.029 A 
ATOM     57  N   UNL     1     -10.881  -0.309  -5.978  1.00  0.00    -0.354 N 
ATOM     58  N   UNL     1      -9.256  -3.060  -8.946  1.00  0.00    -0.248 NA
ATOM     59  C   UNL     1      -8.617  -0.907  -9.573  1.00  0.00     0.031 C 
ATOM     60  C   UNL     1     -10.967  -1.909  -4.505  1.00  0.00     0.029 A 
ATOM     61  C   UNL     1     -10.824  -1.677  -5.873  1.00  0.00     0.049 A 
ATOM     62  H   UNL     1     -11.251   0.206  -6.731  1.00  0.00     0.167 HD
ATOM     63  C   UNL     1      -9.946  -2.163  -8.146  1.00  0.00     0.074 A 
ATOM     64  C   UNL     1      -9.582  -0.844  -8.653  1.00  0.00     0.031 C 
ATOM     65  C   UNL     1     -10.535  -2.561  -6.980  1.00  0.00     0.037 A 
BRANCH  52  66
ATOM     66  C   UNL     1      -9.641   2.613  -5.494  1.00  0.00     0.064 A 
ATOM     67  C   UNL     1     -10.971   3.076  -5.471  1.00  0.00     0.173 A 
ATOM     68  C   UNL     1      -8.746   3.376  -6.276  1.00  0.00     0.173 A 
ATOM     69  F   UNL     1     -11.913   2.420  -4.776  1.00  0.00    -0.203 F 
ATOM     70  C   UNL     1     -11.384   4.173  -6.230  1.00  0.00     0.198 A 
ATOM     71  C   UNL     1      -9.150   4.504  -6.986  1.00  0.00     0.198 A 
ATOM     72  F   UNL     1      -7.476   3.006  -6.476  1.00  0.00    -0.203 F 
ATOM     73  F   UNL     1     -12.683   4.499  -6.273  1.00  0.00    -0.200 F 
ATOM     74  C   UNL     1     -10.475   4.884  -6.990  1.00  0.00     0.200 A 
ATOM     75  F   UNL     1      -8.254   5.170  -7.728  1.00  0.00    -0.200 F 
ATOM     76  F   UNL     1     -10.878   5.899  -7.764  1.00  0.00    -0.200 F 
ENDBRANCH  52  66
BRANCH  53  77
ATOM     77  C   UNL     1      -6.501  -2.877 -11.284  1.00  0.00     0.064 A 
ATOM     78  C   UNL     1      -7.380  -3.088 -12.359  1.00  0.00     0.173 A 
ATOM     79  C   UNL     1      -5.208  -2.426 -11.607  1.00  0.00     0.173 A 
ATOM     80  F   UNL     1      -8.643  -3.476 -12.133  1.00  0.00    -0.203 F 
ATOM     81  C   UNL     1      -6.998  -2.829 -13.679  1.00  0.00     0.198 A 
ATOM     82  C   UNL     1      -4.827  -2.170 -12.925  1.00  0.00     0.198 A 
ATOM     83  F   UNL     1      -4.328  -2.127 -10.640  1.00  0.00    -0.203 F 
ATOM     84  F   UNL     1      -7.885  -2.975 -14.673  1.00  0.00    -0.200 F 
ATOM     85  C   UNL     1      -5.726  -2.357 -13.959  1.00  0.00     0.200 A 
ATOM     86  F   UNL     1      -3.608  -1.674 -13.181  1.00  0.00    -0.200 F 
ATOM     87  F   UNL     1      -5.383  -2.040 -15.215  1.00  0.00    -0.200 F 
ENDBRANCH  53  77
BRANCH  65  88
ATOM     88  C   UNL     1     -10.643  -4.039  -6.719  1.00  0.00     0.064 A 
ATOM     89  C   UNL     1      -9.533  -4.892  -6.583  1.00  0.00     0.173 A 
ATOM     90  C   UNL     1     -11.907  -4.583  -6.451  1.00  0.00     0.173 A 
ATOM     91  F   UNL     1      -8.286  -4.428  -6.724  1.00  0.00    -0.203 F 
ATOM     92  C   UNL     1      -9.688  -6.234  -6.236  1.00  0.00     0.198 A 
ATOM     93  C   UNL     1     -12.056  -5.914  -6.068  1.00  0.00     0.198 A 
ATOM     94  F   UNL     1     -13.000  -3.806  -6.513  1.00  0.00    -0.203 F 
ATOM     95  F   UNL     1      -8.613  -7.028  -6.123  1.00  0.00    -0.200 F 
ATOM     96  C   UNL     1     -10.948  -6.741  -5.970  1.00  0.00     0.200 A 
ATOM     97  F   UNL     1     -13.272  -6.388  -5.764  1.00  0.00    -0.200 F 
ATOM     98  F   UNL     1     -11.094  -8.018  -5.590  1.00  0.00    -0.200 F 
ENDBRANCH  65  88
ENDBRANCH  39  40
ENDBRANCH  32  34
ENDBRANCH  31  32
ENDBRANCH  30  31
ENDBRANCH   1  30
TORSDOF 16
