REMARK SMILES COC(=O)C1=C(C)N(c2ccc(Br)cc2)C(=O)/C1=C\c1ccc(C(=O)OCCOC(=O)c2ccc(-c3c4nc(c(-c5c(F)c(F)c(F)c(F)c5F)c5ccc([nH]5)c(-c5c(F)c(F)c(F)c(F)c5F)c5nc(c(-c6c(F)c(F)c(F)c(F)c6F)c6ccc3[nH]6)C=C5)C=C4)cc2)cc1
REMARK SMILES IDX 27 1 26 2 24 3 25 4 23 5 20 6 21 7 96 8 22 9 95 10 19 11
REMARK SMILES IDX 5 12 6 13 18 14 7 15 8 16 16 17 17 18 3 19 4 20 2 21 1 22
REMARK SMILES IDX 9 23 10 24 15 25 11 26 14 27 12 28 13 29 28 30 29 31 30 32
REMARK SMILES IDX 31 33 32 34 33 35 94 36 34 37 93 38 35 39 36 40 37 41 87 42
REMARK SMILES IDX 38 43 92 44 86 45 88 46 39 47 91 48 85 49 84 50 40 52 72 53
REMARK SMILES IDX 52 54 71 55 53 56 56 57 70 58 89 59 54 60 55 61 69 63 90 64
REMARK SMILES IDX 57 65 41 66 42 67 50 68 43 69 44 70 48 71 51 72 45 73 46 74
REMARK SMILES IDX 49 75 47 76 73 77 74 78 82 79 75 80 76 81 80 82 83 83 77 84
REMARK SMILES IDX 78 85 81 86 79 87 58 88 59 89 67 90 60 91 61 92 65 93 68 94
REMARK SMILES IDX 62 95 63 96 66 97 64 98
REMARK H PARENT 88 51 56 62
REMARK Flexibility Score: inf
ROOT
ATOM      1  C   UNL     1       5.672 -11.936  -1.928  1.00  0.00     0.275 C 
ENDROOT
BRANCH   1   2
ATOM      2  O   UNL     1       5.051 -10.635  -1.978  1.00  0.00    -0.458 OA
BRANCH   2   3
ATOM      3  C   UNL     1       4.560 -10.172  -0.802  1.00  0.00     0.338 C 
ATOM      4  O   UNL     1       4.582 -10.752   0.272  1.00  0.00    -0.246 OA
BRANCH   3   5
ATOM      5  C   UNL     1       4.056  -8.787  -0.953  1.00  0.00     0.060 A 
ATOM      6  C   UNL     1       2.949  -6.223  -1.060  1.00  0.00    -0.025 A 
ATOM      7  C   UNL     1       3.733  -6.589   0.031  1.00  0.00     0.009 A 
ATOM      8  C   UNL     1       2.755  -7.122  -2.118  1.00  0.00     0.009 A 
ATOM      9  C   UNL     1       4.254  -7.878   0.095  1.00  0.00     0.016 A 
ATOM     10  C   UNL     1       3.318  -8.401  -2.073  1.00  0.00     0.016 A 
BRANCH   6  11
ATOM     11  C   UNL     1       2.227  -4.955  -1.018  1.00  0.00     0.023 C 
ATOM     12  C   UNL     1       0.160  -3.642  -0.467  1.00  0.00     0.092 C 
ATOM     13  C   UNL     1      -1.051  -3.973   0.035  1.00  0.00     0.039 C 
ATOM     14  C   UNL     1       0.968  -4.843  -0.561  1.00  0.00     0.057 C 
ATOM     15  C   UNL     1      -2.150  -3.007   0.340  1.00  0.00     0.066 C 
ATOM     16  N   UNL     1      -1.096  -5.338   0.332  1.00  0.00    -0.280 N 
ATOM     17  C   UNL     1       0.126  -5.962  -0.010  1.00  0.00     0.263 C 
ATOM     18  O   UNL     1       0.442  -7.132   0.087  1.00  0.00    -0.268 OA
BRANCH  12  19
ATOM     19  C   UNL     1       0.653  -2.295  -0.810  1.00  0.00     0.340 C 
ATOM     20  O   UNL     1       1.356  -2.052  -1.779  1.00  0.00    -0.246 OA
BRANCH  19  21
ATOM     21  O   UNL     1       0.293  -1.405   0.148  1.00  0.00    -0.465 OA
ATOM     22  C   UNL     1       0.826  -0.093  -0.045  1.00  0.00     0.282 C 
ENDBRANCH  19  21
ENDBRANCH  12  19
BRANCH  16  23
ATOM     23  C   UNL     1      -2.132  -6.088   0.953  1.00  0.00     0.049 A 
ATOM     24  C   UNL     1      -1.812  -6.995   1.977  1.00  0.00     0.028 A 
ATOM     25  C   UNL     1      -3.473  -5.952   0.578  1.00  0.00     0.028 A 
ATOM     26  C   UNL     1      -2.811  -7.699   2.654  1.00  0.00     0.018 A 
ATOM     27  C   UNL     1      -4.476  -6.665   1.245  1.00  0.00     0.018 A 
ATOM     28  C   UNL     1      -4.141  -7.523   2.291  1.00  0.00     0.018 A 
ATOM     29  Br  UNL     1      -5.498  -8.452   3.221  1.00  0.00    -0.051 Br
ENDBRANCH  16  23
ENDBRANCH   6  11
ENDBRANCH   3   5
ENDBRANCH   2   3
ENDBRANCH   1   2
BRANCH   1  30
ATOM     30  C   UNL     1       7.197 -11.823  -1.914  1.00  0.00     0.275 C 
BRANCH  30  31
ATOM     31  O   UNL     1       7.652 -11.246  -0.676  1.00  0.00    -0.458 OA
BRANCH  31  32
ATOM     32  C   UNL     1       8.060  -9.960  -0.755  1.00  0.00     0.338 C 
ATOM     33  O   UNL     1       8.133  -9.255  -1.747  1.00  0.00    -0.246 OA
BRANCH  32  34
ATOM     34  C   UNL     1       8.367  -9.455   0.590  1.00  0.00     0.060 A 
ATOM     35  C   UNL     1       7.309  -9.146   1.433  1.00  0.00     0.016 A 
ATOM     36  C   UNL     1       9.670  -9.136   0.960  1.00  0.00     0.016 A 
ATOM     37  C   UNL     1       7.520  -8.408   2.590  1.00  0.00     0.010 A 
ATOM     38  C   UNL     1       9.897  -8.524   2.199  1.00  0.00     0.010 A 
ATOM     39  C   UNL     1       8.822  -8.129   3.018  1.00  0.00    -0.014 A 
BRANCH  39  40
ATOM     40  C   UNL     1       9.054  -7.460   4.329  1.00  0.00     0.031 A 
ATOM     41  C   UNL     1       9.866  -6.197   4.410  1.00  0.00     0.074 A 
ATOM     42  C   UNL     1       8.541  -7.996   5.456  1.00  0.00     0.049 A 
ATOM     43  N   UNL     1      10.352  -5.587   5.463  1.00  0.00    -0.248 NA
ATOM     44  C   UNL     1      10.186  -5.536   3.135  1.00  0.00     0.031 C 
ATOM     45  C   UNL     1       7.681  -9.181   5.519  1.00  0.00     0.029 A 
ATOM     46  N   UNL     1       8.666  -7.616   6.770  1.00  0.00    -0.354 N 
ATOM     47  C   UNL     1      11.074  -4.504   4.976  1.00  0.00     0.074 A 
ATOM     48  C   UNL     1      10.975  -4.548   3.533  1.00  0.00     0.031 C 
ATOM     49  C   UNL     1       7.324  -9.405   6.790  1.00  0.00     0.029 A 
ATOM     50  C   UNL     1       8.023  -8.458   7.646  1.00  0.00     0.049 A 
ATOM     51  H   UNL     1       9.168  -6.819   7.057  1.00  0.00     0.167 HD
ATOM     52  C   UNL     1      11.757  -3.564   5.675  1.00  0.00     0.037 A 
ATOM     53  C   UNL     1       8.040  -8.508   8.990  1.00  0.00     0.037 A 
ATOM     54  C   UNL     1      11.824  -3.522   7.115  1.00  0.00     0.049 A 
ATOM     55  C   UNL     1       8.892  -7.525   9.738  1.00  0.00     0.074 A 
ATOM     56  C   UNL     1      12.478  -2.609   7.924  1.00  0.00     0.029 A 
ATOM     57  N   UNL     1      11.212  -4.437   7.961  1.00  0.00    -0.354 N 
ATOM     58  N   UNL     1       9.605  -6.528   9.274  1.00  0.00    -0.248 NA
ATOM     59  C   UNL     1       8.964  -7.690  11.195  1.00  0.00     0.031 C 
ATOM     60  C   UNL     1      12.311  -3.006   9.256  1.00  0.00     0.029 A 
ATOM     61  C   UNL     1      11.502  -4.130   9.282  1.00  0.00     0.049 A 
ATOM     62  H   UNL     1      10.654  -5.193   7.667  1.00  0.00     0.167 HD
ATOM     63  C   UNL     1      10.195  -5.934  10.380  1.00  0.00     0.074 A 
ATOM     64  C   UNL     1       9.741  -6.673  11.541  1.00  0.00     0.031 C 
ATOM     65  C   UNL     1      11.038  -4.875  10.427  1.00  0.00     0.037 A 
BRANCH  52  66
ATOM     66  C   UNL     1      12.523  -2.534   4.892  1.00  0.00     0.064 A 
ATOM     67  C   UNL     1      11.883  -1.547   4.128  1.00  0.00     0.173 A 
ATOM     68  C   UNL     1      13.928  -2.528   4.915  1.00  0.00     0.173 A 
ATOM     69  F   UNL     1      10.543  -1.507   4.062  1.00  0.00    -0.203 F 
ATOM     70  C   UNL     1      12.616  -0.624   3.384  1.00  0.00     0.198 A 
ATOM     71  C   UNL     1      14.658  -1.582   4.200  1.00  0.00     0.198 A 
ATOM     72  F   UNL     1      14.596  -3.441   5.638  1.00  0.00    -0.203 F 
ATOM     73  F   UNL     1      11.980   0.269   2.612  1.00  0.00    -0.200 F 
ATOM     74  C   UNL     1      14.002  -0.639   3.425  1.00  0.00     0.200 A 
ATOM     75  F   UNL     1      15.997  -1.589   4.255  1.00  0.00    -0.200 F 
ATOM     76  F   UNL     1      14.706   0.249   2.709  1.00  0.00    -0.200 F 
ENDBRANCH  52  66
BRANCH  53  77
ATOM     77  C   UNL     1       7.262  -9.556   9.704  1.00  0.00     0.064 A 
ATOM     78  C   UNL     1       6.167  -9.212  10.506  1.00  0.00     0.173 A 
ATOM     79  C   UNL     1       7.580 -10.918   9.585  1.00  0.00     0.173 A 
ATOM     80  F   UNL     1       5.837  -7.922  10.671  1.00  0.00    -0.203 F 
ATOM     81  C   UNL     1       5.423 -10.188  11.166  1.00  0.00     0.198 A 
ATOM     82  C   UNL     1       6.815 -11.896  10.217  1.00  0.00     0.198 A 
ATOM     83  F   UNL     1       8.620 -11.303   8.831  1.00  0.00    -0.203 F 
ATOM     84  F   UNL     1       4.404  -9.828  11.958  1.00  0.00    -0.200 F 
ATOM     85  C   UNL     1       5.741 -11.529  11.013  1.00  0.00     0.200 A 
ATOM     86  F   UNL     1       7.116 -13.191  10.051  1.00  0.00    -0.200 F 
ATOM     87  F   UNL     1       5.017 -12.467  11.638  1.00  0.00    -0.200 F 
ENDBRANCH  53  77
BRANCH  65  88
ATOM     88  C   UNL     1      11.498  -4.428  11.784  1.00  0.00     0.064 A 
ATOM     89  C   UNL     1      12.418  -5.177  12.532  1.00  0.00     0.173 A 
ATOM     90  C   UNL     1      11.046  -3.213  12.321  1.00  0.00     0.173 A 
ATOM     91  F   UNL     1      12.863  -6.355  12.072  1.00  0.00    -0.203 F 
ATOM     92  C   UNL     1      12.854  -4.734  13.778  1.00  0.00     0.198 A 
ATOM     93  C   UNL     1      11.508  -2.758  13.552  1.00  0.00     0.198 A 
ATOM     94  F   UNL     1      10.166  -2.460  11.643  1.00  0.00    -0.203 F 
ATOM     95  F   UNL     1      13.698  -5.486  14.497  1.00  0.00    -0.200 F 
ATOM     96  C   UNL     1      12.407  -3.521  14.282  1.00  0.00     0.200 A 
ATOM     97  F   UNL     1      11.086  -1.579  14.030  1.00  0.00    -0.200 F 
ATOM     98  F   UNL     1      12.839  -3.089  15.475  1.00  0.00    -0.200 F 
ENDBRANCH  65  88
ENDBRANCH  39  40
ENDBRANCH  32  34
ENDBRANCH  31  32
ENDBRANCH  30  31
ENDBRANCH   1  30
TORSDOF 15
