REMARK SMILES Cc1cccc(CNC(=O)N[C@@H](CC2=c3ccccc3=NC2)C(=O)OCCOC(=O)c2ccc(-c3c4nc(c(-c5c(F)c(F)c(F)c(F)c5F)c5ccc([nH]5)c(-c5c(F)c(F)c(F)c(F)c5F)c5nc(c(-c6c(F)c(F)c(F)c(F)c6F)c6ccc3[nH]6)C=C5)C=C4)cc2)c1
REMARK SMILES IDX 26 1 25 2 23 3 24 4 12 5 11 6 8 7 9 8 10 10 7 12 6 13 1 14
REMARK SMILES IDX 2 15 3 16 94 17 4 18 5 19 13 20 14 21 15 22 22 23 16 24
REMARK SMILES IDX 20 25 21 26 17 27 19 28 18 29 27 30 28 31 29 32 30 33 31 34
REMARK SMILES IDX 32 35 93 36 33 37 92 38 34 39 35 40 36 41 86 42 37 43 91 44
REMARK SMILES IDX 85 45 87 46 38 47 90 48 84 49 83 50 39 52 71 53 51 54 70 55
REMARK SMILES IDX 52 56 55 57 69 58 88 59 53 60 54 61 68 63 89 64 56 65 40 66
REMARK SMILES IDX 41 67 49 68 42 69 43 70 47 71 50 72 44 73 45 74 48 75 46 76
REMARK SMILES IDX 72 77 73 78 81 79 74 80 75 81 79 82 82 83 76 84 77 85 80 86
REMARK SMILES IDX 78 87 57 88 58 89 66 90 59 91 60 92 64 93 67 94 61 95 62 96
REMARK SMILES IDX 65 97 63 98
REMARK H PARENT 8 9 11 11 87 51 55 62
REMARK Flexibility Score: inf
ROOT
ATOM      1  C   UNL     1      -5.351  -1.303   4.061  1.00  0.00     0.274 C 
ENDROOT
BRANCH   1   2
ATOM      2  O   UNL     1      -5.356   0.126   3.861  1.00  0.00    -0.461 OA
BRANCH   2   3
ATOM      3  C   UNL     1      -4.256   0.716   3.091  1.00  0.00     0.329 C 
ATOM      4  O   UNL     1      -3.274  -0.042   3.387  1.00  0.00    -0.250 OA
BRANCH   3   5
ATOM      5  C   UNL     1      -4.486   2.345   1.650  1.00  0.00     0.198 C 
BRANCH   5   6
ATOM      6  N   UNL     1      -4.687   2.287  -0.009  1.00  0.00    -0.324 N 
ATOM      7  N   UNL     1      -2.776   2.813  -1.352  1.00  0.00    -0.334 N 
ATOM      8  C   UNL     1      -4.069   2.601  -1.144  1.00  0.00     0.315 C 
ATOM      9  H   UNL     1      -2.624   3.130  -2.272  1.00  0.00     0.165 HD
ATOM     10  O   UNL     1      -4.803   2.698  -2.134  1.00  0.00    -0.249 OA
ATOM     11  H   UNL     1      -5.561   1.883  -0.216  1.00  0.00     0.166 HD
BRANCH   7  12
ATOM     12  C   UNL     1      -1.519   2.719  -0.635  1.00  0.00     0.153 C 
BRANCH  12  13
ATOM     13  C   UNL     1      -0.757   1.421  -0.855  1.00  0.00    -0.028 A 
ATOM     14  C   UNL     1       2.721   0.032  -0.029  1.00  0.00     0.044 C 
ATOM     15  C   UNL     1       1.297   0.126  -0.496  1.00  0.00    -0.051 A 
ATOM     16  C   UNL     1       0.625  -1.037  -0.885  1.00  0.00     0.003 A 
ATOM     17  C   UNL     1       0.598   1.345  -0.477  1.00  0.00     0.009 A 
ATOM     18  C   UNL     1      -0.706  -0.976  -1.290  1.00  0.00     0.001 A 
ATOM     19  C   UNL     1      -1.383   0.245  -1.301  1.00  0.00     0.005 A 
ENDBRANCH  12  13
ENDBRANCH   7  12
ENDBRANCH   5   6
BRANCH   5  20
ATOM     20  C   UNL     1      -5.407   3.928   1.701  1.00  0.00     0.070 C 
BRANCH  20  21
ATOM     21  C   UNL     1      -6.911   4.196   1.875  1.00  0.00    -0.037 C 
ATOM     22  C   UNL     1      -8.026   3.470   1.739  1.00  0.00     0.001 A 
ATOM     23  C   UNL     1      -7.303   5.514   2.515  1.00  0.00     0.174 C 
ATOM     24  C   UNL     1      -8.428   2.244   1.128  1.00  0.00     0.010 A 
ATOM     25  C   UNL     1      -8.867   4.062   2.808  1.00  0.00     0.065 A 
ATOM     26  N   UNL     1      -8.554   5.241   3.247  1.00  0.00    -0.280 NA
ATOM     27  C   UNL     1      -9.394   1.505   1.700  1.00  0.00     0.001 A 
ATOM     28  C   UNL     1      -9.883   3.173   3.420  1.00  0.00     0.028 A 
ATOM     29  C   UNL     1     -10.050   1.938   2.919  1.00  0.00     0.002 A 
ENDBRANCH  20  21
ENDBRANCH   5  20
ENDBRANCH   3   5
ENDBRANCH   2   3
ENDBRANCH   1   2
BRANCH   1  30
ATOM     30  C   UNL     1      -5.772  -2.012   2.766  1.00  0.00     0.275 C 
BRANCH  30  31
ATOM     31  O   UNL     1      -4.754  -2.023   1.727  1.00  0.00    -0.458 OA
BRANCH  31  32
ATOM     32  C   UNL     1      -4.758  -1.142   0.689  1.00  0.00     0.338 C 
ATOM     33  O   UNL     1      -4.661  -1.450  -0.486  1.00  0.00    -0.246 OA
BRANCH  32  34
ATOM     34  C   UNL     1      -4.609   0.253   1.129  1.00  0.00     0.060 A 
ATOM     35  C   UNL     1      -2.951   0.870   1.471  1.00  0.00     0.016 A 
ATOM     36  C   UNL     1      -6.002   0.984   1.974  1.00  0.00     0.016 A 
ATOM     37  C   UNL     1      -2.663   2.056   2.816  1.00  0.00     0.010 A 
ATOM     38  C   UNL     1      -5.719   2.172   3.316  1.00  0.00     0.010 A 
ATOM     39  C   UNL     1      -4.047   2.662   3.754  1.00  0.00    -0.014 A 
BRANCH  39  40
ATOM     40  C   UNL     1      -4.009   2.951   5.194  1.00  0.00     0.031 A 
ATOM     41  C   UNL     1      -4.766   4.111   5.678  1.00  0.00     0.074 A 
ATOM     42  C   UNL     1      -3.713   1.920   6.013  1.00  0.00     0.049 A 
ATOM     43  N   UNL     1      -5.707   4.071   6.560  1.00  0.00    -0.248 NA
ATOM     44  C   UNL     1      -4.504   5.437   5.117  1.00  0.00     0.031 C 
ATOM     45  C   UNL     1      -4.147   1.683   7.383  1.00  0.00     0.029 A 
ATOM     46  N   UNL     1      -2.839   0.875   5.771  1.00  0.00    -0.354 N 
ATOM     47  C   UNL     1      -6.080   5.371   6.800  1.00  0.00     0.074 A 
ATOM     48  C   UNL     1      -5.380   6.175   5.802  1.00  0.00     0.031 C 
ATOM     49  C   UNL     1      -3.390   0.714   7.928  1.00  0.00     0.029 A 
ATOM     50  C   UNL     1      -2.357   0.358   6.971  1.00  0.00     0.049 A 
ATOM     51  H   UNL     1      -2.593   0.543   4.877  1.00  0.00     0.167 HD
ATOM     52  C   UNL     1      -6.176   5.844   8.070  1.00  0.00     0.037 A 
ATOM     53  C   UNL     1      -1.014   0.468   7.189  1.00  0.00     0.037 A 
ATOM     54  C   UNL     1      -5.290   5.153   8.986  1.00  0.00     0.049 A 
ATOM     55  C   UNL     1      -0.717   1.654   8.079  1.00  0.00     0.074 A 
ATOM     56  C   UNL     1      -5.424   4.066   9.827  1.00  0.00     0.029 A 
ATOM     57  N   UNL     1      -3.927   5.424   8.901  1.00  0.00    -0.354 N 
ATOM     58  N   UNL     1      -1.578   2.601   8.345  1.00  0.00    -0.248 NA
ATOM     59  C   UNL     1       0.547   1.839   8.780  1.00  0.00     0.031 C 
ATOM     60  C   UNL     1      -4.114   3.636  10.186  1.00  0.00     0.029 A 
ATOM     61  C   UNL     1      -3.187   4.489   9.601  1.00  0.00     0.049 A 
ATOM     62  H   UNL     1      -3.540   6.182   8.408  1.00  0.00     0.167 HD
ATOM     63  C   UNL     1      -1.039   3.482   9.236  1.00  0.00     0.074 A 
ATOM     64  C   UNL     1       0.292   2.955   9.485  1.00  0.00     0.031 C 
ATOM     65  C   UNL     1      -1.728   4.572   9.689  1.00  0.00     0.037 A 
BRANCH  52  66
ATOM     66  C   UNL     1      -7.406   6.652   8.389  1.00  0.00     0.064 A 
ATOM     67  C   UNL     1      -7.872   6.781   9.709  1.00  0.00     0.173 A 
ATOM     68  C   UNL     1      -8.207   7.268   7.397  1.00  0.00     0.173 A 
ATOM     69  F   UNL     1      -7.194   6.251  10.736  1.00  0.00    -0.203 F 
ATOM     70  C   UNL     1      -9.067   7.446  10.009  1.00  0.00     0.198 A 
ATOM     71  C   UNL     1      -9.394   7.936   7.699  1.00  0.00     0.198 A 
ATOM     72  F   UNL     1      -7.862   7.240   6.101  1.00  0.00    -0.203 F 
ATOM     73  F   UNL     1      -9.486   7.522  11.280  1.00  0.00    -0.200 F 
ATOM     74  C   UNL     1      -9.829   8.017   9.005  1.00  0.00     0.200 A 
ATOM     75  F   UNL     1     -10.114   8.495   6.716  1.00  0.00    -0.200 F 
ATOM     76  F   UNL     1     -10.976   8.646   9.296  1.00  0.00    -0.200 F 
ENDBRANCH  52  66
BRANCH  53  77
ATOM     77  C   UNL     1      -0.246  -0.001   5.993  1.00  0.00     0.064 A 
ATOM     78  C   UNL     1      -0.415  -1.361   5.644  1.00  0.00     0.173 A 
ATOM     79  C   UNL     1       0.215   0.860   4.990  1.00  0.00     0.173 A 
ATOM     80  F   UNL     1      -0.839  -2.237   6.569  1.00  0.00    -0.203 F 
ATOM     81  C   UNL     1      -0.295  -1.800   4.328  1.00  0.00     0.198 A 
ATOM     82  C   UNL     1       0.367   0.405   3.673  1.00  0.00     0.198 A 
ATOM     83  F   UNL     1       0.380   2.167   5.237  1.00  0.00    -0.203 F 
ATOM     84  F   UNL     1      -0.608  -3.066   4.013  1.00  0.00    -0.200 F 
ATOM     85  C   UNL     1       0.064  -0.908   3.338  1.00  0.00     0.200 A 
ATOM     86  F   UNL     1       0.699   1.275   2.707  1.00  0.00    -0.200 F 
ATOM     87  F   UNL     1       0.073  -1.305   2.059  1.00  0.00    -0.200 F 
ENDBRANCH  53  77
BRANCH  65  88
ATOM     88  C   UNL     1      -1.074   5.755  10.366  1.00  0.00     0.064 A 
ATOM     89  C   UNL     1       0.279   6.095  10.191  1.00  0.00     0.173 A 
ATOM     90  C   UNL     1      -1.832   6.678  11.123  1.00  0.00     0.173 A 
ATOM     91  F   UNL     1       1.068   5.418   9.346  1.00  0.00    -0.203 F 
ATOM     92  C   UNL     1       0.860   7.193  10.826  1.00  0.00     0.198 A 
ATOM     93  C   UNL     1      -1.266   7.819  11.692  1.00  0.00     0.198 A 
ATOM     94  F   UNL     1      -3.152   6.525  11.302  1.00  0.00    -0.203 F 
ATOM     95  F   UNL     1       2.173   7.421  10.681  1.00  0.00    -0.200 F 
ATOM     96  C   UNL     1       0.087   8.058  11.572  1.00  0.00     0.200 A 
ATOM     97  F   UNL     1      -2.046   8.697  12.338  1.00  0.00    -0.200 F 
ATOM     98  F   UNL     1       0.638   9.137  12.142  1.00  0.00    -0.200 F 
ENDBRANCH  65  88
ENDBRANCH  39  40
ENDBRANCH  32  34
ENDBRANCH  31  32
ENDBRANCH  30  31
ENDBRANCH   1  30
TORSDOF 16
