REMARK SMILES CC[C@@H](C)N(C)C(=O)N1[C@@H](C(=O)OCCOC(=O)c2ccc(-c3c4nc(c(-c5c(F)c(F)c(F)c(F)c5F)c5ccc([nH]5)c(-c5c(F)c(F)c(F)c(F)c5F)c5nc(c(-c6c(F)c(F)c(F)c(F)c6F)c6ccc3[nH]6)C=C5)C=C4)cc2)CC[C@H]2CCCC[C@H]21
REMARK SMILES IDX 14 1 13 2 11 3 12 4 10 5 9 6 89 7 82 8 84 9 88 10 83 11
REMARK SMILES IDX 85 12 87 13 86 14 7 15 8 16 5 17 6 18 3 19 4 20 2 21 1 22
REMARK SMILES IDX 15 23 16 24 17 25 18 26 19 27 20 28 81 29 21 30 80 31 22 32
REMARK SMILES IDX 23 33 24 34 74 35 25 36 79 37 73 38 75 39 26 40 78 41 72 42
REMARK SMILES IDX 71 43 27 45 59 46 39 47 58 48 40 49 43 50 57 51 76 52 41 53
REMARK SMILES IDX 42 54 56 56 77 57 44 58 28 59 29 60 37 61 30 62 31 63 35 64
REMARK SMILES IDX 38 65 32 66 33 67 36 68 34 69 60 70 61 71 69 72 62 73 63 74
REMARK SMILES IDX 67 75 70 76 64 77 65 78 68 79 66 80 45 81 46 82 54 83 47 84
REMARK SMILES IDX 48 85 52 86 55 87 49 88 50 89 53 90 51 91
REMARK H PARENT 75 44 43 55
REMARK Flexibility Score: inf
ROOT
ATOM      1  C   UNL     1       1.228   6.826  -0.006  1.00  0.00     0.274 C 
ENDROOT
BRANCH   1   2
ATOM      2  O   UNL     1       0.087   6.487   0.805  1.00  0.00    -0.461 OA
BRANCH   2   3
ATOM      3  C   UNL     1       0.367   5.908   2.004  1.00  0.00     0.329 C 
ATOM      4  O   UNL     1       1.502   5.690   2.415  1.00  0.00    -0.250 OA
BRANCH   3   5
ATOM      5  C   UNL     1      -0.905   5.536   2.796  1.00  0.00     0.197 C 
ATOM      6  N   UNL     1      -1.387   4.144   2.760  1.00  0.00    -0.308 N 
ATOM      7  C   UNL     1      -2.557   3.840   3.605  1.00  0.00     0.091 C 
ATOM      8  C   UNL     1      -2.043   6.540   2.588  1.00  0.00     0.038 C 
ATOM      9  C   UNL     1      -3.685   4.894   3.573  1.00  0.00     0.012 C 
ATOM     10  C   UNL     1      -3.136   2.423   3.506  1.00  0.00     0.025 C 
ATOM     11  C   UNL     1      -3.131   6.323   3.636  1.00  0.00     0.008 C 
ATOM     12  C   UNL     1      -4.699   4.745   2.429  1.00  0.00     0.006 C 
ATOM     13  C   UNL     1      -4.237   2.218   2.463  1.00  0.00     0.002 C 
ATOM     14  C   UNL     1      -4.642   3.442   1.654  1.00  0.00     0.000 C 
BRANCH   6  15
ATOM     15  C   UNL     1      -0.985   3.315   1.733  1.00  0.00     0.320 C 
ATOM     16  O   UNL     1      -1.761   2.942   0.861  1.00  0.00    -0.248 OA
BRANCH  15  17
ATOM     17  N   UNL     1       0.338   2.884   1.785  1.00  0.00    -0.325 N 
ATOM     18  C   UNL     1       1.147   2.919   3.004  1.00  0.00     0.149 C 
BRANCH  17  19
ATOM     19  C   UNL     1       0.879   2.044   0.697  1.00  0.00     0.083 C 
ATOM     20  C   UNL     1       0.654   2.641  -0.698  1.00  0.00     0.031 C 
BRANCH  19  21
ATOM     21  C   UNL     1       0.376   0.593   0.828  1.00  0.00     0.021 C 
ATOM     22  C   UNL     1       1.039  -0.369  -0.145  1.00  0.00     0.006 C 
ENDBRANCH  19  21
ENDBRANCH  17  19
ENDBRANCH  15  17
ENDBRANCH   6  15
ENDBRANCH   3   5
ENDBRANCH   2   3
ENDBRANCH   1   2
BRANCH   1  23
ATOM     23  C   UNL     1       1.714   8.261   0.235  1.00  0.00     0.275 C 
BRANCH  23  24
ATOM     24  O   UNL     1       2.286   8.429   1.548  1.00  0.00    -0.458 OA
BRANCH  24  25
ATOM     25  C   UNL     1       1.427   8.863   2.497  1.00  0.00     0.338 C 
ATOM     26  O   UNL     1       0.261   9.200   2.335  1.00  0.00    -0.246 OA
BRANCH  25  27
ATOM     27  C   UNL     1       2.015   8.707   3.837  1.00  0.00     0.060 A 
ATOM     28  C   UNL     1       1.272   7.998   4.788  1.00  0.00     0.016 A 
ATOM     29  C   UNL     1       3.232   9.294   4.189  1.00  0.00     0.016 A 
ATOM     30  C   UNL     1       1.741   7.856   6.089  1.00  0.00     0.010 A 
ATOM     31  C   UNL     1       3.689   9.180   5.507  1.00  0.00     0.010 A 
ATOM     32  C   UNL     1       2.940   8.470   6.463  1.00  0.00    -0.014 A 
BRANCH  32  33
ATOM     33  C   UNL     1       3.329   8.471   7.891  1.00  0.00     0.031 A 
ATOM     34  C   UNL     1       2.987   9.662   8.736  1.00  0.00     0.074 A 
ATOM     35  C   UNL     1       3.927   7.398   8.437  1.00  0.00     0.049 A 
ATOM     36  N   UNL     1       3.289   9.910   9.984  1.00  0.00    -0.248 NA
ATOM     37  C   UNL     1       2.189  10.714   8.086  1.00  0.00     0.031 C 
ATOM     38  C   UNL     1       4.233   6.154   7.735  1.00  0.00     0.029 A 
ATOM     39  N   UNL     1       4.383   7.187   9.714  1.00  0.00    -0.354 N 
ATOM     40  C   UNL     1       2.734  11.151  10.265  1.00  0.00     0.074 A 
ATOM     41  C   UNL     1       2.083  11.610   9.057  1.00  0.00     0.031 C 
ATOM     42  C   UNL     1       4.840   5.311   8.588  1.00  0.00     0.029 A 
ATOM     43  C   UNL     1       5.001   5.973   9.881  1.00  0.00     0.049 A 
ATOM     44  H   UNL     1       4.278   7.843  10.440  1.00  0.00     0.167 HD
ATOM     45  C   UNL     1       2.770  11.844  11.427  1.00  0.00     0.037 A 
ATOM     46  C   UNL     1       5.651   5.472  10.948  1.00  0.00     0.037 A 
ATOM     47  C   UNL     1       3.416  11.381  12.626  1.00  0.00     0.049 A 
ATOM     48  C   UNL     1       5.745   6.296  12.206  1.00  0.00     0.074 A 
ATOM     49  C   UNL     1       3.520  12.013  13.852  1.00  0.00     0.029 A 
ATOM     50  N   UNL     1       4.071  10.164  12.746  1.00  0.00    -0.354 N 
ATOM     51  N   UNL     1       5.242   7.480  12.459  1.00  0.00    -0.248 NA
ATOM     52  C   UNL     1       6.503   5.717  13.324  1.00  0.00     0.031 C 
ATOM     53  C   UNL     1       4.272  11.195  14.703  1.00  0.00     0.029 A 
ATOM     54  C   UNL     1       4.598  10.034  14.020  1.00  0.00     0.049 A 
ATOM     55  H   UNL     1       4.150   9.492  12.030  1.00  0.00     0.167 HD
ATOM     56  C   UNL     1       5.604   7.779  13.766  1.00  0.00     0.074 A 
ATOM     57  C   UNL     1       6.357   6.644  14.259  1.00  0.00     0.031 C 
ATOM     58  C   UNL     1       5.339   8.893  14.492  1.00  0.00     0.037 A 
BRANCH  45  59
ATOM     59  C   UNL     1       2.129  13.199  11.440  1.00  0.00     0.064 A 
ATOM     60  C   UNL     1       0.735  13.357  11.441  1.00  0.00     0.173 A 
ATOM     61  C   UNL     1       2.923  14.355  11.467  1.00  0.00     0.173 A 
ATOM     62  F   UNL     1      -0.066  12.282  11.396  1.00  0.00    -0.203 F 
ATOM     63  C   UNL     1       0.160  14.625  11.447  1.00  0.00     0.198 A 
ATOM     64  C   UNL     1       2.344  15.621  11.498  1.00  0.00     0.198 A 
ATOM     65  F   UNL     1       4.261  14.257  11.466  1.00  0.00    -0.203 F 
ATOM     66  F   UNL     1      -1.173  14.755  11.404  1.00  0.00    -0.200 F 
ATOM     67  C   UNL     1       0.964  15.755  11.481  1.00  0.00     0.200 A 
ATOM     68  F   UNL     1       3.123  16.711  11.538  1.00  0.00    -0.200 F 
ATOM     69  F   UNL     1       0.409  16.975  11.489  1.00  0.00    -0.200 F 
ENDBRANCH  45  59
BRANCH  46  70
ATOM     70  C   UNL     1       6.296   4.136  10.866  1.00  0.00     0.064 A 
ATOM     71  C   UNL     1       5.811   3.049  11.606  1.00  0.00     0.173 A 
ATOM     72  C   UNL     1       7.422   3.924  10.056  1.00  0.00     0.173 A 
ATOM     73  F   UNL     1       4.755   3.209  12.416  1.00  0.00    -0.203 F 
ATOM     74  C   UNL     1       6.437   1.805  11.551  1.00  0.00     0.198 A 
ATOM     75  C   UNL     1       8.030   2.673   9.981  1.00  0.00     0.198 A 
ATOM     76  F   UNL     1       7.929   4.933   9.333  1.00  0.00    -0.203 F 
ATOM     77  F   UNL     1       5.980   0.794  12.302  1.00  0.00    -0.200 F 
ATOM     78  C   UNL     1       7.542   1.616  10.733  1.00  0.00     0.200 A 
ATOM     79  F   UNL     1       9.092   2.493   9.183  1.00  0.00    -0.200 F 
ATOM     80  F   UNL     1       8.141   0.419  10.679  1.00  0.00    -0.200 F 
ENDBRANCH  46  70
BRANCH  58  81
ATOM     81  C   UNL     1       5.839   8.925  15.906  1.00  0.00     0.064 A 
ATOM     82  C   UNL     1       7.197   9.110  16.201  1.00  0.00     0.173 A 
ATOM     83  C   UNL     1       4.941   8.813  16.979  1.00  0.00     0.173 A 
ATOM     84  F   UNL     1       8.096   9.207  15.209  1.00  0.00    -0.203 F 
ATOM     85  C   UNL     1       7.642   9.160  17.519  1.00  0.00     0.198 A 
ATOM     86  C   UNL     1       5.386   8.889  18.295  1.00  0.00     0.198 A 
ATOM     87  F   UNL     1       3.631   8.641  16.749  1.00  0.00    -0.203 F 
ATOM     88  F   UNL     1       8.950   9.296  17.779  1.00  0.00    -0.200 F 
ATOM     89  C   UNL     1       6.736   9.056  18.564  1.00  0.00     0.200 A 
ATOM     90  F   UNL     1       4.508   8.800  19.304  1.00  0.00    -0.200 F 
ATOM     91  F   UNL     1       7.165   9.111  19.833  1.00  0.00    -0.200 F 
ENDBRANCH  58  81
ENDBRANCH  32  33
ENDBRANCH  25  27
ENDBRANCH  24  25
ENDBRANCH  23  24
ENDBRANCH   1  23
TORSDOF 15
