REMARK SMILES O=C(OCCOC(=O)c1ccc(-c2c3nc(c(-c4c(F)c(F)c(F)c(F)c4F)c4ccc([nH]4)c(-c4c(F)c(F)c(F)c(F)c4F)c4nc(c(-c5c(F)c(F)c(F)c(F)c5F)c5ccc2[nH]5)C=C4)C=C3)cc1)c1ccc(CN2C(=O)CSC2=S)cc1
REMARK SMILES IDX 4 1 3 2 2 3 1 4 72 5 73 6 85 7 74 8 84 9 75 10 76 11 77 12
REMARK SMILES IDX 78 13 82 14 79 15 80 16 81 17 83 18 5 19 6 20 7 21 8 22 9 23
REMARK SMILES IDX 10 24 71 25 11 26 70 27 12 28 13 29 14 30 64 31 15 32 69 33
REMARK SMILES IDX 63 34 65 35 16 36 68 37 62 38 61 39 17 41 49 42 29 43 48 44
REMARK SMILES IDX 30 45 33 46 47 47 66 48 31 49 32 50 46 52 67 53 34 54 18 55
REMARK SMILES IDX 19 56 27 57 20 58 21 59 25 60 28 61 22 62 23 63 26 64 24 65
REMARK SMILES IDX 50 66 51 67 59 68 52 69 53 70 57 71 60 72 54 73 55 74 58 75
REMARK SMILES IDX 56 76 35 77 36 78 44 79 37 80 38 81 42 82 45 83 39 84 40 85
REMARK SMILES IDX 43 86 41 87
REMARK H PARENT 65 40 33 51
REMARK Flexibility Score: inf
ROOT
ATOM      1  C   UNL     1       3.974   1.099   1.006  1.00  0.00     0.275 C 
ENDROOT
BRANCH   1   2
ATOM      2  O   UNL     1       2.913   0.918   0.048  1.00  0.00    -0.458 OA
BRANCH   2   3
ATOM      3  C   UNL     1       2.902   0.230  -1.119  1.00  0.00     0.338 C 
ATOM      4  O   UNL     1       2.051   0.523  -1.959  1.00  0.00    -0.246 OA
BRANCH   3   5
ATOM      5  C   UNL     1       3.762  -0.971  -1.401  1.00  0.00     0.060 A 
ATOM      6  C   UNL     1       4.875  -1.375  -0.670  1.00  0.00     0.016 A 
ATOM      7  C   UNL     1       3.364  -1.804  -2.465  1.00  0.00     0.016 A 
ATOM      8  C   UNL     1       5.485  -2.609  -0.898  1.00  0.00     0.006 A 
ATOM      9  C   UNL     1       4.017  -3.015  -2.739  1.00  0.00     0.006 A 
ATOM     10  C   UNL     1       5.060  -3.454  -1.924  1.00  0.00    -0.028 A 
BRANCH  10  11
ATOM     11  C   UNL     1       5.723  -4.805  -2.120  1.00  0.00     0.162 C 
BRANCH  11  12
ATOM     12  N   UNL     1       7.136  -4.636  -2.451  1.00  0.00    -0.293 N 
ATOM     13  C   UNL     1       8.057  -4.545  -1.422  1.00  0.00     0.238 C 
ATOM     14  C   UNL     1       7.624  -4.516  -3.731  1.00  0.00     0.143 C 
ATOM     15  O   UNL     1       7.828  -4.779  -0.239  1.00  0.00    -0.273 OA
ATOM     16  C   UNL     1       9.381  -4.024  -1.902  1.00  0.00     0.177 C 
ATOM     17  S   UNL     1       9.353  -4.216  -3.690  1.00  0.00    -0.086 SA
ATOM     18  S   UNL     1       6.785  -4.631  -5.169  1.00  0.00    -0.052 S 
ENDBRANCH  11  12
ENDBRANCH  10  11
ENDBRANCH   3   5
ENDBRANCH   2   3
ENDBRANCH   1   2
BRANCH   1  19
ATOM     19  C   UNL     1       3.815   0.206   2.246  1.00  0.00     0.275 C 
BRANCH  19  20
ATOM     20  O   UNL     1       3.574  -1.171   1.904  1.00  0.00    -0.458 OA
BRANCH  20  21
ATOM     21  C   UNL     1       2.266  -1.529   1.827  1.00  0.00     0.338 C 
ATOM     22  O   UNL     1       1.312  -0.848   2.167  1.00  0.00    -0.246 OA
BRANCH  21  23
ATOM     23  C   UNL     1       2.120  -2.836   1.138  1.00  0.00     0.060 A 
ATOM     24  C   UNL     1       0.994  -3.023   0.326  1.00  0.00     0.016 A 
ATOM     25  C   UNL     1       3.050  -3.871   1.279  1.00  0.00     0.016 A 
ATOM     26  C   UNL     1       0.775  -4.248  -0.315  1.00  0.00     0.010 A 
ATOM     27  C   UNL     1       2.837  -5.093   0.624  1.00  0.00     0.010 A 
ATOM     28  C   UNL     1       1.682  -5.303  -0.153  1.00  0.00    -0.014 A 
BRANCH  28  29
ATOM     29  C   UNL     1       1.361  -6.665  -0.663  1.00  0.00     0.031 A 
ATOM     30  C   UNL     1       0.914  -7.721   0.311  1.00  0.00     0.074 A 
ATOM     31  C   UNL     1       1.455  -6.982  -1.968  1.00  0.00     0.049 A 
ATOM     32  N   UNL     1       0.623  -8.980   0.098  1.00  0.00    -0.248 NA
ATOM     33  C   UNL     1       0.777  -7.299   1.713  1.00  0.00     0.031 C 
ATOM     34  C   UNL     1       1.818  -6.059  -3.036  1.00  0.00     0.029 A 
ATOM     35  N   UNL     1       1.264  -8.181  -2.614  1.00  0.00    -0.354 N 
ATOM     36  C   UNL     1       0.265  -9.497   1.335  1.00  0.00     0.074 A 
ATOM     37  C   UNL     1       0.426  -8.431   2.301  1.00  0.00     0.031 C 
ATOM     38  C   UNL     1       1.866  -6.728  -4.201  1.00  0.00     0.029 A 
ATOM     39  C   UNL     1       1.533  -8.132  -3.960  1.00  0.00     0.049 A 
ATOM     40  H   UNL     1       0.964  -8.998  -2.154  1.00  0.00     0.167 HD
ATOM     41  C   UNL     1      -0.181 -10.739   1.641  1.00  0.00     0.037 A 
ATOM     42  C   UNL     1       1.516  -9.106  -4.892  1.00  0.00     0.037 A 
ATOM     43  C   UNL     1      -0.355 -11.807   0.693  1.00  0.00     0.049 A 
ATOM     44  C   UNL     1       1.098 -10.505  -4.515  1.00  0.00     0.074 A 
ATOM     45  C   UNL     1      -0.832 -13.087   0.917  1.00  0.00     0.029 A 
ATOM     46  N   UNL     1      -0.049 -11.724  -0.656  1.00  0.00    -0.354 N 
ATOM     47  N   UNL     1       0.713 -10.969  -3.352  1.00  0.00    -0.248 NA
ATOM     48  C   UNL     1       1.098 -11.512  -5.588  1.00  0.00     0.031 C 
ATOM     49  C   UNL     1      -0.767 -13.795  -0.288  1.00  0.00     0.029 A 
ATOM     50  C   UNL     1      -0.299 -12.940  -1.272  1.00  0.00     0.049 A 
ATOM     51  H   UNL     1       0.295 -10.921  -1.109  1.00  0.00     0.167 HD
ATOM     52  C   UNL     1       0.380 -12.302  -3.563  1.00  0.00     0.074 A 
ATOM     53  C   UNL     1       0.615 -12.577  -4.963  1.00  0.00     0.031 C 
ATOM     54  C   UNL     1      -0.088 -13.209  -2.671  1.00  0.00     0.037 A 
BRANCH  41  55
ATOM     55  C   UNL     1      -0.501 -11.010   3.080  1.00  0.00     0.064 A 
ATOM     56  C   UNL     1      -1.627 -10.449   3.700  1.00  0.00     0.173 A 
ATOM     57  C   UNL     1       0.324 -11.848   3.844  1.00  0.00     0.173 A 
ATOM     58  F   UNL     1      -2.437  -9.628   3.014  1.00  0.00    -0.203 F 
ATOM     59  C   UNL     1      -1.896 -10.689   5.044  1.00  0.00     0.198 A 
ATOM     60  C   UNL     1       0.035 -12.110   5.179  1.00  0.00     0.198 A 
ATOM     61  F   UNL     1       1.409 -12.412   3.294  1.00  0.00    -0.203 F 
ATOM     62  F   UNL     1      -2.945 -10.097   5.632  1.00  0.00    -0.200 F 
ATOM     63  C   UNL     1      -1.068 -11.523   5.781  1.00  0.00     0.200 A 
ATOM     64  F   UNL     1       0.830 -12.924   5.888  1.00  0.00    -0.200 F 
ATOM     65  F   UNL     1      -1.327 -11.752   7.076  1.00  0.00    -0.200 F 
ENDBRANCH  41  55
BRANCH  42  66
ATOM     66  C   UNL     1       1.897  -8.795  -6.295  1.00  0.00     0.064 A 
ATOM     67  C   UNL     1       0.940  -8.784  -7.319  1.00  0.00     0.173 A 
ATOM     68  C   UNL     1       3.232  -8.541  -6.643  1.00  0.00     0.173 A 
ATOM     69  F   UNL     1      -0.344  -9.051  -7.037  1.00  0.00    -0.203 F 
ATOM     70  C   UNL     1       1.306  -8.550  -8.642  1.00  0.00     0.198 A 
ATOM     71  C   UNL     1       3.594  -8.286  -7.964  1.00  0.00     0.198 A 
ATOM     72  F   UNL     1       4.184  -8.548  -5.698  1.00  0.00    -0.203 F 
ATOM     73  F   UNL     1       0.380  -8.594  -9.609  1.00  0.00    -0.200 F 
ATOM     74  C   UNL     1       2.632  -8.298  -8.963  1.00  0.00     0.200 A 
ATOM     75  F   UNL     1       4.875  -8.044  -8.271  1.00  0.00    -0.200 F 
ATOM     76  F   UNL     1       2.985  -8.082 -10.238  1.00  0.00    -0.200 F 
ENDBRANCH  42  66
BRANCH  54  77
ATOM     77  C   UNL     1      -0.439 -14.579  -3.178  1.00  0.00     0.064 A 
ATOM     78  C   UNL     1       0.546 -15.510  -3.539  1.00  0.00     0.173 A 
ATOM     79  C   UNL     1      -1.780 -14.989  -3.236  1.00  0.00     0.173 A 
ATOM     80  F   UNL     1       1.842 -15.165  -3.515  1.00  0.00    -0.203 F 
ATOM     81  C   UNL     1       0.200 -16.795  -3.951  1.00  0.00     0.198 A 
ATOM     82  C   UNL     1      -2.121 -16.283  -3.622  1.00  0.00     0.198 A 
ATOM     83  F   UNL     1      -2.762 -14.140  -2.896  1.00  0.00    -0.203 F 
ATOM     84  F   UNL     1       1.156 -17.658  -4.322  1.00  0.00    -0.200 F 
ATOM     85  C   UNL     1      -1.131 -17.183  -3.983  1.00  0.00     0.200 A 
ATOM     86  F   UNL     1      -3.407 -16.660  -3.638  1.00  0.00    -0.200 F 
ATOM     87  F   UNL     1      -1.460 -18.426  -4.364  1.00  0.00    -0.200 F 
ENDBRANCH  54  77
ENDBRANCH  28  29
ENDBRANCH  21  23
ENDBRANCH  20  21
ENDBRANCH  19  20
ENDBRANCH   1  19
TORSDOF 13
