REMARK SMILES CCn1nc(C(=O)OCCOC(=O)c2ccc(-c3c4nc(c(-c5c(F)c(F)c(F)c(F)c5F)c5ccc([nH]5)c(-c5c(F)c(F)c(F)c(F)c5F)c5nc(c(-c6c(F)c(F)c(F)c(F)c6F)c6ccc3[nH]6)C=C5)C=C4)cc2)c2c1CC[C@H]([NH2+]Cc1nn(CC)c3ccccc13)C2
REMARK SMILES IDX 9 1 8 2 6 3 7 4 5 5 3 6 4 7 78 8 77 9 79 10 95 11 80 12
REMARK SMILES IDX 81 13 2 14 1 15 82 16 83 19 84 20 85 21 94 22 86 23 89 24
REMARK SMILES IDX 93 25 90 26 92 27 91 28 87 29 88 30 10 31 11 32 12 33 13 34
REMARK SMILES IDX 14 35 15 36 76 37 16 38 75 39 17 40 18 41 19 42 69 43 20 44
REMARK SMILES IDX 74 45 68 46 70 47 21 48 73 49 67 50 66 51 22 53 54 54 34 55
REMARK SMILES IDX 53 56 35 57 38 58 52 59 71 60 36 61 37 62 51 64 72 65 39 66
REMARK SMILES IDX 23 67 24 68 32 69 25 70 26 71 30 72 33 73 27 74 28 75 31 76
REMARK SMILES IDX 29 77 55 78 56 79 64 80 57 81 58 82 62 83 65 84 59 85 60 86
REMARK SMILES IDX 63 87 61 88 40 89 41 90 49 91 42 92 43 93 47 94 50 95 44 96
REMARK SMILES IDX 45 97 48 98 46 99
REMARK H PARENT 82 17 82 18 70 52 38 63
REMARK Flexibility Score: inf
ROOT
ATOM      1  C   UNL     1       4.003  -6.735   2.006  1.00  0.00     0.275 C 
ENDROOT
BRANCH   1   2
ATOM      2  O   UNL     1       3.563  -5.704   1.106  1.00  0.00    -0.457 OA
BRANCH   2   3
ATOM      3  C   UNL     1       3.175  -4.461   1.535  1.00  0.00     0.359 C 
ATOM      4  O   UNL     1       3.508  -3.960   2.598  1.00  0.00    -0.244 OA
BRANCH   3   5
ATOM      5  C   UNL     1       2.211  -3.889   0.585  1.00  0.00     0.174 A 
ATOM      6  N   UNL     1       0.919  -2.600  -0.541  1.00  0.00    -0.269 N 
ATOM      7  N   UNL     1       2.019  -2.599   0.273  1.00  0.00    -0.165 NA
ATOM      8  C   UNL     1       0.436  -3.865  -0.784  1.00  0.00     0.043 A 
ATOM      9  C   UNL     1       1.234  -4.677  -0.039  1.00  0.00     0.014 A 
ATOM     10  C   UNL     1      -0.721  -4.376  -1.573  1.00  0.00     0.062 C 
ATOM     11  C   UNL     1       0.947  -6.067   0.266  1.00  0.00     0.105 C 
ATOM     12  C   UNL     1      -1.155  -5.820  -1.091  1.00  0.00     0.072 C 
ATOM     13  C   UNL     1      -0.002  -6.787  -0.652  1.00  0.00     0.187 C 
BRANCH   6  14
ATOM     14  C   UNL     1       0.367  -1.330  -0.984  1.00  0.00     0.141 C 
ATOM     15  C   UNL     1       0.801  -0.122  -0.155  1.00  0.00     0.029 C 
ENDBRANCH   6  14
BRANCH  13  16
ATOM     16  N   UNL     1      -0.457  -8.026   0.062  1.00  0.00    -0.338 N 
ATOM     17  H   UNL     1      -0.928  -8.624  -0.617  1.00  0.00     0.346 HD
ATOM     18  H   UNL     1      -1.062  -7.706   0.818  1.00  0.00     0.346 HD
BRANCH  16  19
ATOM     19  C   UNL     1       0.632  -8.837   0.719  1.00  0.00     0.320 C 
BRANCH  19  20
ATOM     20  C   UNL     1       0.934  -8.502   2.201  1.00  0.00     0.124 A 
ATOM     21  N   UNL     1       0.268  -7.542   2.880  1.00  0.00    -0.171 NA
ATOM     22  C   UNL     1       1.981  -9.058   3.027  1.00  0.00     0.029 A 
ATOM     23  N   UNL     1       0.959  -7.400   4.037  1.00  0.00    -0.265 N 
ATOM     24  C   UNL     1       1.873  -8.401   4.252  1.00  0.00     0.069 A 
ATOM     25  C   UNL     1       3.058  -9.960   2.864  1.00  0.00     0.012 A 
ATOM     26  C   UNL     1       2.676  -8.693   5.364  1.00  0.00     0.028 A 
ATOM     27  C   UNL     1       3.965 -10.148   3.924  1.00  0.00     0.001 A 
ATOM     28  C   UNL     1       3.752  -9.554   5.166  1.00  0.00     0.002 A 
BRANCH  23  29
ATOM     29  C   UNL     1       0.782  -6.238   4.900  1.00  0.00     0.141 C 
ATOM     30  C   UNL     1       1.929  -5.227   4.885  1.00  0.00     0.029 C 
ENDBRANCH  23  29
ENDBRANCH  19  20
ENDBRANCH  16  19
ENDBRANCH  13  16
ENDBRANCH   3   5
ENDBRANCH   2   3
ENDBRANCH   1   2
BRANCH   1  31
ATOM     31  C   UNL     1       5.479  -7.070   1.907  1.00  0.00     0.275 C 
BRANCH  31  32
ATOM     32  O   UNL     1       6.185  -5.902   2.261  1.00  0.00    -0.458 OA
BRANCH  32  33
ATOM     33  C   UNL     1       6.105  -4.979   1.273  1.00  0.00     0.338 C 
ATOM     34  O   UNL     1       5.948  -5.207   0.081  1.00  0.00    -0.246 OA
BRANCH  33  35
ATOM     35  C   UNL     1       6.165  -3.619   1.883  1.00  0.00     0.060 A 
ATOM     36  C   UNL     1       6.325  -2.686   0.866  1.00  0.00     0.016 A 
ATOM     37  C   UNL     1       6.966  -3.603   3.024  1.00  0.00     0.016 A 
ATOM     38  C   UNL     1       7.623  -2.345   0.620  1.00  0.00     0.010 A 
ATOM     39  C   UNL     1       8.271  -3.285   2.797  1.00  0.00     0.010 A 
ATOM     40  C   UNL     1       8.589  -2.784   1.536  1.00  0.00    -0.014 A 
BRANCH  40  41
ATOM     41  C   UNL     1       9.961  -2.519   1.223  1.00  0.00     0.031 A 
ATOM     42  C   UNL     1      10.248  -1.113   1.535  1.00  0.00     0.074 A 
ATOM     43  C   UNL     1      10.813  -3.463   0.800  1.00  0.00     0.049 A 
ATOM     44  N   UNL     1      10.222  -0.116   0.715  1.00  0.00    -0.248 NA
ATOM     45  C   UNL     1      10.192  -0.733   2.958  1.00  0.00     0.031 C 
ATOM     46  C   UNL     1      10.643  -4.916   0.758  1.00  0.00     0.029 A 
ATOM     47  N   UNL     1      12.093  -3.283   0.385  1.00  0.00    -0.354 N 
ATOM     48  C   UNL     1      10.395   0.994   1.529  1.00  0.00     0.074 A 
ATOM     49  C   UNL     1      10.027   0.585   2.853  1.00  0.00     0.031 C 
ATOM     50  C   UNL     1      11.851  -5.497   0.562  1.00  0.00     0.029 A 
ATOM     51  C   UNL     1      12.835  -4.456   0.324  1.00  0.00     0.049 A 
ATOM     52  H   UNL     1      12.461  -2.401   0.149  1.00  0.00     0.167 HD
ATOM     53  C   UNL     1      11.225   1.995   1.138  1.00  0.00     0.037 A 
ATOM     54  C   UNL     1      14.185  -4.478   0.206  1.00  0.00     0.037 A 
ATOM     55  C   UNL     1      11.479   1.911  -0.282  1.00  0.00     0.049 A 
ATOM     56  C   UNL     1      14.585  -3.146  -0.331  1.00  0.00     0.074 A 
ATOM     57  C   UNL     1      10.732   2.066  -1.430  1.00  0.00     0.029 A 
ATOM     58  N   UNL     1      12.587   1.177  -0.625  1.00  0.00    -0.354 N 
ATOM     59  N   UNL     1      14.250  -2.712  -1.518  1.00  0.00    -0.248 NA
ATOM     60  C   UNL     1      14.981  -2.112   0.615  1.00  0.00     0.031 C 
ATOM     61  C   UNL     1      11.280   1.145  -2.376  1.00  0.00     0.029 A 
ATOM     62  C   UNL     1      12.372   0.498  -1.793  1.00  0.00     0.049 A 
ATOM     63  H   UNL     1      13.421   1.144  -0.102  1.00  0.00     0.167 HD
ATOM     64  C   UNL     1      14.001  -1.357  -1.349  1.00  0.00     0.074 A 
ATOM     65  C   UNL     1      14.591  -1.025  -0.056  1.00  0.00     0.031 C 
ATOM     66  C   UNL     1      13.088  -0.715  -2.138  1.00  0.00     0.037 A 
BRANCH  53  67
ATOM     67  C   UNL     1      12.190   2.679   2.088  1.00  0.00     0.064 A 
ATOM     68  C   UNL     1      12.939   3.766   1.601  1.00  0.00     0.173 A 
ATOM     69  C   UNL     1      12.627   2.160   3.332  1.00  0.00     0.173 A 
ATOM     70  F   UNL     1      12.633   4.329   0.423  1.00  0.00    -0.203 F 
ATOM     71  C   UNL     1      14.070   4.242   2.270  1.00  0.00     0.198 A 
ATOM     72  C   UNL     1      13.722   2.671   4.021  1.00  0.00     0.198 A 
ATOM     73  F   UNL     1      12.102   1.071   3.900  1.00  0.00    -0.203 F 
ATOM     74  F   UNL     1      14.819   5.198   1.707  1.00  0.00    -0.200 F 
ATOM     75  C   UNL     1      14.464   3.691   3.476  1.00  0.00     0.200 A 
ATOM     76  F   UNL     1      14.093   2.102   5.177  1.00  0.00    -0.200 F 
ATOM     77  F   UNL     1      15.580   4.104   4.088  1.00  0.00    -0.200 F 
ENDBRANCH  53  67
BRANCH  54  78
ATOM     78  C   UNL     1      15.131  -5.361   0.929  1.00  0.00     0.064 A 
ATOM     79  C   UNL     1      16.465  -5.493   0.510  1.00  0.00     0.173 A 
ATOM     80  C   UNL     1      14.825  -5.863   2.210  1.00  0.00     0.173 A 
ATOM     81  F   UNL     1      16.850  -4.989  -0.672  1.00  0.00    -0.203 F 
ATOM     82  C   UNL     1      17.437  -6.078   1.329  1.00  0.00     0.198 A 
ATOM     83  C   UNL     1      15.795  -6.449   3.025  1.00  0.00     0.198 A 
ATOM     84  F   UNL     1      13.603  -5.705   2.737  1.00  0.00    -0.203 F 
ATOM     85  F   UNL     1      18.712  -6.134   0.920  1.00  0.00    -0.200 F 
ATOM     86  C   UNL     1      17.103  -6.546   2.590  1.00  0.00     0.200 A 
ATOM     87  F   UNL     1      15.467  -6.857   4.259  1.00  0.00    -0.200 F 
ATOM     88  F   UNL     1      18.045  -7.050   3.399  1.00  0.00    -0.200 F 
ENDBRANCH  54  78
BRANCH  66  89
ATOM     89  C   UNL     1      12.664  -1.413  -3.403  1.00  0.00     0.064 A 
ATOM     90  C   UNL     1      11.904  -2.595  -3.445  1.00  0.00     0.173 A 
ATOM     91  C   UNL     1      12.941  -0.782  -4.622  1.00  0.00     0.173 A 
ATOM     92  F   UNL     1      11.534  -3.213  -2.317  1.00  0.00    -0.203 F 
ATOM     93  C   UNL     1      11.470  -3.131  -4.658  1.00  0.00     0.198 A 
ATOM     94  C   UNL     1      12.476  -1.298  -5.828  1.00  0.00     0.198 A 
ATOM     95  F   UNL     1      13.626   0.373  -4.638  1.00  0.00    -0.203 F 
ATOM     96  F   UNL     1      10.755  -4.266  -4.676  1.00  0.00    -0.200 F 
ATOM     97  C   UNL     1      11.748  -2.477  -5.847  1.00  0.00     0.200 A 
ATOM     98  F   UNL     1      12.712  -0.637  -6.969  1.00  0.00    -0.200 F 
ATOM     99  F   UNL     1      11.296  -2.967  -7.010  1.00  0.00    -0.200 F 
ENDBRANCH  66  89
ENDBRANCH  40  41
ENDBRANCH  33  35
ENDBRANCH  32  33
ENDBRANCH  31  32
ENDBRANCH   1  31
TORSDOF 16
