REMARK SMILES O=C(OCCOC(=O)c1ccc(-c2c3nc(c(-c4c(F)c(F)c(F)c(F)c4F)c4ccc([nH]4)c(-c4c(F)c(F)c(F)c(F)c4F)c4nc(c(-c5c(F)c(F)c(F)c(F)c5F)c5ccc2[nH]5)C=C4)C=C3)cc1)c1ccc(NC(=S)NC(=O)C(Cl)(Cl)Cl)cc1
REMARK SMILES IDX 4 1 3 2 2 3 1 4 72 5 73 6 87 7 74 8 86 9 75 10 76 11 77 13
REMARK SMILES IDX 78 14 79 15 80 16 81 18 82 19 83 20 84 21 85 22 5 23 6 24
REMARK SMILES IDX 7 25 8 26 9 27 10 28 71 29 11 30 70 31 12 32 13 33 14 34
REMARK SMILES IDX 64 35 15 36 69 37 63 38 65 39 16 40 68 41 62 42 61 43 17 45
REMARK SMILES IDX 49 46 29 47 48 48 30 49 33 50 47 51 66 52 31 53 32 54 46 56
REMARK SMILES IDX 67 57 34 58 18 59 19 60 27 61 20 62 21 63 25 64 28 65 22 66
REMARK SMILES IDX 23 67 26 68 24 69 50 70 51 71 59 72 52 73 53 74 57 75 60 76
REMARK SMILES IDX 54 77 55 78 58 79 56 80 35 81 36 82 44 83 37 84 38 85 42 86
REMARK SMILES IDX 45 87 39 88 40 89 43 90 41 91
REMARK H PARENT 76 12 79 17 65 44 33 55
REMARK Flexibility Score: inf
ROOT
ATOM      1  C   UNL     1       3.574   0.924  -0.482  1.00  0.00     0.275 C 
ENDROOT
BRANCH   1   2
ATOM      2  O   UNL     1       2.368   0.122  -0.515  1.00  0.00    -0.458 OA
BRANCH   2   3
ATOM      3  C   UNL     1       2.251  -1.220  -0.359  1.00  0.00     0.338 C 
ATOM      4  O   UNL     1       1.304  -1.812  -0.873  1.00  0.00    -0.246 OA
BRANCH   3   5
ATOM      5  C   UNL     1       3.196  -2.014   0.486  1.00  0.00     0.060 A 
ATOM      6  C   UNL     1       4.005  -1.457   1.469  1.00  0.00     0.018 A 
ATOM      7  C   UNL     1       3.197  -3.409   0.385  1.00  0.00     0.018 A 
ATOM      8  C   UNL     1       4.840  -2.215   2.284  1.00  0.00     0.027 A 
ATOM      9  C   UNL     1       4.080  -4.178   1.159  1.00  0.00     0.027 A 
ATOM     10  C   UNL     1       4.965  -3.563   2.053  1.00  0.00     0.040 A 
BRANCH  10  11
ATOM     11  N   UNL     1       5.923  -4.337   2.703  1.00  0.00    -0.332 N 
ATOM     12  H   UNL     1       5.787  -5.304   2.580  1.00  0.00     0.169 HD
BRANCH  11  13
ATOM     13  C   UNL     1       6.989  -4.050   3.460  1.00  0.00     0.177 C 
ATOM     14  S   UNL     1       7.458  -5.229   4.562  1.00  0.00    -0.040 S 
BRANCH  13  15
ATOM     15  N   UNL     1       7.773  -2.917   3.441  1.00  0.00    -0.299 N 
ATOM     16  C   UNL     1       8.227  -1.711   2.879  1.00  0.00     0.278 C 
ATOM     17  H   UNL     1       8.301  -2.994   4.269  1.00  0.00     0.172 HD
ATOM     18  O   UNL     1       8.929  -1.063   3.680  1.00  0.00    -0.270 OA
BRANCH  16  19
ATOM     19  C   UNL     1       7.960  -1.155   1.469  1.00  0.00     0.269 C 
ATOM     20  Cl  UNL     1       7.385  -2.323   0.287  1.00  0.00    -0.073 Cl
ATOM     21  Cl  UNL     1       6.893   0.277   1.628  1.00  0.00    -0.073 Cl
ATOM     22  Cl  UNL     1       9.531  -0.517   0.828  1.00  0.00    -0.073 Cl
ENDBRANCH  16  19
ENDBRANCH  13  15
ENDBRANCH  11  13
ENDBRANCH  10  11
ENDBRANCH   3   5
ENDBRANCH   2   3
ENDBRANCH   1   2
BRANCH   1  23
ATOM     23  C   UNL     1       3.454   2.053   0.563  1.00  0.00     0.275 C 
BRANCH  23  24
ATOM     24  O   UNL     1       3.160   1.524   1.873  1.00  0.00    -0.458 OA
BRANCH  24  25
ATOM     25  C   UNL     1       1.837   1.366   2.152  1.00  0.00     0.338 C 
ATOM     26  O   UNL     1       0.918   1.938   1.605  1.00  0.00    -0.246 OA
BRANCH  25  27
ATOM     27  C   UNL     1       1.652   0.211   3.082  1.00  0.00     0.060 A 
ATOM     28  C   UNL     1       0.510  -0.577   2.901  1.00  0.00     0.016 A 
ATOM     29  C   UNL     1       2.588  -0.155   4.058  1.00  0.00     0.016 A 
ATOM     30  C   UNL     1       0.262  -1.672   3.736  1.00  0.00     0.010 A 
ATOM     31  C   UNL     1       2.364  -1.288   4.859  1.00  0.00     0.010 A 
ATOM     32  C   UNL     1       1.164  -2.014   4.753  1.00  0.00    -0.014 A 
BRANCH  32  33
ATOM     33  C   UNL     1       0.722  -2.962   5.821  1.00  0.00     0.031 A 
ATOM     34  C   UNL     1       0.363  -2.403   7.178  1.00  0.00     0.074 A 
ATOM     35  C   UNL     1       0.534  -4.277   5.592  1.00  0.00     0.049 A 
ATOM     36  N   UNL     1      -0.212  -2.991   8.200  1.00  0.00    -0.248 NA
ATOM     37  C   UNL     1       0.703  -0.992   7.421  1.00  0.00     0.031 C 
ATOM     38  C   UNL     1       0.843  -4.981   4.349  1.00  0.00     0.029 A 
ATOM     39  N   UNL     1       0.009  -5.256   6.407  1.00  0.00    -0.354 N 
ATOM     40  C   UNL     1      -0.311  -2.019   9.188  1.00  0.00     0.074 A 
ATOM     41  C   UNL     1       0.334  -0.831   8.680  1.00  0.00     0.031 C 
ATOM     42  C   UNL     1       0.478  -6.271   4.474  1.00  0.00     0.029 A 
ATOM     43  C   UNL     1      -0.093  -6.487   5.805  1.00  0.00     0.049 A 
ATOM     44  H   UNL     1      -0.268  -5.089   7.337  1.00  0.00     0.167 HD
ATOM     45  C   UNL     1      -0.919  -2.083  10.396  1.00  0.00     0.037 A 
ATOM     46  C   UNL     1      -0.611  -7.647   6.263  1.00  0.00     0.037 A 
ATOM     47  C   UNL     1      -1.582  -3.243  10.920  1.00  0.00     0.049 A 
ATOM     48  C   UNL     1      -1.252  -7.707   7.631  1.00  0.00     0.074 A 
ATOM     49  C   UNL     1      -2.261  -3.381  12.118  1.00  0.00     0.029 A 
ATOM     50  N   UNL     1      -1.642  -4.470  10.281  1.00  0.00    -0.354 N 
ATOM     51  N   UNL     1      -1.432  -6.751   8.509  1.00  0.00    -0.248 NA
ATOM     52  C   UNL     1      -1.786  -9.011   8.056  1.00  0.00     0.031 C 
ATOM     53  C   UNL     1      -2.692  -4.707  12.226  1.00  0.00     0.029 A 
ATOM     54  C   UNL     1      -2.328  -5.379  11.071  1.00  0.00     0.049 A 
ATOM     55  H   UNL     1      -1.256  -4.668   9.397  1.00  0.00     0.167 HD
ATOM     56  C   UNL     1      -2.144  -7.324   9.559  1.00  0.00     0.074 A 
ATOM     57  C   UNL     1      -2.365  -8.710   9.210  1.00  0.00     0.031 C 
ATOM     58  C   UNL     1      -2.579  -6.748  10.707  1.00  0.00     0.037 A 
BRANCH  45  59
ATOM     59  C   UNL     1      -0.894  -0.840  11.236  1.00  0.00     0.064 A 
ATOM     60  C   UNL     1      -1.645   0.294  10.889  1.00  0.00     0.173 A 
ATOM     61  C   UNL     1      -0.118  -0.784  12.402  1.00  0.00     0.173 A 
ATOM     62  F   UNL     1      -2.389   0.296   9.772  1.00  0.00    -0.203 F 
ATOM     63  C   UNL     1      -1.589   1.452  11.659  1.00  0.00     0.198 A 
ATOM     64  C   UNL     1      -0.090   0.365  13.187  1.00  0.00     0.198 A 
ATOM     65  F   UNL     1       0.616  -1.842  12.778  1.00  0.00    -0.203 F 
ATOM     66  F   UNL     1      -2.266   2.544  11.274  1.00  0.00    -0.200 F 
ATOM     67  C   UNL     1      -0.817   1.485  12.810  1.00  0.00     0.200 A 
ATOM     68  F   UNL     1       0.649   0.393  14.305  1.00  0.00    -0.200 F 
ATOM     69  F   UNL     1      -0.763   2.600  13.550  1.00  0.00    -0.200 F 
ENDBRANCH  45  59
BRANCH  46  70
ATOM     70  C   UNL     1      -0.598  -8.867   5.409  1.00  0.00     0.064 A 
ATOM     71  C   UNL     1      -1.790  -9.407   4.902  1.00  0.00     0.173 A 
ATOM     72  C   UNL     1       0.593  -9.558   5.146  1.00  0.00     0.173 A 
ATOM     73  F   UNL     1      -2.959  -8.801   5.153  1.00  0.00    -0.203 F 
ATOM     74  C   UNL     1      -1.794 -10.608   4.194  1.00  0.00     0.198 A 
ATOM     75  C   UNL     1       0.591 -10.745   4.415  1.00  0.00     0.198 A 
ATOM     76  F   UNL     1       1.759  -9.087   5.613  1.00  0.00    -0.203 F 
ATOM     77  F   UNL     1      -2.954 -11.134   3.778  1.00  0.00    -0.200 F 
ATOM     78  C   UNL     1      -0.603 -11.275   3.950  1.00  0.00     0.200 A 
ATOM     79  F   UNL     1       1.744 -11.384   4.177  1.00  0.00    -0.200 F 
ATOM     80  F   UNL     1      -0.608 -12.436   3.281  1.00  0.00    -0.200 F 
ENDBRANCH  46  70
BRANCH  58  81
ATOM     81  C   UNL     1      -3.402  -7.583  11.649  1.00  0.00     0.064 A 
ATOM     82  C   UNL     1      -2.845  -8.633  12.394  1.00  0.00     0.173 A 
ATOM     83  C   UNL     1      -4.762  -7.291  11.846  1.00  0.00     0.173 A 
ATOM     84  F   UNL     1      -1.554  -8.960  12.238  1.00  0.00    -0.203 F 
ATOM     85  C   UNL     1      -3.624  -9.377  13.277  1.00  0.00     0.198 A 
ATOM     86  C   UNL     1      -5.529  -8.017  12.753  1.00  0.00     0.198 A 
ATOM     87  F   UNL     1      -5.344  -6.290  11.168  1.00  0.00    -0.203 F 
ATOM     88  F   UNL     1      -3.081 -10.407  13.942  1.00  0.00    -0.200 F 
ATOM     89  C   UNL     1      -4.963  -9.064  13.462  1.00  0.00     0.200 A 
ATOM     90  F   UNL     1      -6.818  -7.700  12.943  1.00  0.00    -0.200 F 
ATOM     91  F   UNL     1      -5.707  -9.776  14.319  1.00  0.00    -0.200 F 
ENDBRANCH  58  81
ENDBRANCH  32  33
ENDBRANCH  25  27
ENDBRANCH  24  25
ENDBRANCH  23  24
ENDBRANCH   1  23
TORSDOF 15
