REMARK SMILES CCN(CC)C(=O)[C@@H]1CC=CC[C@H]1C(=O)Nc1ccc(C(=O)OCCOC(=O)c2ccc(-c3c4nc(c(-c5c(F)c(F)c(F)c(F)c5F)c5ccc([nH]5)c(-c5c(F)c(F)c(F)c(F)c5F)c5nc(c(-c6c(F)c(F)c(F)c(F)c6F)c6ccc3[nH]6)C=C5)C=C4)cc2)cc1
REMARK SMILES IDX 24 1 23 2 21 3 22 4 20 5 17 6 18 7 93 8 19 9 92 10 16 11
REMARK SMILES IDX 14 12 15 13 13 15 8 16 9 17 10 18 12 19 11 20 6 21 3 22 7 23
REMARK SMILES IDX 2 24 1 25 4 26 5 27 25 28 26 29 27 30 28 31 29 32 30 33
REMARK SMILES IDX 91 34 31 35 90 36 32 37 33 38 34 39 84 40 35 41 89 42 83 43
REMARK SMILES IDX 85 44 36 45 88 46 82 47 81 48 37 50 69 51 49 52 68 53 50 54
REMARK SMILES IDX 53 55 67 56 86 57 51 58 52 59 66 61 87 62 54 63 38 64 39 65
REMARK SMILES IDX 47 66 40 67 41 68 45 69 48 70 42 71 43 72 46 73 44 74 70 75
REMARK SMILES IDX 71 76 79 77 72 78 73 79 77 80 80 81 74 82 75 83 78 84 76 85
REMARK SMILES IDX 55 86 56 87 64 88 57 89 58 90 62 91 65 92 59 93 60 94 63 95
REMARK SMILES IDX 61 96
REMARK H PARENT 16 14 85 49 53 60
REMARK Flexibility Score: inf
ROOT
ATOM      1  C   UNL     1      -1.747  -1.321   1.689  1.00  0.00     0.275 C 
ENDROOT
BRANCH   1   2
ATOM      2  O   UNL     1      -0.709  -0.858   0.808  1.00  0.00    -0.458 OA
BRANCH   2   3
ATOM      3  C   UNL     1      -1.141  -0.122  -0.240  1.00  0.00     0.338 C 
ATOM      4  O   UNL     1      -2.305   0.073  -0.561  1.00  0.00    -0.246 OA
BRANCH   3   5
ATOM      5  C   UNL     1      -0.014   0.546  -0.931  1.00  0.00     0.060 A 
ATOM      6  C   UNL     1       1.940   1.700  -2.510  1.00  0.00     0.041 A 
ATOM      7  C   UNL     1       0.651   2.220  -2.550  1.00  0.00     0.027 A 
ATOM      8  C   UNL     1       2.307   0.759  -1.550  1.00  0.00     0.027 A 
ATOM      9  C   UNL     1      -0.334   1.600  -1.801  1.00  0.00     0.018 A 
ATOM     10  C   UNL     1       1.320   0.165  -0.761  1.00  0.00     0.018 A 
BRANCH   6  11
ATOM     11  N   UNL     1       2.801   2.053  -3.552  1.00  0.00    -0.326 N 
ATOM     12  C   UNL     1       2.689   1.527  -4.820  1.00  0.00     0.228 C 
ATOM     13  O   UNL     1       2.826   2.318  -5.763  1.00  0.00    -0.274 OA
ATOM     14  H   UNL     1       3.518   2.704  -3.372  1.00  0.00     0.169 HD
BRANCH  12  15
ATOM     15  C   UNL     1       2.397   0.048  -5.115  1.00  0.00     0.095 C 
ATOM     16  C   UNL     1       3.121  -1.019  -4.269  1.00  0.00     0.095 C 
ATOM     17  C   UNL     1       2.483  -2.431  -4.503  1.00  0.00     0.041 C 
ATOM     18  C   UNL     1       1.002  -2.491  -4.667  1.00  0.00    -0.030 C 
ATOM     19  C   UNL     1       0.849  -0.068  -5.155  1.00  0.00     0.041 C 
ATOM     20  C   UNL     1       0.263  -1.422  -4.956  1.00  0.00    -0.030 C 
BRANCH  16  21
ATOM     21  C   UNL     1       4.662  -1.296  -4.272  1.00  0.00     0.226 C 
ATOM     22  N   UNL     1       5.684  -0.401  -4.532  1.00  0.00    -0.343 N 
ATOM     23  O   UNL     1       5.003  -2.420  -3.854  1.00  0.00    -0.275 OA
BRANCH  22  24
ATOM     24  C   UNL     1       7.035  -0.811  -4.111  1.00  0.00     0.116 C 
ATOM     25  C   UNL     1       7.233  -0.586  -2.616  1.00  0.00     0.027 C 
ENDBRANCH  22  24
BRANCH  22  26
ATOM     26  C   UNL     1       5.641   0.885  -5.213  1.00  0.00     0.116 C 
ATOM     27  C   UNL     1       5.449   0.752  -6.712  1.00  0.00     0.027 C 
ENDBRANCH  22  26
ENDBRANCH  16  21
ENDBRANCH  12  15
ENDBRANCH   6  11
ENDBRANCH   3   5
ENDBRANCH   2   3
ENDBRANCH   1   2
BRANCH   1  28
ATOM     28  C   UNL     1      -1.814  -0.425   2.925  1.00  0.00     0.275 C 
BRANCH  28  29
ATOM     29  O   UNL     1      -2.140   0.930   2.548  1.00  0.00    -0.458 OA
BRANCH  29  30
ATOM     30  C   UNL     1      -1.159   1.844   2.736  1.00  0.00     0.338 C 
ATOM     31  O   UNL     1      -0.057   1.664   3.225  1.00  0.00    -0.246 OA
BRANCH  30  32
ATOM     32  C   UNL     1      -1.576   3.156   2.211  1.00  0.00     0.060 A 
ATOM     33  C   UNL     1      -1.740   3.311   0.840  1.00  0.00     0.016 A 
ATOM     34  C   UNL     1      -1.643   4.269   3.043  1.00  0.00     0.016 A 
ATOM     35  C   UNL     1      -1.858   4.580   0.279  1.00  0.00     0.010 A 
ATOM     36  C   UNL     1      -1.900   5.532   2.488  1.00  0.00     0.010 A 
ATOM     37  C   UNL     1      -1.979   5.713   1.094  1.00  0.00    -0.014 A 
BRANCH  37  38
ATOM     38  C   UNL     1      -2.186   7.067   0.493  1.00  0.00     0.031 A 
ATOM     39  C   UNL     1      -1.279   8.216   0.856  1.00  0.00     0.074 A 
ATOM     40  C   UNL     1      -3.192   7.284  -0.382  1.00  0.00     0.049 A 
ATOM     41  N   UNL     1      -1.428   9.498   0.624  1.00  0.00    -0.248 NA
ATOM     42  C   UNL     1      -0.050   7.883   1.590  1.00  0.00     0.031 C 
ATOM     43  C   UNL     1      -4.128   6.269  -0.870  1.00  0.00     0.029 A 
ATOM     44  N   UNL     1      -3.598   8.434  -1.019  1.00  0.00    -0.354 N 
ATOM     45  C   UNL     1      -0.353  10.126   1.243  1.00  0.00     0.074 A 
ATOM     46  C   UNL     1       0.444   9.084   1.856  1.00  0.00     0.031 C 
ATOM     47  C   UNL     1      -4.964   6.825  -1.757  1.00  0.00     0.029 A 
ATOM     48  C   UNL     1      -4.707   8.258  -1.814  1.00  0.00     0.049 A 
ATOM     49  H   UNL     1      -3.139   9.299  -0.916  1.00  0.00     0.167 HD
ATOM     50  C   UNL     1      -0.064  11.449   1.298  1.00  0.00     0.037 A 
ATOM     51  C   UNL     1      -5.479   9.149  -2.466  1.00  0.00     0.037 A 
ATOM     52  C   UNL     1      -0.824  12.478   0.632  1.00  0.00     0.049 A 
ATOM     53  C   UNL     1      -5.164  10.613  -2.357  1.00  0.00     0.074 A 
ATOM     54  C   UNL     1      -0.586  13.841   0.596  1.00  0.00     0.029 A 
ATOM     55  N   UNL     1      -1.964  12.254  -0.127  1.00  0.00    -0.354 N 
ATOM     56  N   UNL     1      -4.181  11.200  -1.721  1.00  0.00    -0.248 NA
ATOM     57  C   UNL     1      -6.084  11.538  -3.032  1.00  0.00     0.031 C 
ATOM     58  C   UNL     1      -1.607  14.448  -0.143  1.00  0.00     0.029 A 
ATOM     59  C   UNL     1      -2.454  13.457  -0.613  1.00  0.00     0.049 A 
ATOM     60  H   UNL     1      -2.365  11.371  -0.296  1.00  0.00     0.167 HD
ATOM     61  C   UNL     1      -4.361  12.562  -1.918  1.00  0.00     0.074 A 
ATOM     62  C   UNL     1      -5.532  12.712  -2.758  1.00  0.00     0.031 C 
ATOM     63  C   UNL     1      -3.627  13.595  -1.438  1.00  0.00     0.037 A 
BRANCH  50  64
ATOM     64  C   UNL     1       1.103  11.877   2.144  1.00  0.00     0.064 A 
ATOM     65  C   UNL     1       2.431  11.631   1.770  1.00  0.00     0.173 A 
ATOM     66  C   UNL     1       0.881  12.590   3.334  1.00  0.00     0.173 A 
ATOM     67  F   UNL     1       2.700  10.946   0.648  1.00  0.00    -0.203 F 
ATOM     68  C   UNL     1       3.492  12.056   2.568  1.00  0.00     0.198 A 
ATOM     69  C   UNL     1       1.943  13.040   4.114  1.00  0.00     0.198 A 
ATOM     70  F   UNL     1      -0.370  12.862   3.736  1.00  0.00    -0.203 F 
ATOM     71  F   UNL     1       4.752  11.768   2.213  1.00  0.00    -0.200 F 
ATOM     72  C   UNL     1       3.248  12.765   3.734  1.00  0.00     0.200 A 
ATOM     73  F   UNL     1       1.704  13.739   5.232  1.00  0.00    -0.200 F 
ATOM     74  F   UNL     1       4.270  13.180   4.496  1.00  0.00    -0.200 F 
ENDBRANCH  50  64
BRANCH  51  75
ATOM     75  C   UNL     1      -6.669   8.675  -3.222  1.00  0.00     0.064 A 
ATOM     76  C   UNL     1      -6.718   8.758  -4.620  1.00  0.00     0.173 A 
ATOM     77  C   UNL     1      -7.771   8.107  -2.564  1.00  0.00     0.173 A 
ATOM     78  F   UNL     1      -5.704   9.320  -5.293  1.00  0.00    -0.203 F 
ATOM     79  C   UNL     1      -7.823   8.290  -5.329  1.00  0.00     0.198 A 
ATOM     80  C   UNL     1      -8.858   7.608  -3.276  1.00  0.00     0.198 A 
ATOM     81  F   UNL     1      -7.776   8.007  -1.226  1.00  0.00    -0.203 F 
ATOM     82  F   UNL     1      -7.861   8.413  -6.663  1.00  0.00    -0.200 F 
ATOM     83  C   UNL     1      -8.886   7.705  -4.658  1.00  0.00     0.200 A 
ATOM     84  F   UNL     1      -9.874   7.026  -2.623  1.00  0.00    -0.200 F 
ATOM     85  F   UNL     1      -9.939   7.238  -5.342  1.00  0.00    -0.200 F 
ENDBRANCH  51  75
BRANCH  63  86
ATOM     86  C   UNL     1      -4.063  14.977  -1.824  1.00  0.00     0.064 A 
ATOM     87  C   UNL     1      -5.215  15.561  -1.278  1.00  0.00     0.173 A 
ATOM     88  C   UNL     1      -3.311  15.733  -2.736  1.00  0.00     0.173 A 
ATOM     89  F   UNL     1      -5.978  14.871  -0.417  1.00  0.00    -0.203 F 
ATOM     90  C   UNL     1      -5.614  16.842  -1.651  1.00  0.00     0.198 A 
ATOM     91  C   UNL     1      -3.697  17.024  -3.085  1.00  0.00     0.198 A 
ATOM     92  F   UNL     1      -2.199  15.221  -3.284  1.00  0.00    -0.203 F 
ATOM     93  F   UNL     1      -6.746  17.360  -1.156  1.00  0.00    -0.200 F 
ATOM     94  C   UNL     1      -4.852  17.574  -2.549  1.00  0.00     0.200 A 
ATOM     95  F   UNL     1      -2.954  17.734  -3.945  1.00  0.00    -0.200 F 
ATOM     96  F   UNL     1      -5.236  18.808  -2.906  1.00  0.00    -0.200 F 
ENDBRANCH  63  86
ENDBRANCH  37  38
ENDBRANCH  30  32
ENDBRANCH  29  30
ENDBRANCH  28  29
ENDBRANCH   1  28
TORSDOF 16
