REMARK SMILES CCCCn1c(C[N@H+]2C[C@H]3C(=O)NC[C@@]3(C(=O)OCCOC(=O)c3ccc(-c4c5nc(c(-c6c(F)c(F)c(F)c(F)c6F)c6ccc([nH]6)c(-c6c(F)c(F)c(F)c(F)c6F)c6nc(c(-c7c(F)c(F)c(F)c(F)c7F)c7ccc4[nH]7)C=C6)C=C5)cc3)C2)nc2ccccc21
REMARK SMILES IDX 18 1 16 2 17 3 15 4 8 5 9 6 87 7 10 9 11 10 14 11 12 12
REMARK SMILES IDX 13 13 7 15 6 16 5 17 94 18 88 19 89 20 93 21 90 22 92 23
REMARK SMILES IDX 91 24 4 25 3 26 2 27 1 28 19 29 20 30 21 31 22 32 23 33
REMARK SMILES IDX 24 34 25 35 86 36 26 37 85 38 27 39 28 40 29 41 79 42 30 43
REMARK SMILES IDX 84 44 78 45 80 46 31 47 83 48 77 49 76 50 32 52 64 53 44 54
REMARK SMILES IDX 63 55 45 56 48 57 62 58 81 59 46 60 47 61 61 63 82 64 49 65
REMARK SMILES IDX 33 66 34 67 42 68 35 69 36 70 40 71 43 72 37 73 38 74 41 75
REMARK SMILES IDX 39 76 65 77 66 78 74 79 67 80 68 81 72 82 75 83 69 84 70 85
REMARK SMILES IDX 73 86 71 87 50 88 51 89 59 90 52 91 53 92 57 93 60 94 54 95
REMARK SMILES IDX 55 96 58 97 56 98
REMARK H PARENT 8 8 13 14 80 51 48 62
REMARK Flexibility Score: inf
ROOT
ATOM      1  O   UNL     1      -5.185   0.527   0.086  1.00  0.00    -0.461 OA
ENDROOT
BRANCH   1   2
ATOM      2  C   UNL     1      -5.138  -0.737   0.587  1.00  0.00     0.320 C 
ATOM      3  O   UNL     1      -6.123  -1.206   1.132  1.00  0.00    -0.251 OA
BRANCH   2   4
ATOM      4  C   UNL     1      -3.690  -1.318   0.624  1.00  0.00     0.151 C 
ATOM      5  N   UNL     1      -1.569  -0.537  -0.351  1.00  0.00    -0.327 N 
ATOM      6  C   UNL     1      -1.404  -1.940  -0.011  1.00  0.00     0.277 C 
ATOM      7  C   UNL     1      -2.994  -0.361  -0.362  1.00  0.00     0.284 C 
ATOM      8  H   UNL     1      -1.045  -0.401  -1.215  1.00  0.00     0.348 HD
ATOM      9  C   UNL     1      -2.832  -2.541   0.169  1.00  0.00     0.158 C 
ATOM     10  C   UNL     1      -2.554  -3.455   1.337  1.00  0.00     0.230 C 
ATOM     11  C   UNL     1      -3.689  -1.674   2.111  1.00  0.00     0.141 C 
ATOM     12  O   UNL     1      -2.120  -4.586   1.308  1.00  0.00    -0.275 OA
ATOM     13  N   UNL     1      -2.738  -2.675   2.445  1.00  0.00    -0.354 N 
ATOM     14  H   UNL     1      -2.292  -2.786   3.316  1.00  0.00     0.163 HD
BRANCH   5  15
ATOM     15  C   UNL     1      -0.994   0.519   0.503  1.00  0.00     0.339 C 
BRANCH  15  16
ATOM     16  C   UNL     1      -1.405   0.568   1.947  1.00  0.00     0.165 A 
ATOM     17  N   UNL     1      -0.568   0.289   3.009  1.00  0.00    -0.323 N 
ATOM     18  C   UNL     1      -1.331   0.321   4.168  1.00  0.00     0.068 A 
ATOM     19  N   UNL     1      -2.592   0.956   2.387  1.00  0.00    -0.227 NA
ATOM     20  C   UNL     1      -2.583   0.755   3.747  1.00  0.00     0.089 A 
ATOM     21  C   UNL     1      -1.077   0.032   5.517  1.00  0.00     0.028 A 
ATOM     22  C   UNL     1      -3.658   0.813   4.658  1.00  0.00     0.030 A 
ATOM     23  C   UNL     1      -2.159   0.097   6.413  1.00  0.00     0.002 A 
ATOM     24  C   UNL     1      -3.439   0.451   5.989  1.00  0.00     0.002 A 
BRANCH  17  25
ATOM     25  C   UNL     1       0.884   0.270   2.949  1.00  0.00     0.124 C 
BRANCH  25  26
ATOM     26  C   UNL     1       1.593  -0.993   2.428  1.00  0.00     0.022 C 
BRANCH  26  27
ATOM     27  C   UNL     1       1.894  -1.147   0.925  1.00  0.00    -0.002 C 
ATOM     28  C   UNL     1       2.505   0.036   0.188  1.00  0.00     0.004 C 
ENDBRANCH  26  27
ENDBRANCH  25  26
ENDBRANCH  17  25
ENDBRANCH  15  16
ENDBRANCH   5  15
ENDBRANCH   2   4
ENDBRANCH   1   2
BRANCH   1  29
ATOM     29  C   UNL     1      -6.444   1.169  -0.144  1.00  0.00     0.274 C 
BRANCH  29  30
ATOM     30  C   UNL     1      -6.908   0.754  -1.540  1.00  0.00     0.275 C 
BRANCH  30  31
ATOM     31  O   UNL     1      -7.501  -0.560  -1.450  1.00  0.00    -0.458 OA
BRANCH  31  32
ATOM     32  C   UNL     1      -6.820  -1.583  -2.026  1.00  0.00     0.338 C 
ATOM     33  O   UNL     1      -6.008  -1.484  -2.932  1.00  0.00    -0.246 OA
BRANCH  32  34
ATOM     34  C   UNL     1      -6.902  -2.773  -1.125  1.00  0.00     0.060 A 
ATOM     35  C   UNL     1      -7.876  -2.905  -0.124  1.00  0.00     0.016 A 
ATOM     36  C   UNL     1      -5.750  -3.550  -1.054  1.00  0.00     0.016 A 
ATOM     37  C   UNL     1      -7.584  -3.626   1.052  1.00  0.00     0.010 A 
ATOM     38  C   UNL     1      -5.460  -4.231   0.129  1.00  0.00     0.010 A 
ATOM     39  C   UNL     1      -6.318  -4.195   1.240  1.00  0.00    -0.014 A 
BRANCH  39  40
ATOM     40  C   UNL     1      -6.023  -5.088   2.390  1.00  0.00     0.031 A 
ATOM     41  C   UNL     1      -6.437  -6.446   1.979  1.00  0.00     0.074 A 
ATOM     42  C   UNL     1      -5.463  -4.917   3.621  1.00  0.00     0.049 A 
ATOM     43  N   UNL     1      -7.586  -6.957   2.273  1.00  0.00    -0.248 NA
ATOM     44  C   UNL     1      -5.698  -7.179   0.937  1.00  0.00     0.031 C 
ATOM     45  C   UNL     1      -4.910  -3.723   4.257  1.00  0.00     0.029 A 
ATOM     46  N   UNL     1      -5.187  -5.866   4.589  1.00  0.00    -0.354 N 
ATOM     47  C   UNL     1      -7.587  -8.189   1.652  1.00  0.00     0.074 A 
ATOM     48  C   UNL     1      -6.578  -8.136   0.632  1.00  0.00     0.031 C 
ATOM     49  C   UNL     1      -4.083  -4.056   5.280  1.00  0.00     0.029 A 
ATOM     50  C   UNL     1      -4.250  -5.470   5.553  1.00  0.00     0.049 A 
ATOM     51  H   UNL     1      -5.616  -6.752   4.599  1.00  0.00     0.167 HD
ATOM     52  C   UNL     1      -8.102  -9.255   2.314  1.00  0.00     0.037 A 
ATOM     53  C   UNL     1      -3.740  -6.192   6.587  1.00  0.00     0.037 A 
ATOM     54  C   UNL     1      -8.893  -8.825   3.442  1.00  0.00     0.049 A 
ATOM     55  C   UNL     1      -4.773  -7.181   6.945  1.00  0.00     0.074 A 
ATOM     56  C   UNL     1     -10.081  -8.153   3.632  1.00  0.00     0.029 A 
ATOM     57  N   UNL     1      -8.172  -8.711   4.599  1.00  0.00    -0.354 N 
ATOM     58  N   UNL     1      -5.903  -6.860   7.507  1.00  0.00    -0.248 NA
ATOM     59  C   UNL     1      -4.689  -8.530   6.404  1.00  0.00     0.031 C 
ATOM     60  C   UNL     1      -9.994  -7.534   4.915  1.00  0.00     0.029 A 
ATOM     61  C   UNL     1      -8.777  -7.876   5.497  1.00  0.00     0.049 A 
ATOM     62  H   UNL     1      -7.320  -9.174   4.765  1.00  0.00     0.167 HD
ATOM     63  C   UNL     1      -6.792  -7.761   6.968  1.00  0.00     0.074 A 
ATOM     64  C   UNL     1      -5.978  -8.865   6.476  1.00  0.00     0.031 C 
ATOM     65  C   UNL     1      -8.049  -7.358   6.632  1.00  0.00     0.037 A 
BRANCH  52  66
ATOM     66  C   UNL     1      -7.454 -10.618   2.292  1.00  0.00     0.064 A 
ATOM     67  C   UNL     1      -8.155 -11.704   2.843  1.00  0.00     0.173 A 
ATOM     68  C   UNL     1      -6.083 -10.847   2.033  1.00  0.00     0.173 A 
ATOM     69  F   UNL     1      -9.442 -11.572   3.197  1.00  0.00    -0.203 F 
ATOM     70  C   UNL     1      -7.523 -12.917   3.127  1.00  0.00     0.198 A 
ATOM     71  C   UNL     1      -5.473 -12.076   2.253  1.00  0.00     0.198 A 
ATOM     72  F   UNL     1      -5.242  -9.868   1.683  1.00  0.00    -0.203 F 
ATOM     73  F   UNL     1      -8.200 -13.886   3.757  1.00  0.00    -0.200 F 
ATOM     74  C   UNL     1      -6.187 -13.106   2.822  1.00  0.00     0.200 A 
ATOM     75  F   UNL     1      -4.166 -12.219   1.990  1.00  0.00    -0.200 F 
ATOM     76  F   UNL     1      -5.571 -14.254   3.129  1.00  0.00    -0.200 F 
ENDBRANCH  52  66
BRANCH  53  77
ATOM     77  C   UNL     1      -2.410  -6.218   7.261  1.00  0.00     0.064 A 
ATOM     78  C   UNL     1      -2.220  -6.938   8.462  1.00  0.00     0.173 A 
ATOM     79  C   UNL     1      -1.240  -5.853   6.574  1.00  0.00     0.173 A 
ATOM     80  F   UNL     1      -3.275  -7.335   9.190  1.00  0.00    -0.203 F 
ATOM     81  C   UNL     1      -0.953  -7.346   8.895  1.00  0.00     0.198 A 
ATOM     82  C   UNL     1       0.029  -6.260   7.010  1.00  0.00     0.198 A 
ATOM     83  F   UNL     1      -1.314  -5.177   5.419  1.00  0.00    -0.203 F 
ATOM     84  F   UNL     1      -0.832  -8.108   9.992  1.00  0.00    -0.200 F 
ATOM     85  C   UNL     1       0.170  -7.028   8.153  1.00  0.00     0.200 A 
ATOM     86  F   UNL     1       1.113  -5.962   6.278  1.00  0.00    -0.200 F 
ATOM     87  F   UNL     1       1.375  -7.490   8.518  1.00  0.00    -0.200 F 
ENDBRANCH  53  77
BRANCH  65  88
ATOM     88  C   UNL     1      -8.648  -6.213   7.384  1.00  0.00     0.064 A 
ATOM     89  C   UNL     1      -8.213  -4.881   7.311  1.00  0.00     0.173 A 
ATOM     90  C   UNL     1      -9.807  -6.481   8.127  1.00  0.00     0.173 A 
ATOM     91  F   UNL     1      -7.144  -4.538   6.581  1.00  0.00    -0.203 F 
ATOM     92  C   UNL     1      -8.916  -3.865   7.960  1.00  0.00     0.198 A 
ATOM     93  C   UNL     1     -10.525  -5.462   8.739  1.00  0.00     0.198 A 
ATOM     94  F   UNL     1     -10.273  -7.737   8.212  1.00  0.00    -0.203 F 
ATOM     95  F   UNL     1      -8.488  -2.596   7.882  1.00  0.00    -0.200 F 
ATOM     96  C   UNL     1     -10.079  -4.155   8.658  1.00  0.00     0.200 A 
ATOM     97  F   UNL     1     -11.667  -5.747   9.381  1.00  0.00    -0.200 F 
ATOM     98  F   UNL     1     -10.783  -3.170   9.235  1.00  0.00    -0.200 F 
ENDBRANCH  65  88
ENDBRANCH  39  40
ENDBRANCH  32  34
ENDBRANCH  31  32
ENDBRANCH  30  31
ENDBRANCH  29  30
ENDBRANCH   1  29
TORSDOF 16
