REMARK SMILES [NH3+][C@@H]1C=C[C@H](C(=O)NC[C@H](O)C(=O)OCCOC(=O)c2ccc(-c3c4nc(c(-c5c(F)c(F)c(F)c(F)c5F)c5ccc([nH]5)c(-c5c(F)c(F)c(F)c(F)c5F)c5nc(c(-c6c(F)c(F)c(F)c(F)c6F)c6ccc3[nH]6)C=C5)C=C4)cc2)C1
REMARK SMILES IDX 15 1 14 2 12 3 13 4 10 5 9 6 8 7 6 8 7 9 5 11 2 12 3 13
REMARK SMILES IDX 83 14 4 15 1 16 11 20 16 22 17 23 18 24 19 25 20 26 21 27
REMARK SMILES IDX 82 28 22 29 81 30 23 31 24 32 25 33 75 34 26 35 80 36 74 37
REMARK SMILES IDX 76 38 27 39 79 40 73 41 72 42 28 44 60 45 40 46 59 47 41 48
REMARK SMILES IDX 44 49 58 50 77 51 42 52 43 53 57 55 78 56 45 57 29 58 30 59
REMARK SMILES IDX 38 60 31 61 32 62 36 63 39 64 33 65 34 66 37 67 35 68 61 69
REMARK SMILES IDX 62 70 70 71 63 72 64 73 68 74 71 75 65 76 66 77 69 78 67 79
REMARK SMILES IDX 46 80 47 81 55 82 48 83 49 84 53 85 56 86 50 87 51 88 54 89
REMARK SMILES IDX 52 90
REMARK H PARENT 8 10 1 17 1 18 1 19 11 21 76 43 44 54
REMARK Flexibility Score: inf
ROOT
ATOM      1  C   UNL     1      11.124 -12.303   1.127  1.00  0.00     0.274 C 
ENDROOT
BRANCH   1   2
ATOM      2  O   UNL     1      10.606 -11.046   0.660  1.00  0.00    -0.460 OA
BRANCH   2   3
ATOM      3  C   UNL     1       9.762 -10.374   1.491  1.00  0.00     0.336 C 
ATOM      4  O   UNL     1       9.262 -10.828   2.514  1.00  0.00    -0.249 OA
BRANCH   3   5
ATOM      5  C   UNL     1       9.600  -8.919   1.043  1.00  0.00     0.243 C 
BRANCH   5   6
ATOM      6  C   UNL     1       8.130  -8.613   0.758  1.00  0.00     0.159 C 
BRANCH   6   7
ATOM      7  N   UNL     1       7.359  -8.393   1.979  1.00  0.00    -0.352 N 
ATOM      8  C   UNL     1       6.389  -7.504   2.311  1.00  0.00     0.227 C 
ATOM      9  O   UNL     1       6.016  -7.532   3.491  1.00  0.00    -0.274 OA
ATOM     10  H   UNL     1       7.591  -9.014   2.708  1.00  0.00     0.163 HD
BRANCH   8  11
ATOM     11  C   UNL     1       5.735  -6.508   1.331  1.00  0.00     0.107 C 
ATOM     12  C   UNL     1       4.005  -7.636   0.009  1.00  0.00     0.205 C 
ATOM     13  C   UNL     1       5.144  -7.186  -0.844  1.00  0.00     0.033 C 
ATOM     14  C   UNL     1       4.219  -6.787   1.271  1.00  0.00     0.087 C 
ATOM     15  C   UNL     1       6.069  -6.535  -0.128  1.00  0.00    -0.012 C 
BRANCH  12  16
ATOM     16  N   UNL     1       4.085  -9.063   0.265  1.00  0.00    -0.352 N 
ATOM     17  H   UNL     1       3.936  -9.573  -0.605  1.00  0.00     0.345 HD
ATOM     18  H   UNL     1       3.370  -9.328   0.942  1.00  0.00     0.345 HD
ATOM     19  H   UNL     1       5.007  -9.290   0.638  1.00  0.00     0.345 HD
ENDBRANCH  12  16
ENDBRANCH   8  11
ENDBRANCH   6   7
ENDBRANCH   5   6
BRANCH   5  20
ATOM     20  O   UNL     1      10.405  -8.554  -0.076  1.00  0.00    -0.380 OA
ATOM     21  H   UNL     1      10.131  -9.066  -0.853  1.00  0.00     0.211 HD
ENDBRANCH   5  20
ENDBRANCH   3   5
ENDBRANCH   2   3
ENDBRANCH   1   2
BRANCH   1  22
ATOM     22  C   UNL     1      12.557 -12.121   1.641  1.00  0.00     0.275 C 
BRANCH  22  23
ATOM     23  O   UNL     1      12.592 -11.467   2.926  1.00  0.00    -0.458 OA
BRANCH  23  24
ATOM     24  C   UNL     1      12.573 -10.113   2.900  1.00  0.00     0.338 C 
ATOM     25  O   UNL     1      12.532  -9.396   1.913  1.00  0.00    -0.246 OA
BRANCH  24  26
ATOM     26  C   UNL     1      12.453  -9.589   4.274  1.00  0.00     0.060 A 
ATOM     27  C   UNL     1      11.456  -8.643   4.530  1.00  0.00     0.016 A 
ATOM     28  C   UNL     1      13.339  -9.966   5.286  1.00  0.00     0.016 A 
ATOM     29  C   UNL     1      11.351  -8.053   5.784  1.00  0.00     0.010 A 
ATOM     30  C   UNL     1      13.227  -9.380   6.552  1.00  0.00     0.010 A 
ATOM     31  C   UNL     1      12.241  -8.409   6.804  1.00  0.00    -0.014 A 
BRANCH  31  32
ATOM     32  C   UNL     1      12.152  -7.722   8.114  1.00  0.00     0.031 A 
ATOM     33  C   UNL     1      13.186  -6.705   8.497  1.00  0.00     0.074 A 
ATOM     34  C   UNL     1      11.116  -7.979   8.933  1.00  0.00     0.049 A 
ATOM     35  N   UNL     1      13.314  -6.031   9.612  1.00  0.00    -0.248 NA
ATOM     36  C   UNL     1      14.215  -6.404   7.490  1.00  0.00     0.031 C 
ATOM     37  C   UNL     1      10.023  -8.906   8.644  1.00  0.00     0.029 A 
ATOM     38  N   UNL     1      10.811  -7.476  10.173  1.00  0.00    -0.354 N 
ATOM     39  C   UNL     1      14.444  -5.242   9.449  1.00  0.00     0.074 A 
ATOM     40  C   UNL     1      14.978  -5.533   8.136  1.00  0.00     0.031 C 
ATOM     41  C   UNL     1       9.161  -8.900   9.674  1.00  0.00     0.029 A 
ATOM     42  C   UNL     1       9.666  -8.007  10.712  1.00  0.00     0.049 A 
ATOM     43  H   UNL     1      11.361  -6.799  10.631  1.00  0.00     0.167 HD
ATOM     44  C   UNL     1      14.981  -4.353  10.318  1.00  0.00     0.037 A 
ATOM     45  C   UNL     1       9.103  -7.812  11.919  1.00  0.00     0.037 A 
ATOM     46  C   UNL     1      14.434  -4.054  11.616  1.00  0.00     0.049 A 
ATOM     47  C   UNL     1       9.753  -6.862  12.887  1.00  0.00     0.074 A 
ATOM     48  C   UNL     1      14.900  -3.162  12.566  1.00  0.00     0.029 A 
ATOM     49  N   UNL     1      13.294  -4.642  12.146  1.00  0.00    -0.354 N 
ATOM     50  N   UNL     1      10.827  -6.128  12.731  1.00  0.00    -0.248 NA
ATOM     51  C   UNL     1       9.114  -6.717  14.202  1.00  0.00     0.031 C 
ATOM     52  C   UNL     1      14.066  -3.240  13.687  1.00  0.00     0.029 A 
ATOM     53  C   UNL     1      13.054  -4.147  13.418  1.00  0.00     0.049 A 
ATOM     54  H   UNL     1      12.738  -5.311  11.685  1.00  0.00     0.167 HD
ATOM     55  C   UNL     1      10.982  -5.420  13.914  1.00  0.00     0.074 A 
ATOM     56  C   UNL     1       9.882  -5.801  14.775  1.00  0.00     0.031 C 
ATOM     57  C   UNL     1      11.950  -4.535  14.258  1.00  0.00     0.037 A 
BRANCH  44  58
ATOM     58  C   UNL     1      16.246  -3.660   9.905  1.00  0.00     0.064 A 
ATOM     59  C   UNL     1      16.254  -2.657   8.926  1.00  0.00     0.173 A 
ATOM     60  C   UNL     1      17.463  -3.984  10.524  1.00  0.00     0.173 A 
ATOM     61  F   UNL     1      15.119  -2.321   8.294  1.00  0.00    -0.203 F 
ATOM     62  C   UNL     1      17.439  -2.019   8.564  1.00  0.00     0.198 A 
ATOM     63  C   UNL     1      18.641  -3.327  10.178  1.00  0.00     0.198 A 
ATOM     64  F   UNL     1      17.510  -4.935  11.469  1.00  0.00    -0.203 F 
ATOM     65  F   UNL     1      17.431  -1.094   7.594  1.00  0.00    -0.200 F 
ATOM     66  C   UNL     1      18.629  -2.350   9.194  1.00  0.00     0.200 A 
ATOM     67  F   UNL     1      19.788  -3.642  10.795  1.00  0.00    -0.200 F 
ATOM     68  F   UNL     1      19.767  -1.733   8.848  1.00  0.00    -0.200 F 
ENDBRANCH  44  58
BRANCH  45  69
ATOM     69  C   UNL     1       7.867  -8.550  12.286  1.00  0.00     0.064 A 
ATOM     70  C   UNL     1       6.644  -7.884  12.443  1.00  0.00     0.173 A 
ATOM     71  C   UNL     1       7.886  -9.938  12.493  1.00  0.00     0.173 A 
ATOM     72  F   UNL     1       6.582  -6.553  12.284  1.00  0.00    -0.203 F 
ATOM     73  C   UNL     1       5.490  -8.575  12.806  1.00  0.00     0.198 A 
ATOM     74  C   UNL     1       6.726 -10.632  12.828  1.00  0.00     0.198 A 
ATOM     75  F   UNL     1       9.032 -10.621  12.360  1.00  0.00    -0.203 F 
ATOM     76  F   UNL     1       4.344  -7.908  12.995  1.00  0.00    -0.200 F 
ATOM     77  C   UNL     1       5.530  -9.949  12.992  1.00  0.00     0.200 A 
ATOM     78  F   UNL     1       6.768 -11.960  12.998  1.00  0.00    -0.200 F 
ATOM     79  F   UNL     1       4.420 -10.613  13.339  1.00  0.00    -0.200 F 
ENDBRANCH  45  69
BRANCH  57  80
ATOM     80  C   UNL     1      11.845  -3.898  15.612  1.00  0.00     0.064 A 
ATOM     81  C   UNL     1      12.126  -4.615  16.785  1.00  0.00     0.173 A 
ATOM     82  C   UNL     1      11.492  -2.546  15.735  1.00  0.00     0.173 A 
ATOM     83  F   UNL     1      12.452  -5.914  16.720  1.00  0.00    -0.203 F 
ATOM     84  C   UNL     1      12.034  -4.006  18.033  1.00  0.00     0.198 A 
ATOM     85  C   UNL     1      11.428  -1.933  16.983  1.00  0.00     0.198 A 
ATOM     86  F   UNL     1      11.220  -1.816  14.643  1.00  0.00    -0.203 F 
ATOM     87  F   UNL     1      12.264  -4.721  19.144  1.00  0.00    -0.200 F 
ATOM     88  C   UNL     1      11.692  -2.665  18.131  1.00  0.00     0.200 A 
ATOM     89  F   UNL     1      11.108  -0.635  17.076  1.00  0.00    -0.200 F 
ATOM     90  F   UNL     1      11.609  -2.080  19.334  1.00  0.00    -0.200 F 
ENDBRANCH  57  80
ENDBRANCH  31  32
ENDBRANCH  24  26
ENDBRANCH  23  24
ENDBRANCH  22  23
ENDBRANCH   1  22
TORSDOF 16
