REMARK SMILES CCCCOCc1cc(C(=O)OCCOC(=O)c2ccc(-c3c4nc(c(-c5c(F)c(F)c(F)c(F)c5F)c5ccc([nH]5)c(-c5c(F)c(F)c(F)c(F)c5F)c5nc(c(-c6c(F)c(F)c(F)c(F)c6F)c6ccc3[nH]6)C=C5)C=C4)cc2)[nH]n1
REMARK SMILES IDX 12 1 10 2 11 3 9 4 7 5 8 6 82 7 81 8 6 10 5 11 4 12 3 13
REMARK SMILES IDX 2 14 1 15 13 16 14 17 15 18 16 19 17 20 18 21 19 22 80 23
REMARK SMILES IDX 20 24 79 25 21 26 22 27 23 28 73 29 24 30 78 31 72 32 74 33
REMARK SMILES IDX 25 34 77 35 71 36 70 37 26 39 58 40 38 41 57 42 39 43 42 44
REMARK SMILES IDX 56 45 75 46 40 47 41 48 55 50 76 51 43 52 27 53 28 54 36 55
REMARK SMILES IDX 29 56 30 57 34 58 37 59 31 60 32 61 35 62 33 63 59 64 60 65
REMARK SMILES IDX 68 66 61 67 62 68 66 69 69 70 63 71 64 72 67 73 65 74 44 75
REMARK SMILES IDX 45 76 53 77 46 78 47 79 51 80 54 81 48 82 49 83 52 84 50 85
REMARK H PARENT 81 9 74 38 42 49
REMARK Flexibility Score: inf
ROOT
ATOM      1  O   UNL     1       1.109  -1.071  -5.027  1.00  0.00    -0.457 OA
ENDROOT
BRANCH   1   2
ATOM      2  C   UNL     1      -0.047  -1.641  -4.594  1.00  0.00     0.356 C 
ATOM      3  O   UNL     1      -0.471  -2.735  -4.947  1.00  0.00    -0.244 OA
BRANCH   2   4
ATOM      4  C   UNL     1      -0.676  -0.828  -3.594  1.00  0.00     0.143 A 
ATOM      5  C   UNL     1      -1.395   0.697  -2.133  1.00  0.00     0.089 A 
ATOM      6  C   UNL     1      -0.651   0.526  -3.330  1.00  0.00     0.063 A 
ATOM      7  N   UNL     1      -1.912  -0.468  -1.718  1.00  0.00    -0.177 NA
ATOM      8  N   UNL     1      -1.515  -1.346  -2.647  1.00  0.00    -0.271 N 
ATOM      9  H   UNL     1      -1.803  -2.287  -2.649  1.00  0.00     0.190 HD
BRANCH   5  10
ATOM     10  C   UNL     1      -1.643   1.946  -1.343  1.00  0.00     0.218 C 
BRANCH  10  11
ATOM     11  O   UNL     1      -0.712   3.013  -1.547  1.00  0.00    -0.375 OA
BRANCH  11  12
ATOM     12  C   UNL     1       0.658   2.749  -1.261  1.00  0.00     0.160 C 
BRANCH  12  13
ATOM     13  C   UNL     1       1.030   2.690   0.221  1.00  0.00     0.028 C 
BRANCH  13  14
ATOM     14  C   UNL     1       0.792   1.363   0.951  1.00  0.00    -0.001 C 
ATOM     15  C   UNL     1       1.465   0.157   0.315  1.00  0.00     0.004 C 
ENDBRANCH  13  14
ENDBRANCH  12  13
ENDBRANCH  11  12
ENDBRANCH  10  11
ENDBRANCH   5  10
ENDBRANCH   2   4
ENDBRANCH   1   2
BRANCH   1  16
ATOM     16  C   UNL     1       1.855  -1.812  -6.014  1.00  0.00     0.275 C 
BRANCH  16  17
ATOM     17  C   UNL     1       2.937  -2.713  -5.406  1.00  0.00     0.275 C 
BRANCH  17  18
ATOM     18  O   UNL     1       2.377  -3.869  -4.751  1.00  0.00    -0.458 OA
BRANCH  18  19
ATOM     19  C   UNL     1       2.286  -3.766  -3.407  1.00  0.00     0.338 C 
ATOM     20  O   UNL     1       2.639  -2.825  -2.715  1.00  0.00    -0.246 OA
BRANCH  19  21
ATOM     21  C   UNL     1       1.525  -4.891  -2.840  1.00  0.00     0.060 A 
ATOM     22  C   UNL     1       0.257  -4.588  -2.349  1.00  0.00     0.016 A 
ATOM     23  C   UNL     1       2.086  -6.144  -2.602  1.00  0.00     0.016 A 
ATOM     24  C   UNL     1      -0.439  -5.496  -1.564  1.00  0.00     0.010 A 
ATOM     25  C   UNL     1       1.368  -7.080  -1.838  1.00  0.00     0.010 A 
ATOM     26  C   UNL     1       0.118  -6.747  -1.277  1.00  0.00    -0.014 A 
BRANCH  26  27
ATOM     27  C   UNL     1      -0.569  -7.625  -0.288  1.00  0.00     0.031 A 
ATOM     28  C   UNL     1       0.087  -7.917   1.036  1.00  0.00     0.074 A 
ATOM     29  C   UNL     1      -1.815  -8.080  -0.527  1.00  0.00     0.049 A 
ATOM     30  N   UNL     1      -0.305  -8.707   2.005  1.00  0.00    -0.248 NA
ATOM     31  C   UNL     1       1.360  -7.231   1.306  1.00  0.00     0.031 C 
ATOM     32  C   UNL     1      -2.595  -7.814  -1.736  1.00  0.00     0.029 A 
ATOM     33  N   UNL     1      -2.654  -8.845   0.247  1.00  0.00    -0.354 N 
ATOM     34  C   UNL     1       0.693  -8.651   2.970  1.00  0.00     0.074 A 
ATOM     35  C   UNL     1       1.716  -7.761   2.466  1.00  0.00     0.031 C 
ATOM     36  C   UNL     1      -3.807  -8.377  -1.610  1.00  0.00     0.029 A 
ATOM     37  C   UNL     1      -3.866  -9.103  -0.345  1.00  0.00     0.049 A 
ATOM     38  H   UNL     1      -2.409  -9.177   1.141  1.00  0.00     0.167 HD
ATOM     39  C   UNL     1       0.748  -9.280   4.169  1.00  0.00     0.037 A 
ATOM     40  C   UNL     1      -4.898  -9.862   0.070  1.00  0.00     0.037 A 
ATOM     41  C   UNL     1      -0.296 -10.124   4.691  1.00  0.00     0.049 A 
ATOM     42  C   UNL     1      -4.800 -10.572   1.393  1.00  0.00     0.074 A 
ATOM     43  C   UNL     1      -0.335 -10.810   5.893  1.00  0.00     0.029 A 
ATOM     44  N   UNL     1      -1.498 -10.382   4.047  1.00  0.00    -0.354 N 
ATOM     45  N   UNL     1      -3.829 -10.556   2.273  1.00  0.00    -0.248 NA
ATOM     46  C   UNL     1      -5.943 -11.412   1.778  1.00  0.00     0.031 C 
ATOM     47  C   UNL     1      -1.543 -11.514   5.958  1.00  0.00     0.029 A 
ATOM     48  C   UNL     1      -2.281 -11.222   4.823  1.00  0.00     0.049 A 
ATOM     49  H   UNL     1      -1.756 -10.021   3.168  1.00  0.00     0.167 HD
ATOM     50  C   UNL     1      -4.254 -11.354   3.327  1.00  0.00     0.074 A 
ATOM     51  C   UNL     1      -5.579 -11.827   2.982  1.00  0.00     0.031 C 
ATOM     52  C   UNL     1      -3.606 -11.669   4.475  1.00  0.00     0.037 A 
BRANCH  39  53
ATOM     53  C   UNL     1       1.999  -9.110   4.985  1.00  0.00     0.064 A 
ATOM     54  C   UNL     1       2.325  -7.897   5.609  1.00  0.00     0.173 A 
ATOM     55  C   UNL     1       2.878 -10.191   5.158  1.00  0.00     0.173 A 
ATOM     56  F   UNL     1       1.528  -6.827   5.463  1.00  0.00    -0.203 F 
ATOM     57  C   UNL     1       3.499  -7.763   6.347  1.00  0.00     0.198 A 
ATOM     58  C   UNL     1       4.034 -10.063   5.924  1.00  0.00     0.198 A 
ATOM     59  F   UNL     1       2.613 -11.377   4.589  1.00  0.00    -0.203 F 
ATOM     60  F   UNL     1       3.818  -6.578   6.887  1.00  0.00    -0.200 F 
ATOM     61  C   UNL     1       4.348  -8.847   6.510  1.00  0.00     0.200 A 
ATOM     62  F   UNL     1       4.846 -11.117   6.091  1.00  0.00    -0.200 F 
ATOM     63  F   UNL     1       5.475  -8.717   7.224  1.00  0.00    -0.200 F 
ENDBRANCH  39  53
BRANCH  40  64
ATOM     64  C   UNL     1      -6.106 -10.011  -0.786  1.00  0.00     0.064 A 
ATOM     65  C   UNL     1      -7.347  -9.496  -0.387  1.00  0.00     0.173 A 
ATOM     66  C   UNL     1      -6.046 -10.687  -2.014  1.00  0.00     0.173 A 
ATOM     67  F   UNL     1      -7.463  -8.865   0.791  1.00  0.00    -0.203 F 
ATOM     68  C   UNL     1      -8.485  -9.668  -1.174  1.00  0.00     0.198 A 
ATOM     69  C   UNL     1      -7.177 -10.828  -2.816  1.00  0.00     0.198 A 
ATOM     70  F   UNL     1      -4.884 -11.201  -2.443  1.00  0.00    -0.203 F 
ATOM     71  F   UNL     1      -9.669  -9.211  -0.744  1.00  0.00    -0.200 F 
ATOM     72  C   UNL     1      -8.397 -10.327  -2.390  1.00  0.00     0.200 A 
ATOM     73  F   UNL     1      -7.083 -11.453  -3.997  1.00  0.00    -0.200 F 
ATOM     74  F   UNL     1      -9.490 -10.488  -3.148  1.00  0.00    -0.200 F 
ENDBRANCH  40  64
BRANCH  52  75
ATOM     75  C   UNL     1      -4.347 -12.517   5.469  1.00  0.00     0.064 A 
ATOM     76  C   UNL     1      -4.613 -13.874   5.236  1.00  0.00     0.173 A 
ATOM     77  C   UNL     1      -4.789 -11.960   6.679  1.00  0.00     0.173 A 
ATOM     78  F   UNL     1      -4.224 -14.451   4.088  1.00  0.00    -0.203 F 
ATOM     79  C   UNL     1      -5.329 -14.632   6.159  1.00  0.00     0.198 A 
ATOM     80  C   UNL     1      -5.475 -12.729   7.614  1.00  0.00     0.198 A 
ATOM     81  F   UNL     1      -4.554 -10.668   6.955  1.00  0.00    -0.203 F 
ATOM     82  F   UNL     1      -5.626 -15.910   5.887  1.00  0.00    -0.200 F 
ATOM     83  C   UNL     1      -5.755 -14.060   7.349  1.00  0.00     0.200 A 
ATOM     84  F   UNL     1      -5.874 -12.178   8.769  1.00  0.00    -0.200 F 
ATOM     85  F   UNL     1      -6.445 -14.791   8.236  1.00  0.00    -0.200 F 
ENDBRANCH  52  75
ENDBRANCH  26  27
ENDBRANCH  19  21
ENDBRANCH  18  19
ENDBRANCH  17  18
ENDBRANCH  16  17
ENDBRANCH   1  16
TORSDOF 16
