REMARK SMILES O=C(CNS(=O)(=O)c1ccccc1)N[C@@H](CO)C(=O)OCCOC(=O)c1ccc(-c2c3nc(c(-c4c(F)c(F)c(F)c(F)c4F)c4ccc([nH]4)c(-c4c(F)c(F)c(F)c(F)c4F)c4nc(c(-c5c(F)c(F)c(F)c(F)c5F)c5ccc2[nH]5)C=C4)C=C3)cc1
REMARK SMILES IDX 20 1 18 2 19 3 15 4 14 5 1 6 2 7 3 9 4 10 5 12 6 13 7 14
REMARK SMILES IDX 8 15 9 16 13 17 10 18 12 19 11 20 16 21 17 22 21 24 22 25
REMARK SMILES IDX 23 26 24 27 25 28 26 29 27 30 88 31 28 32 87 33 29 34 30 35
REMARK SMILES IDX 31 36 81 37 32 38 86 39 80 40 82 41 33 42 85 43 79 44 78 45
REMARK SMILES IDX 34 47 66 48 46 49 65 50 47 51 50 52 64 53 83 54 48 55 49 56
REMARK SMILES IDX 63 58 84 59 51 60 35 61 36 62 44 63 37 64 38 65 42 66 45 67
REMARK SMILES IDX 39 68 40 69 43 70 41 71 67 72 68 73 76 74 69 75 70 76 74 77
REMARK SMILES IDX 77 78 71 79 72 80 75 81 73 82 52 83 53 84 61 85 54 86 55 87
REMARK SMILES IDX 59 88 62 89 56 90 57 91 60 92 58 93
REMARK H PARENT 14 8 4 11 17 23 82 46 50 57
REMARK Flexibility Score: inf
ROOT
ATOM      1  O   UNL     1       3.956  -2.165   2.807  1.00  0.00    -0.460 OA
ENDROOT
BRANCH   1   2
ATOM      2  C   UNL     1       2.985  -2.969   2.288  1.00  0.00     0.331 C 
ATOM      3  O   UNL     1       2.431  -3.880   2.892  1.00  0.00    -0.250 OA
BRANCH   2   4
ATOM      4  C   UNL     1       2.676  -2.631   0.828  1.00  0.00     0.218 C 
BRANCH   4   5
ATOM      5  N   UNL     1       3.125  -1.296   0.401  1.00  0.00    -0.340 N 
ATOM      6  O   UNL     1       1.129  -0.759  -0.566  1.00  0.00    -0.274 OA
ATOM      7  C   UNL     1       2.270  -0.429  -0.246  1.00  0.00     0.235 C 
ATOM      8  H   UNL     1       4.052  -1.018   0.580  1.00  0.00     0.164 HD
BRANCH   7   9
ATOM      9  C   UNL     1       2.828   0.940  -0.601  1.00  0.00     0.198 C 
BRANCH   9  10
ATOM     10  N   UNL     1       4.037   1.298   0.168  1.00  0.00    -0.202 NA
ATOM     11  H   UNL     1       4.696   0.522   0.102  1.00  0.00     0.141 HD
BRANCH  10  12
ATOM     12  S   UNL     1       4.826   2.706  -0.357  1.00  0.00     0.241 S 
ATOM     13  O   UNL     1       3.825   3.576  -0.941  1.00  0.00    -0.207 OA
ATOM     14  O   UNL     1       5.660   3.126   0.741  1.00  0.00    -0.207 OA
BRANCH  12  15
ATOM     15  C   UNL     1       5.911   2.183  -1.661  1.00  0.00     0.082 A 
ATOM     16  C   UNL     1       6.102   0.831  -1.957  1.00  0.00     0.022 A 
ATOM     17  C   UNL     1       6.559   3.172  -2.413  1.00  0.00     0.022 A 
ATOM     18  C   UNL     1       6.942   0.470  -3.013  1.00  0.00     0.001 A 
ATOM     19  C   UNL     1       7.405   2.802  -3.459  1.00  0.00     0.001 A 
ATOM     20  C   UNL     1       7.592   1.453  -3.760  1.00  0.00     0.000 A 
ENDBRANCH  12  15
ENDBRANCH  10  12
ENDBRANCH   9  10
ENDBRANCH   7   9
ENDBRANCH   4   5
BRANCH   4  21
ATOM     21  C   UNL     1       3.232  -3.734  -0.071  1.00  0.00     0.193 C 
BRANCH  21  22
ATOM     22  O   UNL     1       4.658  -3.721  -0.096  1.00  0.00    -0.394 OA
ATOM     23  H   UNL     1       4.968  -2.872  -0.448  1.00  0.00     0.210 HD
ENDBRANCH  21  22
ENDBRANCH   4  21
ENDBRANCH   2   4
ENDBRANCH   1   2
BRANCH   1  24
ATOM     24  C   UNL     1       4.250  -2.345   4.206  1.00  0.00     0.274 C 
BRANCH  24  25
ATOM     25  C   UNL     1       3.832  -1.105   4.998  1.00  0.00     0.275 C 
BRANCH  25  26
ATOM     26  O   UNL     1       2.412  -0.879   4.912  1.00  0.00    -0.458 OA
BRANCH  26  27
ATOM     27  C   UNL     1       2.009  -0.102   3.879  1.00  0.00     0.338 C 
ATOM     28  O   UNL     1       2.703   0.444   3.034  1.00  0.00    -0.246 OA
BRANCH  27  29
ATOM     29  C   UNL     1       0.538  -0.115   3.822  1.00  0.00     0.060 A 
ATOM     30  C   UNL     1      -0.069  -0.742   2.735  1.00  0.00     0.016 A 
ATOM     31  C   UNL     1      -0.233   0.554   4.772  1.00  0.00     0.016 A 
ATOM     32  C   UNL     1      -1.448  -0.678   2.564  1.00  0.00     0.010 A 
ATOM     33  C   UNL     1      -1.623   0.607   4.610  1.00  0.00     0.010 A 
ATOM     34  C   UNL     1      -2.236   0.009   3.493  1.00  0.00    -0.014 A 
BRANCH  34  35
ATOM     35  C   UNL     1      -3.691   0.158   3.248  1.00  0.00     0.031 A 
ATOM     36  C   UNL     1      -4.244   1.494   2.840  1.00  0.00     0.074 A 
ATOM     37  C   UNL     1      -4.508  -0.906   3.362  1.00  0.00     0.049 A 
ATOM     38  N   UNL     1      -5.488   1.861   2.668  1.00  0.00    -0.248 NA
ATOM     39  C   UNL     1      -3.263   2.563   2.596  1.00  0.00     0.031 C 
ATOM     40  C   UNL     1      -4.081  -2.264   3.698  1.00  0.00     0.029 A 
ATOM     41  N   UNL     1      -5.868  -1.009   3.209  1.00  0.00    -0.354 N 
ATOM     42  C   UNL     1      -5.442   3.206   2.328  1.00  0.00     0.074 A 
ATOM     43  C   UNL     1      -4.048   3.596   2.328  1.00  0.00     0.031 C 
ATOM     44  C   UNL     1      -5.158  -3.066   3.727  1.00  0.00     0.029 A 
ATOM     45  C   UNL     1      -6.353  -2.268   3.463  1.00  0.00     0.049 A 
ATOM     46  H   UNL     1      -6.440  -0.254   2.943  1.00  0.00     0.167 HD
ATOM     47  C   UNL     1      -6.473   4.037   2.040  1.00  0.00     0.037 A 
ATOM     48  C   UNL     1      -7.622  -2.718   3.511  1.00  0.00     0.037 A 
ATOM     49  C   UNL     1      -7.854   3.633   2.007  1.00  0.00     0.049 A 
ATOM     50  C   UNL     1      -8.750  -1.760   3.237  1.00  0.00     0.074 A 
ATOM     51  C   UNL     1      -8.968   4.391   1.693  1.00  0.00     0.029 A 
ATOM     52  N   UNL     1      -8.310   2.355   2.297  1.00  0.00    -0.354 N 
ATOM     53  N   UNL     1      -8.700  -0.490   2.916  1.00  0.00    -0.248 NA
ATOM     54  C   UNL     1     -10.114  -2.298   3.338  1.00  0.00     0.031 C 
ATOM     55  C   UNL     1     -10.102   3.586   1.841  1.00  0.00     0.029 A 
ATOM     56  C   UNL     1      -9.691   2.311   2.196  1.00  0.00     0.049 A 
ATOM     57  H   UNL     1      -7.736   1.592   2.539  1.00  0.00     0.167 HD
ATOM     58  C   UNL     1     -10.017  -0.085   2.752  1.00  0.00     0.074 A 
ATOM     59  C   UNL     1     -10.845  -1.247   2.994  1.00  0.00     0.031 C 
ATOM     60  C   UNL     1     -10.498   1.141   2.431  1.00  0.00     0.037 A 
BRANCH  47  61
ATOM     61  C   UNL     1      -6.153   5.478   1.772  1.00  0.00     0.064 A 
ATOM     62  C   UNL     1      -5.533   5.895   0.586  1.00  0.00     0.173 A 
ATOM     63  C   UNL     1      -6.517   6.464   2.704  1.00  0.00     0.173 A 
ATOM     64  F   UNL     1      -5.155   4.992  -0.331  1.00  0.00    -0.203 F 
ATOM     65  C   UNL     1      -5.271   7.242   0.350  1.00  0.00     0.198 A 
ATOM     66  C   UNL     1      -6.278   7.812   2.453  1.00  0.00     0.198 A 
ATOM     67  F   UNL     1      -7.117   6.119   3.853  1.00  0.00    -0.203 F 
ATOM     68  F   UNL     1      -4.642   7.615  -0.773  1.00  0.00    -0.200 F 
ATOM     69  C   UNL     1      -5.650   8.200   1.280  1.00  0.00     0.200 A 
ATOM     70  F   UNL     1      -6.657   8.736   3.347  1.00  0.00    -0.200 F 
ATOM     71  F   UNL     1      -5.405   9.497   1.047  1.00  0.00    -0.200 F 
ENDBRANCH  47  61
BRANCH  48  72
ATOM     72  C   UNL     1      -7.896  -4.136   3.862  1.00  0.00     0.064 A 
ATOM     73  C   UNL     1      -8.437  -5.023   2.922  1.00  0.00     0.173 A 
ATOM     74  C   UNL     1      -7.640  -4.628   5.151  1.00  0.00     0.173 A 
ATOM     75  F   UNL     1      -8.725  -4.594   1.684  1.00  0.00    -0.203 F 
ATOM     76  C   UNL     1      -8.731  -6.342   3.263  1.00  0.00     0.198 A 
ATOM     77  C   UNL     1      -7.905  -5.955   5.482  1.00  0.00     0.198 A 
ATOM     78  F   UNL     1      -7.125  -3.820   6.089  1.00  0.00    -0.203 F 
ATOM     79  F   UNL     1      -9.296  -7.155   2.360  1.00  0.00    -0.200 F 
ATOM     80  C   UNL     1      -8.459  -6.809   4.540  1.00  0.00     0.200 A 
ATOM     81  F   UNL     1      -7.630  -6.404   6.714  1.00  0.00    -0.200 F 
ATOM     82  F   UNL     1      -8.740  -8.078   4.867  1.00  0.00    -0.200 F 
ENDBRANCH  48  72
BRANCH  60  83
ATOM     83  C   UNL     1     -11.986   1.278   2.285  1.00  0.00     0.064 A 
ATOM     84  C   UNL     1     -12.839   1.257   3.398  1.00  0.00     0.173 A 
ATOM     85  C   UNL     1     -12.560   1.470   1.019  1.00  0.00     0.173 A 
ATOM     86  F   UNL     1     -12.340   1.061   4.628  1.00  0.00    -0.203 F 
ATOM     87  C   UNL     1     -14.216   1.397   3.245  1.00  0.00     0.198 A 
ATOM     88  C   UNL     1     -13.933   1.639   0.874  1.00  0.00     0.198 A 
ATOM     89  F   UNL     1     -11.786   1.504  -0.076  1.00  0.00    -0.203 F 
ATOM     90  F   UNL     1     -15.018   1.326   4.317  1.00  0.00    -0.200 F 
ATOM     91  C   UNL     1     -14.761   1.595   1.985  1.00  0.00     0.200 A 
ATOM     92  F   UNL     1     -14.457   1.843  -0.343  1.00  0.00    -0.200 F 
ATOM     93  F   UNL     1     -16.086   1.736   1.841  1.00  0.00    -0.200 F 
ENDBRANCH  60  83
ENDBRANCH  34  35
ENDBRANCH  27  29
ENDBRANCH  26  27
ENDBRANCH  25  26
ENDBRANCH  24  25
ENDBRANCH   1  24
TORSDOF 18
