REMARK SMILES COCCN(CC(=O)OCCOC(=O)c1ccc(-c2c3nc(c(-c4c(F)c(F)c(F)c(F)c4F)c4ccc([nH]4)c(-c4c(F)c(F)c(F)c(F)c4F)c4nc(c(-c5c(F)c(F)c(F)c(F)c5F)c5ccc2[nH]5)C=C4)C=C3)cc1)C(=O)c1cccc(N)c1
REMARK SMILES IDX 10 1 9 2 7 3 8 4 6 5 5 6 4 7 3 8 2 9 1 10 78 11 79 12 80 13
REMARK SMILES IDX 81 14 86 15 82 16 84 17 83 18 85 19 11 22 12 23 13 24 14 25
REMARK SMILES IDX 15 26 16 27 77 28 17 29 76 30 18 31 19 32 20 33 70 34 21 35
REMARK SMILES IDX 75 36 69 37 71 38 22 39 74 40 68 41 67 42 23 44 55 45 35 46
REMARK SMILES IDX 54 47 36 48 39 49 53 50 72 51 37 52 38 53 52 55 73 56 40 57
REMARK SMILES IDX 24 58 25 59 33 60 26 61 27 62 31 63 34 64 28 65 29 66 32 67
REMARK SMILES IDX 30 68 56 69 57 70 65 71 58 72 59 73 63 74 66 75 60 76 61 77
REMARK SMILES IDX 64 78 62 79 41 80 42 81 50 82 43 83 44 84 48 85 51 86 45 87
REMARK SMILES IDX 46 88 49 89 47 90
REMARK H PARENT 85 20 85 21 71 43 39 54
REMARK Flexibility Score: inf
ROOT
ATOM      1  C   UNL     1      -0.100   5.235   3.658  1.00  0.00     0.274 C 
ENDROOT
BRANCH   1   2
ATOM      2  O   UNL     1      -0.120   4.225   2.617  1.00  0.00    -0.461 OA
BRANCH   2   3
ATOM      3  C   UNL     1       1.060   4.018   1.974  1.00  0.00     0.325 C 
ATOM      4  O   UNL     1       2.057   4.724   2.135  1.00  0.00    -0.250 OA
BRANCH   3   5
ATOM      5  C   UNL     1       1.150   2.704   1.178  1.00  0.00     0.242 C 
BRANCH   5   6
ATOM      6  N   UNL     1      -0.040   2.035   0.635  1.00  0.00    -0.325 N 
BRANCH   6   7
ATOM      7  C   UNL     1      -0.452   2.443  -0.715  1.00  0.00     0.149 C 
BRANCH   7   8
ATOM      8  C   UNL     1       0.460   1.887  -1.832  1.00  0.00     0.181 C 
BRANCH   8   9
ATOM      9  O   UNL     1       0.385   0.464  -1.912  1.00  0.00    -0.383 OA
ATOM     10  C   UNL     1       1.528  -0.192  -1.385  1.00  0.00     0.194 C 
ENDBRANCH   8   9
ENDBRANCH   7   8
ENDBRANCH   6   7
BRANCH   6  11
ATOM     11  C   UNL     1      -0.774   1.014   1.256  1.00  0.00     0.254 C 
ATOM     12  O   UNL     1      -1.846   0.596   0.821  1.00  0.00    -0.269 OA
BRANCH  11  13
ATOM     13  C   UNL     1      -0.273   0.344   2.475  1.00  0.00     0.042 A 
ATOM     14  C   UNL     1       0.834  -0.507   2.423  1.00  0.00     0.014 A 
ATOM     15  C   UNL     1      -0.982   0.501   3.675  1.00  0.00     0.039 A 
ATOM     16  C   UNL     1       1.270  -1.146   3.583  1.00  0.00     0.003 A 
ATOM     17  C   UNL     1      -0.496  -0.066   4.859  1.00  0.00     0.032 A 
ATOM     18  C   UNL     1       0.610  -0.920   4.795  1.00  0.00     0.025 A 
BRANCH  17  19
ATOM     19  N   UNL     1      -1.139   0.161   6.067  1.00  0.00    -0.399 N 
ATOM     20  H   UNL     1      -0.789  -0.242   6.894  1.00  0.00     0.156 HD
ATOM     21  H   UNL     1      -1.945   0.725   6.097  1.00  0.00     0.156 HD
ENDBRANCH  17  19
ENDBRANCH  11  13
ENDBRANCH   6  11
ENDBRANCH   5   6
ENDBRANCH   3   5
ENDBRANCH   2   3
ENDBRANCH   1   2
BRANCH   1  22
ATOM     22  C   UNL     1       0.104   4.659   5.078  1.00  0.00     0.275 C 
BRANCH  22  23
ATOM     23  O   UNL     1       1.452   4.203   5.358  1.00  0.00    -0.458 OA
BRANCH  23  24
ATOM     24  C   UNL     1       1.690   2.987   4.842  1.00  0.00     0.338 C 
ATOM     25  O   UNL     1       0.912   2.363   4.134  1.00  0.00    -0.246 OA
BRANCH  24  26
ATOM     26  C   UNL     1       2.995   2.391   5.074  1.00  0.00     0.060 A 
ATOM     27  C   UNL     1       3.832   2.245   3.962  1.00  0.00     0.016 A 
ATOM     28  C   UNL     1       3.228   1.675   6.249  1.00  0.00     0.016 A 
ATOM     29  C   UNL     1       4.914   1.377   4.020  1.00  0.00     0.010 A 
ATOM     30  C   UNL     1       4.336   0.829   6.319  1.00  0.00     0.010 A 
ATOM     31  C   UNL     1       5.181   0.679   5.206  1.00  0.00    -0.014 A 
BRANCH  31  32
ATOM     32  C   UNL     1       6.464  -0.041   5.335  1.00  0.00     0.031 A 
ATOM     33  C   UNL     1       6.572  -1.525   5.201  1.00  0.00     0.074 A 
ATOM     34  C   UNL     1       7.547   0.715   5.585  1.00  0.00     0.049 A 
ATOM     35  N   UNL     1       7.632  -2.282   5.325  1.00  0.00    -0.248 NA
ATOM     36  C   UNL     1       5.340  -2.260   4.882  1.00  0.00     0.031 C 
ATOM     37  C   UNL     1       7.531   2.175   5.714  1.00  0.00     0.029 A 
ATOM     38  N   UNL     1       8.854   0.373   5.788  1.00  0.00    -0.354 N 
ATOM     39  C   UNL     1       7.202  -3.581   5.098  1.00  0.00     0.074 A 
ATOM     40  C   UNL     1       5.778  -3.514   4.838  1.00  0.00     0.031 C 
ATOM     41  C   UNL     1       8.769   2.602   5.992  1.00  0.00     0.029 A 
ATOM     42  C   UNL     1       9.649   1.446   6.098  1.00  0.00     0.049 A 
ATOM     43  H   UNL     1       9.191  -0.550   5.719  1.00  0.00     0.167 HD
ATOM     44  C   UNL     1       7.941  -4.717   5.109  1.00  0.00     0.037 A 
ATOM     45  C   UNL     1      10.941   1.491   6.461  1.00  0.00     0.037 A 
ATOM     46  C   UNL     1       9.358  -4.760   5.378  1.00  0.00     0.049 A 
ATOM     47  C   UNL     1      11.720   0.215   6.515  1.00  0.00     0.074 A 
ATOM     48  C   UNL     1      10.208  -5.853   5.370  1.00  0.00     0.029 A 
ATOM     49  N   UNL     1      10.131  -3.658   5.717  1.00  0.00    -0.354 N 
ATOM     50  N   UNL     1      11.311  -1.006   6.270  1.00  0.00    -0.248 NA
ATOM     51  C   UNL     1      13.133   0.320   6.890  1.00  0.00     0.031 C 
ATOM     52  C   UNL     1      11.486  -5.418   5.742  1.00  0.00     0.029 A 
ATOM     53  C   UNL     1      11.441  -4.048   5.949  1.00  0.00     0.049 A 
ATOM     54  H   UNL     1       9.797  -2.734   5.783  1.00  0.00     0.167 HD
ATOM     55  C   UNL     1      12.416  -1.819   6.455  1.00  0.00     0.074 A 
ATOM     56  C   UNL     1      13.518  -0.947   6.819  1.00  0.00     0.031 C 
ATOM     57  C   UNL     1      12.511  -3.164   6.333  1.00  0.00     0.037 A 
BRANCH  44  58
ATOM     58  C   UNL     1       7.241  -6.015   4.839  1.00  0.00     0.064 A 
ATOM     59  C   UNL     1       6.882  -6.399   3.539  1.00  0.00     0.173 A 
ATOM     60  C   UNL     1       7.002  -6.923   5.882  1.00  0.00     0.173 A 
ATOM     61  F   UNL     1       7.085  -5.563   2.510  1.00  0.00    -0.203 F 
ATOM     62  C   UNL     1       6.304  -7.643   3.294  1.00  0.00     0.198 A 
ATOM     63  C   UNL     1       6.437  -8.171   5.632  1.00  0.00     0.198 A 
ATOM     64  F   UNL     1       7.332  -6.604   7.143  1.00  0.00    -0.203 F 
ATOM     65  F   UNL     1       5.955  -7.984   2.046  1.00  0.00    -0.200 F 
ATOM     66  C   UNL     1       6.089  -8.530   4.338  1.00  0.00     0.200 A 
ATOM     67  F   UNL     1       6.238  -9.030   6.641  1.00  0.00    -0.200 F 
ATOM     68  F   UNL     1       5.545  -9.731   4.098  1.00  0.00    -0.200 F 
ENDBRANCH  44  58
BRANCH  45  69
ATOM     69  C   UNL     1      11.537   2.800   6.811  1.00  0.00     0.064 A 
ATOM     70  C   UNL     1      12.395   3.461   5.926  1.00  0.00     0.173 A 
ATOM     71  C   UNL     1      11.178   3.455   7.999  1.00  0.00     0.173 A 
ATOM     72  F   UNL     1      12.767   2.866   4.784  1.00  0.00    -0.203 F 
ATOM     73  C   UNL     1      12.870   4.738   6.214  1.00  0.00     0.198 A 
ATOM     74  C   UNL     1      11.636   4.740   8.275  1.00  0.00     0.198 A 
ATOM     75  F   UNL     1      10.344   2.863   8.867  1.00  0.00    -0.203 F 
ATOM     76  F   UNL     1      13.696   5.352   5.356  1.00  0.00    -0.200 F 
ATOM     77  C   UNL     1      12.483   5.380   7.382  1.00  0.00     0.200 A 
ATOM     78  F   UNL     1      11.243   5.364   9.393  1.00  0.00    -0.200 F 
ATOM     79  F   UNL     1      12.921   6.619   7.645  1.00  0.00    -0.200 F 
ENDBRANCH  45  69
BRANCH  57  80
ATOM     80  C   UNL     1      13.856  -3.762   6.602  1.00  0.00     0.064 A 
ATOM     81  C   UNL     1      14.327  -3.924   7.913  1.00  0.00     0.173 A 
ATOM     82  C   UNL     1      14.679  -4.172   5.545  1.00  0.00     0.173 A 
ATOM     83  F   UNL     1      13.580  -3.525   8.953  1.00  0.00    -0.203 F 
ATOM     84  C   UNL     1      15.590  -4.457   8.154  1.00  0.00     0.198 A 
ATOM     85  C   UNL     1      15.933  -4.722   5.790  1.00  0.00     0.198 A 
ATOM     86  F   UNL     1      14.268  -4.033   4.275  1.00  0.00    -0.203 F 
ATOM     87  F   UNL     1      16.041  -4.563   9.411  1.00  0.00    -0.200 F 
ATOM     88  C   UNL     1      16.390  -4.857   7.093  1.00  0.00     0.200 A 
ATOM     89  F   UNL     1      16.706  -5.109   4.766  1.00  0.00    -0.200 F 
ATOM     90  F   UNL     1      17.609  -5.363   7.327  1.00  0.00    -0.200 F 
ENDBRANCH  57  80
ENDBRANCH  31  32
ENDBRANCH  24  26
ENDBRANCH  23  24
ENDBRANCH  22  23
ENDBRANCH   1  22
TORSDOF 18
