REMARK SMILES C[C@H](C(=O)OCCOC(=O)c1ccc(-c2c3nc(c(-c4c(F)c(F)c(F)c(F)c4F)c4ccc([nH]4)c(-c4c(F)c(F)c(F)c(F)c4F)c4nc(c(-c5c(F)c(F)c(F)c(F)c5F)c5ccc2[nH]5)C=C4)C=C3)cc1)c1ccc2c3cc(Cl)ccc3n(C(=O)c3ccc(Cl)cc3)c2c1
REMARK SMILES IDX 6 1 5 2 3 3 4 4 2 5 1 6 74 7 75 8 96 9 76 10 95 11 77 12
REMARK SMILES IDX 85 13 78 14 84 15 79 16 83 17 80 18 82 19 81 20 86 21 87 22
REMARK SMILES IDX 88 23 89 24 94 25 90 26 93 27 91 28 92 29 7 30 8 31 9 32
REMARK SMILES IDX 10 33 11 34 12 35 73 36 13 37 72 38 14 39 15 40 16 41 66 42
REMARK SMILES IDX 17 43 71 44 65 45 67 46 18 47 70 48 64 49 63 50 19 52 51 53
REMARK SMILES IDX 31 54 50 55 32 56 35 57 49 58 68 59 33 60 34 61 48 63 69 64
REMARK SMILES IDX 36 65 20 66 21 67 29 68 22 69 23 70 27 71 30 72 24 73 25 74
REMARK SMILES IDX 28 75 26 76 52 77 53 78 61 79 54 80 55 81 59 82 62 83 56 84
REMARK SMILES IDX 57 85 60 86 58 87 37 88 38 89 46 90 39 91 40 92 44 93 47 94
REMARK SMILES IDX 41 95 42 96 45 97 43 98
REMARK H PARENT 67 51 35 62
REMARK Flexibility Score: inf
ROOT
ATOM      1  C   UNL     1       1.396  -1.117  -1.749  1.00  0.00     0.274 C 
ENDROOT
BRANCH   1   2
ATOM      2  O   UNL     1       0.793  -1.189  -0.441  1.00  0.00    -0.462 OA
BRANCH   2   3
ATOM      3  C   UNL     1       1.440  -0.523   0.560  1.00  0.00     0.313 C 
ATOM      4  O   UNL     1       2.526   0.030   0.436  1.00  0.00    -0.252 OA
BRANCH   3   5
ATOM      5  C   UNL     1       0.678  -0.612   1.879  1.00  0.00     0.126 C 
ATOM      6  C   UNL     1       1.263   0.331   2.935  1.00  0.00     0.025 C 
BRANCH   5   7
ATOM      7  C   UNL     1      -0.827  -0.426   1.741  1.00  0.00    -0.032 A 
ATOM      8  C   UNL     1      -1.426   0.794   1.421  1.00  0.00     0.005 A 
ATOM      9  C   UNL     1      -1.648  -1.537   1.962  1.00  0.00     0.032 A 
ATOM     10  C   UNL     1      -2.816   0.913   1.272  1.00  0.00     0.011 A 
ATOM     11  C   UNL     1      -3.047  -1.397   1.895  1.00  0.00     0.057 A 
ATOM     12  C   UNL     1      -3.641  -0.203   1.510  1.00  0.00     0.008 A 
ATOM     13  N   UNL     1      -4.053  -2.330   2.159  1.00  0.00    -0.276 N 
ATOM     14  C   UNL     1      -5.047  -0.423   1.470  1.00  0.00     0.009 A 
ATOM     15  C   UNL     1      -5.293  -1.730   1.915  1.00  0.00     0.057 A 
ATOM     16  C   UNL     1      -6.134   0.414   1.132  1.00  0.00     0.031 A 
ATOM     17  C   UNL     1      -6.613  -2.180   2.120  1.00  0.00     0.029 A 
ATOM     18  C   UNL     1      -7.436  -0.058   1.281  1.00  0.00     0.041 A 
ATOM     19  C   UNL     1      -7.675  -1.331   1.781  1.00  0.00     0.023 A 
ATOM     20  Cl  UNL     1      -8.761   0.963   0.874  1.00  0.00    -0.084 Cl
BRANCH  13  21
ATOM     21  C   UNL     1      -3.770  -3.618   2.675  1.00  0.00     0.262 C 
ATOM     22  O   UNL     1      -2.828  -3.680   3.468  1.00  0.00    -0.268 OA
BRANCH  21  23
ATOM     23  C   UNL     1      -4.418  -4.912   2.328  1.00  0.00     0.040 A 
ATOM     24  C   UNL     1      -3.999  -6.046   3.051  1.00  0.00     0.015 A 
ATOM     25  C   UNL     1      -5.305  -5.082   1.262  1.00  0.00     0.015 A 
ATOM     26  C   UNL     1      -4.479  -7.318   2.739  1.00  0.00     0.021 A 
ATOM     27  C   UNL     1      -5.813  -6.356   0.971  1.00  0.00     0.021 A 
ATOM     28  C   UNL     1      -5.397  -7.466   1.707  1.00  0.00     0.041 A 
ATOM     29  Cl  UNL     1      -6.001  -9.029   1.325  1.00  0.00    -0.084 Cl
ENDBRANCH  21  23
ENDBRANCH  13  21
ENDBRANCH   5   7
ENDBRANCH   3   5
ENDBRANCH   2   3
ENDBRANCH   1   2
BRANCH   1  30
ATOM     30  C   UNL     1       0.744  -0.001  -2.562  1.00  0.00     0.275 C 
BRANCH  30  31
ATOM     31  O   UNL     1       0.997   1.252  -1.907  1.00  0.00    -0.458 OA
BRANCH  31  32
ATOM     32  C   UNL     1       0.030   2.185  -2.022  1.00  0.00     0.338 C 
ATOM     33  O   UNL     1      -0.981   2.120  -2.711  1.00  0.00    -0.246 OA
BRANCH  32  34
ATOM     34  C   UNL     1       0.356   3.345  -1.167  1.00  0.00     0.060 A 
ATOM     35  C   UNL     1       0.951   3.171   0.084  1.00  0.00     0.016 A 
ATOM     36  C   UNL     1      -0.018   4.624  -1.578  1.00  0.00     0.016 A 
ATOM     37  C   UNL     1       1.085   4.245   0.961  1.00  0.00     0.010 A 
ATOM     38  C   UNL     1       0.218   5.719  -0.741  1.00  0.00     0.010 A 
ATOM     39  C   UNL     1       0.743   5.538   0.551  1.00  0.00    -0.014 A 
BRANCH  39  40
ATOM     40  C   UNL     1       0.908   6.701   1.465  1.00  0.00     0.031 A 
ATOM     41  C   UNL     1      -0.279   7.557   1.814  1.00  0.00     0.074 A 
ATOM     42  C   UNL     1       2.119   7.008   1.971  1.00  0.00     0.049 A 
ATOM     43  N   UNL     1      -0.315   8.736   2.383  1.00  0.00    -0.248 NA
ATOM     44  C   UNL     1      -1.603   7.022   1.460  1.00  0.00     0.031 C 
ATOM     45  C   UNL     1       3.348   6.242   1.761  1.00  0.00     0.029 A 
ATOM     46  N   UNL     1       2.516   8.058   2.764  1.00  0.00    -0.354 N 
ATOM     47  C   UNL     1      -1.653   9.109   2.398  1.00  0.00     0.074 A 
ATOM     48  C   UNL     1      -2.399   8.031   1.786  1.00  0.00     0.031 C 
ATOM     49  C   UNL     1       4.354   6.831   2.424  1.00  0.00     0.029 A 
ATOM     50  C   UNL     1       3.863   8.063   3.031  1.00  0.00     0.049 A 
ATOM     51  H   UNL     1       1.895   8.741   3.106  1.00  0.00     0.167 HD
ATOM     52  C   UNL     1      -2.204  10.251   2.875  1.00  0.00     0.037 A 
ATOM     53  C   UNL     1       4.631   8.980   3.650  1.00  0.00     0.037 A 
ATOM     54  C   UNL     1      -1.464  11.295   3.534  1.00  0.00     0.049 A 
ATOM     55  C   UNL     1       4.001  10.246   4.154  1.00  0.00     0.074 A 
ATOM     56  C   UNL     1      -1.932  12.488   4.059  1.00  0.00     0.029 A 
ATOM     57  N   UNL     1      -0.099  11.261   3.777  1.00  0.00    -0.354 N 
ATOM     58  N   UNL     1       2.747  10.625   4.099  1.00  0.00    -0.248 NA
ATOM     59  C   UNL     1       4.897  11.224   4.787  1.00  0.00     0.031 C 
ATOM     60  C   UNL     1      -0.846  13.186   4.597  1.00  0.00     0.029 A 
ATOM     61  C   UNL     1       0.293  12.412   4.440  1.00  0.00     0.049 A 
ATOM     62  H   UNL     1       0.503  10.526   3.517  1.00  0.00     0.167 HD
ATOM     63  C   UNL     1       2.701  11.877   4.694  1.00  0.00     0.074 A 
ATOM     64  C   UNL     1       4.049  12.187   5.123  1.00  0.00     0.031 C 
ATOM     65  C   UNL     1       1.638  12.700   4.862  1.00  0.00     0.037 A 
BRANCH  52  66
ATOM     66  C   UNL     1      -3.677  10.448   2.675  1.00  0.00     0.064 A 
ATOM     67  C   UNL     1      -4.628   9.744   3.426  1.00  0.00     0.173 A 
ATOM     68  C   UNL     1      -4.141  11.387   1.740  1.00  0.00     0.173 A 
ATOM     69  F   UNL     1      -4.236   8.824   4.320  1.00  0.00    -0.203 F 
ATOM     70  C   UNL     1      -5.991   9.958   3.235  1.00  0.00     0.198 A 
ATOM     71  C   UNL     1      -5.503  11.616   1.569  1.00  0.00     0.198 A 
ATOM     72  F   UNL     1      -3.271  12.089   0.999  1.00  0.00    -0.203 F 
ATOM     73  F   UNL     1      -6.884   9.246   3.936  1.00  0.00    -0.200 F 
ATOM     74  C   UNL     1      -6.427  10.898   2.313  1.00  0.00     0.200 A 
ATOM     75  F   UNL     1      -5.922  12.533   0.685  1.00  0.00    -0.200 F 
ATOM     76  F   UNL     1      -7.739  11.108   2.136  1.00  0.00    -0.200 F 
ENDBRANCH  52  66
BRANCH  53  77
ATOM     77  C   UNL     1       6.092   8.748   3.783  1.00  0.00     0.064 A 
ATOM     78  C   UNL     1       6.668   8.483   5.032  1.00  0.00     0.173 A 
ATOM     79  C   UNL     1       6.938   8.772   2.664  1.00  0.00     0.173 A 
ATOM     80  F   UNL     1       5.903   8.476   6.134  1.00  0.00    -0.203 F 
ATOM     81  C   UNL     1       8.037   8.259   5.158  1.00  0.00     0.198 A 
ATOM     82  C   UNL     1       8.302   8.520   2.787  1.00  0.00     0.198 A 
ATOM     83  F   UNL     1       6.434   9.022   1.446  1.00  0.00    -0.203 F 
ATOM     84  F   UNL     1       8.570   8.044   6.369  1.00  0.00    -0.200 F 
ATOM     85  C   UNL     1       8.851   8.269   4.035  1.00  0.00     0.200 A 
ATOM     86  F   UNL     1       9.082   8.517   1.698  1.00  0.00    -0.200 F 
ATOM     87  F   UNL     1      10.166   8.043   4.156  1.00  0.00    -0.200 F 
ENDBRANCH  53  77
BRANCH  65  88
ATOM     88  C   UNL     1       1.889  14.002   5.561  1.00  0.00     0.064 A 
ATOM     89  C   UNL     1       2.533  15.067   4.914  1.00  0.00     0.173 A 
ATOM     90  C   UNL     1       1.456  14.195   6.880  1.00  0.00     0.173 A 
ATOM     91  F   UNL     1       2.980  14.921   3.657  1.00  0.00    -0.203 F 
ATOM     92  C   UNL     1       2.751  16.274   5.572  1.00  0.00     0.198 A 
ATOM     93  C   UNL     1       1.656  15.411   7.527  1.00  0.00     0.198 A 
ATOM     94  F   UNL     1       0.833  13.206   7.539  1.00  0.00    -0.203 F 
ATOM     95  F   UNL     1       3.403  17.265   4.949  1.00  0.00    -0.200 F 
ATOM     96  C   UNL     1       2.308  16.447   6.875  1.00  0.00     0.200 A 
ATOM     97  F   UNL     1       1.221  15.579   8.784  1.00  0.00    -0.200 F 
ATOM     98  F   UNL     1       2.517  17.610   7.506  1.00  0.00    -0.200 F 
ENDBRANCH  65  88
ENDBRANCH  39  40
ENDBRANCH  32  34
ENDBRANCH  31  32
ENDBRANCH  30  31
ENDBRANCH   1  30
TORSDOF 14
