REMARK SMILES Cc1nc(C(=O)N2C[C@@H]3CC[N@@H+](C)C[C@]3(C(=O)OCCOC(=O)c3ccc(-c4c5nc(c(-c6c(F)c(F)c(F)c(F)c6F)c6ccc([nH]6)c(-c6c(F)c(F)c(F)c(F)c6F)c6nc(c(-c7c(F)c(F)c(F)c(F)c7F)c7ccc4[nH]7)C=C6)C=C5)cc3)C2)cs1
REMARK SMILES IDX 19 1 18 2 16 3 17 4 15 5 7 6 8 7 87 8 9 9 10 10 14 11 11 12
REMARK SMILES IDX 12 13 13 14 5 16 6 17 4 18 1 19 2 20 3 21 89 22 88 23 20 24
REMARK SMILES IDX 21 25 22 26 23 27 24 28 25 29 86 30 26 31 85 32 27 33 28 34
REMARK SMILES IDX 29 35 79 36 30 37 84 38 78 39 80 40 31 41 83 42 77 43 76 44
REMARK SMILES IDX 32 46 64 47 44 48 63 49 45 50 48 51 62 52 81 53 46 54 47 55
REMARK SMILES IDX 61 57 82 58 49 59 33 60 34 61 42 62 35 63 36 64 40 65 43 66
REMARK SMILES IDX 37 67 38 68 41 69 39 70 65 71 66 72 74 73 67 74 68 75 72 76
REMARK SMILES IDX 75 77 69 78 70 79 73 80 71 81 50 82 51 83 59 84 52 85 53 86
REMARK SMILES IDX 57 87 60 88 54 89 55 90 58 91 56 92
REMARK H PARENT 12 15 80 45 48 56
REMARK Flexibility Score: inf
ROOT
ATOM      1  C   UNL     1      -2.216  -6.599  -2.996  1.00  0.00     0.274 C 
ENDROOT
BRANCH   1   2
ATOM      2  O   UNL     1      -0.985  -5.946  -2.580  1.00  0.00    -0.461 OA
BRANCH   2   3
ATOM      3  C   UNL     1      -1.007  -4.973  -1.598  1.00  0.00     0.320 C 
ATOM      4  O   UNL     1      -1.934  -4.197  -1.424  1.00  0.00    -0.251 OA
BRANCH   3   5
ATOM      5  C   UNL     1       0.262  -5.141  -0.713  1.00  0.00     0.139 C 
ATOM      6  N   UNL     1       2.024  -3.505  -0.829  1.00  0.00    -0.336 N 
ATOM      7  C   UNL     1       1.832  -3.736   0.560  1.00  0.00     0.125 C 
ATOM      8  C   UNL     1       1.374  -4.541  -1.621  1.00  0.00     0.145 C 
ATOM      9  C   UNL     1       0.471  -4.415   0.676  1.00  0.00     0.039 C 
ATOM     10  C   UNL     1       0.605  -5.293   1.965  1.00  0.00     0.068 C 
ATOM     11  C   UNL     1       0.238  -6.638  -0.353  1.00  0.00     0.283 C 
ATOM     12  C   UNL     1      -0.174  -6.593   2.021  1.00  0.00     0.262 C 
ATOM     13  N   UNL     1      -0.751  -6.930   0.732  1.00  0.00    -0.336 N 
ATOM     14  C   UNL     1      -2.067  -6.267   0.661  1.00  0.00     0.332 C 
ATOM     15  H   UNL     1      -0.939  -7.924   0.602  1.00  0.00     0.347 HD
BRANCH   6  16
ATOM     16  C   UNL     1       2.316  -2.226  -1.275  1.00  0.00     0.273 C 
ATOM     17  O   UNL     1       3.351  -1.967  -1.876  1.00  0.00    -0.267 OA
BRANCH  16  18
ATOM     18  C   UNL     1       1.335  -1.198  -0.889  1.00  0.00     0.139 A 
ATOM     19  C   UNL     1      -2.176  -0.391  -0.220  1.00  0.00     0.079 C 
ATOM     20  C   UNL     1      -0.700  -0.425  -0.411  1.00  0.00     0.090 A 
ATOM     21  N   UNL     1      -0.012  -1.510  -0.691  1.00  0.00    -0.236 NA
ATOM     22  S   UNL     1       0.225   1.016  -0.282  1.00  0.00    -0.127 S 
ATOM     23  C   UNL     1       1.639   0.136  -0.689  1.00  0.00     0.101 A 
ENDBRANCH  16  18
ENDBRANCH   6  16
ENDBRANCH   3   5
ENDBRANCH   2   3
ENDBRANCH   1   2
BRANCH   1  24
ATOM     24  C   UNL     1      -2.046  -8.149  -2.930  1.00  0.00     0.275 C 
BRANCH  24  25
ATOM     25  O   UNL     1      -2.252  -8.661  -1.586  1.00  0.00    -0.458 OA
BRANCH  25  26
ATOM     26  C   UNL     1      -1.891  -9.959  -1.328  1.00  0.00     0.338 C 
ATOM     27  O   UNL     1      -1.461 -10.748  -2.154  1.00  0.00    -0.246 OA
BRANCH  26  28
ATOM     28  C   UNL     1      -2.005 -10.279   0.141  1.00  0.00     0.060 A 
ATOM     29  C   UNL     1      -2.584  -9.366   1.001  1.00  0.00     0.016 A 
ATOM     30  C   UNL     1      -1.462 -11.430   0.721  1.00  0.00     0.016 A 
ATOM     31  C   UNL     1      -2.378  -9.440   2.384  1.00  0.00     0.010 A 
ATOM     32  C   UNL     1      -1.439 -11.594   2.136  1.00  0.00     0.010 A 
ATOM     33  C   UNL     1      -1.836 -10.565   3.015  1.00  0.00    -0.014 A 
BRANCH  33  34
ATOM     34  C   UNL     1      -1.659 -10.605   4.529  1.00  0.00     0.031 A 
ATOM     35  C   UNL     1      -0.440 -11.251   5.168  1.00  0.00     0.074 A 
ATOM     36  C   UNL     1      -2.519 -10.011   5.398  1.00  0.00     0.049 A 
ATOM     37  N   UNL     1      -0.267 -11.655   6.408  1.00  0.00    -0.248 NA
ATOM     38  C   UNL     1       0.731 -11.480   4.311  1.00  0.00     0.031 C 
ATOM     39  C   UNL     1      -3.730  -9.269   5.048  1.00  0.00     0.029 A 
ATOM     40  N   UNL     1      -2.480  -9.897   6.778  1.00  0.00    -0.354 N 
ATOM     41  C   UNL     1       0.963 -12.302   6.439  1.00  0.00     0.074 A 
ATOM     42  C   UNL     1       1.525 -12.183   5.109  1.00  0.00     0.031 C 
ATOM     43  C   UNL     1      -4.217  -8.656   6.135  1.00  0.00     0.029 A 
ATOM     44  C   UNL     1      -3.484  -9.115   7.306  1.00  0.00     0.049 A 
ATOM     45  H   UNL     1      -1.795 -10.336   7.332  1.00  0.00     0.167 HD
ATOM     46  C   UNL     1       1.558 -12.956   7.470  1.00  0.00     0.037 A 
ATOM     47  C   UNL     1      -3.848  -8.843   8.578  1.00  0.00     0.037 A 
ATOM     48  C   UNL     1       1.085 -12.962   8.833  1.00  0.00     0.049 A 
ATOM     49  C   UNL     1      -3.168  -9.546   9.718  1.00  0.00     0.074 A 
ATOM     50  C   UNL     1       1.597 -13.643   9.927  1.00  0.00     0.029 A 
ATOM     51  N   UNL     1       0.029 -12.200   9.303  1.00  0.00    -0.354 N 
ATOM     52  N   UNL     1      -2.146 -10.362   9.693  1.00  0.00    -0.248 NA
ATOM     53  C   UNL     1      -3.743  -9.346  11.059  1.00  0.00     0.031 C 
ATOM     54  C   UNL     1       0.848 -13.295  11.059  1.00  0.00     0.029 A 
ATOM     55  C   UNL     1      -0.113 -12.378  10.672  1.00  0.00     0.049 A 
ATOM     56  H   UNL     1      -0.537 -11.616   8.748  1.00  0.00     0.167 HD
ATOM     57  C   UNL     1      -1.975 -10.794  11.001  1.00  0.00     0.074 A 
ATOM     58  C   UNL     1      -2.964 -10.113  11.807  1.00  0.00     0.031 C 
ATOM     59  C   UNL     1      -1.093 -11.703  11.479  1.00  0.00     0.037 A 
BRANCH  46  60
ATOM     60  C   UNL     1       2.763 -13.794   7.158  1.00  0.00     0.064 A 
ATOM     61  C   UNL     1       4.032 -13.243   6.939  1.00  0.00     0.173 A 
ATOM     62  C   UNL     1       2.641 -15.194   7.131  1.00  0.00     0.173 A 
ATOM     63  F   UNL     1       4.200 -11.913   6.945  1.00  0.00    -0.203 F 
ATOM     64  C   UNL     1       5.130 -14.062   6.680  1.00  0.00     0.198 A 
ATOM     65  C   UNL     1       3.744 -16.009   6.898  1.00  0.00     0.198 A 
ATOM     66  F   UNL     1       1.450 -15.773   7.350  1.00  0.00    -0.203 F 
ATOM     67  F   UNL     1       6.328 -13.514   6.433  1.00  0.00    -0.200 F 
ATOM     68  C   UNL     1       4.987 -15.443   6.666  1.00  0.00     0.200 A 
ATOM     69  F   UNL     1       3.605 -17.343   6.902  1.00  0.00    -0.200 F 
ATOM     70  F   UNL     1       6.047 -16.226   6.423  1.00  0.00    -0.200 F 
ENDBRANCH  46  60
BRANCH  47  71
ATOM     71  C   UNL     1      -4.995  -7.929   8.851  1.00  0.00     0.064 A 
ATOM     72  C   UNL     1      -4.798  -6.699   9.493  1.00  0.00     0.173 A 
ATOM     73  C   UNL     1      -6.308  -8.269   8.489  1.00  0.00     0.173 A 
ATOM     74  F   UNL     1      -3.570  -6.346   9.902  1.00  0.00    -0.203 F 
ATOM     75  C   UNL     1      -5.867  -5.843   9.754  1.00  0.00     0.198 A 
ATOM     76  C   UNL     1      -7.369  -7.396   8.714  1.00  0.00     0.198 A 
ATOM     77  F   UNL     1      -6.556  -9.443   7.889  1.00  0.00    -0.203 F 
ATOM     78  F   UNL     1      -5.657  -4.691  10.407  1.00  0.00    -0.200 F 
ATOM     79  C   UNL     1      -7.149  -6.186   9.351  1.00  0.00     0.200 A 
ATOM     80  F   UNL     1      -8.602  -7.727   8.308  1.00  0.00    -0.200 F 
ATOM     81  F   UNL     1      -8.173  -5.354   9.585  1.00  0.00    -0.200 F 
ENDBRANCH  47  71
BRANCH  59  82
ATOM     82  C   UNL     1      -1.153 -12.015  12.943  1.00  0.00     0.064 A 
ATOM     83  C   UNL     1      -2.159 -12.839  13.469  1.00  0.00     0.173 A 
ATOM     84  C   UNL     1      -0.193 -11.502  13.826  1.00  0.00     0.173 A 
ATOM     85  F   UNL     1      -3.111 -13.337  12.665  1.00  0.00    -0.203 F 
ATOM     86  C   UNL     1      -2.211 -13.125  14.831  1.00  0.00     0.198 A 
ATOM     87  C   UNL     1      -0.238 -11.803  15.185  1.00  0.00     0.198 A 
ATOM     88  F   UNL     1       0.787 -10.707  13.371  1.00  0.00    -0.203 F 
ATOM     89  F   UNL     1      -3.202 -13.885  15.317  1.00  0.00    -0.200 F 
ATOM     90  C   UNL     1      -1.249 -12.610  15.687  1.00  0.00     0.200 A 
ATOM     91  F   UNL     1       0.692 -11.306  16.012  1.00  0.00    -0.200 F 
ATOM     92  F   UNL     1      -1.302 -12.884  16.998  1.00  0.00    -0.200 F 
ENDBRANCH  59  82
ENDBRANCH  33  34
ENDBRANCH  26  28
ENDBRANCH  25  26
ENDBRANCH  24  25
ENDBRANCH   1  24
TORSDOF 13
