REMARK SMILES CCCCc1nc(C[N@H+]2CC[NH2+][C@H](C(=O)OCCOC(=O)c3ccc(-c4c5nc(c(-c6c(F)c(F)c(F)c(F)c6F)c6ccc([nH]6)c(-c6c(F)c(F)c(F)c(F)c6F)c6nc(c(-c7c(F)c(F)c(F)c(F)c7F)c7ccc4[nH]7)C=C6)C=C5)cc3)C2)c(Cl)[nH]1
REMARK SMILES IDX 16 1 14 2 15 3 13 4 9 5 10 6 85 7 11 9 12 10 8 13 7 14 5 15
REMARK SMILES IDX 6 16 88 17 86 18 87 20 4 21 3 22 2 23 1 24 17 25 18 26 19 27
REMARK SMILES IDX 20 28 21 29 22 30 23 31 84 32 24 33 83 34 25 35 26 36 27 37
REMARK SMILES IDX 77 38 28 39 82 40 76 41 78 42 29 43 81 44 75 45 74 46 30 48
REMARK SMILES IDX 62 49 42 50 61 51 43 52 46 53 60 54 79 55 44 56 45 57 59 59
REMARK SMILES IDX 80 60 47 61 31 62 32 63 40 64 33 65 34 66 38 67 41 68 35 69
REMARK SMILES IDX 36 70 39 71 37 72 63 73 64 74 72 75 65 76 66 77 70 78 73 79
REMARK SMILES IDX 67 80 68 81 71 82 69 83 48 84 49 85 57 86 50 87 51 88 55 89
REMARK SMILES IDX 58 90 52 91 53 92 56 93 54 94
REMARK H PARENT 9 8 12 11 12 12 88 19 78 47 46 58
REMARK Flexibility Score: inf
ROOT
ATOM      1  O   UNL     1       0.572  -5.491  -4.276  1.00  0.00    -0.457 OA
ENDROOT
BRANCH   1   2
ATOM      2  C   UNL     1      -0.587  -6.097  -3.862  1.00  0.00     0.371 C 
ATOM      3  O   UNL     1      -0.682  -7.287  -3.578  1.00  0.00    -0.245 OA
BRANCH   2   4
ATOM      4  C   UNL     1      -1.710  -5.053  -3.708  1.00  0.00     0.348 C 
ATOM      5  N   UNL     1      -4.109  -4.791  -2.789  1.00  0.00    -0.320 N 
ATOM      6  C   UNL     1      -4.381  -4.052  -4.029  1.00  0.00     0.324 C 
ATOM      7  C   UNL     1      -2.902  -5.642  -2.903  1.00  0.00     0.341 C 
ATOM      8  H   UNL     1      -4.893  -5.435  -2.678  1.00  0.00     0.348 HD
ATOM      9  C   UNL     1      -3.149  -3.488  -4.777  1.00  0.00     0.323 C 
ATOM     10  N   UNL     1      -2.114  -4.503  -5.033  1.00  0.00    -0.325 N 
ATOM     11  H   UNL     1      -1.311  -4.077  -5.496  1.00  0.00     0.347 HD
ATOM     12  H   UNL     1      -2.469  -5.241  -5.642  1.00  0.00     0.347 HD
BRANCH   5  13
ATOM     13  C   UNL     1      -4.206  -3.999  -1.545  1.00  0.00     0.323 C 
BRANCH  13  14
ATOM     14  C   UNL     1      -3.238  -2.868  -1.457  1.00  0.00     0.132 A 
ATOM     15  C   UNL     1      -1.260  -1.997  -1.438  1.00  0.00     0.107 A 
ATOM     16  N   UNL     1      -1.923  -3.096  -1.126  1.00  0.00    -0.231 NA
ATOM     17  N   UNL     1      -2.145  -0.986  -1.724  1.00  0.00    -0.333 N 
ATOM     18  C   UNL     1      -3.392  -1.534  -1.727  1.00  0.00     0.135 A 
ATOM     19  H   UNL     1      -1.920  -0.043  -1.894  1.00  0.00     0.169 HD
ATOM     20  Cl  UNL     1      -4.702  -0.566  -2.182  1.00  0.00    -0.062 Cl
BRANCH  15  21
ATOM     21  C   UNL     1       0.224  -1.947  -1.614  1.00  0.00     0.075 C 
BRANCH  21  22
ATOM     22  C   UNL     1       0.839  -0.646  -2.115  1.00  0.00     0.008 C 
BRANCH  22  23
ATOM     23  C   UNL     1       0.772   0.546  -1.161  1.00  0.00    -0.003 C 
ATOM     24  C   UNL     1       1.293   0.252   0.235  1.00  0.00     0.004 C 
ENDBRANCH  22  23
ENDBRANCH  21  22
ENDBRANCH  15  21
ENDBRANCH  13  14
ENDBRANCH   5  13
ENDBRANCH   2   4
ENDBRANCH   1   2
BRANCH   1  25
ATOM     25  C   UNL     1       1.793  -6.232  -4.103  1.00  0.00     0.274 C 
BRANCH  25  26
ATOM     26  C   UNL     1       2.521  -5.803  -2.830  1.00  0.00     0.275 C 
BRANCH  26  27
ATOM     27  O   UNL     1       2.017  -6.436  -1.646  1.00  0.00    -0.458 OA
BRANCH  27  28
ATOM     28  C   UNL     1       0.982  -5.771  -1.090  1.00  0.00     0.338 C 
ATOM     29  O   UNL     1       0.216  -5.027  -1.662  1.00  0.00    -0.246 OA
BRANCH  28  30
ATOM     30  C   UNL     1       1.067  -5.729   0.363  1.00  0.00     0.060 A 
ATOM     31  C   UNL     1       0.071  -4.994   1.027  1.00  0.00     0.016 A 
ATOM     32  C   UNL     1       2.262  -6.096   0.980  1.00  0.00     0.016 A 
ATOM     33  C   UNL     1       0.330  -4.506   2.286  1.00  0.00     0.010 A 
ATOM     34  C   UNL     1       2.529  -5.591   2.226  1.00  0.00     0.010 A 
ATOM     35  C   UNL     1       1.580  -4.770   2.844  1.00  0.00    -0.014 A 
BRANCH  35  36
ATOM     36  C   UNL     1       1.820  -4.369   4.213  1.00  0.00     0.031 A 
ATOM     37  C   UNL     1       1.104  -5.259   5.161  1.00  0.00     0.074 A 
ATOM     38  C   UNL     1       2.760  -3.454   4.515  1.00  0.00     0.049 A 
ATOM     39  N   UNL     1       0.182  -4.947   6.009  1.00  0.00    -0.248 NA
ATOM     40  C   UNL     1       1.299  -6.718   5.014  1.00  0.00     0.031 C 
ATOM     41  C   UNL     1       3.684  -2.814   3.570  1.00  0.00     0.029 A 
ATOM     42  N   UNL     1       3.203  -3.011   5.726  1.00  0.00    -0.354 N 
ATOM     43  C   UNL     1      -0.116  -6.139   6.670  1.00  0.00     0.074 A 
ATOM     44  C   UNL     1       0.384  -7.203   5.852  1.00  0.00     0.031 C 
ATOM     45  C   UNL     1       4.717  -2.274   4.252  1.00  0.00     0.029 A 
ATOM     46  C   UNL     1       4.459  -2.412   5.674  1.00  0.00     0.049 A 
ATOM     47  H   UNL     1       2.684  -3.106   6.558  1.00  0.00     0.167 HD
ATOM     48  C   UNL     1      -0.366  -6.123   8.007  1.00  0.00     0.037 A 
ATOM     49  C   UNL     1       5.255  -2.131   6.734  1.00  0.00     0.037 A 
ATOM     50  C   UNL     1      -0.681  -4.789   8.443  1.00  0.00     0.049 A 
ATOM     51  C   UNL     1       4.409  -2.148   7.950  1.00  0.00     0.074 A 
ATOM     52  C   UNL     1      -1.771  -3.950   8.396  1.00  0.00     0.029 A 
ATOM     53  N   UNL     1       0.424  -4.017   8.677  1.00  0.00    -0.354 N 
ATOM     54  N   UNL     1       3.473  -1.269   8.184  1.00  0.00    -0.248 NA
ATOM     55  C   UNL     1       4.341  -3.365   8.755  1.00  0.00     0.031 C 
ATOM     56  C   UNL     1      -1.262  -2.624   8.528  1.00  0.00     0.029 A 
ATOM     57  C   UNL     1       0.119  -2.686   8.693  1.00  0.00     0.049 A 
ATOM     58  H   UNL     1       1.330  -4.378   8.817  1.00  0.00     0.167 HD
ATOM     59  C   UNL     1       2.489  -1.988   8.832  1.00  0.00     0.074 A 
ATOM     60  C   UNL     1       3.136  -3.202   9.308  1.00  0.00     0.031 C 
ATOM     61  C   UNL     1       1.173  -1.703   8.624  1.00  0.00     0.037 A 
BRANCH  48  62
ATOM     62  C   UNL     1       0.193  -7.137   8.989  1.00  0.00     0.064 A 
ATOM     63  C   UNL     1      -0.212  -7.058  10.336  1.00  0.00     0.173 A 
ATOM     64  C   UNL     1       1.323  -7.952   8.748  1.00  0.00     0.173 A 
ATOM     65  F   UNL     1      -1.257  -6.296  10.691  1.00  0.00    -0.203 F 
ATOM     66  C   UNL     1       0.499  -7.689  11.362  1.00  0.00     0.198 A 
ATOM     67  C   UNL     1       1.997  -8.623   9.767  1.00  0.00     0.198 A 
ATOM     68  F   UNL     1       1.901  -8.051   7.546  1.00  0.00    -0.203 F 
ATOM     69  F   UNL     1       0.146  -7.488  12.639  1.00  0.00    -0.200 F 
ATOM     70  C   UNL     1       1.606  -8.468  11.077  1.00  0.00     0.200 A 
ATOM     71  F   UNL     1       3.083  -9.351   9.468  1.00  0.00    -0.200 F 
ATOM     72  F   UNL     1       2.322  -9.027  12.060  1.00  0.00    -0.200 F 
ENDBRANCH  48  62
BRANCH  49  73
ATOM     73  C   UNL     1       6.733  -2.126   6.802  1.00  0.00     0.064 A 
ATOM     74  C   UNL     1       7.415  -1.416   7.802  1.00  0.00     0.173 A 
ATOM     75  C   UNL     1       7.495  -3.039   6.048  1.00  0.00     0.173 A 
ATOM     76  F   UNL     1       6.751  -0.559   8.591  1.00  0.00    -0.203 F 
ATOM     77  C   UNL     1       8.777  -1.624   8.049  1.00  0.00     0.198 A 
ATOM     78  C   UNL     1       8.854  -3.243   6.292  1.00  0.00     0.198 A 
ATOM     79  F   UNL     1       6.913  -3.817   5.124  1.00  0.00    -0.203 F 
ATOM     80  F   UNL     1       9.383  -0.970   9.050  1.00  0.00    -0.200 F 
ATOM     81  C   UNL     1       9.492  -2.545   7.301  1.00  0.00     0.200 A 
ATOM     82  F   UNL     1       9.525  -4.165   5.587  1.00  0.00    -0.200 F 
ATOM     83  F   UNL     1      10.780  -2.791   7.578  1.00  0.00    -0.200 F 
ENDBRANCH  49  73
BRANCH  61  84
ATOM     84  C   UNL     1       0.830  -0.329   8.154  1.00  0.00     0.064 A 
ATOM     85  C   UNL     1       1.141   0.180   6.884  1.00  0.00     0.173 A 
ATOM     86  C   UNL     1       0.073   0.476   9.014  1.00  0.00     0.173 A 
ATOM     87  F   UNL     1       1.802  -0.564   5.987  1.00  0.00    -0.203 F 
ATOM     88  C   UNL     1       0.733   1.459   6.508  1.00  0.00     0.198 A 
ATOM     89  C   UNL     1      -0.364   1.735   8.624  1.00  0.00     0.198 A 
ATOM     90  F   UNL     1      -0.280   0.017  10.225  1.00  0.00    -0.203 F 
ATOM     91  F   UNL     1       1.050   1.937   5.295  1.00  0.00    -0.200 F 
ATOM     92  C   UNL     1      -0.026   2.231   7.375  1.00  0.00     0.200 A 
ATOM     93  F   UNL     1      -1.130   2.458   9.451  1.00  0.00    -0.200 F 
ATOM     94  F   UNL     1      -0.450   3.446   7.000  1.00  0.00    -0.200 F 
ENDBRANCH  61  84
ENDBRANCH  35  36
ENDBRANCH  28  30
ENDBRANCH  27  28
ENDBRANCH  26  27
ENDBRANCH  25  26
ENDBRANCH   1  25
TORSDOF 16
