REMARK SMILES CC(C)(C[S@@](=O)c1ccc(F)c(F)c1)C(=O)OCCOC(=O)c1ccc(-c2c3nc(c(-c4c(F)c(F)c(F)c(F)c4F)c4ccc([nH]4)c(-c4c(F)c(F)c(F)c(F)c4F)c4nc(c(-c5c(F)c(F)c(F)c(F)c5F)c5ccc2[nH]5)C=C4)C=C3)cc1
REMARK SMILES IDX 18 1 17 2 15 3 16 4 2 5 1 6 3 7 4 8 5 9 6 10 7 11 8 12 14 13
REMARK SMILES IDX 9 14 12 15 10 16 13 17 11 18 19 19 20 20 21 21 22 22 23 23
REMARK SMILES IDX 24 24 85 25 25 26 84 27 26 28 27 29 28 30 78 31 29 32 83 33
REMARK SMILES IDX 77 34 79 35 30 36 82 37 76 38 75 39 31 41 63 42 43 43 62 44
REMARK SMILES IDX 44 45 47 46 61 47 80 48 45 49 46 50 60 52 81 53 48 54 32 55
REMARK SMILES IDX 33 56 41 57 34 58 35 59 39 60 42 61 36 62 37 63 40 64 38 65
REMARK SMILES IDX 64 66 65 67 73 68 66 69 67 70 71 71 74 72 68 73 69 74 72 75
REMARK SMILES IDX 70 76 49 77 50 78 58 79 51 80 52 81 56 82 59 83 53 84 54 85
REMARK SMILES IDX 57 86 55 87
REMARK H PARENT 79 40 47 51
REMARK Flexibility Score: inf
ROOT
ATOM      1  C   UNL     1       0.818  -3.807  -2.893  1.00  0.00     0.274 C 
ENDROOT
BRANCH   1   2
ATOM      2  O   UNL     1       0.256  -3.198  -1.709  1.00  0.00    -0.462 OA
BRANCH   2   3
ATOM      3  C   UNL     1       1.142  -2.505  -0.947  1.00  0.00     0.312 C 
ATOM      4  O   UNL     1       2.332  -2.375  -1.215  1.00  0.00    -0.252 OA
BRANCH   3   5
ATOM      5  C   UNL     1       0.524  -1.962   0.344  1.00  0.00     0.074 C 
ATOM      6  C   UNL     1       1.505  -0.937   0.944  1.00  0.00     0.024 C 
ATOM      7  C   UNL     1       0.467  -3.158   1.316  1.00  0.00     0.024 C 
BRANCH   5   8
ATOM      8  C   UNL     1      -0.894  -1.358   0.211  1.00  0.00     0.128 C 
BRANCH   8   9
ATOM      9  S   UNL     1      -1.208  -0.381  -1.284  1.00  0.00     0.054 S 
ATOM     10  O   UNL     1      -2.595  -0.718  -1.748  1.00  0.00    -0.254 OA
BRANCH   9  11
ATOM     11  C   UNL     1      -1.326   1.340  -0.722  1.00  0.00     0.042 A 
ATOM     12  C   UNL     1      -0.479   1.897   0.244  1.00  0.00     0.021 A 
ATOM     13  C   UNL     1      -2.209   2.194  -1.404  1.00  0.00     0.060 A 
ATOM     14  C   UNL     1      -0.486   3.273   0.502  1.00  0.00     0.043 A 
ATOM     15  C   UNL     1      -2.220   3.562  -1.137  1.00  0.00     0.160 A 
ATOM     16  C   UNL     1      -1.355   4.099  -0.196  1.00  0.00     0.158 A 
ATOM     17  F   UNL     1      -3.038   4.364  -1.832  1.00  0.00    -0.204 F 
ATOM     18  F   UNL     1      -1.330   5.420   0.026  1.00  0.00    -0.204 F 
ENDBRANCH   9  11
ENDBRANCH   8   9
ENDBRANCH   5   8
ENDBRANCH   3   5
ENDBRANCH   2   3
ENDBRANCH   1   2
BRANCH   1  19
ATOM     19  C   UNL     1       0.700  -2.890  -4.111  1.00  0.00     0.275 C 
BRANCH  19  20
ATOM     20  O   UNL     1       1.313  -1.620  -3.830  1.00  0.00    -0.458 OA
BRANCH  20  21
ATOM     21  C   UNL     1       0.751  -0.557  -4.451  1.00  0.00     0.338 C 
ATOM     22  O   UNL     1      -0.150  -0.587  -5.271  1.00  0.00    -0.246 OA
BRANCH  21  23
ATOM     23  C   UNL     1       1.377   0.706  -3.989  1.00  0.00     0.060 A 
ATOM     24  C   UNL     1       1.902   0.847  -2.702  1.00  0.00     0.016 A 
ATOM     25  C   UNL     1       1.357   1.809  -4.843  1.00  0.00     0.016 A 
ATOM     26  C   UNL     1       2.316   2.100  -2.241  1.00  0.00     0.010 A 
ATOM     27  C   UNL     1       1.860   3.041  -4.412  1.00  0.00     0.010 A 
ATOM     28  C   UNL     1       2.307   3.215  -3.092  1.00  0.00    -0.014 A 
BRANCH  28  29
ATOM     29  C   UNL     1       2.720   4.567  -2.611  1.00  0.00     0.031 A 
ATOM     30  C   UNL     1       1.761   5.730  -2.699  1.00  0.00     0.074 A 
ATOM     31  C   UNL     1       3.947   4.776  -2.092  1.00  0.00     0.049 A 
ATOM     32  N   UNL     1       1.981   7.005  -2.487  1.00  0.00    -0.248 NA
ATOM     33  C   UNL     1       0.374   5.419  -3.076  1.00  0.00     0.031 C 
ATOM     34  C   UNL     1       4.972   3.752  -1.897  1.00  0.00     0.029 A 
ATOM     35  N   UNL     1       4.541   5.929  -1.633  1.00  0.00    -0.354 N 
ATOM     36  C   UNL     1       0.771   7.644  -2.729  1.00  0.00     0.074 A 
ATOM     37  C   UNL     1      -0.178   6.623  -3.115  1.00  0.00     0.031 C 
ATOM     38  C   UNL     1       6.050   4.310  -1.326  1.00  0.00     0.029 A 
ATOM     39  C   UNL     1       5.831   5.748  -1.198  1.00  0.00     0.049 A 
ATOM     40  H   UNL     1       4.084   6.801  -1.618  1.00  0.00     0.167 HD
ATOM     41  C   UNL     1       0.473   8.962  -2.635  1.00  0.00     0.037 A 
ATOM     42  C   UNL     1       6.757   6.637  -0.786  1.00  0.00     0.037 A 
ATOM     43  C   UNL     1       1.397   9.985  -2.225  1.00  0.00     0.049 A 
ATOM     44  C   UNL     1       6.437   8.105  -0.788  1.00  0.00     0.074 A 
ATOM     45  C   UNL     1       1.171  11.345  -2.089  1.00  0.00     0.029 A 
ATOM     46  N   UNL     1       2.719   9.762  -1.878  1.00  0.00    -0.354 N 
ATOM     47  N   UNL     1       5.307   8.703  -1.073  1.00  0.00    -0.248 NA
ATOM     48  C   UNL     1       7.532   9.025  -0.443  1.00  0.00     0.031 C 
ATOM     49  C   UNL     1       2.369  11.950  -1.696  1.00  0.00     0.029 A 
ATOM     50  C   UNL     1       3.329  10.963  -1.552  1.00  0.00     0.049 A 
ATOM     51  H   UNL     1       3.159   8.882  -1.864  1.00  0.00     0.167 HD
ATOM     52  C   UNL     1       5.553  10.063  -0.946  1.00  0.00     0.074 A 
ATOM     53  C   UNL     1       6.934  10.205  -0.535  1.00  0.00     0.031 C 
ATOM     54  C   UNL     1       4.707  11.100  -1.160  1.00  0.00     0.037 A 
BRANCH  41  55
ATOM     55  C   UNL     1      -0.916   9.389  -2.998  1.00  0.00     0.064 A 
ATOM     56  C   UNL     1      -1.153  10.072  -4.201  1.00  0.00     0.173 A 
ATOM     57  C   UNL     1      -1.995   9.195  -2.125  1.00  0.00     0.173 A 
ATOM     58  F   UNL     1      -0.150  10.291  -5.064  1.00  0.00    -0.203 F 
ATOM     59  C   UNL     1      -2.421  10.556  -4.510  1.00  0.00     0.198 A 
ATOM     60  C   UNL     1      -3.267   9.662  -2.448  1.00  0.00     0.198 A 
ATOM     61  F   UNL     1      -1.816   8.546  -0.966  1.00  0.00    -0.203 F 
ATOM     62  F   UNL     1      -2.619  11.233  -5.650  1.00  0.00    -0.200 F 
ATOM     63  C   UNL     1      -3.477  10.349  -3.635  1.00  0.00     0.200 A 
ATOM     64  F   UNL     1      -4.290   9.453  -1.607  1.00  0.00    -0.200 F 
ATOM     65  F   UNL     1      -4.697  10.816  -3.934  1.00  0.00    -0.200 F 
ENDBRANCH  41  55
BRANCH  42  66
ATOM     66  C   UNL     1       8.102   6.155  -0.380  1.00  0.00     0.064 A 
ATOM     67  C   UNL     1       8.999   5.622  -1.318  1.00  0.00     0.173 A 
ATOM     68  C   UNL     1       8.502   6.189   0.962  1.00  0.00     0.173 A 
ATOM     69  F   UNL     1       8.664   5.574  -2.616  1.00  0.00    -0.203 F 
ATOM     70  C   UNL     1      10.231   5.107  -0.923  1.00  0.00     0.198 A 
ATOM     71  C   UNL     1       9.746   5.698   1.352  1.00  0.00     0.198 A 
ATOM     72  F   UNL     1       7.690   6.716   1.889  1.00  0.00    -0.203 F 
ATOM     73  F   UNL     1      11.050   4.563  -1.833  1.00  0.00    -0.200 F 
ATOM     74  C   UNL     1      10.604   5.147   0.411  1.00  0.00     0.200 A 
ATOM     75  F   UNL     1      10.114   5.760   2.639  1.00  0.00    -0.200 F 
ATOM     76  F   UNL     1      11.791   4.655   0.791  1.00  0.00    -0.200 F 
ENDBRANCH  42  66
BRANCH  54  77
ATOM     77  C   UNL     1       5.242  12.486  -0.964  1.00  0.00     0.064 A 
ATOM     78  C   UNL     1       4.857  13.252   0.146  1.00  0.00     0.173 A 
ATOM     79  C   UNL     1       6.082  13.080  -1.916  1.00  0.00     0.173 A 
ATOM     80  F   UNL     1       4.050  12.729   1.081  1.00  0.00    -0.203 F 
ATOM     81  C   UNL     1       5.283  14.570   0.288  1.00  0.00     0.198 A 
ATOM     82  C   UNL     1       6.524  14.391  -1.760  1.00  0.00     0.198 A 
ATOM     83  F   UNL     1       6.489  12.382  -2.987  1.00  0.00    -0.203 F 
ATOM     84  F   UNL     1       4.882  15.293   1.342  1.00  0.00    -0.200 F 
ATOM     85  C   UNL     1       6.118  15.137  -0.663  1.00  0.00     0.200 A 
ATOM     86  F   UNL     1       7.348  14.932  -2.669  1.00  0.00    -0.200 F 
ATOM     87  F   UNL     1       6.534  16.403  -0.521  1.00  0.00    -0.200 F 
ENDBRANCH  54  77
ENDBRANCH  28  29
ENDBRANCH  21  23
ENDBRANCH  20  21
ENDBRANCH  19  20
ENDBRANCH   1  19
TORSDOF 14
