REMARK SMILES C[C@@H]1CN(c2nc(Br)cs2)C[C@@H]1C(=O)OCCOC(=O)c1ccc(-c2c3nc(c(-c4c(F)c(F)c(F)c(F)c4F)c4ccc([nH]4)c(-c4c(F)c(F)c(F)c(F)c4F)c4nc(c(-c5c(F)c(F)c(F)c(F)c5F)c5ccc2[nH]5)C=C4)C=C3)cc1
REMARK SMILES IDX 17 1 16 2 15 3 13 4 14 5 12 6 1 7 2 8 3 9 4 10 11 11 5 12
REMARK SMILES IDX 6 13 10 14 7 15 9 16 8 17 18 18 19 19 20 20 21 21 22 22
REMARK SMILES IDX 83 23 23 24 82 25 24 26 25 27 26 28 76 29 27 30 81 31 75 32
REMARK SMILES IDX 77 33 28 34 80 35 74 36 73 37 29 39 61 40 41 41 60 42 42 43
REMARK SMILES IDX 45 44 59 45 78 46 43 47 44 48 58 50 79 51 46 52 30 53 31 54
REMARK SMILES IDX 39 55 32 56 33 57 37 58 40 59 34 60 35 61 38 62 36 63 62 64
REMARK SMILES IDX 63 65 71 66 64 67 65 68 69 69 72 70 66 71 67 72 70 73 68 74
REMARK SMILES IDX 47 75 48 76 56 77 49 78 50 79 54 80 57 81 51 82 52 83 55 84
REMARK SMILES IDX 53 85
REMARK H PARENT 77 38 45 49
REMARK Flexibility Score: inf
ROOT
ATOM      1  C   UNL     1      -3.096   3.159   1.687  1.00  0.00     0.275 C 
ENDROOT
BRANCH   1   2
ATOM      2  C   UNL     1      -2.833   3.385   0.198  1.00  0.00     0.274 C 
BRANCH   2   3
ATOM      3  O   UNL     1      -2.260   2.210  -0.415  1.00  0.00    -0.462 OA
BRANCH   3   4
ATOM      4  C   UNL     1      -0.906   2.165  -0.455  1.00  0.00     0.311 C 
ATOM      5  O   UNL     1      -0.175   3.070  -0.066  1.00  0.00    -0.252 OA
BRANCH   4   6
ATOM      6  C   UNL     1      -0.365   0.922  -1.119  1.00  0.00     0.123 C 
ATOM      7  C   UNL     1      -2.075  -0.692   0.024  1.00  0.00     0.010 C 
ATOM      8  C   UNL     1      -1.153  -0.404  -1.159  1.00  0.00     0.021 C 
ATOM      9  C   UNL     1      -0.044  -1.489  -1.274  1.00  0.00     0.123 C 
ATOM     10  N   UNL     1       1.188  -0.794  -0.962  1.00  0.00    -0.347 N 
ATOM     11  C   UNL     1       0.943   0.528  -0.438  1.00  0.00     0.134 C 
BRANCH  10  12
ATOM     12  C   UNL     1       2.435  -1.322  -0.970  1.00  0.00     0.186 A 
ATOM     13  N   UNL     1       3.446  -0.775  -0.329  1.00  0.00    -0.213 NA
ATOM     14  S   UNL     1       2.857  -2.737  -1.875  1.00  0.00    -0.104 S 
ATOM     15  C   UNL     1       4.602  -1.487  -0.550  1.00  0.00     0.119 A 
ATOM     16  C   UNL     1       4.491  -2.561  -1.398  1.00  0.00     0.104 A 
ATOM     17  Br  UNL     1       6.228  -0.976   0.276  1.00  0.00    -0.028 Br
ENDBRANCH  10  12
ENDBRANCH   4   6
ENDBRANCH   3   4
ENDBRANCH   2   3
ENDBRANCH   1   2
BRANCH   1  18
ATOM     18  O   UNL     1      -1.848   3.037   2.394  1.00  0.00    -0.458 OA
BRANCH  18  19
ATOM     19  C   UNL     1      -1.730   1.966   3.210  1.00  0.00     0.338 C 
ATOM     20  O   UNL     1      -2.567   1.110   3.436  1.00  0.00    -0.246 OA
BRANCH  19  21
ATOM     21  C   UNL     1      -0.396   1.960   3.839  1.00  0.00     0.060 A 
ATOM     22  C   UNL     1       0.752   1.961   3.050  1.00  0.00     0.016 A 
ATOM     23  C   UNL     1      -0.290   1.836   5.225  1.00  0.00     0.016 A 
ATOM     24  C   UNL     1       2.001   1.746   3.630  1.00  0.00     0.010 A 
ATOM     25  C   UNL     1       0.973   1.721   5.816  1.00  0.00     0.010 A 
ATOM     26  C   UNL     1       2.130   1.640   5.022  1.00  0.00    -0.014 A 
BRANCH  26  27
ATOM     27  C   UNL     1       3.471   1.440   5.635  1.00  0.00     0.031 A 
ATOM     28  C   UNL     1       3.776   0.195   6.424  1.00  0.00     0.074 A 
ATOM     29  C   UNL     1       4.428   2.374   5.469  1.00  0.00     0.049 A 
ATOM     30  N   UNL     1       4.847  -0.105   7.118  1.00  0.00    -0.248 NA
ATOM     31  C   UNL     1       2.737  -0.845   6.450  1.00  0.00     0.031 C 
ATOM     32  C   UNL     1       4.272   3.618   4.716  1.00  0.00     0.029 A 
ATOM     33  N   UNL     1       5.727   2.416   5.913  1.00  0.00    -0.354 N 
ATOM     34  C   UNL     1       4.591  -1.341   7.699  1.00  0.00     0.074 A 
ATOM     35  C   UNL     1       3.263  -1.736   7.279  1.00  0.00     0.031 C 
ATOM     36  C   UNL     1       5.439   4.279   4.709  1.00  0.00     0.029 A 
ATOM     37  C   UNL     1       6.407   3.540   5.513  1.00  0.00     0.049 A 
ATOM     38  H   UNL     1       6.132   1.708   6.464  1.00  0.00     0.167 HD
ATOM     39  C   UNL     1       5.392  -2.076   8.508  1.00  0.00     0.037 A 
ATOM     40  C   UNL     1       7.663   3.944   5.778  1.00  0.00     0.037 A 
ATOM     41  C   UNL     1       6.734  -1.709   8.881  1.00  0.00     0.049 A 
ATOM     42  C   UNL     1       8.538   3.097   6.655  1.00  0.00     0.074 A 
ATOM     43  C   UNL     1       7.627  -2.397   9.684  1.00  0.00     0.029 A 
ATOM     44  N   UNL     1       7.383  -0.558   8.459  1.00  0.00    -0.354 N 
ATOM     45  N   UNL     1       8.266   1.954   7.236  1.00  0.00    -0.248 NA
ATOM     46  C   UNL     1       9.890   3.604   6.927  1.00  0.00     0.031 C 
ATOM     47  C   UNL     1       8.809  -1.651   9.768  1.00  0.00     0.029 A 
ATOM     48  C   UNL     1       8.662  -0.514   8.990  1.00  0.00     0.049 A 
ATOM     49  H   UNL     1       6.992   0.126   7.869  1.00  0.00     0.167 HD
ATOM     50  C   UNL     1       9.406   1.607   7.945  1.00  0.00     0.074 A 
ATOM     51  C   UNL     1      10.387   2.644   7.694  1.00  0.00     0.031 C 
ATOM     52  C   UNL     1       9.618   0.533   8.743  1.00  0.00     0.037 A 
BRANCH  39  53
ATOM     53  C   UNL     1       4.829  -3.347   9.072  1.00  0.00     0.064 A 
ATOM     54  C   UNL     1       4.683  -4.503   8.292  1.00  0.00     0.173 A 
ATOM     55  C   UNL     1       4.473  -3.419  10.427  1.00  0.00     0.173 A 
ATOM     56  F   UNL     1       4.997  -4.481   6.988  1.00  0.00    -0.203 F 
ATOM     57  C   UNL     1       4.184  -5.680   8.845  1.00  0.00     0.198 A 
ATOM     58  C   UNL     1       3.996  -4.604  10.982  1.00  0.00     0.198 A 
ATOM     59  F   UNL     1       4.598  -2.342  11.217  1.00  0.00    -0.203 F 
ATOM     60  F   UNL     1       4.020  -6.764   8.073  1.00  0.00    -0.200 F 
ATOM     61  C   UNL     1       3.848  -5.731  10.189  1.00  0.00     0.200 A 
ATOM     62  F   UNL     1       3.681  -4.654  12.284  1.00  0.00    -0.200 F 
ATOM     63  F   UNL     1       3.376  -6.868  10.721  1.00  0.00    -0.200 F 
ENDBRANCH  39  53
BRANCH  40  64
ATOM     64  C   UNL     1       8.156   5.225   5.213  1.00  0.00     0.064 A 
ATOM     65  C   UNL     1       9.114   5.240   4.191  1.00  0.00     0.173 A 
ATOM     66  C   UNL     1       7.662   6.457   5.667  1.00  0.00     0.173 A 
ATOM     67  F   UNL     1       9.635   4.087   3.745  1.00  0.00    -0.203 F 
ATOM     68  C   UNL     1       9.564   6.440   3.646  1.00  0.00     0.198 A 
ATOM     69  C   UNL     1       8.093   7.655   5.103  1.00  0.00     0.198 A 
ATOM     70  F   UNL     1       6.745   6.494   6.644  1.00  0.00    -0.203 F 
ATOM     71  F   UNL     1      10.505   6.430   2.692  1.00  0.00    -0.200 F 
ATOM     72  C   UNL     1       9.046   7.646   4.096  1.00  0.00     0.200 A 
ATOM     73  F   UNL     1       7.582   8.817   5.532  1.00  0.00    -0.200 F 
ATOM     74  F   UNL     1       9.471   8.800   3.563  1.00  0.00    -0.200 F 
ENDBRANCH  40  64
BRANCH  52  75
ATOM     75  C   UNL     1      10.960   0.437   9.402  1.00  0.00     0.064 A 
ATOM     76  C   UNL     1      11.295   1.257  10.489  1.00  0.00     0.173 A 
ATOM     77  C   UNL     1      11.917  -0.480   8.945  1.00  0.00     0.173 A 
ATOM     78  F   UNL     1      10.417   2.162  10.949  1.00  0.00    -0.203 F 
ATOM     79  C   UNL     1      12.553   1.181  11.079  1.00  0.00     0.198 A 
ATOM     80  C   UNL     1      13.167  -0.568   9.552  1.00  0.00     0.198 A 
ATOM     81  F   UNL     1      11.641  -1.287   7.910  1.00  0.00    -0.203 F 
ATOM     82  F   UNL     1      12.871   2.006  12.087  1.00  0.00    -0.200 F 
ATOM     83  C   UNL     1      13.487   0.267  10.613  1.00  0.00     0.200 A 
ATOM     84  F   UNL     1      14.067  -1.454   9.104  1.00  0.00    -0.200 F 
ATOM     85  F   UNL     1      14.700   0.200  11.177  1.00  0.00    -0.200 F 
ENDBRANCH  52  75
ENDBRANCH  26  27
ENDBRANCH  19  21
ENDBRANCH  18  19
ENDBRANCH   1  18
TORSDOF 12
