REMARK SMILES C#CCN(CC(=O)OCCOC(=O)c1ccc(-c2c3nc(c(-c4c(F)c(F)c(F)c(F)c4F)c4ccc([nH]4)c(-c4c(F)c(F)c(F)c(F)c4F)c4nc(c(-c5c(F)c(F)c(F)c(F)c5F)c5ccc2[nH]5)C=C4)C=C3)cc1)C(=O)Nc1cccc(C#N)c1
REMARK SMILES IDX 9 1 8 2 6 3 7 4 5 5 4 6 3 7 2 8 1 9 77 10 78 11 79 12 80 14
REMARK SMILES IDX 81 15 87 16 82 17 84 18 83 19 85 20 86 21 10 22 11 23 12 24
REMARK SMILES IDX 13 25 14 26 15 27 76 28 16 29 75 30 17 31 18 32 19 33 69 34
REMARK SMILES IDX 20 35 74 36 68 37 70 38 21 39 73 40 67 41 66 42 22 44 54 45
REMARK SMILES IDX 34 46 53 47 35 48 38 49 52 50 71 51 36 52 37 53 51 55 72 56
REMARK SMILES IDX 39 57 23 58 24 59 32 60 25 61 26 62 30 63 33 64 27 65 28 66
REMARK SMILES IDX 31 67 29 68 55 69 56 70 64 71 57 72 58 73 62 74 65 75 59 76
REMARK SMILES IDX 60 77 63 78 61 79 40 80 41 81 49 82 42 83 43 84 47 85 50 86
REMARK SMILES IDX 44 87 45 88 48 89 46 90
REMARK H PARENT 79 13 70 43 38 54
REMARK Flexibility Score: inf
ROOT
ATOM      1  C   UNL     1      -6.459   1.191   0.917  1.00  0.00     0.274 C 
ENDROOT
BRANCH   1   2
ATOM      2  O   UNL     1      -5.072   0.853   0.589  1.00  0.00    -0.461 OA
BRANCH   2   3
ATOM      3  C   UNL     1      -4.816   0.406  -0.691  1.00  0.00     0.325 C 
ATOM      4  O   UNL     1      -5.667  -0.086  -1.423  1.00  0.00    -0.250 OA
BRANCH   3   5
ATOM      5  C   UNL     1      -3.438   0.928  -1.236  1.00  0.00     0.245 C 
BRANCH   5   6
ATOM      6  N   UNL     1      -2.424   1.176  -0.209  1.00  0.00    -0.302 N 
BRANCH   6   7
ATOM      7  C   UNL     1      -1.765  -0.015   0.080  1.00  0.00     0.211 C 
BRANCH   7   8
ATOM      8  C   UNL     1      -0.245  -0.015   0.080  1.00  0.00    -0.085 C 
ATOM      9  C   UNL     1       1.059  -0.015   0.080  1.00  0.00     0.006 C 
ENDBRANCH   7   8
ENDBRANCH   6   7
BRANCH   6  10
ATOM     10  C   UNL     1      -2.148   2.149   0.708  1.00  0.00     0.323 C 
ATOM     11  O   UNL     1      -1.501   1.913   1.738  1.00  0.00    -0.248 OA
ATOM     12  N   UNL     1      -2.400   3.444   0.533  1.00  0.00    -0.308 N 
ATOM     13  H   UNL     1      -1.833   4.026   1.089  1.00  0.00     0.171 HD
BRANCH  12  14
ATOM     14  C   UNL     1      -3.275   4.143  -0.251  1.00  0.00     0.044 A 
ATOM     15  C   UNL     1      -3.062   5.911  -0.414  1.00  0.00     0.026 A 
ATOM     16  C   UNL     1      -4.734   3.465  -0.957  1.00  0.00     0.045 A 
ATOM     17  C   UNL     1      -4.498   6.927  -1.411  1.00  0.00     0.004 A 
ATOM     18  C   UNL     1      -5.993   4.370  -1.814  1.00  0.00     0.054 A 
ATOM     19  C   UNL     1      -5.912   6.066  -2.054  1.00  0.00     0.019 A 
BRANCH  18  20
ATOM     20  C   UNL     1      -7.073   3.603  -2.356  1.00  0.00     0.099 C 
ATOM     21  N   UNL     1      -7.909   2.935  -2.801  1.00  0.00    -0.192 NA
ENDBRANCH  18  20
ENDBRANCH  12  14
ENDBRANCH   6  10
ENDBRANCH   5   6
ENDBRANCH   3   5
ENDBRANCH   2   3
ENDBRANCH   1   2
BRANCH   1  22
ATOM     22  C   UNL     1      -6.537   2.554   1.670  1.00  0.00     0.275 C 
BRANCH  22  23
ATOM     23  O   UNL     1      -6.453   3.679   0.739  1.00  0.00    -0.458 OA
BRANCH  23  24
ATOM     24  C   UNL     1      -5.600   4.697   1.062  1.00  0.00     0.338 C 
ATOM     25  O   UNL     1      -5.256   4.917   2.220  1.00  0.00    -0.246 OA
BRANCH  24  26
ATOM     26  C   UNL     1      -4.910   5.553  -0.151  1.00  0.00     0.060 A 
ATOM     27  C   UNL     1      -3.954   5.197  -1.912  1.00  0.00     0.016 A 
ATOM     28  C   UNL     1      -4.454   7.085   0.707  1.00  0.00     0.016 A 
ATOM     29  C   UNL     1      -2.706   6.313  -2.491  1.00  0.00     0.010 A 
ATOM     30  C   UNL     1      -3.239   8.134  -0.021  1.00  0.00     0.010 A 
ATOM     31  C   UNL     1      -2.423   7.757  -1.563  1.00  0.00    -0.014 A 
BRANCH  31  32
ATOM     32  C   UNL     1      -1.711   8.839  -2.249  1.00  0.00     0.031 A 
ATOM     33  C   UNL     1      -0.610   9.522  -1.528  1.00  0.00     0.074 A 
ATOM     34  C   UNL     1      -2.207   9.241  -3.437  1.00  0.00     0.049 A 
ATOM     35  N   UNL     1      -0.054  10.669  -1.784  1.00  0.00    -0.248 NA
ATOM     36  C   UNL     1      -0.092   8.846  -0.326  1.00  0.00     0.031 C 
ATOM     37  C   UNL     1      -3.292   8.595  -4.192  1.00  0.00     0.029 A 
ATOM     38  N   UNL     1      -1.901  10.326  -4.211  1.00  0.00    -0.354 N 
ATOM     39  C   UNL     1       0.856  10.873  -0.759  1.00  0.00     0.074 A 
ATOM     40  C   UNL     1       0.746   9.755   0.149  1.00  0.00     0.031 C 
ATOM     41  C   UNL     1      -3.567   9.291  -5.297  1.00  0.00     0.029 A 
ATOM     42  C   UNL     1      -2.743  10.477  -5.289  1.00  0.00     0.049 A 
ATOM     43  H   UNL     1      -1.155  10.937  -4.016  1.00  0.00     0.167 HD
ATOM     44  C   UNL     1       1.705  11.915  -0.620  1.00  0.00     0.037 A 
ATOM     45  C   UNL     1      -2.876  11.498  -6.149  1.00  0.00     0.037 A 
ATOM     46  C   UNL     1       1.745  12.998  -1.567  1.00  0.00     0.049 A 
ATOM     47  C   UNL     1      -1.953  12.655  -5.947  1.00  0.00     0.074 A 
ATOM     48  C   UNL     1       2.553  14.117  -1.576  1.00  0.00     0.029 A 
ATOM     49  N   UNL     1       0.917  13.087  -2.685  1.00  0.00    -0.354 N 
ATOM     50  N   UNL     1      -1.076  12.843  -4.988  1.00  0.00    -0.248 NA
ATOM     51  C   UNL     1      -2.013  13.725  -6.940  1.00  0.00     0.031 C 
ATOM     52  C   UNL     1       2.175  14.908  -2.667  1.00  0.00     0.029 A 
ATOM     53  C   UNL     1       1.184  14.249  -3.383  1.00  0.00     0.049 A 
ATOM     54  H   UNL     1       0.240  12.419  -2.940  1.00  0.00     0.167 HD
ATOM     55  C   UNL     1      -0.440  14.032  -5.285  1.00  0.00     0.074 A 
ATOM     56  C   UNL     1      -1.040  14.519  -6.516  1.00  0.00     0.031 C 
ATOM     57  C   UNL     1       0.556  14.663  -4.616  1.00  0.00     0.037 A 
BRANCH  44  58
ATOM     58  C   UNL     1       2.595  11.927   0.589  1.00  0.00     0.064 A 
ATOM     59  C   UNL     1       3.592  10.957   0.786  1.00  0.00     0.173 A 
ATOM     60  C   UNL     1       2.431  12.900   1.586  1.00  0.00     0.173 A 
ATOM     61  F   UNL     1       3.781   9.988  -0.123  1.00  0.00    -0.203 F 
ATOM     62  C   UNL     1       4.357  10.935   1.951  1.00  0.00     0.198 A 
ATOM     63  C   UNL     1       3.222  12.897   2.733  1.00  0.00     0.198 A 
ATOM     64  F   UNL     1       1.491  13.849   1.458  1.00  0.00    -0.203 F 
ATOM     65  F   UNL     1       5.249   9.953   2.146  1.00  0.00    -0.200 F 
ATOM     66  C   UNL     1       4.175  11.908   2.921  1.00  0.00     0.200 A 
ATOM     67  F   UNL     1       3.049  13.843   3.667  1.00  0.00    -0.200 F 
ATOM     68  F   UNL     1       4.906  11.883   4.043  1.00  0.00    -0.200 F 
ENDBRANCH  44  58
BRANCH  45  69
ATOM     69  C   UNL     1      -3.877  11.431  -7.245  1.00  0.00     0.064 A 
ATOM     70  C   UNL     1      -3.466  11.289  -8.576  1.00  0.00     0.173 A 
ATOM     71  C   UNL     1      -5.259  11.436  -6.991  1.00  0.00     0.173 A 
ATOM     72  F   UNL     1      -2.158  11.261  -8.871  1.00  0.00    -0.203 F 
ATOM     73  C   UNL     1      -4.392  11.190  -9.613  1.00  0.00     0.198 A 
ATOM     74  C   UNL     1      -6.185  11.306  -8.026  1.00  0.00     0.198 A 
ATOM     75  F   UNL     1      -5.712  11.526  -5.732  1.00  0.00    -0.203 F 
ATOM     76  F   UNL     1      -3.966  11.092 -10.880  1.00  0.00    -0.200 F 
ATOM     77  C   UNL     1      -5.751  11.195  -9.338  1.00  0.00     0.200 A 
ATOM     78  F   UNL     1      -7.497  11.277  -7.751  1.00  0.00    -0.200 F 
ATOM     79  F   UNL     1      -6.640  11.090 -10.335  1.00  0.00    -0.200 F 
ENDBRANCH  45  69
BRANCH  57  80
ATOM     80  C   UNL     1       1.092  15.905  -5.252  1.00  0.00     0.064 A 
ATOM     81  C   UNL     1       0.362  17.100  -5.268  1.00  0.00     0.173 A 
ATOM     82  C   UNL     1       2.384  15.902  -5.796  1.00  0.00     0.173 A 
ATOM     83  F   UNL     1      -0.887  17.137  -4.778  1.00  0.00    -0.203 F 
ATOM     84  C   UNL     1       0.904  18.251  -5.825  1.00  0.00     0.198 A 
ATOM     85  C   UNL     1       2.937  17.064  -6.316  1.00  0.00     0.198 A 
ATOM     86  F   UNL     1       3.115  14.777  -5.799  1.00  0.00    -0.203 F 
ATOM     87  F   UNL     1       0.175  19.374  -5.876  1.00  0.00    -0.200 F 
ATOM     88  C   UNL     1       2.195  18.236  -6.335  1.00  0.00     0.200 A 
ATOM     89  F   UNL     1       4.189  17.053  -6.790  1.00  0.00    -0.200 F 
ATOM     90  F   UNL     1       2.724  19.353  -6.851  1.00  0.00    -0.200 F 
ENDBRANCH  57  80
ENDBRANCH  31  32
ENDBRANCH  24  26
ENDBRANCH  23  24
ENDBRANCH  22  23
ENDBRANCH   1  22
TORSDOF 17
