REMARK SMILES C[C@H]1CC[C@@H]([C@H](C(=O)OCCOC(=O)c2ccc(-c3c4nc(c(-c5c(F)c(F)c(F)c(F)c5F)c5ccc([nH]5)c(-c5c(F)c(F)c(F)c(F)c5F)c5nc(c(-c6c(F)c(F)c(F)c(F)c6F)c6ccc3[nH]6)C=C5)C=C4)cc2)[C@@H]2CCS(=O)(=O)C2)C[C@@H]1C
REMARK SMILES IDX 11 1 10 2 9 3 7 4 8 5 6 6 5 7 1 8 2 9 3 10 86 11 4 12 85 13
REMARK SMILES IDX 87 14 78 15 79 16 84 17 80 18 81 19 82 20 83 21 12 22 13 23
REMARK SMILES IDX 14 24 15 25 16 26 77 27 17 28 76 29 18 30 19 31 20 32 70 33
REMARK SMILES IDX 21 34 75 35 69 36 71 37 22 38 74 39 68 40 67 41 23 43 55 44
REMARK SMILES IDX 35 45 54 46 36 47 39 48 53 49 72 50 37 51 38 52 52 54 73 55
REMARK SMILES IDX 40 56 24 57 25 58 33 59 26 60 27 61 31 62 34 63 28 64 29 65
REMARK SMILES IDX 32 66 30 67 56 68 57 69 65 70 58 71 59 72 63 73 66 74 60 75
REMARK SMILES IDX 61 76 64 77 62 78 41 79 42 80 50 81 43 82 44 83 48 84 51 85
REMARK SMILES IDX 45 86 46 87 49 88 47 89
REMARK H PARENT 71 42 39 53
REMARK Flexibility Score: inf
ROOT
ATOM      1  C   UNL     1       1.625   1.360  -4.784  1.00  0.00     0.275 C 
ENDROOT
BRANCH   1   2
ATOM      2  C   UNL     1       1.884   2.683  -5.488  1.00  0.00     0.274 C 
BRANCH   2   3
ATOM      3  O   UNL     1       2.859   3.488  -4.783  1.00  0.00    -0.462 OA
BRANCH   3   4
ATOM      4  C   UNL     1       2.371   4.548  -4.103  1.00  0.00     0.309 C 
ATOM      5  O   UNL     1       1.180   4.781  -3.932  1.00  0.00    -0.252 OA
BRANCH   4   6
ATOM      6  C   UNL     1       3.460   5.497  -3.603  1.00  0.00     0.106 C 
BRANCH   6   7
ATOM      7  C   UNL     1       4.026   5.076  -2.205  1.00  0.00     0.004 C 
ATOM      8  C   UNL     1       8.373   4.893  -2.560  1.00  0.00     0.008 C 
ATOM      9  C   UNL     1       7.002   4.776  -1.871  1.00  0.00    -0.011 C 
ATOM     10  C   UNL     1       6.321   6.159  -1.872  1.00  0.00     0.004 C 
ATOM     11  C   UNL     1       6.149   3.624  -2.467  1.00  0.00    -0.011 C 
ATOM     12  C   UNL     1       4.856   6.140  -1.479  1.00  0.00     0.005 C 
ATOM     13  C   UNL     1       4.683   3.700  -2.043  1.00  0.00     0.008 C 
ATOM     14  C   UNL     1       6.726   2.250  -2.095  1.00  0.00     0.008 C 
ENDBRANCH   6   7
BRANCH   6  15
ATOM     15  C   UNL     1       4.286   6.245  -4.701  1.00  0.00     0.019 C 
ATOM     16  C   UNL     1       3.487   6.535  -5.999  1.00  0.00     0.021 C 
ATOM     17  C   UNL     1       5.637   5.757  -5.217  1.00  0.00     0.141 C 
ATOM     18  C   UNL     1       3.763   5.444  -7.038  1.00  0.00     0.137 C 
ATOM     19  S   UNL     1       5.368   4.774  -6.664  1.00  0.00     0.150 S 
ATOM     20  O   UNL     1       5.235   3.386  -6.271  1.00  0.00    -0.229 OA
ATOM     21  O   UNL     1       6.305   5.191  -7.683  1.00  0.00    -0.229 OA
ENDBRANCH   6  15
ENDBRANCH   4   6
ENDBRANCH   3   4
ENDBRANCH   2   3
ENDBRANCH   1   2
BRANCH   1  22
ATOM     22  O   UNL     1       1.134   1.625  -3.464  1.00  0.00    -0.458 OA
BRANCH  22  23
ATOM     23  C   UNL     1       1.841   1.069  -2.460  1.00  0.00     0.338 C 
ATOM     24  O   UNL     1       2.780   0.290  -2.541  1.00  0.00    -0.246 OA
BRANCH  23  25
ATOM     25  C   UNL     1       1.304   1.538  -1.178  1.00  0.00     0.060 A 
ATOM     26  C   UNL     1       1.187   2.904  -0.917  1.00  0.00     0.016 A 
ATOM     27  C   UNL     1       0.998   0.601  -0.195  1.00  0.00     0.016 A 
ATOM     28  C   UNL     1       0.827   3.342   0.354  1.00  0.00     0.010 A 
ATOM     29  C   UNL     1       0.549   1.039   1.050  1.00  0.00     0.010 A 
ATOM     30  C   UNL     1       0.482   2.412   1.344  1.00  0.00    -0.014 A 
BRANCH  30  31
ATOM     31  C   UNL     1       0.047   2.853   2.693  1.00  0.00     0.031 A 
ATOM     32  C   UNL     1       0.827   2.432   3.906  1.00  0.00     0.074 A 
ATOM     33  C   UNL     1      -1.077   3.581   2.830  1.00  0.00     0.049 A 
ATOM     34  N   UNL     1       0.496   2.503   5.170  1.00  0.00    -0.248 NA
ATOM     35  C   UNL     1       2.150   1.835   3.663  1.00  0.00     0.031 C 
ATOM     36  C   UNL     1      -1.906   4.078   1.731  1.00  0.00     0.029 A 
ATOM     37  N   UNL     1      -1.730   4.011   3.958  1.00  0.00    -0.354 N 
ATOM     38  C   UNL     1       1.542   1.914   5.868  1.00  0.00     0.074 A 
ATOM     39  C   UNL     1       2.520   1.490   4.889  1.00  0.00     0.031 C 
ATOM     40  C   UNL     1      -2.952   4.748   2.236  1.00  0.00     0.029 A 
ATOM     41  C   UNL     1      -2.911   4.659   3.691  1.00  0.00     0.049 A 
ATOM     42  H   UNL     1      -1.386   3.869   4.870  1.00  0.00     0.167 HD
ATOM     43  C   UNL     1       1.666   1.741   7.205  1.00  0.00     0.037 A 
ATOM     44  C   UNL     1      -3.880   5.087   4.521  1.00  0.00     0.037 A 
ATOM     45  C   UNL     1       0.706   2.205   8.173  1.00  0.00     0.049 A 
ATOM     46  C   UNL     1      -3.730   4.859   5.998  1.00  0.00     0.074 A 
ATOM     47  C   UNL     1       0.756   2.111   9.553  1.00  0.00     0.029 A 
ATOM     48  N   UNL     1      -0.476   2.861   7.859  1.00  0.00    -0.354 N 
ATOM     49  N   UNL     1      -2.751   4.279   6.650  1.00  0.00    -0.248 NA
ATOM     50  C   UNL     1      -4.826   5.331   6.854  1.00  0.00     0.031 C 
ATOM     51  C   UNL     1      -0.414   2.676  10.073  1.00  0.00     0.029 A 
ATOM     52  C   UNL     1      -1.171   3.162   9.019  1.00  0.00     0.049 A 
ATOM     53  H   UNL     1      -0.776   3.079   6.947  1.00  0.00     0.167 HD
ATOM     54  C   UNL     1      -3.104   4.330   7.990  1.00  0.00     0.074 A 
ATOM     55  C   UNL     1      -4.379   5.015   8.061  1.00  0.00     0.031 C 
ATOM     56  C   UNL     1      -2.437   3.848   9.067  1.00  0.00     0.037 A 
BRANCH  43  57
ATOM     57  C   UNL     1       2.868   0.996   7.706  1.00  0.00     0.064 A 
ATOM     58  C   UNL     1       4.148   1.568   7.706  1.00  0.00     0.173 A 
ATOM     59  C   UNL     1       2.724  -0.292   8.246  1.00  0.00     0.173 A 
ATOM     60  F   UNL     1       4.342   2.790   7.190  1.00  0.00    -0.203 F 
ATOM     61  C   UNL     1       5.243   0.871   8.213  1.00  0.00     0.198 A 
ATOM     62  C   UNL     1       3.815  -0.975   8.775  1.00  0.00     0.198 A 
ATOM     63  F   UNL     1       1.520  -0.882   8.274  1.00  0.00    -0.203 F 
ATOM     64  F   UNL     1       6.464   1.423   8.172  1.00  0.00    -0.200 F 
ATOM     65  C   UNL     1       5.074  -0.395   8.755  1.00  0.00     0.200 A 
ATOM     66  F   UNL     1       3.648  -2.193   9.309  1.00  0.00    -0.200 F 
ATOM     67  F   UNL     1       6.127  -1.058   9.253  1.00  0.00    -0.200 F 
ENDBRANCH  43  57
BRANCH  44  68
ATOM     68  C   UNL     1      -5.094   5.738   3.966  1.00  0.00     0.064 A 
ATOM     69  C   UNL     1      -5.338   7.101   4.174  1.00  0.00     0.173 A 
ATOM     70  C   UNL     1      -6.030   5.014   3.211  1.00  0.00     0.173 A 
ATOM     71  F   UNL     1      -4.485   7.829   4.909  1.00  0.00    -0.203 F 
ATOM     72  C   UNL     1      -6.479   7.714   3.659  1.00  0.00     0.198 A 
ATOM     73  C   UNL     1      -7.154   5.634   2.671  1.00  0.00     0.198 A 
ATOM     74  F   UNL     1      -5.841   3.706   2.982  1.00  0.00    -0.203 F 
ATOM     75  F   UNL     1      -6.710   9.010   3.908  1.00  0.00    -0.200 F 
ATOM     76  C   UNL     1      -7.381   6.982   2.901  1.00  0.00     0.200 A 
ATOM     77  F   UNL     1      -8.014   4.926   1.927  1.00  0.00    -0.200 F 
ATOM     78  F   UNL     1      -8.473   7.574   2.400  1.00  0.00    -0.200 F 
ENDBRANCH  44  68
BRANCH  56  79
ATOM     79  C   UNL     1      -3.060   4.075  10.412  1.00  0.00     0.064 A 
ATOM     80  C   UNL     1      -4.188   3.354  10.829  1.00  0.00     0.173 A 
ATOM     81  C   UNL     1      -2.507   5.008  11.301  1.00  0.00     0.173 A 
ATOM     82  F   UNL     1      -4.763   2.464  10.005  1.00  0.00    -0.203 F 
ATOM     83  C   UNL     1      -4.755   3.578  12.080  1.00  0.00     0.198 A 
ATOM     84  C   UNL     1      -3.061   5.209  12.562  1.00  0.00     0.198 A 
ATOM     85  F   UNL     1      -1.425   5.719  10.949  1.00  0.00    -0.203 F 
ATOM     86  F   UNL     1      -5.862   2.913  12.440  1.00  0.00    -0.200 F 
ATOM     87  C   UNL     1      -4.188   4.500  12.947  1.00  0.00     0.200 A 
ATOM     88  F   UNL     1      -2.506   6.093  13.402  1.00  0.00    -0.200 F 
ATOM     89  F   UNL     1      -4.735   4.712  14.152  1.00  0.00    -0.200 F 
ENDBRANCH  56  79
ENDBRANCH  30  31
ENDBRANCH  23  25
ENDBRANCH  22  23
ENDBRANCH   1  22
TORSDOF 13
