REMARK SMILES COc1ccc(/C=C(\CCC(=O)OCCOC(=O)c2ccc(-c3c4nc(c(-c5c(F)c(F)c(F)c(F)c5F)c5ccc([nH]5)c(-c5c(F)c(F)c(F)c(F)c5F)c5nc(c(-c6c(F)c(F)c(F)c(F)c6F)c6ccc3[nH]6)C=C5)C=C4)cc2)c2nc3ccccc3s2)cc1F
REMARK SMILES IDX 14 1 13 2 11 3 12 4 10 5 9 6 8 7 7 8 6 9 3 10 4 11 92 12
REMARK SMILES IDX 5 13 91 14 93 15 2 16 1 17 82 18 83 19 90 20 84 21 89 22
REMARK SMILES IDX 85 23 88 24 86 25 87 26 15 27 16 28 17 29 18 30 19 31 20 32
REMARK SMILES IDX 81 33 21 34 80 35 22 36 23 37 24 38 74 39 25 40 79 41 73 42
REMARK SMILES IDX 75 43 26 44 78 45 72 46 71 47 27 49 59 50 39 51 58 52 40 53
REMARK SMILES IDX 43 54 57 55 76 56 41 57 42 58 56 60 77 61 44 62 28 63 29 64
REMARK SMILES IDX 37 65 30 66 31 67 35 68 38 69 32 70 33 71 36 72 34 73 60 74
REMARK SMILES IDX 61 75 69 76 62 77 63 78 67 79 70 80 64 81 65 82 68 83 66 84
REMARK SMILES IDX 45 85 46 86 54 87 47 88 48 89 52 90 55 91 49 92 50 93 53 94
REMARK SMILES IDX 51 95
REMARK H PARENT 75 48 43 59
REMARK Flexibility Score: inf
ROOT
ATOM      1  C   UNL     1      -1.850   4.203   9.768  1.00  0.00     0.274 C 
ENDROOT
BRANCH   1   2
ATOM      2  O   UNL     1      -1.188   3.704   8.594  1.00  0.00    -0.462 OA
BRANCH   2   3
ATOM      3  C   UNL     1      -1.963   3.348   7.544  1.00  0.00     0.306 C 
ATOM      4  O   UNL     1      -3.159   3.098   7.593  1.00  0.00    -0.252 OA
BRANCH   3   5
ATOM      5  C   UNL     1      -1.163   3.365   6.266  1.00  0.00     0.127 C 
BRANCH   5   6
ATOM      6  C   UNL     1      -0.507   4.732   6.044  1.00  0.00     0.050 C 
BRANCH   6   7
ATOM      7  C   UNL     1       1.012   4.727   6.118  1.00  0.00    -0.011 C 
ATOM      8  C   UNL     1       1.826   4.196   5.171  1.00  0.00     0.015 C 
BRANCH   8   9
ATOM      9  C   UNL     1       1.535   3.497   3.885  1.00  0.00    -0.022 A 
ATOM     10  C   UNL     1       1.156   2.117   1.421  1.00  0.00     0.154 A 
ATOM     11  C   UNL     1       0.110   2.814   2.005  1.00  0.00     0.050 A 
ATOM     12  C   UNL     1       2.401   2.139   2.042  1.00  0.00     0.165 A 
ATOM     13  C   UNL     1       0.302   3.496   3.215  1.00  0.00     0.012 A 
ATOM     14  C   UNL     1       2.590   2.813   3.256  1.00  0.00     0.051 A 
ATOM     15  F   UNL     1       3.457   1.537   1.475  1.00  0.00    -0.203 F 
BRANCH  10  16
ATOM     16  O   UNL     1       0.893   1.531   0.215  1.00  0.00    -0.494 OA
ATOM     17  C   UNL     1       1.238   0.149   0.182  1.00  0.00     0.278 C 
ENDBRANCH  10  16
ENDBRANCH   8   9
BRANCH   7  18
ATOM     18  C   UNL     1       1.613   5.337   7.291  1.00  0.00     0.120 A 
ATOM     19  N   UNL     1       1.300   5.016   8.532  1.00  0.00    -0.236 NA
ATOM     20  S   UNL     1       2.603   6.754   7.171  1.00  0.00    -0.114 S 
ATOM     21  C   UNL     1       1.635   6.033   9.409  1.00  0.00     0.082 A 
ATOM     22  C   UNL     1       2.341   7.092   8.844  1.00  0.00     0.055 A 
ATOM     23  C   UNL     1       1.261   6.108  10.769  1.00  0.00     0.030 A 
ATOM     24  C   UNL     1       2.699   8.221   9.602  1.00  0.00     0.021 A 
ATOM     25  C   UNL     1       1.544   7.258  11.509  1.00  0.00     0.002 A 
ATOM     26  C   UNL     1       2.264   8.298  10.932  1.00  0.00     0.002 A 
ENDBRANCH   7  18
ENDBRANCH   6   7
ENDBRANCH   5   6
ENDBRANCH   3   5
ENDBRANCH   2   3
ENDBRANCH   1   2
BRANCH   1  27
ATOM     27  C   UNL     1      -2.012   5.720   9.651  1.00  0.00     0.275 C 
BRANCH  27  28
ATOM     28  O   UNL     1      -3.138   5.989   8.810  1.00  0.00    -0.458 OA
BRANCH  28  29
ATOM     29  C   UNL     1      -2.962   6.888   7.817  1.00  0.00     0.338 C 
ATOM     30  O   UNL     1      -2.014   7.594   7.565  1.00  0.00    -0.246 OA
BRANCH  29  31
ATOM     31  C   UNL     1      -4.193   6.816   7.034  1.00  0.00     0.060 A 
ATOM     32  C   UNL     1      -4.350   5.784   6.105  1.00  0.00     0.016 A 
ATOM     33  C   UNL     1      -5.216   7.718   7.315  1.00  0.00     0.016 A 
ATOM     34  C   UNL     1      -5.563   5.636   5.454  1.00  0.00     0.010 A 
ATOM     35  C   UNL     1      -6.438   7.555   6.679  1.00  0.00     0.010 A 
ATOM     36  C   UNL     1      -6.609   6.518   5.746  1.00  0.00    -0.014 A 
BRANCH  36  37
ATOM     37  C   UNL     1      -7.878   6.405   5.011  1.00  0.00     0.031 A 
ATOM     38  C   UNL     1      -8.172   7.409   3.944  1.00  0.00     0.074 A 
ATOM     39  C   UNL     1      -8.729   5.410   5.314  1.00  0.00     0.049 A 
ATOM     40  N   UNL     1      -9.241   7.546   3.208  1.00  0.00    -0.248 NA
ATOM     41  C   UNL     1      -7.120   8.406   3.676  1.00  0.00     0.031 C 
ATOM     42  C   UNL     1      -8.491   4.381   6.327  1.00  0.00     0.029 A 
ATOM     43  N   UNL     1      -9.957   5.099   4.799  1.00  0.00    -0.354 N 
ATOM     44  C   UNL     1      -8.999   8.652   2.406  1.00  0.00     0.074 A 
ATOM     45  C   UNL     1      -7.700   9.172   2.765  1.00  0.00     0.031 C 
ATOM     46  C   UNL     1      -9.536   3.539   6.348  1.00  0.00     0.029 A 
ATOM     47  C   UNL     1     -10.529   3.994   5.380  1.00  0.00     0.049 A 
ATOM     48  H   UNL     1     -10.389   5.616   4.082  1.00  0.00     0.167 HD
ATOM     49  C   UNL     1      -9.798   9.170   1.447  1.00  0.00     0.037 A 
ATOM     50  C   UNL     1     -11.727   3.427   5.150  1.00  0.00     0.037 A 
ATOM     51  C   UNL     1     -11.083   8.618   1.113  1.00  0.00     0.049 A 
ATOM     52  C   UNL     1     -12.608   4.037   4.094  1.00  0.00     0.074 A 
ATOM     53  C   UNL     1     -11.988   9.047   0.161  1.00  0.00     0.029 A 
ATOM     54  N   UNL     1     -11.643   7.505   1.730  1.00  0.00    -0.354 N 
ATOM     55  N   UNL     1     -12.380   5.083   3.335  1.00  0.00    -0.248 NA
ATOM     56  C   UNL     1     -13.905   3.393   3.858  1.00  0.00     0.031 C 
ATOM     57  C   UNL     1     -13.115   8.224   0.235  1.00  0.00     0.029 A 
ATOM     58  C   UNL     1     -12.890   7.242   1.190  1.00  0.00     0.049 A 
ATOM     59  H   UNL     1     -11.216   6.981   2.445  1.00  0.00     0.167 HD
ATOM     60  C   UNL     1     -13.492   5.215   2.517  1.00  0.00     0.074 A 
ATOM     61  C   UNL     1     -14.388   4.128   2.865  1.00  0.00     0.031 C 
ATOM     62  C   UNL     1     -13.751   6.147   1.566  1.00  0.00     0.037 A 
BRANCH  49  63
ATOM     63  C   UNL     1      -9.317  10.396   0.727  1.00  0.00     0.064 A 
ATOM     64  C   UNL     1      -9.960  11.628   0.916  1.00  0.00     0.173 A 
ATOM     65  C   UNL     1      -8.229  10.355  -0.159  1.00  0.00     0.173 A 
ATOM     66  F   UNL     1     -11.001  11.726   1.757  1.00  0.00    -0.203 F 
ATOM     67  C   UNL     1      -9.538  12.770   0.240  1.00  0.00     0.198 A 
ATOM     68  C   UNL     1      -7.790  11.506  -0.810  1.00  0.00     0.198 A 
ATOM     69  F   UNL     1      -7.563   9.208  -0.359  1.00  0.00    -0.203 F 
ATOM     70  F   UNL     1     -10.183  13.931   0.422  1.00  0.00    -0.200 F 
ATOM     71  C   UNL     1      -8.450  12.710  -0.617  1.00  0.00     0.200 A 
ATOM     72  F   UNL     1      -6.717  11.452  -1.612  1.00  0.00    -0.200 F 
ATOM     73  F   UNL     1      -8.032  13.814  -1.251  1.00  0.00    -0.200 F 
ENDBRANCH  49  63
BRANCH  50  74
ATOM     74  C   UNL     1     -12.119   2.211   5.909  1.00  0.00     0.064 A 
ATOM     75  C   UNL     1     -12.369   2.259   7.289  1.00  0.00     0.173 A 
ATOM     76  C   UNL     1     -12.178   0.959   5.281  1.00  0.00     0.173 A 
ATOM     77  F   UNL     1     -12.321   3.431   7.939  1.00  0.00    -0.203 F 
ATOM     78  C   UNL     1     -12.633   1.099   8.016  1.00  0.00     0.198 A 
ATOM     79  C   UNL     1     -12.467  -0.197   6.005  1.00  0.00     0.198 A 
ATOM     80  F   UNL     1     -11.964   0.862   3.961  1.00  0.00    -0.203 F 
ATOM     81  F   UNL     1     -12.822   1.169   9.341  1.00  0.00    -0.200 F 
ATOM     82  C   UNL     1     -12.682  -0.128   7.373  1.00  0.00     0.200 A 
ATOM     83  F   UNL     1     -12.533  -1.379   5.376  1.00  0.00    -0.200 F 
ATOM     84  F   UNL     1     -12.934  -1.243   8.072  1.00  0.00    -0.200 F 
ENDBRANCH  50  74
BRANCH  62  85
ATOM     85  C   UNL     1     -15.046   6.019   0.819  1.00  0.00     0.064 A 
ATOM     86  C   UNL     1     -15.045   5.663  -0.539  1.00  0.00     0.173 A 
ATOM     87  C   UNL     1     -16.273   6.325   1.421  1.00  0.00     0.173 A 
ATOM     88  F   UNL     1     -13.893   5.373  -1.162  1.00  0.00    -0.203 F 
ATOM     89  C   UNL     1     -16.228   5.633  -1.269  1.00  0.00     0.198 A 
ATOM     90  C   UNL     1     -17.459   6.261   0.695  1.00  0.00     0.198 A 
ATOM     91  F   UNL     1     -16.324   6.660   2.719  1.00  0.00    -0.203 F 
ATOM     92  F   UNL     1     -16.199   5.328  -2.574  1.00  0.00    -0.200 F 
ATOM     93  C   UNL     1     -17.433   5.926  -0.651  1.00  0.00     0.200 A 
ATOM     94  F   UNL     1     -18.626   6.520   1.300  1.00  0.00    -0.200 F 
ATOM     95  F   UNL     1     -18.574   5.883  -1.353  1.00  0.00    -0.200 F 
ENDBRANCH  62  85
ENDBRANCH  36  37
ENDBRANCH  29  31
ENDBRANCH  28  29
ENDBRANCH  27  28
ENDBRANCH   1  27
TORSDOF 16
