REMARK SMILES C[C@@H](Cc1ccco1)C(=O)OCCOC(=O)c1ccc(-c2c3nc(c(-c4c(F)c(F)c(F)c(F)c4F)c4ccc([nH]4)c(-c4c(F)c(F)c(F)c(F)c4F)c4nc(c(-c5c(F)c(F)c(F)c(F)c5F)c5ccc2[nH]5)C=C4)C=C3)cc1
REMARK SMILES IDX 12 1 11 2 9 3 10 4 2 5 1 6 3 7 4 8 5 9 8 10 6 11 7 12 13 13
REMARK SMILES IDX 14 14 15 15 16 16 17 17 18 18 79 19 19 20 78 21 20 22 21 23
REMARK SMILES IDX 22 24 72 25 23 26 77 27 71 28 73 29 24 30 76 31 70 32 69 33
REMARK SMILES IDX 25 35 57 36 37 37 56 38 38 39 41 40 55 41 74 42 39 43 40 44
REMARK SMILES IDX 54 46 75 47 42 48 26 49 27 50 35 51 28 52 29 53 33 54 36 55
REMARK SMILES IDX 30 56 31 57 34 58 32 59 58 60 59 61 67 62 60 63 61 64 65 65
REMARK SMILES IDX 68 66 62 67 63 68 66 69 64 70 43 71 44 72 52 73 45 74 46 75
REMARK SMILES IDX 50 76 53 77 47 78 48 79 51 80 49 81
REMARK H PARENT 73 34 41 45
REMARK Flexibility Score: inf
ROOT
ATOM      1  C   UNL     1      -3.078   0.440   1.098  1.00  0.00     0.274 C 
ENDROOT
BRANCH   1   2
ATOM      2  O   UNL     1      -1.659   0.597   0.899  1.00  0.00    -0.462 OA
BRANCH   2   3
ATOM      3  C   UNL     1      -0.844   0.055   1.838  1.00  0.00     0.309 C 
ATOM      4  O   UNL     1      -1.227  -0.558   2.828  1.00  0.00    -0.252 OA
BRANCH   3   5
ATOM      5  C   UNL     1       0.628   0.305   1.563  1.00  0.00     0.103 C 
ATOM      6  C   UNL     1       1.029   0.304   0.090  1.00  0.00     0.020 C 
BRANCH   5   7
ATOM      7  C   UNL     1       1.138   1.506   2.357  1.00  0.00     0.090 C 
BRANCH   7   8
ATOM      8  C   UNL     1       0.663   2.857   1.950  1.00  0.00     0.104 A 
ATOM      9  C   UNL     1      -0.136   3.383   0.955  1.00  0.00     0.045 A 
ATOM     10  O   UNL     1       1.123   3.873   2.741  1.00  0.00    -0.469 OA
ATOM     11  C   UNL     1      -0.163   4.785   1.149  1.00  0.00     0.042 A 
ATOM     12  C   UNL     1       0.619   5.032   2.250  1.00  0.00     0.195 A 
ENDBRANCH   7   8
ENDBRANCH   5   7
ENDBRANCH   3   5
ENDBRANCH   2   3
ENDBRANCH   1   2
BRANCH   1  13
ATOM     13  C   UNL     1      -3.669  -0.539   0.082  1.00  0.00     0.275 C 
BRANCH  13  14
ATOM     14  O   UNL     1      -3.189  -1.875   0.319  1.00  0.00    -0.458 OA
BRANCH  14  15
ATOM     15  C   UNL     1      -2.083  -2.215  -0.382  1.00  0.00     0.338 C 
ATOM     16  O   UNL     1      -1.513  -1.564  -1.239  1.00  0.00    -0.246 OA
BRANCH  15  17
ATOM     17  C   UNL     1      -1.545  -3.473   0.156  1.00  0.00     0.060 A 
ATOM     18  C   UNL     1      -0.277  -3.443   0.742  1.00  0.00     0.016 A 
ATOM     19  C   UNL     1      -2.247  -4.673   0.039  1.00  0.00     0.016 A 
ATOM     20  C   UNL     1       0.303  -4.615   1.211  1.00  0.00     0.010 A 
ATOM     21  C   UNL     1      -1.665  -5.852   0.512  1.00  0.00     0.010 A 
ATOM     22  C   UNL     1      -0.384  -5.829   1.092  1.00  0.00    -0.014 A 
BRANCH  22  23
ATOM     23  C   UNL     1       0.269  -7.078   1.540  1.00  0.00     0.031 A 
ATOM     24  C   UNL     1       0.862  -8.011   0.528  1.00  0.00     0.074 A 
ATOM     25  C   UNL     1       0.358  -7.347   2.854  1.00  0.00     0.049 A 
ATOM     26  N   UNL     1       1.425  -9.179   0.707  1.00  0.00    -0.248 NA
ATOM     27  C   UNL     1       0.819  -7.572  -0.876  1.00  0.00     0.031 C 
ATOM     28  C   UNL     1      -0.140  -6.486   3.927  1.00  0.00     0.029 A 
ATOM     29  N   UNL     1       0.899  -8.423   3.510  1.00  0.00    -0.354 N 
ATOM     30  C   UNL     1       1.793  -9.618  -0.556  1.00  0.00     0.074 A 
ATOM     31  C   UNL     1       1.375  -8.601  -1.498  1.00  0.00     0.031 C 
ATOM     32  C   UNL     1       0.116  -7.069   5.109  1.00  0.00     0.029 A 
ATOM     33  C   UNL     1       0.758  -8.359   4.874  1.00  0.00     0.049 A 
ATOM     34  H   UNL     1       1.346  -9.168   3.048  1.00  0.00     0.167 HD
ATOM     35  C   UNL     1       2.426 -10.766  -0.895  1.00  0.00     0.037 A 
ATOM     36  C   UNL     1       1.088  -9.256   5.822  1.00  0.00     0.037 A 
ATOM     37  C   UNL     1       2.844 -11.770   0.049  1.00  0.00     0.049 A 
ATOM     38  C   UNL     1       1.738 -10.550   5.411  1.00  0.00     0.074 A 
ATOM     39  C   UNL     1       3.487 -12.971  -0.194  1.00  0.00     0.029 A 
ATOM     40  N   UNL     1       2.658 -11.686   1.421  1.00  0.00    -0.354 N 
ATOM     41  N   UNL     1       2.072 -10.963   4.213  1.00  0.00    -0.248 NA
ATOM     42  C   UNL     1       2.052 -11.502   6.484  1.00  0.00     0.031 C 
ATOM     43  C   UNL     1       3.660 -13.630   1.028  1.00  0.00     0.029 A 
ATOM     44  C   UNL     1       3.161 -12.821   2.037  1.00  0.00     0.049 A 
ATOM     45  H   UNL     1       2.232 -10.932   1.888  1.00  0.00     0.167 HD
ATOM     46  C   UNL     1       2.650 -12.213   4.388  1.00  0.00     0.074 A 
ATOM     47  C   UNL     1       2.639 -12.482   5.811  1.00  0.00     0.031 C 
ATOM     48  C   UNL     1       3.141 -13.066   3.455  1.00  0.00     0.037 A 
BRANCH  35  49
ATOM     49  C   UNL     1       2.685 -11.010  -2.351  1.00  0.00     0.064 A 
ATOM     50  C   UNL     1       3.688 -10.318  -3.045  1.00  0.00     0.173 A 
ATOM     51  C   UNL     1       1.948 -11.977  -3.050  1.00  0.00     0.173 A 
ATOM     52  F   UNL     1       4.409  -9.372  -2.424  1.00  0.00    -0.203 F 
ATOM     53  C   UNL     1       3.933 -10.574  -4.391  1.00  0.00     0.198 A 
ATOM     54  C   UNL     1       2.211 -12.247  -4.390  1.00  0.00     0.198 A 
ATOM     55  F   UNL     1       0.979 -12.667  -2.430  1.00  0.00    -0.203 F 
ATOM     56  F   UNL     1       4.872  -9.877  -5.045  1.00  0.00    -0.200 F 
ATOM     57  C   UNL     1       3.199 -11.543  -5.061  1.00  0.00     0.200 A 
ATOM     58  F   UNL     1       1.506 -13.189  -5.033  1.00  0.00    -0.200 F 
ATOM     59  F   UNL     1       3.442 -11.794  -6.355  1.00  0.00    -0.200 F 
ENDBRANCH  35  49
BRANCH  36  60
ATOM     60  C   UNL     1       0.786  -8.976   7.249  1.00  0.00     0.064 A 
ATOM     61  C   UNL     1       1.813  -8.748   8.174  1.00  0.00     0.173 A 
ATOM     62  C   UNL     1      -0.535  -8.950   7.719  1.00  0.00     0.173 A 
ATOM     63  F   UNL     1       3.093  -8.789   7.777  1.00  0.00    -0.203 F 
ATOM     64  C   UNL     1       1.531  -8.523   9.520  1.00  0.00     0.198 A 
ATOM     65  C   UNL     1      -0.818  -8.698   9.059  1.00  0.00     0.198 A 
ATOM     66  F   UNL     1      -1.554  -9.166   6.874  1.00  0.00    -0.203 F 
ATOM     67  F   UNL     1       2.533  -8.356  10.393  1.00  0.00    -0.200 F 
ATOM     68  C   UNL     1       0.216  -8.493   9.961  1.00  0.00     0.200 A 
ATOM     69  F   UNL     1      -2.090  -8.661   9.479  1.00  0.00    -0.200 F 
ATOM     70  F   UNL     1      -0.054  -8.278  11.255  1.00  0.00    -0.200 F 
ENDBRANCH  36  60
BRANCH  48  71
ATOM     71  C   UNL     1       3.724 -14.354   3.952  1.00  0.00     0.064 A 
ATOM     72  C   UNL     1       2.909 -15.393   4.425  1.00  0.00     0.173 A 
ATOM     73  C   UNL     1       5.112 -14.561   3.932  1.00  0.00     0.173 A 
ATOM     74  F   UNL     1       1.578 -15.235   4.479  1.00  0.00    -0.203 F 
ATOM     75  C   UNL     1       3.465 -16.583   4.885  1.00  0.00     0.198 A 
ATOM     76  C   UNL     1       5.662 -15.762   4.369  1.00  0.00     0.198 A 
ATOM     77  F   UNL     1       5.933 -13.599   3.484  1.00  0.00    -0.203 F 
ATOM     78  F   UNL     1       2.671 -17.545   5.377  1.00  0.00    -0.200 F 
ATOM     79  C   UNL     1       4.839 -16.769   4.852  1.00  0.00     0.200 A 
ATOM     80  F   UNL     1       6.989 -15.944   4.327  1.00  0.00    -0.200 F 
ATOM     81  F   UNL     1       5.372 -17.916   5.294  1.00  0.00    -0.200 F 
ENDBRANCH  48  71
ENDBRANCH  22  23
ENDBRANCH  15  17
ENDBRANCH  14  15
ENDBRANCH  13  14
ENDBRANCH   1  13
TORSDOF 13
