REMARK SMILES O=C(N[C@@H](Cc1ccccc1)C(=O)N[C@@H](CS)C(=O)N[C@@H](CO)C(=O)OCCOC(=O)c1ccc(-c2c3nc(c(-c4c(F)c(F)c(F)c(F)c4F)c4ccc([nH]4)c(-c4c(F)c(F)c(F)c(F)c4F)c4nc(c(-c5c(F)c(F)c(F)c(F)c5F)c5ccc2[nH]5)C=C4)C=C3)cc1)c1ccc(F)cc1
REMARK SMILES IDX 24 1 25 2 21 3 20 4 18 5 19 6 15 8 14 9 12 10 13 11 4 13
REMARK SMILES IDX 3 14 1 15 2 16 95 18 96 19 101 20 97 21 100 22 98 23 99 24
REMARK SMILES IDX 5 25 6 26 7 27 11 28 8 29 10 30 9 31 16 32 17 33 22 35 23 36
REMARK SMILES IDX 26 38 27 39 28 40 29 41 30 42 31 43 32 44 33 45 94 46 34 47
REMARK SMILES IDX 93 48 35 49 36 50 37 51 87 52 38 53 92 54 86 55 88 56 39 57
REMARK SMILES IDX 91 58 85 59 84 60 40 62 72 63 52 64 71 65 53 66 56 67 70 68
REMARK SMILES IDX 89 69 54 70 55 71 69 73 90 74 57 75 41 76 42 77 50 78 43 79
REMARK SMILES IDX 44 80 48 81 51 82 45 83 46 84 49 85 47 86 73 87 74 88 82 89
REMARK SMILES IDX 75 90 76 91 80 92 83 93 77 94 78 95 81 96 79 97 58 98 59 99
REMARK SMILES IDX 67 100 60 101 61 102 65 103 68 104 62 105 63 106 66 107
REMARK SMILES IDX 64 108
REMARK H PARENT 20 7 14 12 3 17 17 34 23 37 88 61 56 72
REMARK Flexibility Score: inf
ROOT
ATOM      1  C   UNL     1       4.752   7.776  -3.631  1.00  0.00     0.331 C 
ATOM      2  O   UNL     1       4.563   8.778  -2.951  1.00  0.00    -0.250 OA
ENDROOT
BRANCH   1   3
ATOM      3  C   UNL     1       5.608   6.600  -3.151  1.00  0.00     0.218 C 
BRANCH   3   4
ATOM      4  N   UNL     1       5.511   5.391  -3.989  1.00  0.00    -0.339 N 
ATOM      5  C   UNL     1       5.830   4.155  -3.506  1.00  0.00     0.244 C 
ATOM      6  O   UNL     1       6.918   3.675  -3.832  1.00  0.00    -0.273 OA
ATOM      7  H   UNL     1       5.208   5.477  -4.922  1.00  0.00     0.164 HD
BRANCH   5   8
ATOM      8  C   UNL     1       4.813   3.365  -2.633  1.00  0.00     0.181 C 
BRANCH   8   9
ATOM      9  N   UNL     1       5.514   2.788  -1.486  1.00  0.00    -0.342 N 
ATOM     10  C   UNL     1       5.603   1.534  -0.985  1.00  0.00     0.243 C 
ATOM     11  O   UNL     1       6.362   1.405  -0.015  1.00  0.00    -0.273 OA
ATOM     12  H   UNL     1       6.029   3.451  -0.971  1.00  0.00     0.164 HD
BRANCH  10  13
ATOM     13  C   UNL     1       4.785   0.318  -1.479  1.00  0.00     0.176 C 
BRANCH  13  14
ATOM     14  N   UNL     1       3.353   0.494  -1.224  1.00  0.00    -0.340 N 
ATOM     15  O   UNL     1       1.367   0.131  -0.233  1.00  0.00    -0.269 OA
ATOM     16  C   UNL     1       2.579  -0.053  -0.228  1.00  0.00     0.251 C 
ATOM     17  H   UNL     1       2.880   1.087  -1.852  1.00  0.00     0.164 HD
BRANCH  16  18
ATOM     18  C   UNL     1       3.196  -0.915   0.806  1.00  0.00     0.040 A 
ATOM     19  C   UNL     1       4.185  -0.416   1.663  1.00  0.00     0.017 A 
ATOM     20  C   UNL     1       2.790  -2.252   0.900  1.00  0.00     0.017 A 
ATOM     21  C   UNL     1       4.826  -1.277   2.556  1.00  0.00     0.040 A 
ATOM     22  C   UNL     1       3.427  -3.106   1.803  1.00  0.00     0.040 A 
ATOM     23  C   UNL     1       4.450  -2.615   2.609  1.00  0.00     0.123 A 
ATOM     24  F   UNL     1       5.085  -3.445   3.448  1.00  0.00    -0.207 F 
ENDBRANCH  16  18
ENDBRANCH  13  14
BRANCH  13  25
ATOM     25  C   UNL     1       5.151  -0.288  -2.853  1.00  0.00     0.070 C 
BRANCH  25  26
ATOM     26  C   UNL     1       4.510   0.270  -4.101  1.00  0.00    -0.045 A 
ATOM     27  C   UNL     1       5.282   0.990  -5.026  1.00  0.00     0.004 A 
ATOM     28  C   UNL     1       3.143   0.091  -4.361  1.00  0.00     0.004 A 
ATOM     29  C   UNL     1       4.682   1.604  -6.127  1.00  0.00     0.000 A 
ATOM     30  C   UNL     1       2.548   0.694  -5.471  1.00  0.00     0.000 A 
ATOM     31  C   UNL     1       3.313   1.467  -6.342  1.00  0.00     0.000 A 
ENDBRANCH  25  26
ENDBRANCH  13  25
ENDBRANCH  10  13
ENDBRANCH   8   9
BRANCH   8  32
ATOM     32  C   UNL     1       3.485   4.041  -2.290  1.00  0.00     0.101 C 
BRANCH  32  33
ATOM     33  S   UNL     1       3.528   4.953  -0.712  1.00  0.00    -0.177 SA
ATOM     34  H   UNL     1       3.783   4.087   0.305  1.00  0.00     0.102 HD
ENDBRANCH  32  33
ENDBRANCH   8  32
ENDBRANCH   5   8
ENDBRANCH   3   4
BRANCH   3  35
ATOM     35  C   UNL     1       7.069   7.079  -3.074  1.00  0.00     0.193 C 
BRANCH  35  36
ATOM     36  O   UNL     1       7.664   7.077  -4.375  1.00  0.00    -0.394 OA
ATOM     37  H   UNL     1       7.651   6.176  -4.735  1.00  0.00     0.210 HD
ENDBRANCH  35  36
ENDBRANCH   3  35
ENDBRANCH   1   3
BRANCH   1  38
ATOM     38  O   UNL     1       4.298   7.595  -4.902  1.00  0.00    -0.460 OA
BRANCH  38  39
ATOM     39  C   UNL     1       3.573   8.696  -5.486  1.00  0.00     0.274 C 
BRANCH  39  40
ATOM     40  C   UNL     1       2.203   8.211  -5.945  1.00  0.00     0.275 C 
BRANCH  40  41
ATOM     41  O   UNL     1       1.450   7.788  -4.793  1.00  0.00    -0.458 OA
BRANCH  41  42
ATOM     42  C   UNL     1       0.634   6.725  -4.990  1.00  0.00     0.338 C 
ATOM     43  O   UNL     1       0.433   6.149  -6.046  1.00  0.00    -0.246 OA
BRANCH  42  44
ATOM     44  C   UNL     1       0.032   6.278  -3.708  1.00  0.00     0.060 A 
ATOM     45  C   UNL     1       0.679   6.481  -2.495  1.00  0.00     0.016 A 
ATOM     46  C   UNL     1      -1.135   5.510  -3.733  1.00  0.00     0.016 A 
ATOM     47  C   UNL     1       0.244   5.792  -1.355  1.00  0.00     0.010 A 
ATOM     48  C   UNL     1      -1.614   4.902  -2.560  1.00  0.00     0.010 A 
ATOM     49  C   UNL     1      -0.885   4.956  -1.359  1.00  0.00    -0.014 A 
BRANCH  49  50
ATOM     50  C   UNL     1      -1.229   4.058  -0.190  1.00  0.00     0.031 A 
ATOM     51  C   UNL     1      -1.637   2.612  -0.433  1.00  0.00     0.074 A 
ATOM     52  C   UNL     1      -1.137   4.445   1.103  1.00  0.00     0.049 A 
ATOM     53  N   UNL     1      -2.303   1.790   0.344  1.00  0.00    -0.248 NA
ATOM     54  C   UNL     1      -1.278   2.028  -1.735  1.00  0.00     0.031 C 
ATOM     55  C   UNL     1      -0.694   5.751   1.587  1.00  0.00     0.029 A 
ATOM     56  N   UNL     1      -1.402   3.747   2.266  1.00  0.00    -0.354 N 
ATOM     57  C   UNL     1      -2.536   0.647  -0.416  1.00  0.00     0.074 A 
ATOM     58  C   UNL     1      -1.923   0.870  -1.707  1.00  0.00     0.031 C 
ATOM     59  C   UNL     1      -0.629   5.733   2.926  1.00  0.00     0.029 A 
ATOM     60  C   UNL     1      -1.187   4.477   3.412  1.00  0.00     0.049 A 
ATOM     61  H   UNL     1      -1.715   2.814   2.273  1.00  0.00     0.167 HD
ATOM     62  C   UNL     1      -3.210  -0.478  -0.073  1.00  0.00     0.037 A 
ATOM     63  C   UNL     1      -1.476   4.223   4.704  1.00  0.00     0.037 A 
ATOM     64  C   UNL     1      -3.666  -0.788   1.259  1.00  0.00     0.049 A 
ATOM     65  C   UNL     1      -2.200   2.958   5.077  1.00  0.00     0.074 A 
ATOM     66  C   UNL     1      -4.345  -1.913   1.701  1.00  0.00     0.029 A 
ATOM     67  N   UNL     1      -3.430  -0.004   2.375  1.00  0.00    -0.354 N 
ATOM     68  N   UNL     1      -2.592   1.971   4.313  1.00  0.00    -0.248 NA
ATOM     69  C   UNL     1      -2.559   2.795   6.495  1.00  0.00     0.031 C 
ATOM     70  C   UNL     1      -4.541  -1.798   3.082  1.00  0.00     0.029 A 
ATOM     71  C   UNL     1      -3.947  -0.622   3.504  1.00  0.00     0.049 A 
ATOM     72  H   UNL     1      -2.965   0.864   2.369  1.00  0.00     0.167 HD
ATOM     73  C   UNL     1      -3.234   1.071   5.152  1.00  0.00     0.074 A 
ATOM     74  C   UNL     1      -3.156   1.613   6.491  1.00  0.00     0.031 C 
ATOM     75  C   UNL     1      -3.849  -0.094   4.837  1.00  0.00     0.037 A 
BRANCH  62  76
ATOM     76  C   UNL     1      -3.557  -1.463  -1.153  1.00  0.00     0.064 A 
ATOM     77  C   UNL     1      -2.623  -2.345  -1.709  1.00  0.00     0.173 A 
ATOM     78  C   UNL     1      -4.899  -1.592  -1.554  1.00  0.00     0.173 A 
ATOM     79  F   UNL     1      -1.328  -2.265  -1.370  1.00  0.00    -0.203 F 
ATOM     80  C   UNL     1      -3.017  -3.315  -2.630  1.00  0.00     0.198 A 
ATOM     81  C   UNL     1      -5.294  -2.581  -2.449  1.00  0.00     0.198 A 
ATOM     82  F   UNL     1      -5.838  -0.780  -1.042  1.00  0.00    -0.203 F 
ATOM     83  F   UNL     1      -2.104  -4.135  -3.168  1.00  0.00    -0.200 F 
ATOM     84  C   UNL     1      -4.352  -3.441  -2.988  1.00  0.00     0.200 A 
ATOM     85  F   UNL     1      -6.588  -2.713  -2.774  1.00  0.00    -0.200 F 
ATOM     86  F   UNL     1      -4.731  -4.395  -3.850  1.00  0.00    -0.200 F 
ENDBRANCH  62  76
BRANCH  63  87
ATOM     87  C   UNL     1      -1.183   5.247   5.746  1.00  0.00     0.064 A 
ATOM     88  C   UNL     1      -0.255   5.004   6.768  1.00  0.00     0.173 A 
ATOM     89  C   UNL     1      -1.849   6.483   5.752  1.00  0.00     0.173 A 
ATOM     90  F   UNL     1       0.378   3.823   6.833  1.00  0.00    -0.203 F 
ATOM     91  C   UNL     1      -0.012   5.954   7.760  1.00  0.00     0.198 A 
ATOM     92  C   UNL     1      -1.572   7.447   6.717  1.00  0.00     0.198 A 
ATOM     93  F   UNL     1      -2.757   6.762   4.806  1.00  0.00    -0.203 F 
ATOM     94  F   UNL     1       0.836   5.674   8.759  1.00  0.00    -0.200 F 
ATOM     95  C   UNL     1      -0.662   7.179   7.726  1.00  0.00     0.200 A 
ATOM     96  F   UNL     1      -2.190   8.635   6.667  1.00  0.00    -0.200 F 
ATOM     97  F   UNL     1      -0.419   8.096   8.672  1.00  0.00    -0.200 F 
ENDBRANCH  63  87
BRANCH  75  98
ATOM     98  C   UNL     1      -4.432  -0.889   5.966  1.00  0.00     0.064 A 
ATOM     99  C   UNL     1      -5.597  -0.480   6.631  1.00  0.00     0.173 A 
ATOM    100  C   UNL     1      -3.811  -2.072   6.394  1.00  0.00     0.173 A 
ATOM    101  F   UNL     1      -6.219   0.653   6.270  1.00  0.00    -0.203 F 
ATOM    102  C   UNL     1      -6.098  -1.207   7.709  1.00  0.00     0.198 A 
ATOM    103  C   UNL     1      -4.330  -2.811   7.454  1.00  0.00     0.198 A 
ATOM    104  F   UNL     1      -2.699  -2.510   5.786  1.00  0.00    -0.203 F 
ATOM    105  F   UNL     1      -7.178  -0.766   8.368  1.00  0.00    -0.200 F 
ATOM    106  C   UNL     1      -5.465  -2.372   8.117  1.00  0.00     0.200 A 
ATOM    107  F   UNL     1      -3.723  -3.941   7.842  1.00  0.00    -0.200 F 
ATOM    108  F   UNL     1      -5.943  -3.064   9.161  1.00  0.00    -0.200 F 
ENDBRANCH  75  98
ENDBRANCH  49  50
ENDBRANCH  42  44
ENDBRANCH  41  42
ENDBRANCH  40  41
ENDBRANCH  39  40
ENDBRANCH  38  39
ENDBRANCH   1  38
TORSDOF 23
