REMARK SMILES Cc1cc(C(=O)N[C@@H]2CC2(C)C)sc1/C=C/C(=O)OCCOC(=O)c1ccc(-c2c3nc(c(-c4c(F)c(F)c(F)c(F)c4F)c4ccc([nH]4)c(-c4c(F)c(F)c(F)c(F)c4F)c4nc(c(-c5c(F)c(F)c(F)c(F)c5F)c5ccc2[nH]5)C=C4)C=C3)cc1
REMARK SMILES IDX 20 1 19 2 17 3 18 4 16 5 15 6 14 7 1 8 2 9 3 10 4 11 13 12
REMARK SMILES IDX 5 13 6 14 7 15 8 17 9 18 10 19 11 20 12 21 21 22 22 23 23 24
REMARK SMILES IDX 24 25 25 26 26 27 87 28 27 29 86 30 28 31 29 32 30 33 80 34
REMARK SMILES IDX 31 35 85 36 79 37 81 38 32 39 84 40 78 41 77 42 33 44 65 45
REMARK SMILES IDX 45 46 64 47 46 48 49 49 63 50 82 51 47 52 48 53 62 55 83 56
REMARK SMILES IDX 50 57 34 58 35 59 43 60 36 61 37 62 41 63 44 64 38 65 39 66
REMARK SMILES IDX 42 67 40 68 66 69 67 70 75 71 68 72 69 73 73 74 76 75 70 76
REMARK SMILES IDX 71 77 74 78 72 79 51 80 52 81 60 82 53 83 54 84 58 85 61 86
REMARK SMILES IDX 55 87 56 88 59 89 57 90
REMARK H PARENT 7 16 81 43 49 54
REMARK Flexibility Score: inf
ROOT
ATOM      1  C   UNL     1     -12.454  -1.873   0.288  1.00  0.00     0.275 C 
ENDROOT
BRANCH   1   2
ATOM      2  O   UNL     1     -11.067  -2.256   0.274  1.00  0.00    -0.459 OA
BRANCH   2   3
ATOM      3  C   UNL     1     -10.246  -1.439  -0.422  1.00  0.00     0.330 C 
ATOM      4  O   UNL     1     -10.583  -0.478  -1.100  1.00  0.00    -0.247 OA
BRANCH   3   5
ATOM      5  C   UNL     1      -8.825  -1.772  -0.240  1.00  0.00     0.095 C 
ATOM      6  C   UNL     1      -8.319  -2.753   0.525  1.00  0.00     0.027 C 
BRANCH   6   7
ATOM      7  C   UNL     1      -6.904  -2.894   0.583  1.00  0.00     0.031 A 
ATOM      8  C   UNL     1      -6.518  -5.298  -0.242  1.00  0.00     0.046 C 
ATOM      9  C   UNL     1      -6.081  -3.934   0.178  1.00  0.00    -0.032 A 
ATOM     10  C   UNL     1      -4.718  -3.481   0.106  1.00  0.00     0.029 A 
ATOM     11  C   UNL     1      -4.551  -2.155   0.488  1.00  0.00     0.093 A 
ATOM     12  S   UNL     1      -5.947  -1.659   1.313  1.00  0.00    -0.130 S 
BRANCH  11  13
ATOM     13  C   UNL     1      -3.317  -1.403   0.381  1.00  0.00     0.261 C 
ATOM     14  O   UNL     1      -2.231  -2.002   0.380  1.00  0.00    -0.268 OA
ATOM     15  N   UNL     1      -3.182  -0.044   0.184  1.00  0.00    -0.348 N 
ATOM     16  H   UNL     1      -2.224   0.166   0.102  1.00  0.00     0.164 HD
BRANCH  15  17
ATOM     17  C   UNL     1      -3.925   1.169   0.054  1.00  0.00     0.088 C 
ATOM     18  C   UNL     1      -5.290   1.516   0.539  1.00  0.00     0.034 C 
ATOM     19  C   UNL     1      -5.018   1.492  -0.951  1.00  0.00    -0.013 C 
ATOM     20  C   UNL     1      -5.019   2.841  -1.631  1.00  0.00     0.013 C 
ATOM     21  C   UNL     1      -5.609   0.411  -1.812  1.00  0.00     0.013 C 
ENDBRANCH  15  17
ENDBRANCH  11  13
ENDBRANCH   6   7
ENDBRANCH   3   5
ENDBRANCH   2   3
ENDBRANCH   1   2
BRANCH   1  22
ATOM     22  C   UNL     1     -12.803  -1.112   1.571  1.00  0.00     0.275 C 
BRANCH  22  23
ATOM     23  O   UNL     1     -12.251   0.220   1.576  1.00  0.00    -0.458 OA
BRANCH  23  24
ATOM     24  C   UNL     1     -11.017   0.337   2.119  1.00  0.00     0.338 C 
ATOM     25  O   UNL     1     -10.343  -0.551   2.621  1.00  0.00    -0.246 OA
BRANCH  24  26
ATOM     26  C   UNL     1     -10.515   1.707   1.929  1.00  0.00     0.060 A 
ATOM     27  C   UNL     1      -9.286   1.880   1.286  1.00  0.00     0.016 A 
ATOM     28  C   UNL     1     -11.210   2.807   2.438  1.00  0.00     0.016 A 
ATOM     29  C   UNL     1      -8.742   3.157   1.156  1.00  0.00     0.010 A 
ATOM     30  C   UNL     1     -10.661   4.087   2.309  1.00  0.00     0.010 A 
ATOM     31  C   UNL     1      -9.417   4.268   1.680  1.00  0.00    -0.014 A 
BRANCH  31  32
ATOM     32  C   UNL     1      -8.798   5.614   1.601  1.00  0.00     0.031 A 
ATOM     33  C   UNL     1      -8.178   6.230   2.822  1.00  0.00     0.074 A 
ATOM     34  C   UNL     1      -8.782   6.277   0.430  1.00  0.00     0.049 A 
ATOM     35  N   UNL     1      -7.621   7.406   2.967  1.00  0.00    -0.248 NA
ATOM     36  C   UNL     1      -8.185   5.413   4.045  1.00  0.00     0.031 C 
ATOM     37  C   UNL     1      -9.332   5.775  -0.828  1.00  0.00     0.029 A 
ATOM     38  N   UNL     1      -8.291   7.518   0.112  1.00  0.00    -0.354 N 
ATOM     39  C   UNL     1      -7.219   7.474   4.294  1.00  0.00     0.074 A 
ATOM     40  C   UNL     1      -7.619   6.232   4.920  1.00  0.00     0.031 C 
ATOM     41  C   UNL     1      -9.152   6.702  -1.783  1.00  0.00     0.029 A 
ATOM     42  C   UNL     1      -8.505   7.874  -1.196  1.00  0.00     0.049 A 
ATOM     43  H   UNL     1      -7.829   8.098   0.760  1.00  0.00     0.167 HD
ATOM     44  C   UNL     1      -6.567   8.479   4.928  1.00  0.00     0.037 A 
ATOM     45  C   UNL     1      -8.231   9.023  -1.842  1.00  0.00     0.037 A 
ATOM     46  C   UNL     1      -6.167   9.713   4.303  1.00  0.00     0.049 A 
ATOM     47  C   UNL     1      -7.556  10.145  -1.101  1.00  0.00     0.074 A 
ATOM     48  C   UNL     1      -5.483  10.781   4.858  1.00  0.00     0.029 A 
ATOM     49  N   UNL     1      -6.422  10.047   2.981  1.00  0.00    -0.354 N 
ATOM     50  N   UNL     1      -7.155  10.190   0.147  1.00  0.00    -0.248 NA
ATOM     51  C   UNL     1      -7.293  11.377  -1.859  1.00  0.00     0.031 C 
ATOM     52  C   UNL     1      -5.363  11.779   3.884  1.00  0.00     0.029 A 
ATOM     53  C   UNL     1      -5.929  11.314   2.708  1.00  0.00     0.049 A 
ATOM     54  H   UNL     1      -6.885   9.470   2.331  1.00  0.00     0.167 HD
ATOM     55  C   UNL     1      -6.574  11.439   0.317  1.00  0.00     0.074 A 
ATOM     56  C   UNL     1      -6.661  12.118  -0.959  1.00  0.00     0.031 C 
ATOM     57  C   UNL     1      -6.019  11.975   1.431  1.00  0.00     0.037 A 
BRANCH  44  58
ATOM     58  C   UNL     1      -6.261   8.294   6.385  1.00  0.00     0.064 A 
ATOM     59  C   UNL     1      -5.269   7.402   6.821  1.00  0.00     0.173 A 
ATOM     60  C   UNL     1      -6.939   9.046   7.356  1.00  0.00     0.173 A 
ATOM     61  F   UNL     1      -4.599   6.652   5.933  1.00  0.00    -0.203 F 
ATOM     62  C   UNL     1      -4.986   7.252   8.176  1.00  0.00     0.198 A 
ATOM     63  C   UNL     1      -6.635   8.912   8.708  1.00  0.00     0.198 A 
ATOM     64  F   UNL     1      -7.892   9.917   6.992  1.00  0.00    -0.203 F 
ATOM     65  F   UNL     1      -4.064   6.364   8.572  1.00  0.00    -0.200 F 
ATOM     66  C   UNL     1      -5.664   8.011   9.118  1.00  0.00     0.200 A 
ATOM     67  F   UNL     1      -7.283   9.656   9.616  1.00  0.00    -0.200 F 
ATOM     68  F   UNL     1      -5.386   7.870  10.421  1.00  0.00    -0.200 F 
ENDBRANCH  44  58
BRANCH  45  69
ATOM     69  C   UNL     1      -8.603   9.172  -3.272  1.00  0.00     0.064 A 
ATOM     70  C   UNL     1      -7.623   9.229  -4.272  1.00  0.00     0.173 A 
ATOM     71  C   UNL     1      -9.946   9.267  -3.667  1.00  0.00     0.173 A 
ATOM     72  F   UNL     1      -6.325   9.169  -3.941  1.00  0.00    -0.203 F 
ATOM     73  C   UNL     1      -7.972   9.390  -5.612  1.00  0.00     0.198 A 
ATOM     74  C   UNL     1     -10.294   9.400  -5.009  1.00  0.00     0.198 A 
ATOM     75  F   UNL     1     -10.921   9.220  -2.747  1.00  0.00    -0.203 F 
ATOM     76  F   UNL     1      -7.014   9.484  -6.544  1.00  0.00    -0.200 F 
ATOM     77  C   UNL     1      -9.307   9.468  -5.980  1.00  0.00     0.200 A 
ATOM     78  F   UNL     1     -11.585   9.464  -5.361  1.00  0.00    -0.200 F 
ATOM     79  F   UNL     1      -9.641   9.618  -7.268  1.00  0.00    -0.200 F 
ENDBRANCH  45  69
BRANCH  57  80
ATOM     80  C   UNL     1      -5.432  13.352   1.313  1.00  0.00     0.064 A 
ATOM     81  C   UNL     1      -6.244  14.490   1.205  1.00  0.00     0.173 A 
ATOM     82  C   UNL     1      -4.042  13.537   1.347  1.00  0.00     0.173 A 
ATOM     83  F   UNL     1      -7.579  14.365   1.153  1.00  0.00    -0.203 F 
ATOM     84  C   UNL     1      -5.684  15.762   1.111  1.00  0.00     0.198 A 
ATOM     85  C   UNL     1      -3.486  14.812   1.280  1.00  0.00     0.198 A 
ATOM     86  F   UNL     1      -3.221  12.481   1.455  1.00  0.00    -0.203 F 
ATOM     87  F   UNL     1      -6.478  16.832   0.963  1.00  0.00    -0.200 F 
ATOM     88  C   UNL     1      -4.307  15.922   1.155  1.00  0.00     0.200 A 
ATOM     89  F   UNL     1      -2.156  14.966   1.335  1.00  0.00    -0.200 F 
ATOM     90  F   UNL     1      -3.771  17.147   1.071  1.00  0.00    -0.200 F 
ENDBRANCH  57  80
ENDBRANCH  31  32
ENDBRANCH  24  26
ENDBRANCH  23  24
ENDBRANCH  22  23
ENDBRANCH   1  22
TORSDOF 14
