REMARK SMILES Cc1cc(F)cc(N[C@H](C(=O)OCCOC(=O)c2ccc(-c3c4nc(c(-c5c(F)c(F)c(F)c(F)c5F)c5ccc([nH]5)c(-c5c(F)c(F)c(F)c(F)c5F)c5nc(c(-c6c(F)c(F)c(F)c(F)c6F)c6ccc3[nH]6)C=C5)C=C4)cc2)c2cc(Br)cs2)c1
REMARK SMILES IDX 13 1 12 2 10 3 11 4 9 5 8 6 7 8 1 9 2 10 3 11 87 12 4 13
REMARK SMILES IDX 5 14 6 15 81 16 82 17 86 18 83 19 85 20 84 21 14 22 15 23
REMARK SMILES IDX 16 24 17 25 18 26 19 27 80 28 20 29 79 30 21 31 22 32 23 33
REMARK SMILES IDX 73 34 24 35 78 36 72 37 74 38 25 39 77 40 71 41 70 42 26 44
REMARK SMILES IDX 58 45 38 46 57 47 39 48 42 49 56 50 75 51 40 52 41 53 55 55
REMARK SMILES IDX 76 56 43 57 27 58 28 59 36 60 29 61 30 62 34 63 37 64 31 65
REMARK SMILES IDX 32 66 35 67 33 68 59 69 60 70 68 71 61 72 62 73 66 74 69 75
REMARK SMILES IDX 63 76 64 77 67 78 65 79 44 80 45 81 53 82 46 83 47 84 51 85
REMARK SMILES IDX 54 86 48 87 49 88 52 89 50 90
REMARK H PARENT 8 7 74 43 42 54
REMARK Flexibility Score: inf
ROOT
ATOM      1  C   UNL     1       2.935  -3.836  -1.143  1.00  0.00     0.274 C 
ENDROOT
BRANCH   1   2
ATOM      2  O   UNL     1       1.568  -4.273  -1.033  1.00  0.00    -0.460 OA
BRANCH   2   3
ATOM      3  C   UNL     1       1.025  -4.341   0.230  1.00  0.00     0.334 C 
ATOM      4  O   UNL     1       1.649  -4.040   1.243  1.00  0.00    -0.249 OA
BRANCH   3   5
ATOM      5  C   UNL     1      -0.487  -4.744   0.174  1.00  0.00     0.231 C 
BRANCH   5   6
ATOM      6  N   UNL     1      -0.732  -5.649  -0.963  1.00  0.00    -0.368 N 
ATOM      7  H   UNL     1      -1.405  -5.384  -1.632  1.00  0.00     0.161 HD
BRANCH   6   8
ATOM      8  C   UNL     1      -0.069  -6.853  -1.144  1.00  0.00     0.038 A 
ATOM      9  C   UNL     1      -0.052  -9.633  -3.756  1.00  0.00     0.044 C 
ATOM     10  C   UNL     1       0.269  -8.842  -2.527  1.00  0.00    -0.046 A 
ATOM     11  C   UNL     1       1.134  -9.368  -1.564  1.00  0.00     0.042 A 
ATOM     12  C   UNL     1      -0.332  -7.595  -2.301  1.00  0.00     0.029 A 
ATOM     13  C   UNL     1       1.387  -8.648  -0.409  1.00  0.00     0.125 A 
ATOM     14  F   UNL     1       2.212  -9.149   0.520  1.00  0.00    -0.207 F 
ATOM     15  C   UNL     1       0.791  -7.415  -0.192  1.00  0.00     0.065 A 
ENDBRANCH   6   8
ENDBRANCH   5   6
BRANCH   5  16
ATOM     16  C   UNL     1      -0.993  -5.232   1.538  1.00  0.00     0.039 A 
ATOM     17  C   UNL     1      -0.709  -4.753   2.811  1.00  0.00     0.033 A 
ATOM     18  S   UNL     1      -2.128  -6.537   1.646  1.00  0.00    -0.145 S 
ATOM     19  C   UNL     1      -1.219  -5.601   3.826  1.00  0.00     0.029 A 
ATOM     20  C   UNL     1      -1.968  -6.639   3.341  1.00  0.00     0.080 A 
ATOM     21  Br  UNL     1      -0.839  -5.316   5.650  1.00  0.00    -0.050 Br
ENDBRANCH   5  16
ENDBRANCH   3   5
ENDBRANCH   2   3
ENDBRANCH   1   2
BRANCH   1  22
ATOM     22  C   UNL     1       3.028  -2.333  -1.392  1.00  0.00     0.275 C 
BRANCH  22  23
ATOM     23  O   UNL     1       2.564  -1.612  -0.249  1.00  0.00    -0.458 OA
BRANCH  23  24
ATOM     24  C   UNL     1       1.222  -1.465  -0.210  1.00  0.00     0.338 C 
ATOM     25  O   UNL     1       0.409  -1.813  -1.051  1.00  0.00    -0.246 OA
BRANCH  24  26
ATOM     26  C   UNL     1       0.811  -0.743   0.994  1.00  0.00     0.060 A 
ATOM     27  C   UNL     1      -0.553  -0.815   1.317  1.00  0.00     0.016 A 
ATOM     28  C   UNL     1       1.632   0.300   1.416  1.00  0.00     0.016 A 
ATOM     29  C   UNL     1      -1.174   0.320   1.787  1.00  0.00     0.010 A 
ATOM     30  C   UNL     1       1.011   1.434   1.869  1.00  0.00     0.010 A 
ATOM     31  C   UNL     1      -0.390   1.460   1.923  1.00  0.00    -0.014 A 
BRANCH  31  32
ATOM     32  C   UNL     1      -0.974   2.779   1.902  1.00  0.00     0.031 A 
ATOM     33  C   UNL     1      -1.261   3.461   3.160  1.00  0.00     0.074 A 
ATOM     34  C   UNL     1      -1.158   3.376   0.705  1.00  0.00     0.049 A 
ATOM     35  N   UNL     1      -2.127   4.404   3.276  1.00  0.00    -0.248 NA
ATOM     36  C   UNL     1      -0.622   3.086   4.412  1.00  0.00     0.031 C 
ATOM     37  C   UNL     1      -1.428   4.785   0.454  1.00  0.00     0.029 A 
ATOM     38  N   UNL     1      -1.329   2.749  -0.543  1.00  0.00    -0.354 N 
ATOM     39  C   UNL     1      -1.938   4.969   4.511  1.00  0.00     0.074 A 
ATOM     40  C   UNL     1      -1.068   4.054   5.217  1.00  0.00     0.031 C 
ATOM     41  C   UNL     1      -1.992   4.903  -0.758  1.00  0.00     0.029 A 
ATOM     42  C   UNL     1      -2.249   3.556  -1.241  1.00  0.00     0.049 A 
ATOM     43  H   UNL     1      -0.897   1.923  -0.861  1.00  0.00     0.167 HD
ATOM     44  C   UNL     1      -2.401   6.234   4.723  1.00  0.00     0.037 A 
ATOM     45  C   UNL     1      -3.482   3.089  -1.583  1.00  0.00     0.037 A 
ATOM     46  C   UNL     1      -3.112   6.742   3.547  1.00  0.00     0.049 A 
ATOM     47  C   UNL     1      -4.626   3.900  -1.024  1.00  0.00     0.074 A 
ATOM     48  C   UNL     1      -2.748   7.603   2.523  1.00  0.00     0.029 A 
ATOM     49  N   UNL     1      -4.272   6.105   3.114  1.00  0.00    -0.354 N 
ATOM     50  N   UNL     1      -4.550   4.674   0.022  1.00  0.00    -0.248 NA
ATOM     51  C   UNL     1      -5.957   3.883  -1.610  1.00  0.00     0.031 C 
ATOM     52  C   UNL     1      -3.720   7.517   1.494  1.00  0.00     0.029 A 
ATOM     53  C   UNL     1      -4.677   6.599   1.887  1.00  0.00     0.049 A 
ATOM     54  H   UNL     1      -4.741   5.398   3.614  1.00  0.00     0.167 HD
ATOM     55  C   UNL     1      -5.768   5.280   0.248  1.00  0.00     0.074 A 
ATOM     56  C   UNL     1      -6.609   4.740  -0.806  1.00  0.00     0.031 C 
ATOM     57  C   UNL     1      -5.936   6.168   1.283  1.00  0.00     0.037 A 
BRANCH  44  58
ATOM     58  C   UNL     1      -1.891   7.097   5.854  1.00  0.00     0.064 A 
ATOM     59  C   UNL     1      -1.729   8.489   5.693  1.00  0.00     0.173 A 
ATOM     60  C   UNL     1      -1.466   6.596   7.098  1.00  0.00     0.173 A 
ATOM     61  F   UNL     1      -2.213   9.134   4.625  1.00  0.00    -0.203 F 
ATOM     62  C   UNL     1      -1.055   9.278   6.628  1.00  0.00     0.198 A 
ATOM     63  C   UNL     1      -0.739   7.370   8.008  1.00  0.00     0.198 A 
ATOM     64  F   UNL     1      -1.782   5.354   7.488  1.00  0.00    -0.203 F 
ATOM     65  F   UNL     1      -0.913  10.592   6.407  1.00  0.00    -0.200 F 
ATOM     66  C   UNL     1      -0.518   8.709   7.763  1.00  0.00     0.200 A 
ATOM     67  F   UNL     1      -0.251   6.805   9.122  1.00  0.00    -0.200 F 
ATOM     68  F   UNL     1       0.182   9.454   8.630  1.00  0.00    -0.200 F 
ENDBRANCH  44  58
BRANCH  45  69
ATOM     69  C   UNL     1      -3.531   1.634  -1.876  1.00  0.00     0.064 A 
ATOM     70  C   UNL     1      -2.864   1.143  -3.014  1.00  0.00     0.173 A 
ATOM     71  C   UNL     1      -3.944   0.699  -0.919  1.00  0.00     0.173 A 
ATOM     72  F   UNL     1      -2.441   1.997  -3.961  1.00  0.00    -0.203 F 
ATOM     73  C   UNL     1      -2.562  -0.211  -3.157  1.00  0.00     0.198 A 
ATOM     74  C   UNL     1      -3.638  -0.657  -1.063  1.00  0.00     0.198 A 
ATOM     75  F   UNL     1      -4.572   1.102   0.195  1.00  0.00    -0.203 F 
ATOM     76  F   UNL     1      -1.877  -0.635  -4.229  1.00  0.00    -0.200 F 
ATOM     77  C   UNL     1      -2.933  -1.109  -2.170  1.00  0.00     0.200 A 
ATOM     78  F   UNL     1      -3.976  -1.524  -0.097  1.00  0.00    -0.200 F 
ATOM     79  F   UNL     1      -2.601  -2.405  -2.274  1.00  0.00    -0.200 F 
ENDBRANCH  45  69
BRANCH  57  80
ATOM     80  C   UNL     1      -7.214   6.827   1.820  1.00  0.00     0.064 A 
ATOM     81  C   UNL     1      -8.513   6.653   1.322  1.00  0.00     0.173 A 
ATOM     82  C   UNL     1      -7.152   7.680   2.964  1.00  0.00     0.173 A 
ATOM     83  F   UNL     1      -8.779   5.865   0.281  1.00  0.00    -0.203 F 
ATOM     84  C   UNL     1      -9.635   7.275   1.891  1.00  0.00     0.198 A 
ATOM     85  C   UNL     1      -8.272   8.276   3.546  1.00  0.00     0.198 A 
ATOM     86  F   UNL     1      -6.001   7.962   3.589  1.00  0.00    -0.203 F 
ATOM     87  F   UNL     1     -10.844   7.073   1.348  1.00  0.00    -0.200 F 
ATOM     88  C   UNL     1      -9.518   8.079   3.004  1.00  0.00     0.200 A 
ATOM     89  F   UNL     1      -8.127   9.031   4.644  1.00  0.00    -0.200 F 
ATOM     90  F   UNL     1     -10.597   8.647   3.557  1.00  0.00    -0.200 F 
ENDBRANCH  57  80
ENDBRANCH  31  32
ENDBRANCH  24  26
ENDBRANCH  23  24
ENDBRANCH  22  23
ENDBRANCH   1  22
TORSDOF 14
