REMARK SMILES Cc1cccc(O[C@H](C)C(=O)NNC(=O)[C@H]2[C@@H]3CC[C@@H](C3)[C@@H]2C(=O)OCCOC(=O)c2ccc(-c3c4nc(c(-c5c(F)c(F)c(F)c(F)c5F)c5ccc([nH]5)c(-c5c(F)c(F)c(F)c(F)c5F)c5nc(c(-c6c(F)c(F)c(F)c(F)c6F)c6ccc3[nH]6)C=C5)C=C4)cc2)c1
REMARK SMILES IDX 25 1 23 2 24 3 22 4 16 5 17 6 18 7 21 8 20 9 19 10 14 11
REMARK SMILES IDX 13 12 15 14 12 15 10 16 11 17 8 19 9 20 7 21 6 22 1 23 2 24
REMARK SMILES IDX 3 25 94 26 4 27 5 28 26 29 27 30 28 31 29 32 30 33 31 34
REMARK SMILES IDX 32 35 93 36 33 37 92 38 34 39 35 40 36 41 86 42 37 43 91 44
REMARK SMILES IDX 85 45 87 46 38 47 90 48 84 49 83 50 39 52 71 53 51 54 70 55
REMARK SMILES IDX 52 56 55 57 69 58 88 59 53 60 54 61 68 63 89 64 56 65 40 66
REMARK SMILES IDX 41 67 49 68 42 69 43 70 47 71 50 72 44 73 45 74 48 75 46 76
REMARK SMILES IDX 72 77 73 78 81 79 74 80 75 81 79 82 82 83 76 84 77 85 80 86
REMARK SMILES IDX 78 87 57 88 58 89 66 90 59 91 60 92 64 93 67 94 61 95 62 96
REMARK SMILES IDX 65 97 63 98
REMARK H PARENT 13 13 12 18 87 51 55 62
REMARK Flexibility Score: inf
ROOT
ATOM      1  O   UNL     1       3.164   3.824  -1.561  1.00  0.00    -0.462 OA
ENDROOT
BRANCH   1   2
ATOM      2  C   UNL     1       2.566   3.890  -2.792  1.00  0.00     0.310 C 
ATOM      3  O   UNL     1       2.478   4.924  -3.445  1.00  0.00    -0.252 OA
BRANCH   2   4
ATOM      4  C   UNL     1       1.792   2.654  -3.180  1.00  0.00     0.115 C 
ATOM      5  C   UNL     1       2.132   1.297  -2.580  1.00  0.00     0.098 C 
ATOM      6  C   UNL     1       1.592   0.306  -3.652  1.00  0.00     0.003 C 
ATOM      7  C   UNL     1       2.721   0.115  -4.675  1.00  0.00     0.005 C 
ATOM      8  C   UNL     1       0.623   1.143  -4.505  1.00  0.00     0.009 C 
ATOM      9  C   UNL     1       1.623   2.295  -4.681  1.00  0.00     0.004 C 
ATOM     10  C   UNL     1       2.807   1.519  -5.311  1.00  0.00     0.005 C 
BRANCH   5  11
ATOM     11  C   UNL     1       1.718   0.968  -1.163  1.00  0.00     0.242 C 
ATOM     12  N   UNL     1       0.899   1.813  -0.471  1.00  0.00    -0.267 N 
ATOM     13  H   UNL     1       1.203   2.182   0.390  1.00  0.00     0.191 HD
ATOM     14  O   UNL     1       2.186  -0.021  -0.597  1.00  0.00    -0.273 OA
BRANCH  12  15
ATOM     15  N   UNL     1      -0.377   2.169  -0.966  1.00  0.00    -0.264 N 
ATOM     16  C   UNL     1      -0.865   3.418  -0.665  1.00  0.00     0.279 C 
ATOM     17  O   UNL     1      -0.922   4.272  -1.554  1.00  0.00    -0.269 OA
ATOM     18  H   UNL     1      -0.902   1.539  -1.511  1.00  0.00     0.191 HD
BRANCH  16  19
ATOM     19  C   UNL     1      -1.602   3.603   0.684  1.00  0.00     0.260 C 
ATOM     20  C   UNL     1      -3.014   3.014   0.580  1.00  0.00     0.064 C 
BRANCH  19  21
ATOM     21  O   UNL     1      -1.016   3.444   1.960  1.00  0.00    -0.481 OA
BRANCH  21  22
ATOM     22  C   UNL     1      -0.437   2.294   2.390  1.00  0.00     0.120 A 
ATOM     23  C   UNL     1       2.408   1.624   4.848  1.00  0.00     0.044 C 
ATOM     24  C   UNL     1       1.323   1.411   3.834  1.00  0.00    -0.047 A 
ATOM     25  C   UNL     1       1.041   0.123   3.374  1.00  0.00     0.003 A 
ATOM     26  C   UNL     1       0.574   2.486   3.340  1.00  0.00     0.049 A 
ATOM     27  C   UNL     1       0.016  -0.083   2.453  1.00  0.00     0.004 A 
ATOM     28  C   UNL     1      -0.735   0.997   1.978  1.00  0.00     0.046 A 
ENDBRANCH  21  22
ENDBRANCH  19  21
ENDBRANCH  16  19
ENDBRANCH  12  15
ENDBRANCH   5  11
ENDBRANCH   2   4
ENDBRANCH   1   2
BRANCH   1  29
ATOM     29  C   UNL     1       3.609   5.112  -1.096  1.00  0.00     0.274 C 
BRANCH  29  30
ATOM     30  C   UNL     1       4.440   5.142   0.203  1.00  0.00     0.275 C 
BRANCH  30  31
ATOM     31  O   UNL     1       4.671   3.893   0.892  1.00  0.00    -0.458 OA
BRANCH  31  32
ATOM     32  C   UNL     1       5.649   3.002   0.572  1.00  0.00     0.338 C 
ATOM     33  O   UNL     1       6.017   2.103   1.314  1.00  0.00    -0.246 OA
BRANCH  32  34
ATOM     34  C   UNL     1       6.122   3.081  -0.811  1.00  0.00     0.060 A 
ATOM     35  C   UNL     1       5.627   2.146  -1.722  1.00  0.00     0.016 A 
ATOM     36  C   UNL     1       6.871   4.177  -1.226  1.00  0.00     0.016 A 
ATOM     37  C   UNL     1       5.741   2.406  -3.084  1.00  0.00     0.010 A 
ATOM     38  C   UNL     1       6.906   4.474  -2.573  1.00  0.00     0.010 A 
ATOM     39  C   UNL     1       6.318   3.606  -3.508  1.00  0.00    -0.014 A 
BRANCH  39  40
ATOM     40  C   UNL     1       6.650   3.881  -4.902  1.00  0.00     0.031 A 
ATOM     41  C   UNL     1       5.747   4.467  -5.915  1.00  0.00     0.074 A 
ATOM     42  C   UNL     1       7.933   3.591  -5.188  1.00  0.00     0.049 A 
ATOM     43  N   UNL     1       5.873   4.286  -7.189  1.00  0.00    -0.248 NA
ATOM     44  C   UNL     1       4.602   5.301  -5.583  1.00  0.00     0.031 C 
ATOM     45  C   UNL     1       8.718   3.894  -6.367  1.00  0.00     0.029 A 
ATOM     46  N   UNL     1       8.727   2.699  -4.449  1.00  0.00    -0.354 N 
ATOM     47  C   UNL     1       5.021   5.168  -7.827  1.00  0.00     0.074 A 
ATOM     48  C   UNL     1       4.158   5.675  -6.790  1.00  0.00     0.031 C 
ATOM     49  C   UNL     1       9.712   2.988  -6.440  1.00  0.00     0.029 A 
ATOM     50  C   UNL     1       9.459   1.988  -5.407  1.00  0.00     0.049 A 
ATOM     51  H   UNL     1       8.761   2.597  -3.471  1.00  0.00     0.167 HD
ATOM     52  C   UNL     1       5.250   5.513  -9.129  1.00  0.00     0.037 A 
ATOM     53  C   UNL     1       9.144   0.675  -5.621  1.00  0.00     0.037 A 
ATOM     54  C   UNL     1       6.401   4.797  -9.657  1.00  0.00     0.049 A 
ATOM     55  C   UNL     1       8.705   0.390  -7.041  1.00  0.00     0.074 A 
ATOM     56  C   UNL     1       7.747   5.107  -9.759  1.00  0.00     0.029 A 
ATOM     57  N   UNL     1       6.302   3.433  -9.844  1.00  0.00    -0.354 N 
ATOM     58  N   UNL     1       8.288   1.300  -7.877  1.00  0.00    -0.248 NA
ATOM     59  C   UNL     1       8.627  -0.958  -7.598  1.00  0.00     0.031 C 
ATOM     60  C   UNL     1       8.463   3.898  -9.979  1.00  0.00     0.029 A 
ATOM     61  C   UNL     1       7.546   2.864 -10.026  1.00  0.00     0.049 A 
ATOM     62  H   UNL     1       5.455   2.932  -9.846  1.00  0.00     0.167 HD
ATOM     63  C   UNL     1       7.980   0.709  -9.071  1.00  0.00     0.074 A 
ATOM     64  C   UNL     1       8.140  -0.711  -8.824  1.00  0.00     0.031 C 
ATOM     65  C   UNL     1       7.634   1.426 -10.178  1.00  0.00     0.037 A 
BRANCH  52  66
ATOM     66  C   UNL     1       4.617   6.695  -9.830  1.00  0.00     0.064 A 
ATOM     67  C   UNL     1       5.358   7.468 -10.752  1.00  0.00     0.173 A 
ATOM     68  C   UNL     1       3.296   7.130  -9.619  1.00  0.00     0.173 A 
ATOM     69  F   UNL     1       6.600   7.125 -11.116  1.00  0.00    -0.203 F 
ATOM     70  C   UNL     1       4.858   8.638 -11.330  1.00  0.00     0.198 A 
ATOM     71  C   UNL     1       2.805   8.323 -10.170  1.00  0.00     0.198 A 
ATOM     72  F   UNL     1       2.435   6.395  -8.901  1.00  0.00    -0.203 F 
ATOM     73  F   UNL     1       5.620   9.337 -12.182  1.00  0.00    -0.200 F 
ATOM     74  C   UNL     1       3.592   9.084 -11.014  1.00  0.00     0.200 A 
ATOM     75  F   UNL     1       1.564   8.735  -9.876  1.00  0.00    -0.200 F 
ATOM     76  F   UNL     1       3.130  10.230 -11.532  1.00  0.00    -0.200 F 
ENDBRANCH  52  66
BRANCH  53  77
ATOM     77  C   UNL     1       8.632  -0.063  -4.417  1.00  0.00     0.064 A 
ATOM     78  C   UNL     1       9.322   0.040  -3.186  1.00  0.00     0.173 A 
ATOM     79  C   UNL     1       7.369  -0.668  -4.376  1.00  0.00     0.173 A 
ATOM     80  F   UNL     1      10.543   0.599  -3.143  1.00  0.00    -0.203 F 
ATOM     81  C   UNL     1       8.738  -0.343  -1.978  1.00  0.00     0.198 A 
ATOM     82  C   UNL     1       6.801  -1.085  -3.167  1.00  0.00     0.198 A 
ATOM     83  F   UNL     1       6.634  -0.795  -5.489  1.00  0.00    -0.203 F 
ATOM     84  F   UNL     1       9.385  -0.126  -0.824  1.00  0.00    -0.200 F 
ATOM     85  C   UNL     1       7.472  -0.897  -1.969  1.00  0.00     0.200 A 
ATOM     86  F   UNL     1       5.567  -1.607  -3.160  1.00  0.00    -0.200 F 
ATOM     87  F   UNL     1       6.882  -1.217  -0.809  1.00  0.00    -0.200 F 
ENDBRANCH  53  77
BRANCH  65  88
ATOM     88  C   UNL     1       7.367   0.818 -11.522  1.00  0.00     0.064 A 
ATOM     89  C   UNL     1       8.138  -0.232 -12.042  1.00  0.00     0.173 A 
ATOM     90  C   UNL     1       6.385   1.354 -12.385  1.00  0.00     0.173 A 
ATOM     91  F   UNL     1       9.173  -0.734 -11.353  1.00  0.00    -0.203 F 
ATOM     92  C   UNL     1       7.882  -0.773 -13.301  1.00  0.00     0.198 A 
ATOM     93  C   UNL     1       6.172   0.851 -13.665  1.00  0.00     0.198 A 
ATOM     94  F   UNL     1       5.593   2.367 -12.007  1.00  0.00    -0.203 F 
ATOM     95  F   UNL     1       8.594  -1.825 -13.727  1.00  0.00    -0.200 F 
ATOM     96  C   UNL     1       6.903  -0.230 -14.113  1.00  0.00     0.200 A 
ATOM     97  F   UNL     1       5.247   1.415 -14.454  1.00  0.00    -0.200 F 
ATOM     98  F   UNL     1       6.667  -0.744 -15.327  1.00  0.00    -0.200 F 
ENDBRANCH  65  88
ENDBRANCH  39  40
ENDBRANCH  32  34
ENDBRANCH  31  32
ENDBRANCH  30  31
ENDBRANCH  29  30
ENDBRANCH   1  29
TORSDOF 16
