REMARK SMILES CCn1ncc(NC(=O)[C@@H]2CCCC[C@@H]2C(=O)OCCOC(=O)c2ccc(-c3c4nc(c(-c5c(F)c(F)c(F)c(F)c5F)c5ccc([nH]5)c(-c5c(F)c(F)c(F)c(F)c5F)c5nc(c(-c6c(F)c(F)c(F)c(F)c6F)c6ccc3[nH]6)C=C5)C=C4)cc2)c1C(=O)Nc1cnn(C)c1C
REMARK SMILES IDX 19 1 18 2 16 3 17 4 15 5 10 6 11 7 12 8 14 9 13 10 8 11 7 12
REMARK SMILES IDX 9 14 6 15 3 16 4 17 87 18 5 19 2 20 1 21 88 22 89 23 90 24
REMARK SMILES IDX 91 26 92 27 96 28 93 29 94 30 97 31 95 32 20 33 21 34 22 35
REMARK SMILES IDX 23 36 24 37 25 38 86 39 26 40 85 41 27 42 28 43 29 44 79 45
REMARK SMILES IDX 30 46 84 47 78 48 80 49 31 50 83 51 77 52 76 53 32 55 64 56
REMARK SMILES IDX 44 57 63 58 45 59 48 60 62 61 81 62 46 63 47 64 61 66 82 67
REMARK SMILES IDX 49 68 33 69 34 70 42 71 35 72 36 73 40 74 43 75 37 76 38 77
REMARK SMILES IDX 41 78 39 79 65 80 66 81 74 82 67 83 68 84 72 85 75 86 69 87
REMARK SMILES IDX 70 88 73 89 71 90 50 91 51 92 59 93 52 94 53 95 57 96 60 97
REMARK SMILES IDX 54 98 55 99 58 100 56 101
REMARK H PARENT 7 13 90 25 80 54 48 65
REMARK Flexibility Score: inf
ROOT
ATOM      1  C   UNL     1       4.857  -6.503  -2.356  1.00  0.00     0.274 C 
ENDROOT
BRANCH   1   2
ATOM      2  O   UNL     1       3.424  -6.328  -2.385  1.00  0.00    -0.462 OA
BRANCH   2   3
ATOM      3  C   UNL     1       2.983  -5.041  -2.518  1.00  0.00     0.309 C 
ATOM      4  O   UNL     1       3.736  -4.090  -2.694  1.00  0.00    -0.252 OA
BRANCH   3   5
ATOM      5  C   UNL     1       1.464  -4.939  -2.315  1.00  0.00     0.111 C 
ATOM      6  C   UNL     1       0.880  -3.488  -2.466  1.00  0.00     0.093 C 
ATOM      7  C   UNL     1       1.682  -2.550  -1.567  1.00  0.00     0.014 C 
ATOM      8  C   UNL     1       1.617  -3.011  -0.110  1.00  0.00     0.001 C 
ATOM      9  C   UNL     1       1.168  -5.396  -0.879  1.00  0.00     0.016 C 
ATOM     10  C   UNL     1       1.872  -4.494   0.136  1.00  0.00     0.001 C 
BRANCH   6  11
ATOM     11  C   UNL     1       0.573  -3.140  -3.930  1.00  0.00     0.228 C 
ATOM     12  N   UNL     1       0.428  -1.894  -4.454  1.00  0.00    -0.322 N 
ATOM     13  H   UNL     1       0.282  -1.902  -5.428  1.00  0.00     0.170 HD
ATOM     14  O   UNL     1       0.396  -4.064  -4.739  1.00  0.00    -0.274 OA
BRANCH  12  15
ATOM     15  C   UNL     1       0.440  -0.619  -3.924  1.00  0.00     0.092 A 
ATOM     16  N   UNL     1       0.616   1.101  -2.629  1.00  0.00    -0.258 N 
ATOM     17  N   UNL     1       1.043   1.560  -3.831  1.00  0.00    -0.178 NA
ATOM     18  C   UNL     1      -0.090  -0.088  -2.741  1.00  0.00     0.150 A 
ATOM     19  C   UNL     1       0.968   0.490  -4.612  1.00  0.00     0.162 A 
BRANCH  16  20
ATOM     20  C   UNL     1       1.121   1.833  -1.484  1.00  0.00     0.142 C 
ATOM     21  C   UNL     1       2.137   1.066  -0.652  1.00  0.00     0.029 C 
ENDBRANCH  16  20
BRANCH  18  22
ATOM     22  C   UNL     1      -1.099  -0.747  -1.912  1.00  0.00     0.276 C 
ATOM     23  O   UNL     1      -1.905  -1.539  -2.410  1.00  0.00    -0.267 OA
ATOM     24  N   UNL     1      -1.007  -0.777  -0.542  1.00  0.00    -0.318 N 
ATOM     25  H   UNL     1      -0.898  -1.672  -0.148  1.00  0.00     0.170 HD
BRANCH  24  26
ATOM     26  C   UNL     1      -1.045   0.258   0.356  1.00  0.00     0.082 A 
ATOM     27  C   UNL     1      -1.648   1.525   0.268  1.00  0.00     0.161 A 
ATOM     28  C   UNL     1      -0.493   0.205   1.622  1.00  0.00     0.059 A 
ATOM     29  N   UNL     1      -1.353   2.288   1.322  1.00  0.00    -0.179 NA
ATOM     30  N   UNL     1      -0.590   1.492   2.096  1.00  0.00    -0.271 N 
ATOM     31  C   UNL     1       0.226  -0.873   2.347  1.00  0.00     0.068 C 
ATOM     32  C   UNL     1       0.139   2.088   3.192  1.00  0.00     0.174 C 
ENDBRANCH  24  26
ENDBRANCH  18  22
ENDBRANCH  12  15
ENDBRANCH   6  11
ENDBRANCH   3   5
ENDBRANCH   2   3
ENDBRANCH   1   2
BRANCH   1  33
ATOM     33  C   UNL     1       5.506  -6.623  -3.735  1.00  0.00     0.275 C 
BRANCH  33  34
ATOM     34  O   UNL     1       5.501  -5.391  -4.459  1.00  0.00    -0.458 OA
BRANCH  34  35
ATOM     35  C   UNL     1       4.355  -5.194  -5.146  1.00  0.00     0.338 C 
ATOM     36  O   UNL     1       3.364  -5.908  -5.142  1.00  0.00    -0.246 OA
BRANCH  35  37
ATOM     37  C   UNL     1       4.464  -4.040  -6.038  1.00  0.00     0.060 A 
ATOM     38  C   UNL     1       3.256  -3.507  -6.494  1.00  0.00     0.016 A 
ATOM     39  C   UNL     1       5.674  -3.799  -6.690  1.00  0.00     0.016 A 
ATOM     40  C   UNL     1       3.206  -2.941  -7.744  1.00  0.00     0.010 A 
ATOM     41  C   UNL     1       5.628  -3.220  -7.940  1.00  0.00     0.010 A 
ATOM     42  C   UNL     1       4.378  -2.919  -8.496  1.00  0.00    -0.014 A 
BRANCH  42  43
ATOM     43  C   UNL     1       4.242  -2.673  -9.923  1.00  0.00     0.031 A 
ATOM     44  C   UNL     1       3.802  -1.309 -10.310  1.00  0.00     0.074 A 
ATOM     45  C   UNL     1       4.611  -3.627 -10.801  1.00  0.00     0.049 A 
ATOM     46  N   UNL     1       2.934  -0.965 -11.207  1.00  0.00    -0.248 NA
ATOM     47  C   UNL     1       4.355  -0.179  -9.544  1.00  0.00     0.031 C 
ATOM     48  C   UNL     1       5.232  -4.925 -10.510  1.00  0.00     0.029 A 
ATOM     49  N   UNL     1       4.669  -3.561 -12.159  1.00  0.00    -0.354 N 
ATOM     50  C   UNL     1       2.932   0.426 -11.220  1.00  0.00     0.074 A 
ATOM     51  C   UNL     1       3.748   0.859 -10.115  1.00  0.00     0.031 C 
ATOM     52  C   UNL     1       5.860  -5.368 -11.619  1.00  0.00     0.029 A 
ATOM     53  C   UNL     1       5.595  -4.439 -12.703  1.00  0.00     0.049 A 
ATOM     54  H   UNL     1       4.112  -2.955 -12.698  1.00  0.00     0.167 HD
ATOM     55  C   UNL     1       2.406   1.147 -12.245  1.00  0.00     0.037 A 
ATOM     56  C   UNL     1       6.205  -4.315 -13.905  1.00  0.00     0.037 A 
ATOM     57  C   UNL     1       1.468   0.393 -13.023  1.00  0.00     0.049 A 
ATOM     58  C   UNL     1       5.390  -3.387 -14.731  1.00  0.00     0.074 A 
ATOM     59  C   UNL     1       0.254  -0.206 -12.744  1.00  0.00     0.029 A 
ATOM     60  N   UNL     1       1.862  -0.114 -14.235  1.00  0.00    -0.354 N 
ATOM     61  N   UNL     1       4.204  -3.672 -15.195  1.00  0.00    -0.248 NA
ATOM     62  C   UNL     1       5.710  -1.966 -14.677  1.00  0.00     0.031 C 
ATOM     63  C   UNL     1       0.222  -1.378 -13.551  1.00  0.00     0.029 A 
ATOM     64  C   UNL     1       1.406  -1.407 -14.287  1.00  0.00     0.049 A 
ATOM     65  H   UNL     1       2.373   0.358 -14.932  1.00  0.00     0.167 HD
ATOM     66  C   UNL     1       3.489  -2.487 -15.088  1.00  0.00     0.074 A 
ATOM     67  C   UNL     1       4.493  -1.451 -14.866  1.00  0.00     0.031 C 
ATOM     68  C   UNL     1       2.137  -2.490 -14.896  1.00  0.00     0.037 A 
BRANCH  55  69
ATOM     69  C   UNL     1       2.976   2.457 -12.701  1.00  0.00     0.064 A 
ATOM     70  C   UNL     1       2.224   3.302 -13.536  1.00  0.00     0.173 A 
ATOM     71  C   UNL     1       4.346   2.773 -12.570  1.00  0.00     0.173 A 
ATOM     72  F   UNL     1       0.922   3.063 -13.754  1.00  0.00    -0.203 F 
ATOM     73  C   UNL     1       2.816   4.363 -14.225  1.00  0.00     0.198 A 
ATOM     74  C   UNL     1       4.921   3.862 -13.217  1.00  0.00     0.198 A 
ATOM     75  F   UNL     1       5.190   1.977 -11.899  1.00  0.00    -0.203 F 
ATOM     76  F   UNL     1       2.090   5.080 -15.094  1.00  0.00    -0.200 F 
ATOM     77  C   UNL     1       4.163   4.641 -14.067  1.00  0.00     0.200 A 
ATOM     78  F   UNL     1       6.232   4.101 -13.069  1.00  0.00    -0.200 F 
ATOM     79  F   UNL     1       4.742   5.624 -14.768  1.00  0.00    -0.200 F 
ENDBRANCH  55  69
BRANCH  56  80
ATOM     80  C   UNL     1       7.599  -4.701 -14.237  1.00  0.00     0.064 A 
ATOM     81  C   UNL     1       8.025  -4.807 -15.569  1.00  0.00     0.173 A 
ATOM     82  C   UNL     1       8.612  -4.769 -13.255  1.00  0.00     0.173 A 
ATOM     83  F   UNL     1       7.142  -4.689 -16.571  1.00  0.00    -0.203 F 
ATOM     84  C   UNL     1       9.376  -4.979 -15.897  1.00  0.00     0.198 A 
ATOM     85  C   UNL     1       9.954  -4.963 -13.581  1.00  0.00     0.198 A 
ATOM     86  F   UNL     1       8.340  -4.559 -11.960  1.00  0.00    -0.203 F 
ATOM     87  F   UNL     1       9.751  -5.022 -17.183  1.00  0.00    -0.200 F 
ATOM     88  C   UNL     1      10.338  -5.059 -14.903  1.00  0.00     0.200 A 
ATOM     89  F   UNL     1      10.874  -5.003 -12.607  1.00  0.00    -0.200 F 
ATOM     90  F   UNL     1      11.634  -5.187 -15.218  1.00  0.00    -0.200 F 
ENDBRANCH  56  80
BRANCH  68  91
ATOM     91  C   UNL     1       1.411  -3.797 -15.038  1.00  0.00     0.064 A 
ATOM     92  C   UNL     1       1.633  -4.896 -14.191  1.00  0.00     0.173 A 
ATOM     93  C   UNL     1       0.348  -3.888 -15.945  1.00  0.00     0.173 A 
ATOM     94  F   UNL     1       2.550  -4.842 -13.219  1.00  0.00    -0.203 F 
ATOM     95  C   UNL     1       0.863  -6.053 -14.286  1.00  0.00     0.198 A 
ATOM     96  C   UNL     1      -0.445  -5.031 -16.012  1.00  0.00     0.198 A 
ATOM     97  F   UNL     1       0.044  -2.844 -16.732  1.00  0.00    -0.203 F 
ATOM     98  F   UNL     1       1.108  -7.091 -13.473  1.00  0.00    -0.200 F 
ATOM     99  C   UNL     1      -0.180  -6.116 -15.192  1.00  0.00     0.200 A 
ATOM    100  F   UNL     1      -1.489  -5.069 -16.853  1.00  0.00    -0.200 F 
ATOM    101  F   UNL     1      -0.950  -7.212 -15.255  1.00  0.00    -0.200 F 
ENDBRANCH  68  91
ENDBRANCH  42  43
ENDBRANCH  35  37
ENDBRANCH  34  35
ENDBRANCH  33  34
ENDBRANCH   1  33
TORSDOF 16
