REMARK SMILES Cn1cc(-c2cc(C(F)(F)F)c3c(C4CC4)nn(CC(=O)OCCOC(=O)c4ccc(-c5c6nc(c(-c7c(F)c(F)c(F)c(F)c7F)c7ccc([nH]7)c(-c7c(F)c(F)c(F)c(F)c7F)c7nc(c(-c8c(F)c(F)c(F)c(F)c8F)c8ccc5[nH]8)C=C7)C=C6)cc4)c3n2)cn1
REMARK SMILES IDX 23 1 22 2 20 3 21 4 19 5 18 6 5 7 6 8 92 9 7 10 91 11 12 12
REMARK SMILES IDX 13 13 17 14 4 15 1 16 2 17 3 18 94 19 93 20 8 21 9 22 10 23
REMARK SMILES IDX 11 24 14 25 15 26 16 27 24 28 25 29 26 30 27 31 28 32 29 33
REMARK SMILES IDX 90 34 30 35 89 36 31 37 32 38 33 39 83 40 34 41 88 42 82 43
REMARK SMILES IDX 84 44 35 45 87 46 81 47 80 48 36 50 68 51 48 52 67 53 49 54
REMARK SMILES IDX 52 55 66 56 85 57 50 58 51 59 65 61 86 62 53 63 37 64 38 65
REMARK SMILES IDX 46 66 39 67 40 68 44 69 47 70 41 71 42 72 45 73 43 74 69 75
REMARK SMILES IDX 70 76 78 77 71 78 72 79 76 80 79 81 73 82 74 83 77 84 75 85
REMARK SMILES IDX 54 86 55 87 63 88 56 89 57 90 61 91 64 92 58 93 59 94 62 95
REMARK SMILES IDX 60 96
REMARK H PARENT 84 49 52 60
REMARK Flexibility Score: inf
ROOT
ATOM      1  C   UNL     1      -5.096  -1.542  -3.108  1.00  0.00     0.274 C 
ENDROOT
BRANCH   1   2
ATOM      2  O   UNL     1      -3.684  -1.730  -2.907  1.00  0.00    -0.461 OA
BRANCH   2   3
ATOM      3  C   UNL     1      -2.993  -0.617  -2.569  1.00  0.00     0.327 C 
ATOM      4  O   UNL     1      -3.441   0.526  -2.674  1.00  0.00    -0.250 OA
BRANCH   3   5
ATOM      5  C   UNL     1      -1.585  -0.857  -2.155  1.00  0.00     0.269 C 
BRANCH   5   6
ATOM      6  N   UNL     1      -1.145  -2.124  -1.570  1.00  0.00    -0.236 N 
ATOM      7  C   UNL     1       2.116  -1.453  -0.606  1.00  0.00     0.077 A 
ATOM      8  C   UNL     1       2.536  -2.685  -0.123  1.00  0.00     0.043 A 
ATOM      9  N   UNL     1       1.147  -1.383  -1.544  1.00  0.00    -0.228 NA
ATOM     10  C   UNL     1       1.675  -3.800  -0.260  1.00  0.00     0.071 A 
ATOM     11  C   UNL     1       0.190  -2.298  -1.302  1.00  0.00     0.159 A 
ATOM     12  C   UNL     1       0.337  -3.448  -0.545  1.00  0.00     0.055 A 
ATOM     13  C   UNL     1      -1.005  -3.708  -0.144  1.00  0.00     0.076 A 
ATOM     14  N   UNL     1      -1.905  -2.986  -0.848  1.00  0.00    -0.174 NA
BRANCH   7  15
ATOM     15  C   UNL     1       1.925  -0.331   0.330  1.00  0.00     0.038 A 
ATOM     16  C   UNL     1      -1.088   0.894   1.684  1.00  0.00     0.173 C 
ATOM     17  N   UNL     1       0.318   0.745   1.375  1.00  0.00    -0.275 N 
ATOM     18  C   UNL     1       0.977  -0.454   1.340  1.00  0.00     0.118 A 
ATOM     19  N   UNL     1       0.987   1.725   0.741  1.00  0.00    -0.181 NA
ATOM     20  C   UNL     1       1.903   1.055   0.029  1.00  0.00     0.145 A 
ENDBRANCH   7  15
BRANCH  10  21
ATOM     21  C   UNL     1       2.238  -5.192  -0.346  1.00  0.00     0.417 C 
ATOM     22  F   UNL     1       1.882  -6.036   0.648  1.00  0.00    -0.166 F 
ATOM     23  F   UNL     1       1.874  -5.808  -1.507  1.00  0.00    -0.166 F 
ATOM     24  F   UNL     1       3.603  -5.203  -0.351  1.00  0.00    -0.166 F 
ENDBRANCH  10  21
BRANCH  13  25
ATOM     25  C   UNL     1      -1.502  -4.414   1.134  1.00  0.00     0.041 C 
ATOM     26  C   UNL     1      -0.711  -5.348   2.012  1.00  0.00     0.011 C 
ATOM     27  C   UNL     1      -0.908  -3.947   2.464  1.00  0.00     0.011 C 
ENDBRANCH  13  25
ENDBRANCH   5   6
ENDBRANCH   3   5
ENDBRANCH   2   3
ENDBRANCH   1   2
BRANCH   1  28
ATOM     28  C   UNL     1      -5.855  -2.134  -1.928  1.00  0.00     0.275 C 
BRANCH  28  29
ATOM     29  O   UNL     1      -6.170  -1.183  -0.897  1.00  0.00    -0.458 OA
BRANCH  29  30
ATOM     30  C   UNL     1      -5.175  -0.928  -0.021  1.00  0.00     0.338 C 
ATOM     31  O   UNL     1      -3.998  -0.736  -0.253  1.00  0.00    -0.246 OA
BRANCH  30  32
ATOM     32  C   UNL     1      -5.628  -1.132   1.356  1.00  0.00     0.060 A 
ATOM     33  C   UNL     1      -4.691  -0.844   2.356  1.00  0.00     0.016 A 
ATOM     34  C   UNL     1      -6.815  -1.816   1.637  1.00  0.00     0.016 A 
ATOM     35  C   UNL     1      -4.878  -1.353   3.619  1.00  0.00     0.010 A 
ATOM     36  C   UNL     1      -7.010  -2.315   2.909  1.00  0.00     0.010 A 
ATOM     37  C   UNL     1      -6.015  -2.123   3.871  1.00  0.00    -0.014 A 
BRANCH  37  38
ATOM     38  C   UNL     1      -6.182  -2.611   5.227  1.00  0.00     0.031 A 
ATOM     39  C   UNL     1      -6.438  -1.545   6.234  1.00  0.00     0.074 A 
ATOM     40  C   UNL     1      -6.235  -3.923   5.513  1.00  0.00     0.049 A 
ATOM     41  N   UNL     1      -5.840  -1.330   7.361  1.00  0.00    -0.248 NA
ATOM     42  C   UNL     1      -7.448  -0.530   5.883  1.00  0.00     0.031 C 
ATOM     43  C   UNL     1      -6.290  -5.049   4.578  1.00  0.00     0.029 A 
ATOM     44  N   UNL     1      -6.386  -4.514   6.727  1.00  0.00    -0.354 N 
ATOM     45  C   UNL     1      -6.493  -0.239   7.930  1.00  0.00     0.074 A 
ATOM     46  C   UNL     1      -7.389   0.284   6.934  1.00  0.00     0.031 C 
ATOM     47  C   UNL     1      -6.701  -6.150   5.246  1.00  0.00     0.029 A 
ATOM     48  C   UNL     1      -6.823  -5.826   6.658  1.00  0.00     0.049 A 
ATOM     49  H   UNL     1      -6.202  -4.053   7.577  1.00  0.00     0.167 HD
ATOM     50  C   UNL     1      -6.403   0.054   9.254  1.00  0.00     0.037 A 
ATOM     51  C   UNL     1      -7.356  -6.538   7.678  1.00  0.00     0.037 A 
ATOM     52  C   UNL     1      -5.232  -0.510   9.857  1.00  0.00     0.049 A 
ATOM     53  C   UNL     1      -6.981  -5.864   8.947  1.00  0.00     0.074 A 
ATOM     54  C   UNL     1      -3.873  -0.343   9.672  1.00  0.00     0.029 A 
ATOM     55  N   UNL     1      -5.364  -1.645  10.615  1.00  0.00    -0.354 N 
ATOM     56  N   UNL     1      -5.770  -5.812   9.428  1.00  0.00    -0.248 NA
ATOM     57  C   UNL     1      -7.914  -4.894   9.503  1.00  0.00     0.031 C 
ATOM     58  C   UNL     1      -3.302  -1.624   9.916  1.00  0.00     0.029 A 
ATOM     59  C   UNL     1      -4.345  -2.487  10.251  1.00  0.00     0.049 A 
ATOM     60  H   UNL     1      -6.057  -1.821  11.291  1.00  0.00     0.167 HD
ATOM     61  C   UNL     1      -5.682  -4.569  10.036  1.00  0.00     0.074 A 
ATOM     62  C   UNL     1      -7.057  -4.097  10.145  1.00  0.00     0.031 C 
ATOM     63  C   UNL     1      -4.487  -3.919  10.141  1.00  0.00     0.037 A 
BRANCH  50  64
ATOM     64  C   UNL     1      -7.554   0.603  10.050  1.00  0.00     0.064 A 
ATOM     65  C   UNL     1      -7.335   1.113  11.342  1.00  0.00     0.173 A 
ATOM     66  C   UNL     1      -8.905   0.386   9.697  1.00  0.00     0.173 A 
ATOM     67  F   UNL     1      -6.088   1.316  11.793  1.00  0.00    -0.203 F 
ATOM     68  C   UNL     1      -8.390   1.346  12.229  1.00  0.00     0.198 A 
ATOM     69  C   UNL     1      -9.957   0.674  10.562  1.00  0.00     0.198 A 
ATOM     70  F   UNL     1      -9.249  -0.212   8.548  1.00  0.00    -0.203 F 
ATOM     71  F   UNL     1      -8.129   1.724  13.487  1.00  0.00    -0.200 F 
ATOM     72  C   UNL     1      -9.699   1.127  11.838  1.00  0.00     0.200 A 
ATOM     73  F   UNL     1     -11.216   0.432  10.171  1.00  0.00    -0.200 F 
ATOM     74  F   UNL     1     -10.707   1.301  12.702  1.00  0.00    -0.200 F 
ENDBRANCH  50  64
BRANCH  51  75
ATOM     75  C   UNL     1      -8.435  -7.552   7.610  1.00  0.00     0.064 A 
ATOM     76  C   UNL     1      -8.681  -8.409   8.694  1.00  0.00     0.173 A 
ATOM     77  C   UNL     1      -9.415  -7.525   6.598  1.00  0.00     0.173 A 
ATOM     78  F   UNL     1      -7.821  -8.459   9.722  1.00  0.00    -0.203 F 
ATOM     79  C   UNL     1      -9.848  -9.175   8.772  1.00  0.00     0.198 A 
ATOM     80  C   UNL     1     -10.572  -8.302   6.670  1.00  0.00     0.198 A 
ATOM     81  F   UNL     1      -9.322  -6.676   5.565  1.00  0.00    -0.203 F 
ATOM     82  F   UNL     1     -10.079  -9.929   9.856  1.00  0.00    -0.200 F 
ATOM     83  C   UNL     1     -10.796  -9.114   7.764  1.00  0.00     0.200 A 
ATOM     84  F   UNL     1     -11.495  -8.207   5.702  1.00  0.00    -0.200 F 
ATOM     85  F   UNL     1     -11.941  -9.803   7.866  1.00  0.00    -0.200 F 
ENDBRANCH  51  75
BRANCH  63  86
ATOM     86  C   UNL     1      -3.240  -4.697   9.837  1.00  0.00     0.064 A 
ATOM     87  C   UNL     1      -2.939  -5.213   8.565  1.00  0.00     0.173 A 
ATOM     88  C   UNL     1      -2.247  -4.784  10.822  1.00  0.00     0.173 A 
ATOM     89  F   UNL     1      -3.794  -5.071   7.545  1.00  0.00    -0.203 F 
ATOM     90  C   UNL     1      -1.716  -5.827   8.306  1.00  0.00     0.198 A 
ATOM     91  C   UNL     1      -1.011  -5.365  10.550  1.00  0.00     0.198 A 
ATOM     92  F   UNL     1      -2.455  -4.251  12.036  1.00  0.00    -0.203 F 
ATOM     93  F   UNL     1      -1.455  -6.317   7.084  1.00  0.00    -0.200 F 
ATOM     94  C   UNL     1      -0.750  -5.895   9.296  1.00  0.00     0.200 A 
ATOM     95  F   UNL     1      -0.060  -5.380  11.493  1.00  0.00    -0.200 F 
ATOM     96  F   UNL     1       0.445  -6.442   9.033  1.00  0.00    -0.200 F 
ENDBRANCH  63  86
ENDBRANCH  37  38
ENDBRANCH  30  32
ENDBRANCH  29  30
ENDBRANCH  28  29
ENDBRANCH   1  28
TORSDOF 15
