REMARK SMILES CC(C)[C@H](NC(=O)CCC1=c2ccccc2=NC1)C(=O)OCCOC(=O)c1ccc(-c2c3nc(c(-c4c(F)c(F)c(F)c(F)c4F)c4ccc([nH]4)c(-c4c(F)c(F)c(F)c(F)c4F)c4nc(c(-c5c(F)c(F)c(F)c(F)c5F)c5ccc2[nH]5)C=C4)C=C3)cc1
REMARK SMILES IDX 22 1 21 2 19 3 20 4 4 5 2 6 1 7 3 8 5 9 6 10 7 12 8 13 9 14
REMARK SMILES IDX 10 15 11 16 18 17 12 18 16 19 17 20 13 21 15 22 14 23 23 24
REMARK SMILES IDX 24 25 25 26 26 27 27 28 28 29 89 30 29 31 88 32 30 33 31 34
REMARK SMILES IDX 32 35 82 36 33 37 87 38 81 39 83 40 34 41 86 42 80 43 79 44
REMARK SMILES IDX 35 46 67 47 47 48 66 49 48 50 51 51 65 52 84 53 49 54 50 55
REMARK SMILES IDX 64 57 85 58 52 59 36 60 37 61 45 62 38 63 39 64 43 65 46 66
REMARK SMILES IDX 40 67 41 68 44 69 42 70 68 71 69 72 77 73 70 74 71 75 75 76
REMARK SMILES IDX 78 77 72 78 73 79 76 80 74 81 53 82 54 83 62 84 55 85 56 86
REMARK SMILES IDX 60 87 63 88 57 89 58 90 61 91 59 92
REMARK H PARENT 5 11 83 45 51 56
REMARK Flexibility Score: inf
ROOT
ATOM      1  C   UNL     1      -1.670  -4.831  -0.664  1.00  0.00     0.274 C 
ENDROOT
BRANCH   1   2
ATOM      2  O   UNL     1      -0.955  -3.142  -0.724  1.00  0.00    -0.461 OA
BRANCH   2   3
ATOM      3  C   UNL     1      -0.129  -2.043   0.602  1.00  0.00     0.329 C 
ATOM      4  O   UNL     1       0.566  -2.156   1.629  1.00  0.00    -0.250 OA
BRANCH   3   5
ATOM      5  C   UNL     1      -0.752  -0.969   0.222  1.00  0.00     0.194 C 
BRANCH   5   6
ATOM      6  C   UNL     1      -1.560  -1.566  -1.806  1.00  0.00     0.017 C 
ATOM      7  C   UNL     1      -2.183  -2.927  -2.686  1.00  0.00     0.010 C 
ATOM      8  C   UNL     1      -2.495   0.325  -1.169  1.00  0.00     0.010 C 
ENDBRANCH   5   6
BRANCH   5   9
ATOM      9  N   UNL     1       0.569   0.046   0.522  1.00  0.00    -0.343 N 
ATOM     10  C   UNL     1       1.111   1.139  -0.103  1.00  0.00     0.221 C 
ATOM     11  H   UNL     1       1.063  -0.207   1.335  1.00  0.00     0.164 HD
ATOM     12  O   UNL     1       2.312   1.357   0.058  1.00  0.00    -0.275 OA
BRANCH  10  13
ATOM     13  C   UNL     1       0.217   2.086  -0.923  1.00  0.00     0.104 C 
BRANCH  13  14
ATOM     14  C   UNL     1      -0.284   1.707  -2.399  1.00  0.00     0.043 C 
BRANCH  14  15
ATOM     15  C   UNL     1      -0.879   0.286  -2.592  1.00  0.00    -0.039 C 
ATOM     16  C   UNL     1      -0.539  -0.388  -1.353  1.00  0.00     0.001 A 
ATOM     17  C   UNL     1      -2.683  -0.310  -3.032  1.00  0.00     0.174 C 
ATOM     18  C   UNL     1       0.791  -1.832  -1.347  1.00  0.00     0.010 A 
ATOM     19  C   UNL     1      -2.330  -1.405  -0.397  1.00  0.00     0.065 A 
ATOM     20  N   UNL     1      -3.461  -1.370  -1.545  1.00  0.00    -0.280 NA
ATOM     21  C   UNL     1       0.937  -3.275  -0.496  1.00  0.00     0.001 A 
ATOM     22  C   UNL     1      -1.933  -2.949   0.854  1.00  0.00     0.028 A 
ATOM     23  C   UNL     1      -0.414  -3.866   0.842  1.00  0.00     0.002 A 
ENDBRANCH  14  15
ENDBRANCH  13  14
ENDBRANCH  10  13
ENDBRANCH   5   9
ENDBRANCH   3   5
ENDBRANCH   2   3
ENDBRANCH   1   2
BRANCH   1  24
ATOM     24  C   UNL     1      -1.943  -5.796   0.799  1.00  0.00     0.275 C 
BRANCH  24  25
ATOM     25  O   UNL     1      -2.364  -5.155   2.114  1.00  0.00    -0.458 OA
BRANCH  25  26
ATOM     26  C   UNL     1      -1.534  -5.021   3.224  1.00  0.00     0.338 C 
ATOM     27  O   UNL     1      -0.471  -5.597   3.391  1.00  0.00    -0.246 OA
BRANCH  26  28
ATOM     28  C   UNL     1      -1.982  -3.897   4.141  1.00  0.00     0.060 A 
ATOM     29  C   UNL     1      -2.912  -4.116   5.154  1.00  0.00     0.016 A 
ATOM     30  C   UNL     1      -1.416  -2.611   4.069  1.00  0.00     0.016 A 
ATOM     31  C   UNL     1      -3.378  -3.040   5.948  1.00  0.00     0.010 A 
ATOM     32  C   UNL     1      -1.942  -1.517   4.786  1.00  0.00     0.010 A 
ATOM     33  C   UNL     1      -2.958  -1.715   5.721  1.00  0.00    -0.014 A 
BRANCH  33  34
ATOM     34  C   UNL     1      -3.431  -0.601   6.597  1.00  0.00     0.031 A 
ATOM     35  C   UNL     1      -4.722   0.128   6.341  1.00  0.00     0.074 A 
ATOM     36  C   UNL     1      -2.677  -0.252   7.657  1.00  0.00     0.049 A 
ATOM     37  N   UNL     1      -5.444   0.848   7.164  1.00  0.00    -0.248 NA
ATOM     38  C   UNL     1      -5.257   0.072   4.973  1.00  0.00     0.031 C 
ATOM     39  C   UNL     1      -1.338  -0.773   7.922  1.00  0.00     0.029 A 
ATOM     40  N   UNL     1      -2.925   0.589   8.715  1.00  0.00    -0.354 N 
ATOM     41  C   UNL     1      -6.551   1.275   6.437  1.00  0.00     0.074 A 
ATOM     42  C   UNL     1      -6.362   0.805   5.080  1.00  0.00     0.031 C 
ATOM     43  C   UNL     1      -0.905  -0.295   9.096  1.00  0.00     0.029 A 
ATOM     44  C   UNL     1      -1.949   0.537   9.683  1.00  0.00     0.049 A 
ATOM     45  H   UNL     1      -3.719   1.168   8.774  1.00  0.00     0.167 HD
ATOM     46  C   UNL     1      -7.630   1.967   6.886  1.00  0.00     0.037 A 
ATOM     47  C   UNL     1      -1.928   1.038  10.934  1.00  0.00     0.037 A 
ATOM     48  C   UNL     1      -7.748   2.458   8.240  1.00  0.00     0.049 A 
ATOM     49  C   UNL     1      -3.154   1.743  11.443  1.00  0.00     0.074 A 
ATOM     50  C   UNL     1      -8.816   3.099   8.843  1.00  0.00     0.029 A 
ATOM     51  N   UNL     1      -6.741   2.380   9.194  1.00  0.00    -0.354 N 
ATOM     52  N   UNL     1      -4.289   1.969  10.824  1.00  0.00    -0.248 NA
ATOM     53  C   UNL     1      -3.115   2.239  12.825  1.00  0.00     0.031 C 
ATOM     54  C   UNL     1      -8.434   3.458  10.140  1.00  0.00     0.029 A 
ATOM     55  C   UNL     1      -7.150   2.987  10.369  1.00  0.00     0.049 A 
ATOM     56  H   UNL     1      -5.864   1.954   9.054  1.00  0.00     0.167 HD
ATOM     57  C   UNL     1      -5.103   2.619  11.739  1.00  0.00     0.074 A 
ATOM     58  C   UNL     1      -4.339   2.731  12.967  1.00  0.00     0.031 C 
ATOM     59  C   UNL     1      -6.365   3.087  11.576  1.00  0.00     0.037 A 
BRANCH  46  60
ATOM     60  C   UNL     1      -8.791   2.195   5.950  1.00  0.00     0.064 A 
ATOM     61  C   UNL     1      -9.586   1.123   5.511  1.00  0.00     0.173 A 
ATOM     62  C   UNL     1      -9.199   3.490   5.587  1.00  0.00     0.173 A 
ATOM     63  F   UNL     1      -9.259  -0.136   5.837  1.00  0.00    -0.203 F 
ATOM     64  C   UNL     1     -10.724   1.335   4.733  1.00  0.00     0.198 A 
ATOM     65  C   UNL     1     -10.353   3.701   4.831  1.00  0.00     0.198 A 
ATOM     66  F   UNL     1      -8.498   4.560   5.993  1.00  0.00    -0.203 F 
ATOM     67  F   UNL     1     -11.448   0.289   4.310  1.00  0.00    -0.200 F 
ATOM     68  C   UNL     1     -11.112   2.623   4.402  1.00  0.00     0.200 A 
ATOM     69  F   UNL     1     -10.741   4.949   4.532  1.00  0.00    -0.200 F 
ATOM     70  F   UNL     1     -12.219   2.826   3.672  1.00  0.00    -0.200 F 
ENDBRANCH  46  60
BRANCH  47  71
ATOM     71  C   UNL     1      -0.755   0.756  11.806  1.00  0.00     0.064 A 
ATOM     72  C   UNL     1      -0.851  -0.139  12.881  1.00  0.00     0.173 A 
ATOM     73  C   UNL     1       0.508   1.298  11.524  1.00  0.00     0.173 A 
ATOM     74  F   UNL     1      -2.036  -0.684  13.196  1.00  0.00    -0.203 F 
ATOM     75  C   UNL     1       0.268  -0.479  13.640  1.00  0.00     0.198 A 
ATOM     76  C   UNL     1       1.632   0.935  12.264  1.00  0.00     0.198 A 
ATOM     77  F   UNL     1       0.659   2.145  10.495  1.00  0.00    -0.203 F 
ATOM     78  F   UNL     1       0.144  -1.323  14.673  1.00  0.00    -0.200 F 
ATOM     79  C   UNL     1       1.511   0.049  13.323  1.00  0.00     0.200 A 
ATOM     80  F   UNL     1       2.835   1.427  11.937  1.00  0.00    -0.200 F 
ATOM     81  F   UNL     1       2.591  -0.300  14.035  1.00  0.00    -0.200 F 
ENDBRANCH  47  71
BRANCH  59  82
ATOM     82  C   UNL     1      -7.005   3.777  12.744  1.00  0.00     0.064 A 
ATOM     83  C   UNL     1      -6.610   5.065  13.133  1.00  0.00     0.173 A 
ATOM     84  C   UNL     1      -8.101   3.196  13.400  1.00  0.00     0.173 A 
ATOM     85  F   UNL     1      -5.560   5.656  12.543  1.00  0.00    -0.203 F 
ATOM     86  C   UNL     1      -7.290   5.748  14.136  1.00  0.00     0.198 A 
ATOM     87  C   UNL     1      -8.798   3.894  14.382  1.00  0.00     0.198 A 
ATOM     88  F   UNL     1      -8.522   1.969  13.059  1.00  0.00    -0.203 F 
ATOM     89  F   UNL     1      -6.884   6.970  14.506  1.00  0.00    -0.200 F 
ATOM     90  C   UNL     1      -8.393   5.169  14.749  1.00  0.00     0.200 A 
ATOM     91  F   UNL     1      -9.875   3.342  14.958  1.00  0.00    -0.200 F 
ATOM     92  F   UNL     1      -9.067   5.842  15.691  1.00  0.00    -0.200 F 
ENDBRANCH  59  82
ENDBRANCH  33  34
ENDBRANCH  26  28
ENDBRANCH  25  26
ENDBRANCH  24  25
ENDBRANCH   1  24
TORSDOF 16
