REMARK SMILES COc1ccc(Nc2c(C(=O)OCCOC(=O)c3ccc(-c4c5nc(c(-c6c(F)c(F)c(F)c(F)c6F)c6ccc([nH]6)c(-c6c(F)c(F)c(F)c(F)c6F)c6nc(c(-c7c(F)c(F)c(F)c(F)c7F)c7ccc4[nH]7)C=C6)C=C5)cc3)[nH]c(=O)[nH]c2=O)cc1
REMARK SMILES IDX 13 1 12 2 10 3 11 4 9 5 8 6 85 7 81 8 84 9 86 10 82 11 83 14
REMARK SMILES IDX 7 15 6 17 3 18 4 19 88 20 5 21 87 22 2 23 1 24 14 25 15 26
REMARK SMILES IDX 16 27 17 28 18 29 19 30 80 31 20 32 79 33 21 34 22 35 23 36
REMARK SMILES IDX 73 37 24 38 78 39 72 40 74 41 25 42 77 43 71 44 70 45 26 47
REMARK SMILES IDX 58 48 38 49 57 50 39 51 42 52 56 53 75 54 40 55 41 56 55 58
REMARK SMILES IDX 76 59 43 60 27 61 28 62 36 63 29 64 30 65 34 66 37 67 31 68
REMARK SMILES IDX 32 69 35 70 33 71 59 72 60 73 68 74 61 75 62 76 66 77 69 78
REMARK SMILES IDX 63 79 64 80 67 81 65 82 44 83 45 84 53 85 46 86 47 87 51 88
REMARK SMILES IDX 54 89 48 90 49 91 52 92 50 93
REMARK H PARENT 81 12 84 13 7 16 74 46 42 57
REMARK Flexibility Score: inf
ROOT
ATOM      1  C   UNL     1       4.416  -7.790   2.583  1.00  0.00     0.275 C 
ENDROOT
BRANCH   1   2
ATOM      2  O   UNL     1       3.268  -7.602   1.729  1.00  0.00    -0.457 OA
BRANCH   2   3
ATOM      3  C   UNL     1       2.627  -8.718   1.307  1.00  0.00     0.357 C 
ATOM      4  O   UNL     1       2.970  -9.870   1.545  1.00  0.00    -0.244 OA
BRANCH   3   5
ATOM      5  C   UNL     1       1.346  -8.429   0.581  1.00  0.00     0.158 A 
ATOM      6  C   UNL     1       1.004  -7.221   0.086  1.00  0.00     0.136 A 
ATOM      7  C   UNL     1      -0.340  -7.183  -0.625  1.00  0.00     0.278 A 
ATOM      8  N   UNL     1       0.500  -9.514   0.493  1.00  0.00    -0.299 N 
ATOM      9  N   UNL     1      -1.166  -8.258  -0.455  1.00  0.00    -0.272 N 
ATOM     10  O   UNL     1      -0.686  -6.263  -1.361  1.00  0.00    -0.267 OA
ATOM     11  C   UNL     1      -0.778  -9.459   0.041  1.00  0.00     0.326 A 
ATOM     12  H   UNL     1       0.847 -10.390   0.777  1.00  0.00     0.172 HD
ATOM     13  H   UNL     1      -2.111  -8.153  -0.710  1.00  0.00     0.175 HD
ATOM     14  O   UNL     1      -1.516 -10.436   0.071  1.00  0.00    -0.248 OA
BRANCH   6  15
ATOM     15  N   UNL     1       1.807  -6.090   0.077  1.00  0.00    -0.349 N 
ATOM     16  H   UNL     1       2.754  -6.249  -0.138  1.00  0.00     0.167 HD
BRANCH  15  17
ATOM     17  C   UNL     1       1.465  -4.749   0.332  1.00  0.00     0.039 A 
ATOM     18  C   UNL     1       0.911  -2.020   0.774  1.00  0.00     0.119 A 
ATOM     19  C   UNL     1      -0.047  -2.990   1.059  1.00  0.00     0.048 A 
ATOM     20  C   UNL     1       2.155  -2.406   0.285  1.00  0.00     0.048 A 
ATOM     21  C   UNL     1       0.224  -4.341   0.826  1.00  0.00     0.030 A 
ATOM     22  C   UNL     1       2.423  -3.760   0.057  1.00  0.00     0.030 A 
BRANCH  18  23
ATOM     23  O   UNL     1       0.553  -0.729   1.048  1.00  0.00    -0.497 OA
ATOM     24  C   UNL     1       1.038   0.222   0.105  1.00  0.00     0.278 C 
ENDBRANCH  18  23
ENDBRANCH  15  17
ENDBRANCH   6  15
ENDBRANCH   3   5
ENDBRANCH   2   3
ENDBRANCH   1   2
BRANCH   1  25
ATOM     25  C   UNL     1       4.073  -7.573   4.061  1.00  0.00     0.275 C 
BRANCH  25  26
ATOM     26  O   UNL     1       3.333  -8.684   4.604  1.00  0.00    -0.458 OA
BRANCH  26  27
ATOM     27  C   UNL     1       1.992  -8.526   4.628  1.00  0.00     0.338 C 
ATOM     28  O   UNL     1       1.355  -7.553   4.253  1.00  0.00    -0.246 OA
BRANCH  27  29
ATOM     29  C   UNL     1       1.344  -9.790   5.004  1.00  0.00     0.060 A 
ATOM     30  C   UNL     1       0.632 -10.450   4.003  1.00  0.00     0.016 A 
ATOM     31  C   UNL     1       1.322 -10.267   6.315  1.00  0.00     0.016 A 
ATOM     32  C   UNL     1      -0.123 -11.577   4.297  1.00  0.00     0.010 A 
ATOM     33  C   UNL     1       0.569 -11.412   6.612  1.00  0.00     0.010 A 
ATOM     34  C   UNL     1      -0.175 -12.063   5.608  1.00  0.00    -0.014 A 
BRANCH  34  35
ATOM     35  C   UNL     1      -1.094 -13.188   5.920  1.00  0.00     0.031 A 
ATOM     36  C   UNL     1      -2.343 -12.928   6.714  1.00  0.00     0.074 A 
ATOM     37  C   UNL     1      -0.862 -14.416   5.421  1.00  0.00     0.049 A 
ATOM     38  N   UNL     1      -3.236 -13.776   7.160  1.00  0.00    -0.248 NA
ATOM     39  C   UNL     1      -2.625 -11.525   7.052  1.00  0.00     0.031 C 
ATOM     40  C   UNL     1       0.266 -14.780   4.565  1.00  0.00     0.029 A 
ATOM     41  N   UNL     1      -1.580 -15.579   5.540  1.00  0.00    -0.354 N 
ATOM     42  C   UNL     1      -4.159 -13.015   7.865  1.00  0.00     0.074 A 
ATOM     43  C   UNL     1      -3.718 -11.639   7.791  1.00  0.00     0.031 C 
ATOM     44  C   UNL     1       0.144 -16.067   4.203  1.00  0.00     0.029 A 
ATOM     45  C   UNL     1      -1.036 -16.635   4.851  1.00  0.00     0.049 A 
ATOM     46  H   UNL     1      -2.408 -15.650   6.069  1.00  0.00     0.167 HD
ATOM     47  C   UNL     1      -5.272 -13.430   8.516  1.00  0.00     0.037 A 
ATOM     48  C   UNL     1      -1.432 -17.919   4.769  1.00  0.00     0.037 A 
ATOM     49  C   UNL     1      -5.734 -14.793   8.550  1.00  0.00     0.049 A 
ATOM     50  C   UNL     1      -2.649 -18.363   5.533  1.00  0.00     0.074 A 
ATOM     51  C   UNL     1      -6.837 -15.319   9.200  1.00  0.00     0.029 A 
ATOM     52  N   UNL     1      -5.123 -15.847   7.885  1.00  0.00    -0.354 N 
ATOM     53  N   UNL     1      -3.471 -17.654   6.267  1.00  0.00    -0.248 NA
ATOM     54  C   UNL     1      -2.981 -19.794   5.473  1.00  0.00     0.031 C 
ATOM     55  C   UNL     1      -6.879 -16.695   8.949  1.00  0.00     0.029 A 
ATOM     56  C   UNL     1      -5.823 -17.020   8.113  1.00  0.00     0.049 A 
ATOM     57  H   UNL     1      -4.311 -15.771   7.333  1.00  0.00     0.167 HD
ATOM     58  C   UNL     1      -4.423 -18.543   6.744  1.00  0.00     0.074 A 
ATOM     59  C   UNL     1      -4.087 -19.845   6.203  1.00  0.00     0.031 C 
ATOM     60  C   UNL     1      -5.478 -18.305   7.561  1.00  0.00     0.037 A 
BRANCH  47  61
ATOM     61  C   UNL     1      -6.043 -12.397   9.283  1.00  0.00     0.064 A 
ATOM     62  C   UNL     1      -6.830 -11.430   8.641  1.00  0.00     0.173 A 
ATOM     63  C   UNL     1      -5.993 -12.379  10.685  1.00  0.00     0.173 A 
ATOM     64  F   UNL     1      -6.895 -11.393   7.302  1.00  0.00    -0.203 F 
ATOM     65  C   UNL     1      -7.515 -10.464   9.375  1.00  0.00     0.198 A 
ATOM     66  C   UNL     1      -6.700 -11.429  11.416  1.00  0.00     0.198 A 
ATOM     67  F   UNL     1      -5.256 -13.284  11.347  1.00  0.00    -0.203 F 
ATOM     68  F   UNL     1      -8.219  -9.517   8.740  1.00  0.00    -0.200 F 
ATOM     69  C   UNL     1      -7.453 -10.467  10.761  1.00  0.00     0.200 A 
ATOM     70  F   UNL     1      -6.645 -11.438  12.755  1.00  0.00    -0.200 F 
ATOM     71  F   UNL     1      -8.111  -9.535  11.465  1.00  0.00    -0.200 F 
ENDBRANCH  47  61
BRANCH  48  72
ATOM     72  C   UNL     1      -0.660 -18.880   3.941  1.00  0.00     0.064 A 
ATOM     73  C   UNL     1      -1.196 -19.400   2.755  1.00  0.00     0.173 A 
ATOM     74  C   UNL     1       0.628 -19.291   4.312  1.00  0.00     0.173 A 
ATOM     75  F   UNL     1      -2.436 -19.059   2.374  1.00  0.00    -0.203 F 
ATOM     76  C   UNL     1      -0.472 -20.298   1.973  1.00  0.00     0.198 A 
ATOM     77  C   UNL     1       1.361 -20.169   3.516  1.00  0.00     0.198 A 
ATOM     78  F   UNL     1       1.183 -18.827   5.441  1.00  0.00    -0.203 F 
ATOM     79  F   UNL     1      -1.020 -20.807   0.860  1.00  0.00    -0.200 F 
ATOM     80  C   UNL     1       0.808 -20.675   2.349  1.00  0.00     0.200 A 
ATOM     81  F   UNL     1       2.601 -20.523   3.879  1.00  0.00    -0.200 F 
ATOM     82  F   UNL     1       1.507 -21.531   1.592  1.00  0.00    -0.200 F 
ENDBRANCH  48  72
BRANCH  60  83
ATOM     83  C   UNL     1      -6.360 -19.469   7.894  1.00  0.00     0.064 A 
ATOM     84  C   UNL     1      -5.959 -20.455   8.806  1.00  0.00     0.173 A 
ATOM     85  C   UNL     1      -7.634 -19.583   7.316  1.00  0.00     0.173 A 
ATOM     86  F   UNL     1      -4.744 -20.397   9.371  1.00  0.00    -0.203 F 
ATOM     87  C   UNL     1      -6.794 -21.526   9.113  1.00  0.00     0.198 A 
ATOM     88  C   UNL     1      -8.475 -20.643   7.643  1.00  0.00     0.198 A 
ATOM     89  F   UNL     1      -8.064 -18.662   6.441  1.00  0.00    -0.203 F 
ATOM     90  F   UNL     1      -6.376 -22.479   9.958  1.00  0.00    -0.200 F 
ATOM     91  C   UNL     1      -8.052 -21.616   8.536  1.00  0.00     0.200 A 
ATOM     92  F   UNL     1      -9.693 -20.725   7.090  1.00  0.00    -0.200 F 
ATOM     93  F   UNL     1      -8.855 -22.647   8.834  1.00  0.00    -0.200 F 
ENDBRANCH  60  83
ENDBRANCH  34  35
ENDBRANCH  27  29
ENDBRANCH  26  27
ENDBRANCH  25  26
ENDBRANCH   1  25
TORSDOF 14
