REMARK SMILES COc1cccc([C@H]2CC(c3ccc(S(C)(=O)=O)cc3)=NN2c2ccc(C(=O)OCCOC(=O)c3ccc(-c4c5nc(c(-c6c(F)c(F)c(F)c(F)c6F)c6ccc([nH]6)c(-c6c(F)c(F)c(F)c(F)c6F)c6nc(c(-c7c(F)c(F)c(F)c(F)c7F)c7ccc4[nH]7)C=C6)C=C5)cc3)cc2)c1
REMARK SMILES IDX 30 1 29 2 27 3 28 4 26 5 23 6 24 7 99 8 25 9 98 10 22 11
REMARK SMILES IDX 8 12 9 13 10 14 21 15 7 16 3 17 4 18 100 19 5 20 6 21 2 22
REMARK SMILES IDX 1 23 11 24 12 25 20 26 13 27 19 28 14 29 15 30 16 31 17 32
REMARK SMILES IDX 18 33 31 34 32 35 33 36 34 37 35 38 36 39 97 40 37 41 96 42
REMARK SMILES IDX 38 43 39 44 40 45 90 46 41 47 95 48 89 49 91 50 42 51 94 52
REMARK SMILES IDX 88 53 87 54 43 56 75 57 55 58 74 59 56 60 59 61 73 62 92 63
REMARK SMILES IDX 57 64 58 65 72 67 93 68 60 69 44 70 45 71 53 72 46 73 47 74
REMARK SMILES IDX 51 75 54 76 48 77 49 78 52 79 50 80 76 81 77 82 85 83 78 84
REMARK SMILES IDX 79 85 83 86 86 87 80 88 81 89 84 90 82 91 61 92 62 93 70 94
REMARK SMILES IDX 63 95 64 96 68 97 71 98 65 99 66 100 69 101 67 102
REMARK H PARENT 91 55 59 66
REMARK Flexibility Score: inf
ROOT
ATOM      1  C   UNL     1       4.597   7.893   6.526  1.00  0.00     0.275 C 
ENDROOT
BRANCH   1   2
ATOM      2  O   UNL     1       4.830   6.491   6.269  1.00  0.00    -0.458 OA
BRANCH   2   3
ATOM      3  C   UNL     1       4.095   5.957   5.264  1.00  0.00     0.338 C 
ATOM      4  O   UNL     1       3.272   6.540   4.574  1.00  0.00    -0.246 OA
BRANCH   3   5
ATOM      5  C   UNL     1       4.469   4.548   5.024  1.00  0.00     0.060 A 
ATOM      6  C   UNL     1       4.957   1.840   4.428  1.00  0.00     0.060 A 
ATOM      7  C   UNL     1       4.977   2.807   3.422  1.00  0.00     0.029 A 
ATOM      8  C   UNL     1       4.728   2.258   5.748  1.00  0.00     0.029 A 
ATOM      9  C   UNL     1       4.691   4.135   3.710  1.00  0.00     0.018 A 
ATOM     10  C   UNL     1       4.510   3.610   6.055  1.00  0.00     0.018 A 
BRANCH   6  11
ATOM     11  N   UNL     1       5.115   0.504   4.088  1.00  0.00    -0.257 N 
ATOM     12  C   UNL     1       4.122  -0.533   4.368  1.00  0.00     0.144 C 
ATOM     13  C   UNL     1       4.648  -1.730   3.562  1.00  0.00     0.091 C 
ATOM     14  C   UNL     1       5.859  -1.111   2.922  1.00  0.00     0.071 C 
ATOM     15  N   UNL     1       6.079   0.133   3.205  1.00  0.00    -0.176 NA
BRANCH  12  16
ATOM     16  C   UNL     1       2.706  -0.118   3.984  1.00  0.00    -0.019 A 
ATOM     17  C   UNL     1       1.019   0.513   2.335  1.00  0.00     0.119 A 
ATOM     18  C   UNL     1       0.098   0.721   3.361  1.00  0.00     0.046 A 
ATOM     19  C   UNL     1       2.324   0.116   2.647  1.00  0.00     0.052 A 
ATOM     20  C   UNL     1       0.461   0.507   4.689  1.00  0.00     0.004 A 
ATOM     21  C   UNL     1       1.754   0.088   4.997  1.00  0.00     0.006 A 
BRANCH  17  22
ATOM     22  O   UNL     1       0.549   0.774   1.077  1.00  0.00    -0.497 OA
ATOM     23  C   UNL     1       1.160   0.038   0.024  1.00  0.00     0.278 C 
ENDBRANCH  17  22
ENDBRANCH  12  16
BRANCH  14  24
ATOM     24  C   UNL     1       6.777  -1.909   2.101  1.00  0.00    -0.002 A 
ATOM     25  C   UNL     1       8.136  -1.892   2.436  1.00  0.00     0.011 A 
ATOM     26  C   UNL     1       6.309  -2.698   1.048  1.00  0.00     0.011 A 
ATOM     27  C   UNL     1       9.032  -2.703   1.742  1.00  0.00     0.021 A 
ATOM     28  C   UNL     1       7.210  -3.490   0.331  1.00  0.00     0.021 A 
ATOM     29  C   UNL     1       8.564  -3.497   0.690  1.00  0.00     0.067 A 
BRANCH  29  30
ATOM     30  S   UNL     1       9.702  -4.577  -0.147  1.00  0.00     0.175 S 
ATOM     31  C   UNL     1      10.923  -3.493  -0.838  1.00  0.00     0.163 C 
ATOM     32  O   UNL     1      10.333  -5.385   0.878  1.00  0.00    -0.224 OA
ATOM     33  O   UNL     1       8.988  -5.193  -1.250  1.00  0.00    -0.224 OA
ENDBRANCH  29  30
ENDBRANCH  14  24
ENDBRANCH   6  11
ENDBRANCH   3   5
ENDBRANCH   2   3
ENDBRANCH   1   2
BRANCH   1  34
ATOM     34  C   UNL     1       5.661   8.771   5.867  1.00  0.00     0.275 C 
BRANCH  34  35
ATOM     35  O   UNL     1       5.553   8.698   4.433  1.00  0.00    -0.458 OA
BRANCH  35  36
ATOM     36  C   UNL     1       6.631   8.194   3.792  1.00  0.00     0.338 C 
ATOM     37  O   UNL     1       7.692   7.843   4.280  1.00  0.00    -0.246 OA
BRANCH  36  38
ATOM     38  C   UNL     1       6.359   8.078   2.350  1.00  0.00     0.060 A 
ATOM     39  C   UNL     1       5.363   7.212   1.918  1.00  0.00     0.016 A 
ATOM     40  C   UNL     1       7.207   8.675   1.421  1.00  0.00     0.016 A 
ATOM     41  C   UNL     1       5.313   6.808   0.586  1.00  0.00     0.010 A 
ATOM     42  C   UNL     1       7.054   8.385   0.059  1.00  0.00     0.010 A 
ATOM     43  C   UNL     1       6.142   7.404  -0.374  1.00  0.00    -0.014 A 
BRANCH  43  44
ATOM     44  C   UNL     1       6.071   6.989  -1.810  1.00  0.00     0.031 A 
ATOM     45  C   UNL     1       7.316   6.551  -2.543  1.00  0.00     0.074 A 
ATOM     46  C   UNL     1       4.893   6.993  -2.469  1.00  0.00     0.049 A 
ATOM     47  N   UNL     1       7.500   6.352  -3.826  1.00  0.00    -0.248 NA
ATOM     48  C   UNL     1       8.521   6.323  -1.730  1.00  0.00     0.031 C 
ATOM     49  C   UNL     1       3.596   7.346  -1.889  1.00  0.00     0.029 A 
ATOM     50  N   UNL     1       4.593   6.683  -3.775  1.00  0.00    -0.354 N 
ATOM     51  C   UNL     1       8.847   6.045  -3.978  1.00  0.00     0.074 A 
ATOM     52  C   UNL     1       9.438   6.085  -2.657  1.00  0.00     0.031 C 
ATOM     53  C   UNL     1       2.639   7.186  -2.813  1.00  0.00     0.029 A 
ATOM     54  C   UNL     1       3.261   6.829  -4.081  1.00  0.00     0.049 A 
ATOM     55  H   UNL     1       5.267   6.386  -4.427  1.00  0.00     0.167 HD
ATOM     56  C   UNL     1       9.528   5.758  -5.114  1.00  0.00     0.037 A 
ATOM     57  C   UNL     1       2.611   6.741  -5.257  1.00  0.00     0.037 A 
ATOM     58  C   UNL     1       8.925   5.651  -6.419  1.00  0.00     0.049 A 
ATOM     59  C   UNL     1       3.391   6.449  -6.507  1.00  0.00     0.074 A 
ATOM     60  C   UNL     1       9.527   5.340  -7.627  1.00  0.00     0.029 A 
ATOM     61  N   UNL     1       7.576   5.836  -6.684  1.00  0.00    -0.354 N 
ATOM     62  N   UNL     1       4.673   6.219  -6.646  1.00  0.00    -0.248 NA
ATOM     63  C   UNL     1       2.635   6.427  -7.767  1.00  0.00     0.031 C 
ATOM     64  C   UNL     1       8.550   5.374  -8.627  1.00  0.00     0.029 A 
ATOM     65  C   UNL     1       7.330   5.658  -8.037  1.00  0.00     0.049 A 
ATOM     66  H   UNL     1       6.894   6.059  -6.010  1.00  0.00     0.167 HD
ATOM     67  C   UNL     1       4.877   6.014  -8.003  1.00  0.00     0.074 A 
ATOM     68  C   UNL     1       3.583   6.123  -8.642  1.00  0.00     0.031 C 
ATOM     69  C   UNL     1       6.036   5.764  -8.659  1.00  0.00     0.037 A 
BRANCH  56  70
ATOM     70  C   UNL     1      11.016   5.570  -5.012  1.00  0.00     0.064 A 
ATOM     71  C   UNL     1      11.586   4.434  -4.420  1.00  0.00     0.173 A 
ATOM     72  C   UNL     1      11.885   6.527  -5.561  1.00  0.00     0.173 A 
ATOM     73  F   UNL     1      10.804   3.492  -3.873  1.00  0.00    -0.203 F 
ATOM     74  C   UNL     1      12.970   4.276  -4.358  1.00  0.00     0.198 A 
ATOM     75  C   UNL     1      13.266   6.352  -5.524  1.00  0.00     0.198 A 
ATOM     76  F   UNL     1      11.393   7.628  -6.150  1.00  0.00    -0.203 F 
ATOM     77  F   UNL     1      13.493   3.203  -3.749  1.00  0.00    -0.200 F 
ATOM     78  C   UNL     1      13.807   5.231  -4.916  1.00  0.00     0.200 A 
ATOM     79  F   UNL     1      14.072   7.268  -6.080  1.00  0.00    -0.200 F 
ATOM     80  F   UNL     1      15.137   5.071  -4.864  1.00  0.00    -0.200 F 
ENDBRANCH  56  70
BRANCH  57  81
ATOM     81  C   UNL     1       1.144   6.982  -5.310  1.00  0.00     0.064 A 
ATOM     82  C   UNL     1       0.252   5.945  -5.611  1.00  0.00     0.173 A 
ATOM     83  C   UNL     1       0.605   8.252  -5.049  1.00  0.00     0.173 A 
ATOM     84  F   UNL     1       0.720   4.721  -5.897  1.00  0.00    -0.203 F 
ATOM     85  C   UNL     1      -1.123   6.170  -5.657  1.00  0.00     0.198 A 
ATOM     86  C   UNL     1      -0.771   8.467  -5.061  1.00  0.00     0.198 A 
ATOM     87  F   UNL     1       1.415   9.280  -4.758  1.00  0.00    -0.203 F 
ATOM     88  F   UNL     1      -1.952   5.171  -5.990  1.00  0.00    -0.200 F 
ATOM     89  C   UNL     1      -1.634   7.428  -5.372  1.00  0.00     0.200 A 
ATOM     90  F   UNL     1      -1.260   9.680  -4.769  1.00  0.00    -0.200 F 
ATOM     91  F   UNL     1      -2.956   7.640  -5.405  1.00  0.00    -0.200 F 
ENDBRANCH  57  81
BRANCH  69  92
ATOM     92  C   UNL     1       5.949   5.556 -10.142  1.00  0.00     0.064 A 
ATOM     93  C   UNL     1       5.707   6.621 -11.022  1.00  0.00     0.173 A 
ATOM     94  C   UNL     1       6.132   4.277 -10.690  1.00  0.00     0.173 A 
ATOM     95  F   UNL     1       5.507   7.859 -10.544  1.00  0.00    -0.203 F 
ATOM     96  C   UNL     1       5.627   6.409 -12.396  1.00  0.00     0.198 A 
ATOM     97  C   UNL     1       6.079   4.074 -12.066  1.00  0.00     0.198 A 
ATOM     98  F   UNL     1       6.370   3.226  -9.891  1.00  0.00    -0.203 F 
ATOM     99  F   UNL     1       5.346   7.432 -13.214  1.00  0.00    -0.200 F 
ATOM    100  C   UNL     1       5.819   5.138 -12.917  1.00  0.00     0.200 A 
ATOM    101  F   UNL     1       6.275   2.847 -12.569  1.00  0.00    -0.200 F 
ATOM    102  F   UNL     1       5.744   4.936 -14.239  1.00  0.00    -0.200 F 
ENDBRANCH  69  92
ENDBRANCH  43  44
ENDBRANCH  36  38
ENDBRANCH  35  36
ENDBRANCH  34  35
ENDBRANCH   1  34
TORSDOF 16
