REMARK SMILES CCC(CC)(CC(=O)NNC(=O)c1cc(C)oc1C)C(=O)OCCOC(=O)c1ccc(-c2c3nc(c(-c4c(F)c(F)c(F)c(F)c4F)c4ccc([nH]4)c(-c4c(F)c(F)c(F)c(F)c4F)c4nc(c(-c5c(F)c(F)c(F)c(F)c5F)c5ccc2[nH]5)C=C4)C=C3)cc1
REMARK SMILES IDX 23 1 22 2 20 3 21 4 3 5 2 6 1 7 4 8 5 9 6 10 7 11 8 12 9 13
REMARK SMILES IDX 10 15 11 16 12 18 13 19 14 20 18 21 15 22 17 23 19 24 16 25
REMARK SMILES IDX 24 26 25 27 26 28 27 29 28 30 29 31 90 32 30 33 89 34 31 35
REMARK SMILES IDX 32 36 33 37 83 38 34 39 88 40 82 41 84 42 35 43 87 44 81 45
REMARK SMILES IDX 80 46 36 48 68 49 48 50 67 51 49 52 52 53 66 54 85 55 50 56
REMARK SMILES IDX 51 57 65 59 86 60 53 61 37 62 38 63 46 64 39 65 40 66 44 67
REMARK SMILES IDX 47 68 41 69 42 70 45 71 43 72 69 73 70 74 78 75 71 76 72 77
REMARK SMILES IDX 76 78 79 79 73 80 74 81 77 82 75 83 54 84 55 85 63 86 56 87
REMARK SMILES IDX 57 88 61 89 64 90 58 91 59 92 62 93 60 94
REMARK H PARENT 9 14 10 17 84 47 52 58
REMARK Flexibility Score: inf
ROOT
ATOM      1  C   UNL     1       4.296   3.414  -0.819  1.00  0.00     0.274 C 
ENDROOT
BRANCH   1   2
ATOM      2  O   UNL     1       2.854   3.457  -0.765  1.00  0.00    -0.462 OA
BRANCH   2   3
ATOM      3  C   UNL     1       2.227   2.253  -0.713  1.00  0.00     0.312 C 
ATOM      4  O   UNL     1       2.818   1.181  -0.737  1.00  0.00    -0.252 OA
BRANCH   3   5
ATOM      5  C   UNL     1       0.689   2.380  -0.744  1.00  0.00     0.076 C 
BRANCH   5   6
ATOM      6  C   UNL     1       0.030   1.132  -0.077  1.00  0.00     0.016 C 
ATOM      7  C   UNL     1       0.241  -0.234  -0.725  1.00  0.00     0.005 C 
ENDBRANCH   5   6
BRANCH   5   8
ATOM      8  C   UNL     1       0.309   2.476  -2.249  1.00  0.00     0.016 C 
ATOM      9  C   UNL     1      -1.187   2.505  -2.544  1.00  0.00     0.005 C 
ENDBRANCH   5   8
BRANCH   5  10
ATOM     10  C   UNL     1       0.204   3.671  -0.016  1.00  0.00     0.120 C 
BRANCH  10  11
ATOM     11  C   UNL     1       0.748   3.883   1.388  1.00  0.00     0.239 C 
ATOM     12  O   UNL     1       1.753   4.564   1.584  1.00  0.00    -0.273 OA
ATOM     13  N   UNL     1       0.115   3.319   2.462  1.00  0.00    -0.267 N 
ATOM     14  H   UNL     1       0.560   3.389   3.338  1.00  0.00     0.191 HD
BRANCH  13  15
ATOM     15  N   UNL     1      -1.110   2.654   2.416  1.00  0.00    -0.263 N 
ATOM     16  C   UNL     1      -1.531   1.698   3.324  1.00  0.00     0.273 C 
ATOM     17  H   UNL     1      -1.723   2.882   1.681  1.00  0.00     0.191 HD
ATOM     18  O   UNL     1      -2.334   0.849   2.937  1.00  0.00    -0.267 OA
BRANCH  16  19
ATOM     19  C   UNL     1      -1.049   1.751   4.692  1.00  0.00     0.082 A 
ATOM     20  C   UNL     1      -0.539   2.849   5.446  1.00  0.00     0.059 A 
ATOM     21  C   UNL     1      -1.117   0.697   5.592  1.00  0.00     0.113 A 
ATOM     22  C   UNL     1      -0.263   2.381   6.707  1.00  0.00     0.101 A 
ATOM     23  O   UNL     1      -0.620   1.075   6.803  1.00  0.00    -0.466 OA
ATOM     24  C   UNL     1      -1.637  -0.689   5.502  1.00  0.00     0.088 C 
ATOM     25  C   UNL     1       0.294   3.018   7.914  1.00  0.00     0.087 C 
ENDBRANCH  16  19
ENDBRANCH  13  15
ENDBRANCH  10  11
ENDBRANCH   5  10
ENDBRANCH   3   5
ENDBRANCH   2   3
ENDBRANCH   1   2
BRANCH   1  26
ATOM     26  C   UNL     1       4.933   3.377   0.572  1.00  0.00     0.275 C 
BRANCH  26  27
ATOM     27  O   UNL     1       4.581   2.161   1.257  1.00  0.00    -0.458 OA
BRANCH  27  28
ATOM     28  C   UNL     1       4.307   2.295   2.573  1.00  0.00     0.338 C 
ATOM     29  O   UNL     1       4.387   3.303   3.254  1.00  0.00    -0.246 OA
BRANCH  28  30
ATOM     30  C   UNL     1       3.864   1.012   3.151  1.00  0.00     0.060 A 
ATOM     31  C   UNL     1       2.695   0.413   2.696  1.00  0.00     0.016 A 
ATOM     32  C   UNL     1       4.500   0.518   4.290  1.00  0.00     0.016 A 
ATOM     33  C   UNL     1       2.086  -0.589   3.454  1.00  0.00     0.010 A 
ATOM     34  C   UNL     1       3.939  -0.556   4.993  1.00  0.00     0.010 A 
ATOM     35  C   UNL     1       2.684  -1.073   4.633  1.00  0.00    -0.014 A 
BRANCH  35  36
ATOM     36  C   UNL     1       1.940  -2.038   5.505  1.00  0.00     0.031 A 
ATOM     37  C   UNL     1       1.544  -1.664   6.920  1.00  0.00     0.074 A 
ATOM     38  C   UNL     1       1.497  -3.210   5.005  1.00  0.00     0.049 A 
ATOM     39  N   UNL     1       0.748  -2.304   7.748  1.00  0.00    -0.248 NA
ATOM     40  C   UNL     1       2.079  -0.410   7.470  1.00  0.00     0.031 C 
ATOM     41  C   UNL     1       1.777  -3.719   3.662  1.00  0.00     0.029 A 
ATOM     42  N   UNL     1       0.689  -4.176   5.562  1.00  0.00    -0.354 N 
ATOM     43  C   UNL     1       0.605  -1.473   8.854  1.00  0.00     0.074 A 
ATOM     44  C   UNL     1       1.506  -0.361   8.665  1.00  0.00     0.031 C 
ATOM     45  C   UNL     1       1.122  -4.877   3.485  1.00  0.00     0.029 A 
ATOM     46  C   UNL     1       0.418  -5.225   4.717  1.00  0.00     0.049 A 
ATOM     47  H   UNL     1       0.339  -4.120   6.480  1.00  0.00     0.167 HD
ATOM     48  C   UNL     1      -0.258  -1.571   9.892  1.00  0.00     0.037 A 
ATOM     49  C   UNL     1      -0.300  -6.350   4.909  1.00  0.00     0.037 A 
ATOM     50  C   UNL     1      -1.143  -2.674  10.136  1.00  0.00     0.049 A 
ATOM     51  C   UNL     1      -1.001  -6.576   6.221  1.00  0.00     0.074 A 
ATOM     52  C   UNL     1      -2.034  -2.848  11.180  1.00  0.00     0.029 A 
ATOM     53  N   UNL     1      -1.230  -3.800   9.339  1.00  0.00    -0.354 N 
ATOM     54  N   UNL     1      -1.179  -5.748   7.219  1.00  0.00    -0.248 NA
ATOM     55  C   UNL     1      -1.595  -7.905   6.434  1.00  0.00     0.031 C 
ATOM     56  C   UNL     1      -2.623  -4.109  11.045  1.00  0.00     0.029 A 
ATOM     57  C   UNL     1      -2.118  -4.703   9.900  1.00  0.00     0.049 A 
ATOM     58  H   UNL     1      -0.735  -3.939   8.500  1.00  0.00     0.167 HD
ATOM     59  C   UNL     1      -1.938  -6.438   8.156  1.00  0.00     0.074 A 
ATOM     60  C   UNL     1      -2.190  -7.753   7.609  1.00  0.00     0.031 C 
ATOM     61  C   UNL     1      -2.386  -6.009   9.361  1.00  0.00     0.037 A 
BRANCH  48  62
ATOM     62  C   UNL     1      -0.337  -0.412  10.835  1.00  0.00     0.064 A 
ATOM     63  C   UNL     1      -1.202   0.659  10.565  1.00  0.00     0.173 A 
ATOM     64  C   UNL     1       0.385  -0.395  12.033  1.00  0.00     0.173 A 
ATOM     65  F   UNL     1      -1.930   0.673   9.439  1.00  0.00    -0.203 F 
ATOM     66  C   UNL     1      -1.317   1.725  11.451  1.00  0.00     0.198 A 
ATOM     67  C   UNL     1       0.255   0.666  12.925  1.00  0.00     0.198 A 
ATOM     68  F   UNL     1       1.208  -1.408  12.340  1.00  0.00    -0.203 F 
ATOM     69  F   UNL     1      -2.123   2.756  11.158  1.00  0.00    -0.200 F 
ATOM     70  C   UNL     1      -0.590   1.727  12.631  1.00  0.00     0.200 A 
ATOM     71  F   UNL     1       0.948   0.664  14.072  1.00  0.00    -0.200 F 
ATOM     72  F   UNL     1      -0.702   2.754  13.485  1.00  0.00    -0.200 F 
ENDBRANCH  48  62
BRANCH  49  73
ATOM     73  C   UNL     1      -0.371  -7.383   3.841  1.00  0.00     0.064 A 
ATOM     74  C   UNL     1      -1.587  -7.718   3.229  1.00  0.00     0.173 A 
ATOM     75  C   UNL     1       0.772  -8.097   3.451  1.00  0.00     0.173 A 
ATOM     76  F   UNL     1      -2.716  -7.090   3.592  1.00  0.00    -0.203 F 
ATOM     77  C   UNL     1      -1.659  -8.738   2.282  1.00  0.00     0.198 A 
ATOM     78  C   UNL     1       0.705  -9.094   2.481  1.00  0.00     0.198 A 
ATOM     79  F   UNL     1       1.958  -7.828   4.017  1.00  0.00    -0.203 F 
ATOM     80  F   UNL     1      -2.843  -9.078   1.754  1.00  0.00    -0.200 F 
ATOM     81  C   UNL     1      -0.512  -9.421   1.904  1.00  0.00     0.200 A 
ATOM     82  F   UNL     1       1.818  -9.745   2.115  1.00  0.00    -0.200 F 
ATOM     83  F   UNL     1      -0.582 -10.404   0.997  1.00  0.00    -0.200 F 
ENDBRANCH  49  73
BRANCH  61  84
ATOM     84  C   UNL     1      -3.224  -6.952  10.172  1.00  0.00     0.064 A 
ATOM     85  C   UNL     1      -2.665  -8.078  10.794  1.00  0.00     0.173 A 
ATOM     86  C   UNL     1      -4.593  -6.707  10.366  1.00  0.00     0.173 A 
ATOM     87  F   UNL     1      -1.365  -8.365  10.628  1.00  0.00    -0.203 F 
ATOM     88  C   UNL     1      -3.449  -8.936  11.561  1.00  0.00     0.198 A 
ATOM     89  C   UNL     1      -5.367  -7.550  11.158  1.00  0.00     0.198 A 
ATOM     90  F   UNL     1      -5.176  -5.641   9.800  1.00  0.00    -0.203 F 
ATOM     91  F   UNL     1      -2.903 -10.031  12.107  1.00  0.00    -0.200 F 
ATOM     92  C   UNL     1      -4.797  -8.667  11.749  1.00  0.00     0.200 A 
ATOM     93  F   UNL     1      -6.666  -7.280  11.352  1.00  0.00    -0.200 F 
ATOM     94  F   UNL     1      -5.548  -9.490  12.495  1.00  0.00    -0.200 F 
ENDBRANCH  61  84
ENDBRANCH  35  36
ENDBRANCH  28  30
ENDBRANCH  27  28
ENDBRANCH  26  27
ENDBRANCH   1  26
TORSDOF 17
