REMARK SMILES C=CC[N@@H+](CC(=O)OCCOC(=O)c1ccc(-c2c3nc(c(-c4c(F)c(F)c(F)c(F)c4F)c4ccc([nH]4)c(-c4c(F)c(F)c(F)c(F)c4F)c4nc(c(-c5c(F)c(F)c(F)c(F)c5F)c5ccc2[nH]5)C=C4)C=C3)cc1)[C@@H](C)[C@@H](C)O
REMARK SMILES IDX 9 1 8 2 6 3 7 4 5 5 4 6 3 8 2 9 1 10 77 11 78 12 79 13 80 14
REMARK SMILES IDX 81 15 10 17 11 18 12 19 13 20 14 21 15 22 76 23 16 24 75 25
REMARK SMILES IDX 17 26 18 27 19 28 69 29 20 30 74 31 68 32 70 33 21 34 73 35
REMARK SMILES IDX 67 36 66 37 22 39 54 40 34 41 53 42 35 43 38 44 52 45 71 46
REMARK SMILES IDX 36 47 37 48 51 50 72 51 39 52 23 53 24 54 32 55 25 56 26 57
REMARK SMILES IDX 30 58 33 59 27 60 28 61 31 62 29 63 55 64 56 65 64 66 57 67
REMARK SMILES IDX 58 68 62 69 65 70 59 71 60 72 63 73 61 74 40 75 41 76 49 77
REMARK SMILES IDX 42 78 43 79 47 80 50 81 44 82 45 83 48 84 46 85
REMARK H PARENT 4 7 81 16 70 38 38 49
REMARK Flexibility Score: inf
ROOT
ATOM      1  C   UNL     1      -4.140  -1.514   0.515  1.00  0.00     0.274 C 
ENDROOT
BRANCH   1   2
ATOM      2  O   UNL     1      -3.081  -0.536   0.444  1.00  0.00    -0.458 OA
BRANCH   2   3
ATOM      3  C   UNL     1      -3.456   0.762   0.553  1.00  0.00     0.361 C 
ATOM      4  O   UNL     1      -4.617   1.124   0.734  1.00  0.00    -0.245 OA
BRANCH   3   5
ATOM      5  C   UNL     1      -2.339   1.786   0.376  1.00  0.00     0.387 C 
BRANCH   5   6
ATOM      6  N   UNL     1      -0.936   1.345   0.465  1.00  0.00    -0.318 N 
ATOM      7  H   UNL     1      -0.372   2.177   0.294  1.00  0.00     0.349 HD
BRANCH   6   8
ATOM      8  C   UNL     1      -0.490   0.520  -0.648  1.00  0.00     0.291 C 
BRANCH   8   9
ATOM      9  C   UNL     1       0.976   0.698  -0.918  1.00  0.00     0.025 C 
ATOM     10  C   UNL     1       1.869  -0.299  -0.937  1.00  0.00     0.010 C 
ENDBRANCH   8   9
ENDBRANCH   6   8
BRANCH   6  11
ATOM     11  C   UNL     1      -0.456   1.042   1.827  1.00  0.00     0.210 C 
ATOM     12  C   UNL     1      -0.085  -0.426   2.098  1.00  0.00     0.078 C 
BRANCH  11  13
ATOM     13  C   UNL     1       0.761   1.945   2.224  1.00  0.00     0.169 C 
ATOM     14  C   UNL     1       0.546   3.433   1.960  1.00  0.00     0.045 C 
BRANCH  13  15
ATOM     15  O   UNL     1       1.055   1.800   3.621  1.00  0.00    -0.387 OA
ATOM     16  H   UNL     1       0.302   2.114   4.145  1.00  0.00     0.211 HD
ENDBRANCH  13  15
ENDBRANCH  11  13
ENDBRANCH   6  11
ENDBRANCH   5   6
ENDBRANCH   3   5
ENDBRANCH   2   3
ENDBRANCH   1   2
BRANCH   1  17
ATOM     17  C   UNL     1      -4.276  -2.121   1.912  1.00  0.00     0.275 C 
BRANCH  17  18
ATOM     18  O   UNL     1      -4.728  -1.140   2.865  1.00  0.00    -0.458 OA
BRANCH  18  19
ATOM     19  C   UNL     1      -3.749  -0.617   3.628  1.00  0.00     0.338 C 
ATOM     20  O   UNL     1      -2.562  -0.909   3.625  1.00  0.00    -0.246 OA
BRANCH  19  21
ATOM     21  C   UNL     1      -4.252   0.425   4.520  1.00  0.00     0.060 A 
ATOM     22  C   UNL     1      -4.181   1.757   4.110  1.00  0.00     0.016 A 
ATOM     23  C   UNL     1      -4.562   0.092   5.840  1.00  0.00     0.016 A 
ATOM     24  C   UNL     1      -4.385   2.770   5.040  1.00  0.00     0.010 A 
ATOM     25  C   UNL     1      -4.798   1.110   6.765  1.00  0.00     0.010 A 
ATOM     26  C   UNL     1      -4.686   2.453   6.375  1.00  0.00    -0.014 A 
BRANCH  26  27
ATOM     27  C   UNL     1      -4.925   3.548   7.341  1.00  0.00     0.031 A 
ATOM     28  C   UNL     1      -3.904   3.904   8.379  1.00  0.00     0.074 A 
ATOM     29  C   UNL     1      -6.070   4.245   7.237  1.00  0.00     0.049 A 
ATOM     30  N   UNL     1      -3.947   4.847   9.287  1.00  0.00    -0.248 NA
ATOM     31  C   UNL     1      -2.673   3.099   8.406  1.00  0.00     0.031 C 
ATOM     32  C   UNL     1      -7.123   3.980   6.255  1.00  0.00     0.029 A 
ATOM     33  N   UNL     1      -6.531   5.323   7.944  1.00  0.00    -0.354 N 
ATOM     34  C   UNL     1      -2.763   4.740  10.004  1.00  0.00     0.074 A 
ATOM     35  C   UNL     1      -2.021   3.636   9.430  1.00  0.00     0.031 C 
ATOM     36  C   UNL     1      -8.090   4.897   6.396  1.00  0.00     0.029 A 
ATOM     37  C   UNL     1      -7.744   5.785   7.501  1.00  0.00     0.049 A 
ATOM     38  H   UNL     1      -6.040   5.726   8.697  1.00  0.00     0.167 HD
ATOM     39  C   UNL     1      -2.342   5.497  11.046  1.00  0.00     0.037 A 
ATOM     40  C   UNL     1      -8.494   6.811   7.939  1.00  0.00     0.037 A 
ATOM     41  C   UNL     1      -3.086   6.598  11.604  1.00  0.00     0.049 A 
ATOM     42  C   UNL     1      -7.993   7.643   9.082  1.00  0.00     0.074 A 
ATOM     43  C   UNL     1      -2.752   7.419  12.668  1.00  0.00     0.029 A 
ATOM     44  N   UNL     1      -4.317   7.035  11.135  1.00  0.00    -0.354 N 
ATOM     45  N   UNL     1      -6.877   7.525   9.759  1.00  0.00    -0.248 NA
ATOM     46  C   UNL     1      -8.855   8.746   9.523  1.00  0.00     0.031 C 
ATOM     47  C   UNL     1      -3.793   8.337  12.858  1.00  0.00     0.029 A 
ATOM     48  C   UNL     1      -4.759   8.110  11.892  1.00  0.00     0.049 A 
ATOM     49  H   UNL     1      -4.805   6.641  10.377  1.00  0.00     0.167 HD
ATOM     50  C   UNL     1      -6.899   8.538  10.706  1.00  0.00     0.074 A 
ATOM     51  C   UNL     1      -8.128   9.278  10.495  1.00  0.00     0.031 C 
ATOM     52  C   UNL     1      -5.990   8.823  11.669  1.00  0.00     0.037 A 
BRANCH  39  53
ATOM     53  C   UNL     1      -1.026   5.145  11.674  1.00  0.00     0.064 A 
ATOM     54  C   UNL     1       0.192   5.469  11.060  1.00  0.00     0.173 A 
ATOM     55  C   UNL     1      -0.984   4.522  12.931  1.00  0.00     0.173 A 
ATOM     56  F   UNL     1       0.204   6.054   9.853  1.00  0.00    -0.203 F 
ATOM     57  C   UNL     1       1.406   5.171  11.676  1.00  0.00     0.198 A 
ATOM     58  C   UNL     1       0.231   4.243  13.553  1.00  0.00     0.198 A 
ATOM     59  F   UNL     1      -2.122   4.196  13.562  1.00  0.00    -0.203 F 
ATOM     60  F   UNL     1       2.559   5.465  11.060  1.00  0.00    -0.200 F 
ATOM     61  C   UNL     1       1.424   4.564  12.924  1.00  0.00     0.200 A 
ATOM     62  F   UNL     1       0.246   3.666  14.762  1.00  0.00    -0.200 F 
ATOM     63  F   UNL     1       2.592   4.287  13.519  1.00  0.00    -0.200 F 
ENDBRANCH  39  53
BRANCH  40  64
ATOM     64  C   UNL     1      -9.782   7.107   7.268  1.00  0.00     0.064 A 
ATOM     65  C   UNL     1      -9.921   8.228   6.441  1.00  0.00     0.173 A 
ATOM     66  C   UNL     1     -10.882   6.246   7.398  1.00  0.00     0.173 A 
ATOM     67  F   UNL     1      -8.900   9.087   6.300  1.00  0.00    -0.203 F 
ATOM     68  C   UNL     1     -11.114   8.480   5.769  1.00  0.00     0.198 A 
ATOM     69  C   UNL     1     -12.066   6.485   6.706  1.00  0.00     0.198 A 
ATOM     70  F   UNL     1     -10.792   5.155   8.173  1.00  0.00    -0.203 F 
ATOM     71  F   UNL     1     -11.231   9.572   5.001  1.00  0.00    -0.200 F 
ATOM     72  C   UNL     1     -12.182   7.603   5.894  1.00  0.00     0.200 A 
ATOM     73  F   UNL     1     -13.089   5.627   6.817  1.00  0.00    -0.200 F 
ATOM     74  F   UNL     1     -13.324   7.837   5.234  1.00  0.00    -0.200 F 
ENDBRANCH  40  64
BRANCH  52  75
ATOM     75  C   UNL     1      -6.301   9.987  12.560  1.00  0.00     0.064 A 
ATOM     76  C   UNL     1      -7.270   9.891  13.569  1.00  0.00     0.173 A 
ATOM     77  C   UNL     1      -5.628  11.206  12.402  1.00  0.00     0.173 A 
ATOM     78  F   UNL     1      -7.952   8.748  13.744  1.00  0.00    -0.203 F 
ATOM     79  C   UNL     1      -7.575  10.986  14.371  1.00  0.00     0.198 A 
ATOM     80  C   UNL     1      -5.921  12.293  13.219  1.00  0.00     0.198 A 
ATOM     81  F   UNL     1      -4.693  11.344  11.450  1.00  0.00    -0.203 F 
ATOM     82  F   UNL     1      -8.538  10.889  15.298  1.00  0.00    -0.200 F 
ATOM     83  C   UNL     1      -6.899  12.185  14.197  1.00  0.00     0.200 A 
ATOM     84  F   UNL     1      -5.266  13.450  13.053  1.00  0.00    -0.200 F 
ATOM     85  F   UNL     1      -7.200  13.242  14.965  1.00  0.00    -0.200 F 
ENDBRANCH  52  75
ENDBRANCH  26  27
ENDBRANCH  19  21
ENDBRANCH  18  19
ENDBRANCH  17  18
ENDBRANCH   1  17
TORSDOF 17
