REMARK SMILES Cc1ccc(C(=O)OCCOC(=O)c2ccc(-c3c4nc(c(-c5c(F)c(F)c(F)c(F)c5F)c5ccc([nH]5)c(-c5c(F)c(F)c(F)c(F)c5F)c5nc(c(-c6c(F)c(F)c(F)c(F)c6F)c6ccc3[nH]6)C=C5)C=C4)cc2)cc1N1C(=O)/C(=C/c2ccc([N+](=O)[O-])cc2)SC1=S
REMARK SMILES IDX 9 1 8 2 6 3 7 4 5 5 1 6 2 7 3 8 78 9 4 10 77 11 79 12 80 13
REMARK SMILES IDX 94 14 81 15 82 16 93 17 95 18 83 19 84 20 85 21 92 22 86 23
REMARK SMILES IDX 91 24 87 25 88 26 89 27 90 28 10 29 11 30 12 31 13 32 14 33
REMARK SMILES IDX 15 34 76 35 16 36 75 37 17 38 18 39 19 40 69 41 20 42 74 43
REMARK SMILES IDX 68 44 70 45 21 46 73 47 67 48 66 49 22 51 54 52 34 53 53 54
REMARK SMILES IDX 35 55 38 56 52 57 71 58 36 59 37 60 51 62 72 63 39 64 23 65
REMARK SMILES IDX 24 66 32 67 25 68 26 69 30 70 33 71 27 72 28 73 31 74 29 75
REMARK SMILES IDX 55 76 56 77 64 78 57 79 58 80 62 81 65 82 59 83 60 84 63 85
REMARK SMILES IDX 61 86 40 87 41 88 49 89 42 90 43 91 47 92 50 93 44 94 45 95
REMARK SMILES IDX 48 96 46 97
REMARK H PARENT 70 50 38 61
REMARK Flexibility Score: inf
ROOT
ATOM      1  C   UNL     1      -4.582   1.598  -2.500  1.00  0.00     0.275 C 
ENDROOT
BRANCH   1   2
ATOM      2  O   UNL     1      -3.325   0.953  -2.265  1.00  0.00    -0.458 OA
BRANCH   2   3
ATOM      3  C   UNL     1      -2.684   1.490  -1.195  1.00  0.00     0.338 C 
ATOM      4  O   UNL     1      -3.104   2.394  -0.485  1.00  0.00    -0.246 OA
BRANCH   3   5
ATOM      5  C   UNL     1      -1.314   0.973  -1.032  1.00  0.00     0.062 A 
ATOM      6  C   UNL     1       2.800  -0.182  -0.390  1.00  0.00     0.046 C 
ATOM      7  C   UNL     1       1.388   0.258  -0.657  1.00  0.00    -0.027 A 
ATOM      8  C   UNL     1       0.416  -0.714  -0.953  1.00  0.00     0.006 A 
ATOM      9  C   UNL     1       0.982   1.599  -0.605  1.00  0.00     0.054 A 
ATOM     10  C   UNL     1      -0.914  -0.349  -1.209  1.00  0.00     0.016 A 
ATOM     11  C   UNL     1      -0.370   1.933  -0.694  1.00  0.00     0.042 A 
BRANCH   9  12
ATOM     12  N   UNL     1       1.890   2.675  -0.703  1.00  0.00    -0.261 N 
ATOM     13  C   UNL     1       2.539   3.147   0.431  1.00  0.00     0.270 C 
ATOM     14  C   UNL     1       1.999   3.430  -1.867  1.00  0.00     0.152 C 
ATOM     15  O   UNL     1       2.582   2.642   1.532  1.00  0.00    -0.268 OA
ATOM     16  C   UNL     1       3.136   4.475   0.107  1.00  0.00     0.081 C 
ATOM     17  S   UNL     1       3.096   4.766  -1.588  1.00  0.00    -0.054 SA
ATOM     18  S   UNL     1       1.263   3.216  -3.356  1.00  0.00    -0.051 S 
ATOM     19  C   UNL     1       3.522   5.343   1.049  1.00  0.00     0.029 C 
BRANCH  19  20
ATOM     20  C   UNL     1       4.030   6.677   0.726  1.00  0.00    -0.024 A 
ATOM     21  C   UNL     1       3.154   7.761   0.573  1.00  0.00     0.015 A 
ATOM     22  C   UNL     1       5.396   6.840   0.475  1.00  0.00     0.015 A 
ATOM     23  C   UNL     1       3.647   9.011   0.190  1.00  0.00     0.086 A 
ATOM     24  C   UNL     1       5.897   8.084   0.091  1.00  0.00     0.086 A 
ATOM     25  C   UNL     1       5.020   9.169  -0.041  1.00  0.00     0.269 A 
BRANCH  25  26
ATOM     26  N   UNL     1       5.551  10.484  -0.421  1.00  0.00     0.062 N 
ATOM     27  O   UNL     1       4.748  11.421  -0.527  1.00  0.00    -0.258 OA
ATOM     28  O   UNL     1       6.772  10.579  -0.607  1.00  0.00    -0.258 OA
ENDBRANCH  25  26
ENDBRANCH  19  20
ENDBRANCH   9  12
ENDBRANCH   3   5
ENDBRANCH   2   3
ENDBRANCH   1   2
BRANCH   1  29
ATOM     29  C   UNL     1      -5.570   0.773  -3.330  1.00  0.00     0.275 C 
BRANCH  29  30
ATOM     30  O   UNL     1      -5.507  -0.679  -3.330  1.00  0.00    -0.458 OA
BRANCH  30  31
ATOM     31  C   UNL     1      -5.090  -1.547  -2.385  1.00  0.00     0.338 C 
ATOM     32  O   UNL     1      -4.742  -2.689  -2.659  1.00  0.00    -0.246 OA
BRANCH  31  33
ATOM     33  C   UNL     1      -5.029  -1.089  -0.991  1.00  0.00     0.060 A 
ATOM     34  C   UNL     1      -3.942  -1.500  -0.201  1.00  0.00     0.016 A 
ATOM     35  C   UNL     1      -5.995  -0.224  -0.491  1.00  0.00     0.016 A 
ATOM     36  C   UNL     1      -3.751  -0.953   1.062  1.00  0.00     0.010 A 
ATOM     37  C   UNL     1      -5.776   0.375   0.729  1.00  0.00     0.010 A 
ATOM     38  C   UNL     1      -4.678  -0.016   1.516  1.00  0.00    -0.014 A 
BRANCH  38  39
ATOM     39  C   UNL     1      -4.852   0.267   2.929  1.00  0.00     0.031 A 
ATOM     40  C   UNL     1      -4.240   1.399   3.637  1.00  0.00     0.074 A 
ATOM     41  C   UNL     1      -5.806  -0.524   3.462  1.00  0.00     0.049 A 
ATOM     42  N   UNL     1      -4.148   1.468   4.923  1.00  0.00    -0.248 NA
ATOM     43  C   UNL     1      -3.650   2.550   2.963  1.00  0.00     0.031 C 
ATOM     44  C   UNL     1      -6.585  -0.371   4.673  1.00  0.00     0.029 A 
ATOM     45  N   UNL     1      -6.175  -1.788   2.964  1.00  0.00    -0.354 N 
ATOM     46  C   UNL     1      -3.802   2.763   5.246  1.00  0.00     0.074 A 
ATOM     47  C   UNL     1      -3.390   3.362   3.997  1.00  0.00     0.031 C 
ATOM     48  C   UNL     1      -7.120  -1.569   4.983  1.00  0.00     0.029 A 
ATOM     49  C   UNL     1      -6.530  -2.550   4.077  1.00  0.00     0.049 A 
ATOM     50  H   UNL     1      -6.182  -2.075   2.022  1.00  0.00     0.167 HD
ATOM     51  C   UNL     1      -4.094   3.232   6.496  1.00  0.00     0.037 A 
ATOM     52  C   UNL     1      -5.715  -3.579   4.456  1.00  0.00     0.037 A 
ATOM     53  C   UNL     1      -4.707   2.177   7.300  1.00  0.00     0.049 A 
ATOM     54  C   UNL     1      -5.172  -3.355   5.843  1.00  0.00     0.074 A 
ATOM     55  C   UNL     1      -6.039   1.865   7.521  1.00  0.00     0.029 A 
ATOM     56  N   UNL     1      -3.970   1.057   7.673  1.00  0.00    -0.354 N 
ATOM     57  N   UNL     1      -4.873  -2.181   6.327  1.00  0.00    -0.248 NA
ATOM     58  C   UNL     1      -4.975  -4.439   6.796  1.00  0.00     0.031 C 
ATOM     59  C   UNL     1      -6.109   0.521   7.952  1.00  0.00     0.029 A 
ATOM     60  C   UNL     1      -4.820   0.024   8.021  1.00  0.00     0.049 A 
ATOM     61  H   UNL     1      -2.986   1.008   7.687  1.00  0.00     0.167 HD
ATOM     62  C   UNL     1      -4.547  -2.323   7.648  1.00  0.00     0.074 A 
ATOM     63  C   UNL     1      -4.589  -3.756   7.886  1.00  0.00     0.031 C 
ATOM     64  C   UNL     1      -4.314  -1.260   8.470  1.00  0.00     0.037 A 
BRANCH  51  65
ATOM     65  C   UNL     1      -4.197   4.706   6.840  1.00  0.00     0.064 A 
ATOM     66  C   UNL     1      -5.174   5.172   7.751  1.00  0.00     0.173 A 
ATOM     67  C   UNL     1      -3.412   5.717   6.257  1.00  0.00     0.173 A 
ATOM     68  F   UNL     1      -5.912   4.329   8.483  1.00  0.00    -0.203 F 
ATOM     69  C   UNL     1      -5.439   6.529   7.948  1.00  0.00     0.198 A 
ATOM     70  C   UNL     1      -3.698   7.079   6.428  1.00  0.00     0.198 A 
ATOM     71  F   UNL     1      -2.322   5.417   5.537  1.00  0.00    -0.203 F 
ATOM     72  F   UNL     1      -6.406   6.901   8.800  1.00  0.00    -0.200 F 
ATOM     73  C   UNL     1      -4.726   7.484   7.257  1.00  0.00     0.200 A 
ATOM     74  F   UNL     1      -2.972   7.999   5.776  1.00  0.00    -0.200 F 
ATOM     75  F   UNL     1      -5.011   8.784   7.408  1.00  0.00    -0.200 F 
ENDBRANCH  51  65
BRANCH  52  76
ATOM     76  C   UNL     1      -4.951  -4.233   3.346  1.00  0.00     0.064 A 
ATOM     77  C   UNL     1      -5.653  -4.746   2.233  1.00  0.00     0.173 A 
ATOM     78  C   UNL     1      -3.558  -4.149   3.228  1.00  0.00     0.173 A 
ATOM     79  F   UNL     1      -6.991  -4.854   2.276  1.00  0.00    -0.203 F 
ATOM     80  C   UNL     1      -5.006  -5.078   1.042  1.00  0.00     0.198 A 
ATOM     81  C   UNL     1      -2.910  -4.493   2.035  1.00  0.00     0.198 A 
ATOM     82  F   UNL     1      -2.816  -3.672   4.236  1.00  0.00    -0.203 F 
ATOM     83  F   UNL     1      -5.721  -5.485  -0.017  1.00  0.00    -0.200 F 
ATOM     84  C   UNL     1      -3.634  -4.937   0.939  1.00  0.00     0.200 A 
ATOM     85  F   UNL     1      -1.582  -4.335   1.926  1.00  0.00    -0.200 F 
ATOM     86  F   UNL     1      -3.011  -5.195  -0.220  1.00  0.00    -0.200 F 
ENDBRANCH  52  76
BRANCH  64  87
ATOM     87  C   UNL     1      -3.720  -1.352   9.845  1.00  0.00     0.064 A 
ATOM     88  C   UNL     1      -2.762  -2.314  10.198  1.00  0.00     0.173 A 
ATOM     89  C   UNL     1      -3.978  -0.350  10.809  1.00  0.00     0.173 A 
ATOM     90  F   UNL     1      -2.361  -3.248   9.324  1.00  0.00    -0.203 F 
ATOM     91  C   UNL     1      -2.145  -2.308  11.448  1.00  0.00     0.198 A 
ATOM     92  C   UNL     1      -3.317  -0.313  12.033  1.00  0.00     0.198 A 
ATOM     93  F   UNL     1      -4.858   0.637  10.582  1.00  0.00    -0.203 F 
ATOM     94  F   UNL     1      -1.264  -3.270  11.756  1.00  0.00    -0.200 F 
ATOM     95  C   UNL     1      -2.410  -1.300  12.358  1.00  0.00     0.200 A 
ATOM     96  F   UNL     1      -3.547   0.698  12.883  1.00  0.00    -0.200 F 
ATOM     97  F   UNL     1      -1.777  -1.270  13.537  1.00  0.00    -0.200 F 
ENDBRANCH  64  87
ENDBRANCH  38  39
ENDBRANCH  31  33
ENDBRANCH  30  31
ENDBRANCH  29  30
ENDBRANCH   1  29
TORSDOF 14
