REMARK SMILES C/C(=N/[NH+]=C1\NC(=O)[C@H](CC(=O)OCCOC(=O)c2ccc(-c3c4nc(c(-c5c(F)c(F)c(F)c(F)c5F)c5ccc([nH]5)c(-c5c(F)c(F)c(F)c(F)c5F)c5nc(c(-c6c(F)c(F)c(F)c(F)c6F)c6ccc3[nH]6)C=C5)C=C4)cc2)S1)c1ccc(OC(C)C)cc1
REMARK SMILES IDX 13 1 11 2 12 3 10 4 9 5 4 6 5 7 6 9 82 10 7 11 8 13 3 14
REMARK SMILES IDX 1 15 2 16 83 17 84 18 92 19 85 20 91 21 86 22 87 23 88 24
REMARK SMILES IDX 89 25 90 26 14 27 15 28 16 29 17 30 18 31 19 32 20 33 81 34
REMARK SMILES IDX 21 35 80 36 22 37 23 38 24 39 74 40 25 41 79 42 73 43 75 44
REMARK SMILES IDX 26 45 78 46 72 47 71 48 27 50 59 51 39 52 58 53 40 54 43 55
REMARK SMILES IDX 57 56 76 57 41 58 42 59 56 61 77 62 44 63 28 64 29 65 37 66
REMARK SMILES IDX 30 67 31 68 35 69 38 70 32 71 33 72 36 73 34 74 60 75 61 76
REMARK SMILES IDX 69 77 62 78 63 79 67 80 70 81 64 82 65 83 68 84 66 85 45 86
REMARK SMILES IDX 46 87 54 88 47 89 48 90 52 91 55 92 49 93 50 94 53 95 51 96
REMARK H PARENT 4 8 6 12 75 49 43 60
REMARK Flexibility Score: inf
ROOT
ATOM      1  O   UNL     1       3.957  -1.409  -6.523  1.00  0.00    -0.462 OA
ENDROOT
BRANCH   1   2
ATOM      2  C   UNL     1       2.857  -1.565  -7.294  1.00  0.00     0.307 C 
ATOM      3  O   UNL     1       2.856  -1.615  -8.517  1.00  0.00    -0.252 OA
BRANCH   2   4
ATOM      4  C   UNL     1       1.599  -1.614  -6.469  1.00  0.00     0.150 C 
BRANCH   4   5
ATOM      5  C   UNL     1       1.483  -2.847  -5.585  1.00  0.00     0.184 C 
ATOM      6  N   UNL     1      -0.825  -2.068  -2.648  1.00  0.00    -0.142 N 
ATOM      7  C   UNL     1       0.065  -2.535  -3.455  1.00  0.00     0.337 C 
ATOM      8  H   UNL     1      -1.774  -2.003  -2.902  1.00  0.00     0.343 HD
ATOM      9  N   UNL     1       1.383  -2.644  -3.198  1.00  0.00    -0.202 N 
ATOM     10  S   UNL     1      -0.285  -3.001  -5.085  1.00  0.00    -0.020 SA
ATOM     11  C   UNL     1       2.231  -2.723  -4.260  1.00  0.00     0.322 C 
ATOM     12  H   UNL     1       1.722  -2.666  -2.273  1.00  0.00     0.316 HD
ATOM     13  O   UNL     1       3.442  -2.607  -4.119  1.00  0.00    -0.246 OA
BRANCH   6  14
ATOM     14  N   UNL     1      -0.366  -1.656  -1.386  1.00  0.00    -0.090 NA
ATOM     15  C   UNL     1       0.635  -0.030   0.079  1.00  0.00     0.071 C 
ATOM     16  C   UNL     1       0.219  -0.493  -1.298  1.00  0.00     0.088 C 
BRANCH  16  17
ATOM     17  C   UNL     1       0.627   0.375  -2.435  1.00  0.00    -0.000 A 
ATOM     18  C   UNL     1      -0.278   0.779  -3.412  1.00  0.00     0.014 A 
ATOM     19  C   UNL     1       1.987   0.676  -2.579  1.00  0.00     0.014 A 
ATOM     20  C   UNL     1       0.189   1.468  -4.537  1.00  0.00     0.047 A 
ATOM     21  C   UNL     1       2.444   1.358  -3.712  1.00  0.00     0.047 A 
ATOM     22  C   UNL     1       1.551   1.760  -4.699  1.00  0.00     0.119 A 
BRANCH  22  23
ATOM     23  O   UNL     1       1.854   2.369  -5.879  1.00  0.00    -0.491 OA
BRANCH  23  24
ATOM     24  C   UNL     1       3.129   2.950  -6.173  1.00  0.00     0.167 C 
ATOM     25  C   UNL     1       3.575   4.021  -5.184  1.00  0.00     0.052 C 
ATOM     26  C   UNL     1       4.204   1.923  -6.510  1.00  0.00     0.052 C 
ENDBRANCH  23  24
ENDBRANCH  22  23
ENDBRANCH  16  17
ENDBRANCH   6  14
ENDBRANCH   4   5
ENDBRANCH   2   4
ENDBRANCH   1   2
BRANCH   1  27
ATOM     27  C   UNL     1       5.230  -1.340  -7.192  1.00  0.00     0.274 C 
BRANCH  27  28
ATOM     28  C   UNL     1       5.926  -2.699  -7.226  1.00  0.00     0.275 C 
BRANCH  28  29
ATOM     29  O   UNL     1       5.328  -3.556  -8.214  1.00  0.00    -0.458 OA
BRANCH  29  30
ATOM     30  C   UNL     1       4.333  -4.347  -7.756  1.00  0.00     0.338 C 
ATOM     31  O   UNL     1       3.949  -4.478  -6.608  1.00  0.00    -0.246 OA
BRANCH  30  32
ATOM     32  C   UNL     1       3.652  -4.981  -8.889  1.00  0.00     0.060 A 
ATOM     33  C   UNL     1       2.283  -4.751  -9.063  1.00  0.00     0.016 A 
ATOM     34  C   UNL     1       4.345  -5.864  -9.715  1.00  0.00     0.016 A 
ATOM     35  C   UNL     1       1.586  -5.427 -10.057  1.00  0.00     0.010 A 
ATOM     36  C   UNL     1       3.647  -6.539 -10.713  1.00  0.00     0.010 A 
ATOM     37  C   UNL     1       2.264  -6.339 -10.871  1.00  0.00    -0.014 A 
BRANCH  37  38
ATOM     38  C   UNL     1       1.520  -7.172 -11.836  1.00  0.00     0.031 A 
ATOM     39  C   UNL     1       1.277  -8.613 -11.508  1.00  0.00     0.074 A 
ATOM     40  C   UNL     1       1.107  -6.644 -12.999  1.00  0.00     0.049 A 
ATOM     41  N   UNL     1       0.817  -9.571 -12.269  1.00  0.00    -0.248 NA
ATOM     42  C   UNL     1       1.611  -9.035 -10.138  1.00  0.00     0.031 C 
ATOM     43  C   UNL     1       1.252  -5.242 -13.389  1.00  0.00     0.029 A 
ATOM     44  N   UNL     1       0.502  -7.235 -14.077  1.00  0.00    -0.354 N 
ATOM     45  C   UNL     1       0.834 -10.714 -11.481  1.00  0.00     0.074 A 
ATOM     46  C   UNL     1       1.361 -10.335 -10.188  1.00  0.00     0.031 C 
ATOM     47  C   UNL     1       0.769  -5.084 -14.632  1.00  0.00     0.029 A 
ATOM     48  C   UNL     1       0.329  -6.382 -15.137  1.00  0.00     0.049 A 
ATOM     49  H   UNL     1       0.220  -8.178 -14.089  1.00  0.00     0.167 HD
ATOM     50  C   UNL     1       0.443 -11.965 -11.817  1.00  0.00     0.037 A 
ATOM     51  C   UNL     1      -0.101  -6.637 -16.387  1.00  0.00     0.037 A 
ATOM     52  C   UNL     1      -0.090 -12.318 -13.106  1.00  0.00     0.049 A 
ATOM     53  C   UNL     1      -0.481  -8.047 -16.751  1.00  0.00     0.074 A 
ATOM     54  C   UNL     1      -0.528 -13.552 -13.553  1.00  0.00     0.029 A 
ATOM     55  N   UNL     1      -0.258 -11.427 -14.157  1.00  0.00    -0.354 N 
ATOM     56  N   UNL     1      -0.457  -9.129 -16.011  1.00  0.00    -0.248 NA
ATOM     57  C   UNL     1      -0.945  -8.272 -18.127  1.00  0.00     0.031 C 
ATOM     58  C   UNL     1      -0.924 -13.415 -14.888  1.00  0.00     0.029 A 
ATOM     59  C   UNL     1      -0.779 -12.087 -15.257  1.00  0.00     0.049 A 
ATOM     60  H   UNL     1      -0.039 -10.468 -14.125  1.00  0.00     0.167 HD
ATOM     61  C   UNL     1      -0.928 -10.155 -16.816  1.00  0.00     0.074 A 
ATOM     62  C   UNL     1      -1.238  -9.565 -18.103  1.00  0.00     0.031 C 
ATOM     63  C   UNL     1      -1.092 -11.469 -16.521  1.00  0.00     0.037 A 
BRANCH  50  64
ATOM     64  C   UNL     1       0.611 -13.043 -10.788  1.00  0.00     0.064 A 
ATOM     65  C   UNL     1      -0.200 -13.107  -9.645  1.00  0.00     0.173 A 
ATOM     66  C   UNL     1       1.585 -14.038 -10.959  1.00  0.00     0.173 A 
ATOM     67  F   UNL     1      -1.134 -12.170  -9.426  1.00  0.00    -0.203 F 
ATOM     68  C   UNL     1      -0.025 -14.114  -8.699  1.00  0.00     0.198 A 
ATOM     69  C   UNL     1       1.739 -15.059 -10.024  1.00  0.00     0.198 A 
ATOM     70  F   UNL     1       2.387 -14.023 -12.034  1.00  0.00    -0.203 F 
ATOM     71  F   UNL     1      -0.779 -14.130  -7.591  1.00  0.00    -0.200 F 
ATOM     72  C   UNL     1       0.939 -15.093  -8.893  1.00  0.00     0.200 A 
ATOM     73  F   UNL     1       2.665 -16.009 -10.218  1.00  0.00    -0.200 F 
ATOM     74  F   UNL     1       1.103 -16.064  -7.983  1.00  0.00    -0.200 F 
ENDBRANCH  50  64
BRANCH  51  75
ATOM     75  C   UNL     1      -0.173  -5.538 -17.383  1.00  0.00     0.064 A 
ATOM     76  C   UNL     1      -1.409  -5.063 -17.841  1.00  0.00     0.173 A 
ATOM     77  C   UNL     1       0.987  -4.939 -17.894  1.00  0.00     0.173 A 
ATOM     78  F   UNL     1      -2.546  -5.620 -17.398  1.00  0.00    -0.203 F 
ATOM     79  C   UNL     1      -1.482  -4.040 -18.783  1.00  0.00     0.198 A 
ATOM     80  C   UNL     1       0.913  -3.897 -18.816  1.00  0.00     0.198 A 
ATOM     81  F   UNL     1       2.195  -5.357 -17.488  1.00  0.00    -0.203 F 
ATOM     82  F   UNL     1      -2.676  -3.632 -19.235  1.00  0.00    -0.200 F 
ATOM     83  C   UNL     1      -0.321  -3.453 -19.265  1.00  0.00     0.200 A 
ATOM     84  F   UNL     1       2.037  -3.325 -19.270  1.00  0.00    -0.200 F 
ATOM     85  F   UNL     1      -0.392  -2.466 -20.168  1.00  0.00    -0.200 F 
ENDBRANCH  51  75
BRANCH  63  86
ATOM     86  C   UNL     1      -1.674 -12.343 -17.591  1.00  0.00     0.064 A 
ATOM     87  C   UNL     1      -0.927 -12.733 -18.711  1.00  0.00     0.173 A 
ATOM     88  C   UNL     1      -2.983 -12.833 -17.467  1.00  0.00     0.173 A 
ATOM     89  F   UNL     1       0.323 -12.277 -18.881  1.00  0.00    -0.203 F 
ATOM     90  C   UNL     1      -1.478 -13.566 -19.681  1.00  0.00     0.198 A 
ATOM     91  C   UNL     1      -3.521 -13.688 -18.424  1.00  0.00     0.198 A 
ATOM     92  F   UNL     1      -3.735 -12.493 -16.409  1.00  0.00    -0.203 F 
ATOM     93  F   UNL     1      -0.762 -13.893 -20.766  1.00  0.00    -0.200 F 
ATOM     94  C   UNL     1      -2.770 -14.048 -19.533  1.00  0.00     0.200 A 
ATOM     95  F   UNL     1      -4.764 -14.163 -18.273  1.00  0.00    -0.200 F 
ATOM     96  F   UNL     1      -3.296 -14.857 -20.464  1.00  0.00    -0.200 F 
ENDBRANCH  63  86
ENDBRANCH  37  38
ENDBRANCH  30  32
ENDBRANCH  29  30
ENDBRANCH  28  29
ENDBRANCH  27  28
ENDBRANCH   1  27
TORSDOF 16
