REMARK SMILES CC(C)(C)C(=O)NCc1ccc(C(=O)OCCOC(=O)c2ccc(-c3c4nc(c(-c5c(F)c(F)c(F)c(F)c5F)c5ccc([nH]5)c(-c5c(F)c(F)c(F)c(F)c5F)c5nc(c(-c6c(F)c(F)c(F)c(F)c6F)c6ccc3[nH]6)C=C5)C=C4)cc2)o1
REMARK SMILES IDX 16 1 15 2 13 3 14 4 12 5 9 6 10 7 84 8 11 9 8 10 7 11 5 12
REMARK SMILES IDX 6 13 2 15 1 16 3 17 4 18 17 19 18 20 19 21 20 22 21 23 22 24
REMARK SMILES IDX 83 25 23 26 82 27 24 28 25 29 26 30 76 31 27 32 81 33 75 34
REMARK SMILES IDX 77 35 28 36 80 37 74 38 73 39 29 41 61 42 41 43 60 44 42 45
REMARK SMILES IDX 45 46 59 47 78 48 43 49 44 50 58 52 79 53 46 54 30 55 31 56
REMARK SMILES IDX 39 57 32 58 33 59 37 60 40 61 34 62 35 63 38 64 36 65 62 66
REMARK SMILES IDX 63 67 71 68 64 69 65 70 69 71 72 72 66 73 67 74 70 75 68 76
REMARK SMILES IDX 47 77 48 78 56 79 49 80 50 81 54 82 57 83 51 84 52 85 55 86
REMARK SMILES IDX 53 87
REMARK H PARENT 7 14 77 40 45 51
REMARK Flexibility Score: inf
ROOT
ATOM      1  C   UNL     1      -5.086   8.956  -2.240  1.00  0.00     0.275 C 
ENDROOT
BRANCH   1   2
ATOM      2  O   UNL     1      -4.821   7.542  -2.290  1.00  0.00    -0.456 OA
BRANCH   2   3
ATOM      3  C   UNL     1      -3.743   7.163  -3.040  1.00  0.00     0.374 C 
ATOM      4  O   UNL     1      -3.099   7.915  -3.757  1.00  0.00    -0.242 OA
BRANCH   3   5
ATOM      5  C   UNL     1      -3.424   5.777  -2.775  1.00  0.00     0.211 A 
ATOM      6  C   UNL     1      -2.044   4.052  -2.703  1.00  0.00     0.124 A 
ATOM      7  C   UNL     1      -3.194   3.660  -2.050  1.00  0.00     0.048 A 
ATOM      8  O   UNL     1      -2.200   5.315  -3.189  1.00  0.00    -0.452 OA
ATOM      9  C   UNL     1      -4.077   4.767  -2.094  1.00  0.00     0.058 A 
BRANCH   6  10
ATOM     10  C   UNL     1      -0.725   3.414  -2.940  1.00  0.00     0.191 C 
BRANCH  10  11
ATOM     11  N   UNL     1       0.044   3.474  -1.712  1.00  0.00    -0.348 N 
ATOM     12  C   UNL     1       0.566   2.525  -0.895  1.00  0.00     0.225 C 
ATOM     13  O   UNL     1       1.206   2.946   0.074  1.00  0.00    -0.275 OA
ATOM     14  H   UNL     1       0.224   4.393  -1.409  1.00  0.00     0.163 HD
BRANCH  12  15
ATOM     15  C   UNL     1       0.390   1.013  -1.143  1.00  0.00     0.041 C 
ATOM     16  C   UNL     1       1.043   0.245   0.032  1.00  0.00     0.021 C 
ATOM     17  C   UNL     1       1.109   0.574  -2.425  1.00  0.00     0.021 C 
ATOM     18  C   UNL     1      -1.094   0.622  -1.160  1.00  0.00     0.021 C 
ENDBRANCH  12  15
ENDBRANCH  10  11
ENDBRANCH   6  10
ENDBRANCH   3   5
ENDBRANCH   2   3
ENDBRANCH   1   2
BRANCH   1  19
ATOM     19  C   UNL     1      -4.476   9.594  -0.986  1.00  0.00     0.275 C 
BRANCH  19  20
ATOM     20  O   UNL     1      -3.039   9.677  -1.065  1.00  0.00    -0.458 OA
BRANCH  20  21
ATOM     21  C   UNL     1      -2.367   8.632  -0.526  1.00  0.00     0.338 C 
ATOM     22  O   UNL     1      -2.850   7.659   0.029  1.00  0.00    -0.246 OA
BRANCH  21  23
ATOM     23  C   UNL     1      -0.929   8.748  -0.830  1.00  0.00     0.060 A 
ATOM     24  C   UNL     1      -0.313   7.669  -1.469  1.00  0.00     0.016 A 
ATOM     25  C   UNL     1      -0.179   9.862  -0.448  1.00  0.00     0.016 A 
ATOM     26  C   UNL     1       1.052   7.696  -1.738  1.00  0.00     0.010 A 
ATOM     27  C   UNL     1       1.197   9.886  -0.711  1.00  0.00     0.010 A 
ATOM     28  C   UNL     1       1.819   8.801  -1.352  1.00  0.00    -0.014 A 
BRANCH  28  29
ATOM     29  C   UNL     1       3.283   8.781  -1.583  1.00  0.00     0.031 A 
ATOM     30  C   UNL     1       4.216   8.474  -0.450  1.00  0.00     0.074 A 
ATOM     31  C   UNL     1       3.769   8.989  -2.820  1.00  0.00     0.049 A 
ATOM     32  N   UNL     1       5.525   8.433  -0.441  1.00  0.00    -0.248 NA
ATOM     33  C   UNL     1       3.593   8.172   0.847  1.00  0.00     0.031 C 
ATOM     34  C   UNL     1       2.959   9.248  -4.010  1.00  0.00     0.029 A 
ATOM     35  N   UNL     1       5.061   9.006  -3.281  1.00  0.00    -0.354 N 
ATOM     36  C   UNL     1       5.883   8.115   0.862  1.00  0.00     0.074 A 
ATOM     37  C   UNL     1       4.655   7.990   1.619  1.00  0.00     0.031 C 
ATOM     38  C   UNL     1       3.773   9.389  -5.069  1.00  0.00     0.029 A 
ATOM     39  C   UNL     1       5.160   9.267  -4.625  1.00  0.00     0.049 A 
ATOM     40  H   UNL     1       5.842   8.847  -2.704  1.00  0.00     0.167 HD
ATOM     41  C   UNL     1       7.124   7.938   1.375  1.00  0.00     0.037 A 
ATOM     42  C   UNL     1       6.248   9.406  -5.406  1.00  0.00     0.037 A 
ATOM     43  C   UNL     1       8.343   8.042   0.617  1.00  0.00     0.049 A 
ATOM     44  C   UNL     1       7.616   9.257  -4.800  1.00  0.00     0.074 A 
ATOM     45  C   UNL     1       9.646   7.863   1.046  1.00  0.00     0.029 A 
ATOM     46  N   UNL     1       8.406   8.353  -0.734  1.00  0.00    -0.354 N 
ATOM     47  N   UNL     1       7.947   8.961  -3.566  1.00  0.00    -0.248 NA
ATOM     48  C   UNL     1       8.764   9.466  -5.694  1.00  0.00     0.031 C 
ATOM     49  C   UNL     1      10.501   8.103  -0.037  1.00  0.00     0.029 A 
ATOM     50  C   UNL     1       9.727   8.393  -1.149  1.00  0.00     0.049 A 
ATOM     51  H   UNL     1       7.627   8.520  -1.312  1.00  0.00     0.167 HD
ATOM     52  C   UNL     1       9.334   8.934  -3.538  1.00  0.00     0.074 A 
ATOM     53  C   UNL     1       9.785   9.229  -4.882  1.00  0.00     0.031 C 
ATOM     54  C   UNL     1      10.159   8.689  -2.491  1.00  0.00     0.037 A 
BRANCH  41  55
ATOM     55  C   UNL     1       7.223   7.645   2.842  1.00  0.00     0.064 A 
ATOM     56  C   UNL     1       6.884   6.391   3.369  1.00  0.00     0.173 A 
ATOM     57  C   UNL     1       7.685   8.629   3.729  1.00  0.00     0.173 A 
ATOM     58  F   UNL     1       6.427   5.421   2.563  1.00  0.00    -0.203 F 
ATOM     59  C   UNL     1       6.977   6.141   4.736  1.00  0.00     0.198 A 
ATOM     60  C   UNL     1       7.800   8.369   5.091  1.00  0.00     0.198 A 
ATOM     61  F   UNL     1       8.027   9.844   3.273  1.00  0.00    -0.203 F 
ATOM     62  F   UNL     1       6.608   4.949   5.226  1.00  0.00    -0.200 F 
ATOM     63  C   UNL     1       7.439   7.128   5.595  1.00  0.00     0.200 A 
ATOM     64  F   UNL     1       8.255   9.320   5.918  1.00  0.00    -0.200 F 
ATOM     65  F   UNL     1       7.530   6.886   6.910  1.00  0.00    -0.200 F 
ENDBRANCH  41  55
BRANCH  42  66
ATOM     66  C   UNL     1       6.083   9.712  -6.849  1.00  0.00     0.064 A 
ATOM     67  C   UNL     1       6.374   8.753  -7.827  1.00  0.00     0.173 A 
ATOM     68  C   UNL     1       5.626  10.967  -7.277  1.00  0.00     0.173 A 
ATOM     69  F   UNL     1       6.839   7.548  -7.466  1.00  0.00    -0.203 F 
ATOM     70  C   UNL     1       6.218   9.039  -9.182  1.00  0.00     0.198 A 
ATOM     71  C   UNL     1       5.449  11.244  -8.630  1.00  0.00     0.198 A 
ATOM     72  F   UNL     1       5.340  11.920  -6.378  1.00  0.00    -0.203 F 
ATOM     73  F   UNL     1       6.534   8.115 -10.100  1.00  0.00    -0.200 F 
ATOM     74  C   UNL     1       5.749  10.281  -9.582  1.00  0.00     0.200 A 
ATOM     75  F   UNL     1       4.988  12.443  -9.012  1.00  0.00    -0.200 F 
ATOM     76  F   UNL     1       5.593  10.553 -10.884  1.00  0.00    -0.200 F 
ENDBRANCH  42  66
BRANCH  54  77
ATOM     77  C   UNL     1      11.634   8.712  -2.762  1.00  0.00     0.064 A 
ATOM     78  C   UNL     1      12.325   9.918  -2.949  1.00  0.00     0.173 A 
ATOM     79  C   UNL     1      12.369   7.518  -2.798  1.00  0.00     0.173 A 
ATOM     80  F   UNL     1      11.661  11.084  -2.939  1.00  0.00    -0.203 F 
ATOM     81  C   UNL     1      13.697   9.926  -3.181  1.00  0.00     0.198 A 
ATOM     82  C   UNL     1      13.745   7.531  -3.008  1.00  0.00     0.198 A 
ATOM     83  F   UNL     1      11.754   6.339  -2.622  1.00  0.00    -0.203 F 
ATOM     84  F   UNL     1      14.332  11.087  -3.394  1.00  0.00    -0.200 F 
ATOM     85  C   UNL     1      14.407   8.734  -3.204  1.00  0.00     0.200 A 
ATOM     86  F   UNL     1      14.431   6.380  -3.022  1.00  0.00    -0.200 F 
ATOM     87  F   UNL     1      15.729   8.745  -3.424  1.00  0.00    -0.200 F 
ENDBRANCH  54  77
ENDBRANCH  28  29
ENDBRANCH  21  23
ENDBRANCH  20  21
ENDBRANCH  19  20
ENDBRANCH   1  19
TORSDOF 14
