REMARK SMILES C/C(=N\Nc1nc(-c2ccc(Cl)cc2)cs1)c1nnn(-c2ccc(C(=O)OCCOC(=O)c3ccc(-c4c5nc(c(-c6c(F)c(F)c(F)c(F)c6F)c6ccc([nH]6)c(-c6c(F)c(F)c(F)c(F)c6F)c6nc(c(-c7c(F)c(F)c(F)c(F)c7F)c7ccc4[nH]7)C=C6)C=C5)cc3)cc2)c1C
REMARK SMILES IDX 27 1 25 2 26 3 24 4 21 5 22 6 97 7 23 8 96 9 20 10 17 11
REMARK SMILES IDX 18 12 98 13 19 14 99 15 2 16 1 17 3 18 4 19 5 21 6 22 16 23
REMARK SMILES IDX 7 24 15 25 8 26 9 27 14 28 10 29 13 30 11 31 12 32 28 33
REMARK SMILES IDX 29 34 30 35 31 36 32 37 33 38 34 39 95 40 35 41 94 42 36 43
REMARK SMILES IDX 37 44 38 45 88 46 39 47 93 48 87 49 89 50 40 51 92 52 86 53
REMARK SMILES IDX 85 54 41 56 73 57 53 58 72 59 54 60 57 61 71 62 90 63 55 64
REMARK SMILES IDX 56 65 70 67 91 68 58 69 42 70 43 71 51 72 44 73 45 74 49 75
REMARK SMILES IDX 52 76 46 77 47 78 50 79 48 80 74 81 75 82 83 83 76 84 77 85
REMARK SMILES IDX 81 86 84 87 78 88 79 89 82 90 80 91 59 92 60 93 68 94 61 95
REMARK SMILES IDX 62 96 66 97 69 98 63 99 64 100 67 101 65 102
REMARK H PARENT 4 20 89 55 57 66
REMARK Flexibility Score: inf
ROOT
ATOM      1  O   UNL     1       8.056   6.511  -0.317  1.00  0.00    -0.458 OA
ENDROOT
BRANCH   1   2
ATOM      2  C   UNL     1       7.135   6.570   0.679  1.00  0.00     0.338 C 
ATOM      3  O   UNL     1       7.326   6.958   1.823  1.00  0.00    -0.246 OA
BRANCH   2   4
ATOM      4  C   UNL     1       5.799   6.173   0.161  1.00  0.00     0.060 A 
ATOM      5  C   UNL     1       3.330   5.189  -0.634  1.00  0.00     0.067 A 
ATOM      6  C   UNL     1       3.405   5.949   0.535  1.00  0.00     0.029 A 
ATOM      7  C   UNL     1       4.436   5.054  -1.480  1.00  0.00     0.029 A 
ATOM      8  C   UNL     1       4.655   6.427   0.940  1.00  0.00     0.018 A 
ATOM      9  C   UNL     1       5.671   5.545  -1.081  1.00  0.00     0.018 A 
BRANCH   5  10
ATOM     10  N   UNL     1       2.225   4.339  -0.841  1.00  0.00    -0.217 N 
ATOM     11  C   UNL     1       0.973   2.558  -0.923  1.00  0.00     0.132 A 
ATOM     12  N   UNL     1       0.166   3.654  -0.796  1.00  0.00    -0.128 NA
ATOM     13  C   UNL     1       2.298   2.961  -0.955  1.00  0.00     0.071 A 
ATOM     14  N   UNL     1       0.944   4.724  -0.655  1.00  0.00    -0.061 NA
ATOM     15  C   UNL     1       3.553   2.163  -0.871  1.00  0.00     0.069 C 
BRANCH  11  16
ATOM     16  C   UNL     1       0.533   1.178  -0.796  1.00  0.00     0.087 C 
ATOM     17  C   UNL     1       1.110   0.457   0.398  1.00  0.00     0.071 C 
ATOM     18  N   UNL     1      -0.208   0.714  -1.763  1.00  0.00    -0.176 NA
BRANCH  18  19
ATOM     19  N   UNL     1      -0.555  -0.613  -1.907  1.00  0.00    -0.252 N 
ATOM     20  H   UNL     1      -0.973  -0.838  -2.770  1.00  0.00     0.193 HD
BRANCH  19  21
ATOM     21  C   UNL     1      -0.414  -1.659  -1.055  1.00  0.00     0.203 A 
ATOM     22  N   UNL     1      -0.658  -1.639   0.233  1.00  0.00    -0.219 NA
ATOM     23  S   UNL     1       0.246  -3.160  -1.608  1.00  0.00    -0.103 S 
ATOM     24  C   UNL     1       0.005  -2.669   0.865  1.00  0.00     0.084 A 
ATOM     25  C   UNL     1       0.564  -3.607   0.025  1.00  0.00     0.097 A 
BRANCH  24  26
ATOM     26  C   UNL     1       0.181  -2.612   2.304  1.00  0.00     0.001 A 
ATOM     27  C   UNL     1      -0.939  -2.460   3.129  1.00  0.00     0.012 A 
ATOM     28  C   UNL     1       1.466  -2.531   2.861  1.00  0.00     0.012 A 
ATOM     29  C   UNL     1      -0.781  -2.249   4.501  1.00  0.00     0.021 A 
ATOM     30  C   UNL     1       1.623  -2.307   4.233  1.00  0.00     0.021 A 
ATOM     31  C   UNL     1       0.499  -2.170   5.046  1.00  0.00     0.041 A 
ATOM     32  Cl  UNL     1       0.695  -1.873   6.729  1.00  0.00    -0.084 Cl
ENDBRANCH  24  26
ENDBRANCH  19  21
ENDBRANCH  18  19
ENDBRANCH  11  16
ENDBRANCH   5  10
ENDBRANCH   2   4
ENDBRANCH   1   2
BRANCH   1  33
ATOM     33  C   UNL     1       9.312   7.166  -0.075  1.00  0.00     0.275 C 
BRANCH  33  34
ATOM     34  C   UNL     1       9.247   8.630  -0.489  1.00  0.00     0.275 C 
BRANCH  34  35
ATOM     35  O   UNL     1       8.409   9.365   0.399  1.00  0.00    -0.458 OA
BRANCH  35  36
ATOM     36  C   UNL     1       7.117   9.469   0.017  1.00  0.00     0.338 C 
ATOM     37  O   UNL     1       6.568   8.895  -0.909  1.00  0.00    -0.246 OA
BRANCH  36  38
ATOM     38  C   UNL     1       6.486  10.557   0.761  1.00  0.00     0.060 A 
ATOM     39  C   UNL     1       5.113  10.748   0.568  1.00  0.00     0.016 A 
ATOM     40  C   UNL     1       7.308  11.543   1.321  1.00  0.00     0.016 A 
ATOM     41  C   UNL     1       4.603  12.016   0.732  1.00  0.00     0.010 A 
ATOM     42  C   UNL     1       6.806  12.809   1.460  1.00  0.00     0.010 A 
ATOM     43  C   UNL     1       5.486  13.042   1.077  1.00  0.00    -0.014 A 
BRANCH  43  44
ATOM     44  C   UNL     1       4.999  14.402   1.068  1.00  0.00     0.031 A 
ATOM     45  C   UNL     1       4.166  14.741   2.244  1.00  0.00     0.074 A 
ATOM     46  C   UNL     1       5.444  15.280   0.149  1.00  0.00     0.049 A 
ATOM     47  N   UNL     1       2.961  15.205   2.266  1.00  0.00    -0.248 NA
ATOM     48  C   UNL     1       4.702  14.394   3.572  1.00  0.00     0.031 C 
ATOM     49  C   UNL     1       6.503  15.082  -0.849  1.00  0.00     0.029 A 
ATOM     50  N   UNL     1       5.133  16.592   0.002  1.00  0.00    -0.354 N 
ATOM     51  C   UNL     1       2.652  15.372   3.613  1.00  0.00     0.074 A 
ATOM     52  C   UNL     1       3.678  14.702   4.364  1.00  0.00     0.031 C 
ATOM     53  C   UNL     1       6.903  16.286  -1.315  1.00  0.00     0.029 A 
ATOM     54  C   UNL     1       6.057  17.316  -0.737  1.00  0.00     0.049 A 
ATOM     55  H   UNL     1       4.321  16.996   0.386  1.00  0.00     0.167 HD
ATOM     56  C   UNL     1       1.712  16.268   4.013  1.00  0.00     0.037 A 
ATOM     57  C   UNL     1       6.168  18.667  -0.762  1.00  0.00     0.037 A 
ATOM     58  C   UNL     1       0.813  16.598   2.940  1.00  0.00     0.049 A 
ATOM     59  C   UNL     1       4.901  19.229  -0.222  1.00  0.00     0.074 A 
ATOM     60  C   UNL     1      -0.066  15.870   2.161  1.00  0.00     0.029 A 
ATOM     61  N   UNL     1       0.997  17.788   2.279  1.00  0.00    -0.354 N 
ATOM     62  N   UNL     1       3.750  19.148  -0.831  1.00  0.00    -0.248 NA
ATOM     63  C   UNL     1       4.829  19.471   1.213  1.00  0.00     0.031 C 
ATOM     64  C   UNL     1       0.019  16.451   0.863  1.00  0.00     0.029 A 
ATOM     65  C   UNL     1       0.905  17.526   0.937  1.00  0.00     0.049 A 
ATOM     66  H   UNL     1       1.164  18.665   2.693  1.00  0.00     0.167 HD
ATOM     67  C   UNL     1       2.828  18.910   0.179  1.00  0.00     0.074 A 
ATOM     68  C   UNL     1       3.537  19.202   1.422  1.00  0.00     0.031 C 
ATOM     69  C   UNL     1       1.676  18.219  -0.067  1.00  0.00     0.037 A 
BRANCH  56  70
ATOM     70  C   UNL     1       1.851  17.118   5.251  1.00  0.00     0.064 A 
ATOM     71  C   UNL     1       0.767  17.923   5.648  1.00  0.00     0.173 A 
ATOM     72  C   UNL     1       3.087  17.407   5.874  1.00  0.00     0.173 A 
ATOM     73  F   UNL     1      -0.448  17.745   5.109  1.00  0.00    -0.203 F 
ATOM     74  C   UNL     1       0.930  18.992   6.531  1.00  0.00     0.198 A 
ATOM     75  C   UNL     1       3.232  18.438   6.799  1.00  0.00     0.198 A 
ATOM     76  F   UNL     1       4.225  16.790   5.536  1.00  0.00    -0.203 F 
ATOM     77  F   UNL     1      -0.098  19.815   6.774  1.00  0.00    -0.200 F 
ATOM     78  C   UNL     1       2.164  19.254   7.099  1.00  0.00     0.200 A 
ATOM     79  F   UNL     1       4.440  18.683   7.325  1.00  0.00    -0.200 F 
ATOM     80  F   UNL     1       2.338  20.318   7.892  1.00  0.00    -0.200 F 
ENDBRANCH  56  70
BRANCH  57  81
ATOM     81  C   UNL     1       7.413  19.465  -0.876  1.00  0.00     0.064 A 
ATOM     82  C   UNL     1       7.376  20.824  -1.221  1.00  0.00     0.173 A 
ATOM     83  C   UNL     1       8.649  18.975  -0.405  1.00  0.00     0.173 A 
ATOM     84  F   UNL     1       6.227  21.384  -1.629  1.00  0.00    -0.203 F 
ATOM     85  C   UNL     1       8.502  21.646  -1.092  1.00  0.00     0.198 A 
ATOM     86  C   UNL     1       9.774  19.791  -0.288  1.00  0.00     0.198 A 
ATOM     87  F   UNL     1       8.768  17.716   0.041  1.00  0.00    -0.203 F 
ATOM     88  F   UNL     1       8.414  22.952  -1.378  1.00  0.00    -0.200 F 
ATOM     89  C   UNL     1       9.698  21.129  -0.620  1.00  0.00     0.200 A 
ATOM     90  F   UNL     1      10.914  19.284   0.205  1.00  0.00    -0.200 F 
ATOM     91  F   UNL     1      10.762  21.926  -0.447  1.00  0.00    -0.200 F 
ENDBRANCH  57  81
BRANCH  69  92
ATOM     92  C   UNL     1       1.320  17.943  -1.500  1.00  0.00     0.064 A 
ATOM     93  C   UNL     1       2.094  17.139  -2.356  1.00  0.00     0.173 A 
ATOM     94  C   UNL     1       0.078  18.380  -1.977  1.00  0.00     0.173 A 
ATOM     95  F   UNL     1       3.242  16.594  -1.937  1.00  0.00    -0.203 F 
ATOM     96  C   UNL     1       1.664  16.829  -3.644  1.00  0.00     0.198 A 
ATOM     97  C   UNL     1      -0.368  18.037  -3.250  1.00  0.00     0.198 A 
ATOM     98  F   UNL     1      -0.731  19.099  -1.183  1.00  0.00    -0.203 F 
ATOM     99  F   UNL     1       2.428  16.070  -4.444  1.00  0.00    -0.200 F 
ATOM    100  C   UNL     1       0.429  17.272  -4.087  1.00  0.00     0.200 A 
ATOM    101  F   UNL     1      -1.585  18.425  -3.656  1.00  0.00    -0.200 F 
ATOM    102  F   UNL     1      -0.005  16.939  -5.311  1.00  0.00    -0.200 F 
ENDBRANCH  69  92
ENDBRANCH  43  44
ENDBRANCH  36  38
ENDBRANCH  35  36
ENDBRANCH  34  35
ENDBRANCH  33  34
ENDBRANCH   1  33
TORSDOF 16
