REMARK SMILES Cc1nsc(N(C)C(=O)[C@@H](C)NC(N)=O)c1C(=O)OCCOC(=O)c1ccc(-c2c3nc(c(-c4c(F)c(F)c(F)c(F)c4F)c4ccc([nH]4)c(-c4c(F)c(F)c(F)c(F)c4F)c4nc(c(-c5c(F)c(F)c(F)c(F)c5F)c5ccc2[nH]5)C=C4)C=C3)cc1
REMARK SMILES IDX 20 1 19 2 17 3 18 4 16 5 1 6 2 7 3 8 4 9 5 10 6 11 7 12 8 13
REMARK SMILES IDX 9 14 10 15 11 16 12 17 13 18 14 20 15 21 21 24 22 25 23 26
REMARK SMILES IDX 24 27 25 28 26 29 87 30 27 31 86 32 28 33 29 34 30 35 80 36
REMARK SMILES IDX 31 37 85 38 79 39 81 40 32 41 84 42 78 43 77 44 33 46 65 47
REMARK SMILES IDX 45 48 64 49 46 50 49 51 63 52 82 53 47 54 48 55 62 57 83 58
REMARK SMILES IDX 50 59 34 60 35 61 43 62 36 63 37 64 41 65 44 66 38 67 39 68
REMARK SMILES IDX 42 69 40 70 66 71 67 72 75 73 68 74 69 75 73 76 76 77 70 78
REMARK SMILES IDX 71 79 74 80 72 81 51 82 52 83 60 84 53 85 54 86 58 87 61 88
REMARK SMILES IDX 55 89 56 90 59 91 57 92
REMARK H PARENT 12 19 14 22 14 23 81 45 49 56
REMARK Flexibility Score: inf
ROOT
ATOM      1  C   UNL     1       3.489   1.586  -2.331  1.00  0.00     0.275 C 
ENDROOT
BRANCH   1   2
ATOM      2  O   UNL     1       2.569   1.451  -1.241  1.00  0.00    -0.458 OA
BRANCH   2   3
ATOM      3  C   UNL     1       2.776   2.222  -0.130  1.00  0.00     0.343 C 
ATOM      4  O   UNL     1       3.860   2.645   0.227  1.00  0.00    -0.246 OA
BRANCH   3   5
ATOM      5  C   UNL     1       1.536   2.388   0.625  1.00  0.00     0.117 A 
ATOM      6  C   UNL     1       0.819  -0.138   0.400  1.00  0.00     0.069 C 
ATOM      7  C   UNL     1       0.654   1.261   0.897  1.00  0.00     0.068 A 
ATOM      8  N   UNL     1      -0.394   1.507   1.675  1.00  0.00    -0.195 NA
ATOM      9  S   UNL     1      -0.414   3.097   2.046  1.00  0.00    -0.017 S 
ATOM     10  C   UNL     1       1.004   3.566   1.170  1.00  0.00     0.133 A 
BRANCH  10  11
ATOM     11  N   UNL     1       1.297   4.972   1.139  1.00  0.00    -0.303 N 
ATOM     12  C   UNL     1       0.589   5.915   2.011  1.00  0.00     0.154 C 
BRANCH  11  13
ATOM     13  C   UNL     1       2.128   5.458   0.113  1.00  0.00     0.249 C 
ATOM     14  O   UNL     1       2.556   4.737  -0.793  1.00  0.00    -0.272 OA
BRANCH  13  15
ATOM     15  C   UNL     1       2.473   6.980  -0.012  1.00  0.00     0.170 C 
ATOM     16  C   UNL     1       1.301   7.907  -0.321  1.00  0.00     0.041 C 
BRANCH  15  17
ATOM     17  N   UNL     1       3.308   7.508   1.061  1.00  0.00    -0.327 N 
ATOM     18  C   UNL     1       4.580   7.937   0.834  1.00  0.00     0.312 C 
ATOM     19  H   UNL     1       2.943   7.555   1.974  1.00  0.00     0.166 HD
ATOM     20  N   UNL     1       5.203   8.360   1.956  1.00  0.00    -0.352 N 
ATOM     21  O   UNL     1       5.135   7.978  -0.253  1.00  0.00    -0.249 OA
ATOM     22  H   UNL     1       4.738   8.318   2.823  1.00  0.00     0.161 HD
ATOM     23  H   UNL     1       6.122   8.710   1.907  1.00  0.00     0.161 HD
ENDBRANCH  15  17
ENDBRANCH  13  15
ENDBRANCH  11  13
ENDBRANCH  10  11
ENDBRANCH   3   5
ENDBRANCH   2   3
ENDBRANCH   1   2
BRANCH   1  24
ATOM     24  C   UNL     1       2.709   2.053  -3.552  1.00  0.00     0.275 C 
BRANCH  24  25
ATOM     25  O   UNL     1       2.182   3.355  -3.326  1.00  0.00    -0.458 OA
BRANCH  25  26
ATOM     26  C   UNL     1       0.961   3.445  -2.753  1.00  0.00     0.338 C 
ATOM     27  O   UNL     1       0.269   2.544  -2.306  1.00  0.00    -0.246 OA
BRANCH  26  28
ATOM     28  C   UNL     1       0.484   4.820  -2.962  1.00  0.00     0.060 A 
ATOM     29  C   UNL     1      -0.841   5.116  -2.628  1.00  0.00     0.016 A 
ATOM     30  C   UNL     1       1.276   5.706  -3.709  1.00  0.00     0.016 A 
ATOM     31  C   UNL     1      -1.438   6.200  -3.236  1.00  0.00     0.010 A 
ATOM     32  C   UNL     1       0.677   6.758  -4.343  1.00  0.00     0.010 A 
ATOM     33  C   UNL     1      -0.688   6.938  -4.159  1.00  0.00    -0.014 A 
BRANCH  33  34
ATOM     34  C   UNL     1      -1.339   7.950  -4.949  1.00  0.00     0.031 A 
ATOM     35  C   UNL     1      -1.556   9.224  -4.229  1.00  0.00     0.074 A 
ATOM     36  C   UNL     1      -1.578   7.754  -6.258  1.00  0.00     0.049 A 
ATOM     37  N   UNL     1      -2.684   9.749  -3.890  1.00  0.00    -0.248 NA
ATOM     38  C   UNL     1      -0.383   9.921  -3.678  1.00  0.00     0.031 C 
ATOM     39  C   UNL     1      -1.155   6.658  -7.135  1.00  0.00     0.029 A 
ATOM     40  N   UNL     1      -2.232   8.585  -7.106  1.00  0.00    -0.354 N 
ATOM     41  C   UNL     1      -2.378  10.933  -3.225  1.00  0.00     0.074 A 
ATOM     42  C   UNL     1      -0.958  10.912  -2.997  1.00  0.00     0.031 C 
ATOM     43  C   UNL     1      -1.384   7.001  -8.425  1.00  0.00     0.029 A 
ATOM     44  C   UNL     1      -2.095   8.267  -8.450  1.00  0.00     0.049 A 
ATOM     45  H   UNL     1      -2.762   9.354  -6.794  1.00  0.00     0.167 HD
ATOM     46  C   UNL     1      -3.310  11.917  -3.092  1.00  0.00     0.037 A 
ATOM     47  C   UNL     1      -2.484   9.067  -9.473  1.00  0.00     0.037 A 
ATOM     48  C   UNL     1      -4.634  11.399  -3.331  1.00  0.00     0.049 A 
ATOM     49  C   UNL     1      -3.506  10.005  -8.919  1.00  0.00     0.074 A 
ATOM     50  C   UNL     1      -5.428  10.466  -2.692  1.00  0.00     0.029 A 
ATOM     51  N   UNL     1      -5.167  11.541  -4.590  1.00  0.00    -0.354 N 
ATOM     52  N   UNL     1      -4.676   9.606  -8.489  1.00  0.00    -0.248 NA
ATOM     53  C   UNL     1      -3.031  11.263  -8.355  1.00  0.00     0.031 C 
ATOM     54  C   UNL     1      -6.053   9.736  -3.746  1.00  0.00     0.029 A 
ATOM     55  C   UNL     1      -5.673  10.318  -4.956  1.00  0.00     0.049 A 
ATOM     56  H   UNL     1      -5.184  12.365  -5.129  1.00  0.00     0.167 HD
ATOM     57  C   UNL     1      -4.895  10.326  -7.321  1.00  0.00     0.074 A 
ATOM     58  C   UNL     1      -3.867  11.367  -7.316  1.00  0.00     0.031 C 
ATOM     59  C   UNL     1      -5.683   9.837  -6.318  1.00  0.00     0.037 A 
BRANCH  46  60
ATOM     60  C   UNL     1      -3.018  13.397  -3.089  1.00  0.00     0.064 A 
ATOM     61  C   UNL     1      -4.087  14.297  -2.900  1.00  0.00     0.173 A 
ATOM     62  C   UNL     1      -1.821  13.970  -3.567  1.00  0.00     0.173 A 
ATOM     63  F   UNL     1      -5.270  13.869  -2.433  1.00  0.00    -0.203 F 
ATOM     64  C   UNL     1      -3.998  15.640  -3.274  1.00  0.00     0.198 A 
ATOM     65  C   UNL     1      -1.721  15.321  -3.894  1.00  0.00     0.198 A 
ATOM     66  F   UNL     1      -0.734  13.240  -3.837  1.00  0.00    -0.203 F 
ATOM     67  F   UNL     1      -5.083  16.422  -3.203  1.00  0.00    -0.200 F 
ATOM     68  C   UNL     1      -2.820  16.147  -3.786  1.00  0.00     0.200 A 
ATOM     69  F   UNL     1      -0.571  15.794  -4.394  1.00  0.00    -0.200 F 
ATOM     70  F   UNL     1      -2.753  17.414  -4.214  1.00  0.00    -0.200 F 
ENDBRANCH  46  60
BRANCH  47  71
ATOM     71  C   UNL     1      -1.734   9.326 -10.727  1.00  0.00     0.064 A 
ATOM     72  C   UNL     1      -2.344   9.935 -11.835  1.00  0.00     0.173 A 
ATOM     73  C   UNL     1      -0.328   9.219 -10.770  1.00  0.00     0.173 A 
ATOM     74  F   UNL     1      -3.671  10.124 -11.852  1.00  0.00    -0.203 F 
ATOM     75  C   UNL     1      -1.591  10.418 -12.914  1.00  0.00     0.198 A 
ATOM     76  C   UNL     1       0.420   9.696 -11.846  1.00  0.00     0.198 A 
ATOM     77  F   UNL     1       0.357   8.731  -9.726  1.00  0.00    -0.203 F 
ATOM     78  F   UNL     1      -2.203  11.039 -13.932  1.00  0.00    -0.200 F 
ATOM     79  C   UNL     1      -0.210  10.305 -12.914  1.00  0.00     0.200 A 
ATOM     80  F   UNL     1       1.758   9.616 -11.812  1.00  0.00    -0.200 F 
ATOM     81  F   UNL     1       0.514  10.818 -13.918  1.00  0.00    -0.200 F 
ENDBRANCH  47  71
BRANCH  59  82
ATOM     82  C   UNL     1      -6.447   8.565  -6.575  1.00  0.00     0.064 A 
ATOM     83  C   UNL     1      -5.835   7.319  -6.804  1.00  0.00     0.173 A 
ATOM     84  C   UNL     1      -7.836   8.572  -6.408  1.00  0.00     0.173 A 
ATOM     85  F   UNL     1      -4.504   7.207  -6.859  1.00  0.00    -0.203 F 
ATOM     86  C   UNL     1      -6.583   6.147  -6.908  1.00  0.00     0.198 A 
ATOM     87  C   UNL     1      -8.579   7.395  -6.475  1.00  0.00     0.198 A 
ATOM     88  F   UNL     1      -8.470   9.718  -6.116  1.00  0.00    -0.203 F 
ATOM     89  F   UNL     1      -5.970   4.974  -7.130  1.00  0.00    -0.200 F 
ATOM     90  C   UNL     1      -7.955   6.186  -6.736  1.00  0.00     0.200 A 
ATOM     91  F   UNL     1      -9.900   7.430  -6.251  1.00  0.00    -0.200 F 
ATOM     92  F   UNL     1      -8.673   5.055  -6.790  1.00  0.00    -0.200 F 
ENDBRANCH  59  82
ENDBRANCH  33  34
ENDBRANCH  26  28
ENDBRANCH  25  26
ENDBRANCH  24  25
ENDBRANCH   1  24
TORSDOF 15
