REMARK SMILES O=C(OCCOC(=O)c1ccccc1C(=O)Nc1ccc(N2C(=O)[C@H]3[C@@H]4CC[C@@H](C4)[C@@H]3C2=O)cc1)c1ccc(-c2c3nc(c(-c4c(F)c(F)c(F)c(F)c4F)c4ccc([nH]4)c(-c4c(F)c(F)c(F)c(F)c4F)c4nc(c(-c5c(F)c(F)c(F)c(F)c5F)c5ccc2[nH]5)C=C4)C=C3)cc1
REMARK SMILES IDX 5 1 4 2 3 3 2 4 1 5 36 6 37 7 98 8 38 9 97 10 39 11 40 12
REMARK SMILES IDX 41 13 91 14 42 15 96 16 90 17 92 18 43 19 95 20 89 21 88 22
REMARK SMILES IDX 44 24 76 25 56 26 75 27 57 28 60 29 74 30 93 31 58 32 59 33
REMARK SMILES IDX 73 35 94 36 61 37 45 38 46 39 54 40 47 41 48 42 52 43 55 44
REMARK SMILES IDX 49 45 50 46 53 47 51 48 77 49 78 50 86 51 79 52 80 53 84 54
REMARK SMILES IDX 87 55 81 56 82 57 85 58 83 59 62 60 63 61 71 62 64 63 65 64
REMARK SMILES IDX 69 65 72 66 66 67 67 68 70 69 68 70 6 71 7 72 8 73 9 74
REMARK SMILES IDX 10 75 14 76 11 77 13 78 12 79 15 80 16 81 17 82 18 84 19 85
REMARK SMILES IDX 35 86 20 87 34 88 21 89 22 90 23 91 32 92 24 93 25 94 31 95
REMARK SMILES IDX 33 96 26 97 29 98 27 99 30 100 28 101
REMARK H PARENT 92 23 60 34 17 83
REMARK Flexibility Score: inf
ROOT
ATOM      1  C   UNL     1       3.509   1.822   1.879  1.00  0.00     0.275 C 
ENDROOT
BRANCH   1   2
ATOM      2  C   UNL     1       2.025   2.413   0.846  1.00  0.00     0.275 C 
BRANCH   2   3
ATOM      3  O   UNL     1       1.333   1.324  -0.418  1.00  0.00    -0.458 OA
BRANCH   3   4
ATOM      4  C   UNL     1       1.317  -0.062  -1.099  1.00  0.00     0.338 C 
ATOM      5  O   UNL     1       0.295  -0.222  -1.785  1.00  0.00    -0.246 OA
BRANCH   4   6
ATOM      6  C   UNL     1       2.338  -1.469  -1.151  1.00  0.00     0.060 A 
ATOM      7  C   UNL     1       3.764  -1.627  -1.060  1.00  0.00     0.016 A 
ATOM      8  C   UNL     1       1.743  -2.752  -1.123  1.00  0.00     0.016 A 
ATOM      9  C   UNL     1       4.511  -2.802  -0.724  1.00  0.00     0.010 A 
ATOM     10  C   UNL     1       2.496  -3.980  -0.789  1.00  0.00     0.010 A 
ATOM     11  C   UNL     1       3.885  -4.006  -0.497  1.00  0.00    -0.014 A 
BRANCH  11  12
ATOM     12  C   UNL     1       4.725  -5.205  -0.056  1.00  0.00     0.031 A 
ATOM     13  C   UNL     1       5.414  -6.060  -1.088  1.00  0.00     0.074 A 
ATOM     14  C   UNL     1       5.175  -5.459   1.203  1.00  0.00     0.049 A 
ATOM     15  N   UNL     1       6.200  -7.099  -0.915  1.00  0.00    -0.248 NA
ATOM     16  C   UNL     1       5.290  -5.619  -2.480  1.00  0.00     0.031 C 
ATOM     17  C   UNL     1       5.102  -4.554   2.329  1.00  0.00     0.029 A 
ATOM     18  N   UNL     1       5.822  -6.559   1.755  1.00  0.00    -0.354 N 
ATOM     19  C   UNL     1       6.725  -7.391  -2.159  1.00  0.00     0.074 A 
ATOM     20  C   UNL     1       6.119  -6.455  -3.091  1.00  0.00     0.031 C 
ATOM     21  C   UNL     1       5.472  -5.178   3.462  1.00  0.00     0.029 A 
ATOM     22  C   UNL     1       5.906  -6.529   3.134  1.00  0.00     0.049 A 
ATOM     23  H   UNL     1       6.188  -7.294   1.212  1.00  0.00     0.167 HD
ATOM     24  C   UNL     1       7.648  -8.322  -2.506  1.00  0.00     0.037 A 
ATOM     25  C   UNL     1       6.294  -7.447   4.047  1.00  0.00     0.037 A 
ATOM     26  C   UNL     1       8.264  -9.300  -1.645  1.00  0.00     0.049 A 
ATOM     27  C   UNL     1       6.972  -8.716   3.607  1.00  0.00     0.074 A 
ATOM     28  C   UNL     1       9.130 -10.325  -1.996  1.00  0.00     0.029 A 
ATOM     29  N   UNL     1       8.084  -9.395  -0.276  1.00  0.00    -0.354 N 
ATOM     30  N   UNL     1       7.397  -9.033   2.414  1.00  0.00    -0.248 NA
ATOM     31  C   UNL     1       7.287  -9.723   4.638  1.00  0.00     0.031 C 
ATOM     32  C   UNL     1       9.428 -11.075  -0.852  1.00  0.00     0.029 A 
ATOM     33  C   UNL     1       8.779 -10.495   0.221  1.00  0.00     0.049 A 
ATOM     34  H   UNL     1       7.545  -8.776   0.267  1.00  0.00     0.167 HD
ATOM     35  C   UNL     1       8.095 -10.223   2.561  1.00  0.00     0.074 A 
ATOM     36  C   UNL     1       8.017 -10.596   3.954  1.00  0.00     0.031 C 
ATOM     37  C   UNL     1       8.762 -10.907   1.602  1.00  0.00     0.037 A 
BRANCH  24  38
ATOM     38  C   UNL     1       8.015  -8.354  -3.953  1.00  0.00     0.064 A 
ATOM     39  C   UNL     1       8.924  -7.436  -4.497  1.00  0.00     0.173 A 
ATOM     40  C   UNL     1       7.439  -9.311  -4.798  1.00  0.00     0.173 A 
ATOM     41  F   UNL     1       9.484  -6.497  -3.720  1.00  0.00    -0.203 F 
ATOM     42  C   UNL     1       9.223  -7.460  -5.854  1.00  0.00     0.198 A 
ATOM     43  C   UNL     1       7.754  -9.341  -6.150  1.00  0.00     0.198 A 
ATOM     44  F   UNL     1       6.567 -10.206  -4.310  1.00  0.00    -0.203 F 
ATOM     45  F   UNL     1      10.060  -6.550  -6.371  1.00  0.00    -0.200 F 
ATOM     46  C   UNL     1       8.639  -8.412  -6.678  1.00  0.00     0.200 A 
ATOM     47  F   UNL     1       7.193 -10.263  -6.945  1.00  0.00    -0.200 F 
ATOM     48  F   UNL     1       8.920  -8.427  -7.989  1.00  0.00    -0.200 F 
ENDBRANCH  24  38
BRANCH  25  49
ATOM     49  C   UNL     1       6.035  -7.247   5.503  1.00  0.00     0.064 A 
ATOM     50  C   UNL     1       7.074  -7.088   6.431  1.00  0.00     0.173 A 
ATOM     51  C   UNL     1       4.731  -7.376   6.007  1.00  0.00     0.173 A 
ATOM     52  F   UNL     1       8.345  -7.018   6.007  1.00  0.00    -0.203 F 
ATOM     53  C   UNL     1       6.822  -7.092   7.804  1.00  0.00     0.198 A 
ATOM     54  C   UNL     1       4.478  -7.360   7.378  1.00  0.00     0.198 A 
ATOM     55  F   UNL     1       3.703  -7.579   5.168  1.00  0.00    -0.203 F 
ATOM     56  F   UNL     1       7.842  -7.016   8.671  1.00  0.00    -0.200 F 
ATOM     57  C   UNL     1       5.525  -7.230   8.276  1.00  0.00     0.200 A 
ATOM     58  F   UNL     1       3.225  -7.513   7.828  1.00  0.00    -0.200 F 
ATOM     59  F   UNL     1       5.289  -7.273   9.595  1.00  0.00    -0.200 F 
ENDBRANCH  25  49
BRANCH  37  60
ATOM     60  C   UNL     1       9.534 -12.129   2.009  1.00  0.00     0.064 A 
ATOM     61  C   UNL     1       8.893 -13.321   2.378  1.00  0.00     0.173 A 
ATOM     62  C   UNL     1      10.938 -12.124   1.992  1.00  0.00     0.173 A 
ATOM     63  F   UNL     1       7.554 -13.377   2.433  1.00  0.00    -0.203 F 
ATOM     64  C   UNL     1       9.626 -14.455   2.726  1.00  0.00     0.198 A 
ATOM     65  C   UNL     1      11.668 -13.267   2.317  1.00  0.00     0.198 A 
ATOM     66  F   UNL     1      11.607 -11.012   1.652  1.00  0.00    -0.203 F 
ATOM     67  F   UNL     1       8.990 -15.572   3.108  1.00  0.00    -0.200 F 
ATOM     68  C   UNL     1      11.012 -14.430   2.687  1.00  0.00     0.200 A 
ATOM     69  F   UNL     1      13.008 -13.241   2.273  1.00  0.00    -0.200 F 
ATOM     70  F   UNL     1      11.714 -15.525   3.011  1.00  0.00    -0.200 F 
ENDBRANCH  37  60
ENDBRANCH  11  12
ENDBRANCH   4   6
ENDBRANCH   3   4
ENDBRANCH   2   3
ENDBRANCH   1   2
BRANCH   1  71
ATOM     71  O   UNL     1       3.872  -0.204   1.924  1.00  0.00    -0.458 OA
BRANCH  71  72
ATOM     72  C   UNL     1       3.194  -1.545   2.020  1.00  0.00     0.339 C 
ATOM     73  O   UNL     1       2.314  -1.821   1.198  1.00  0.00    -0.246 OA
BRANCH  72  74
ATOM     74  C   UNL     1       2.924  -2.484   3.166  1.00  0.00     0.072 A 
ATOM     75  C   UNL     1       2.024  -3.572   2.781  1.00  0.00     0.016 A 
ATOM     76  C   UNL     1       3.358  -2.479   4.479  1.00  0.00     0.054 A 
ATOM     77  C   UNL     1       1.616  -4.613   3.597  1.00  0.00     0.001 A 
ATOM     78  C   UNL     1       2.924  -3.570   5.308  1.00  0.00     0.015 A 
ATOM     79  C   UNL     1       2.084  -4.615   4.882  1.00  0.00     0.001 A 
BRANCH  76  80
ATOM     80  C   UNL     1       4.343  -1.579   5.133  1.00  0.00     0.256 C 
ATOM     81  O   UNL     1       5.018  -2.078   6.043  1.00  0.00    -0.269 OA
ATOM     82  N   UNL     1       4.643  -0.278   4.800  1.00  0.00    -0.322 N 
ATOM     83  H   UNL     1       5.252   0.185   5.420  1.00  0.00     0.170 HD
BRANCH  82  84
ATOM     84  C   UNL     1       4.211   0.483   3.709  1.00  0.00     0.041 A 
ATOM     85  C   UNL     1       5.522   0.706   2.536  1.00  0.00     0.028 A 
ATOM     86  C   UNL     1       2.514   0.409   3.200  1.00  0.00     0.028 A 
ATOM     87  C   UNL     1       5.242   0.763   0.803  1.00  0.00     0.029 A 
ATOM     88  C   UNL     1       2.184   0.405   1.407  1.00  0.00     0.029 A 
ATOM     89  C   UNL     1       3.608   0.687   0.155  1.00  0.00     0.052 A 
BRANCH  89  90
ATOM     90  N   UNL     1       3.555   1.446  -1.315  1.00  0.00    -0.250 N 
ATOM     91  C   UNL     1       3.263   2.814  -1.526  1.00  0.00     0.237 C 
ATOM     92  C   UNL     1       3.706   0.940  -2.640  1.00  0.00     0.237 C 
ATOM     93  O   UNL     1       3.777   3.797  -1.020  1.00  0.00    -0.274 OA
ATOM     94  C   UNL     1       2.310   2.785  -2.702  1.00  0.00     0.095 C 
ATOM     95  C   UNL     1       3.237   2.025  -3.606  1.00  0.00     0.095 C 
ATOM     96  O   UNL     1       4.269  -0.049  -3.083  1.00  0.00    -0.274 OA
ATOM     97  C   UNL     1       1.474   3.634  -3.664  1.00  0.00     0.002 C 
ATOM     98  C   UNL     1       2.424   2.004  -4.909  1.00  0.00     0.002 C 
ATOM     99  C   UNL     1       0.256   2.723  -4.043  1.00  0.00     0.005 C 
ATOM    100  C   UNL     1       2.203   3.536  -5.014  1.00  0.00     0.009 C 
ATOM    101  C   UNL     1       0.956   1.529  -4.752  1.00  0.00     0.005 C 
ENDBRANCH  89  90
ENDBRANCH  82  84
ENDBRANCH  76  80
ENDBRANCH  72  74
ENDBRANCH  71  72
ENDBRANCH   1  71
TORSDOF 14
