REMARK SMILES C/C=C/C=C/C(=O)N[C@@H](C)CC(=O)OCCOC(=O)c1ccc(-c2c3nc(c(-c4c(F)c(F)c(F)c(F)c4F)c4ccc([nH]4)c(-c4c(F)c(F)c(F)c(F)c4F)c4nc(c(-c5c(F)c(F)c(F)c(F)c5F)c5ccc2[nH]5)C=C4)C=C3)cc1
REMARK SMILES IDX 15 1 14 2 12 3 13 4 11 5 9 6 10 7 8 8 6 9 7 10 5 12 4 13
REMARK SMILES IDX 3 14 1 15 2 16 16 17 17 18 18 19 19 20 20 21 21 22 82 23
REMARK SMILES IDX 22 24 81 25 23 26 24 27 25 28 75 29 26 30 80 31 74 32 76 33
REMARK SMILES IDX 27 34 79 35 73 36 72 37 28 39 60 40 40 41 59 42 41 43 44 44
REMARK SMILES IDX 58 45 77 46 42 47 43 48 57 50 78 51 45 52 29 53 30 54 38 55
REMARK SMILES IDX 31 56 32 57 36 58 39 59 33 60 34 61 37 62 35 63 61 64 62 65
REMARK SMILES IDX 70 66 63 67 64 68 68 69 71 70 65 71 66 72 69 73 67 74 46 75
REMARK SMILES IDX 47 76 55 77 48 78 49 79 53 80 56 81 50 82 51 83 54 84 52 85
REMARK H PARENT 8 11 76 38 44 49
REMARK Flexibility Score: inf
ROOT
ATOM      1  C   UNL     1      -5.232  -3.788   2.498  1.00  0.00     0.274 C 
ENDROOT
BRANCH   1   2
ATOM      2  O   UNL     1      -4.077  -4.160   3.278  1.00  0.00    -0.462 OA
BRANCH   2   3
ATOM      3  C   UNL     1      -3.323  -5.178   2.791  1.00  0.00     0.307 C 
ATOM      4  O   UNL     1      -3.526  -5.757   1.730  1.00  0.00    -0.252 OA
BRANCH   3   5
ATOM      5  C   UNL     1      -2.228  -5.593   3.743  1.00  0.00     0.147 C 
BRANCH   5   6
ATOM      6  C   UNL     1      -1.200  -4.493   4.035  1.00  0.00     0.090 C 
ATOM      7  C   UNL     1       0.161  -5.123   4.347  1.00  0.00     0.031 C 
BRANCH   6   8
ATOM      8  N   UNL     1      -1.601  -3.679   5.183  1.00  0.00    -0.350 N 
ATOM      9  C   UNL     1      -1.643  -2.333   5.370  1.00  0.00     0.244 C 
ATOM     10  O   UNL     1      -2.096  -1.895   6.427  1.00  0.00    -0.270 OA
ATOM     11  H   UNL     1      -1.895  -4.202   5.963  1.00  0.00     0.164 HD
BRANCH   9  12
ATOM     12  C   UNL     1      -1.258  -1.379   4.310  1.00  0.00     0.071 C 
ATOM     13  C   UNL     1      -0.163  -1.438   3.538  1.00  0.00     0.005 C 
BRANCH  13  14
ATOM     14  C   UNL     1       0.063  -0.487   2.469  1.00  0.00    -0.004 C 
ATOM     15  C   UNL     1       1.035   0.194   0.270  1.00  0.00     0.035 C 
ATOM     16  C   UNL     1       0.875  -0.735   1.430  1.00  0.00    -0.030 C 
ENDBRANCH  13  14
ENDBRANCH   9  12
ENDBRANCH   6   8
ENDBRANCH   5   6
ENDBRANCH   3   5
ENDBRANCH   2   3
ENDBRANCH   1   2
BRANCH   1  17
ATOM     17  C   UNL     1      -4.972  -2.597   1.569  1.00  0.00     0.275 C 
BRANCH  17  18
ATOM     18  O   UNL     1      -4.158  -2.954   0.434  1.00  0.00    -0.458 OA
BRANCH  18  19
ATOM     19  C   UNL     1      -2.833  -2.808   0.648  1.00  0.00     0.338 C 
ATOM     20  O   UNL     1      -2.308  -2.397   1.667  1.00  0.00    -0.246 OA
BRANCH  19  21
ATOM     21  C   UNL     1      -2.037  -3.307  -0.477  1.00  0.00     0.060 A 
ATOM     22  C   UNL     1      -1.161  -4.373  -0.245  1.00  0.00     0.016 A 
ATOM     23  C   UNL     1      -2.065  -2.660  -1.712  1.00  0.00     0.016 A 
ATOM     24  C   UNL     1      -0.318  -4.813  -1.261  1.00  0.00     0.010 A 
ATOM     25  C   UNL     1      -1.219  -3.104  -2.732  1.00  0.00     0.010 A 
ATOM     26  C   UNL     1      -0.345  -4.183  -2.512  1.00  0.00    -0.014 A 
BRANCH  26  27
ATOM     27  C   UNL     1       0.511  -4.681  -3.611  1.00  0.00     0.031 A 
ATOM     28  C   UNL     1       1.760  -3.950  -3.997  1.00  0.00     0.074 A 
ATOM     29  C   UNL     1       0.138  -5.791  -4.273  1.00  0.00     0.049 A 
ATOM     30  N   UNL     1       2.577  -4.180  -4.993  1.00  0.00    -0.248 NA
ATOM     31  C   UNL     1       2.143  -2.809  -3.152  1.00  0.00     0.031 C 
ATOM     32  C   UNL     1      -1.043  -6.597  -3.961  1.00  0.00     0.029 A 
ATOM     33  N   UNL     1       0.702  -6.422  -5.351  1.00  0.00    -0.354 N 
ATOM     34  C   UNL     1       3.564  -3.210  -4.905  1.00  0.00     0.074 A 
ATOM     35  C   UNL     1       3.240  -2.379  -3.763  1.00  0.00     0.031 C 
ATOM     36  C   UNL     1      -1.123  -7.610  -4.837  1.00  0.00     0.029 A 
ATOM     37  C   UNL     1      -0.025  -7.498  -5.793  1.00  0.00     0.049 A 
ATOM     38  H   UNL     1       1.546  -6.132  -5.767  1.00  0.00     0.167 HD
ATOM     39  C   UNL     1       4.642  -3.035  -5.707  1.00  0.00     0.037 A 
ATOM     40  C   UNL     1       0.155  -8.285  -6.870  1.00  0.00     0.037 A 
ATOM     41  C   UNL     1       4.958  -3.869  -6.838  1.00  0.00     0.049 A 
ATOM     42  C   UNL     1       1.322  -8.028  -7.779  1.00  0.00     0.074 A 
ATOM     43  C   UNL     1       6.044  -3.790  -7.693  1.00  0.00     0.029 A 
ATOM     44  N   UNL     1       4.183  -4.933  -7.275  1.00  0.00    -0.354 N 
ATOM     45  N   UNL     1       2.258  -7.116  -7.683  1.00  0.00    -0.248 NA
ATOM     46  C   UNL     1       1.454  -8.905  -8.951  1.00  0.00     0.031 C 
ATOM     47  C   UNL     1       5.905  -4.781  -8.672  1.00  0.00     0.029 A 
ATOM     48  C   UNL     1       4.752  -5.502  -8.404  1.00  0.00     0.049 A 
ATOM     49  H   UNL     1       3.351  -5.239  -6.847  1.00  0.00     0.167 HD
ATOM     50  C   UNL     1       3.096  -7.314  -8.770  1.00  0.00     0.074 A 
ATOM     51  C   UNL     1       2.566  -8.443  -9.507  1.00  0.00     0.031 C 
ATOM     52  C   UNL     1       4.205  -6.621  -9.127  1.00  0.00     0.037 A 
BRANCH  39  53
ATOM     53  C   UNL     1       5.550  -1.881  -5.407  1.00  0.00     0.064 A 
ATOM     54  C   UNL     1       6.445  -1.912  -4.328  1.00  0.00     0.173 A 
ATOM     55  C   UNL     1       5.558  -0.751  -6.238  1.00  0.00     0.173 A 
ATOM     56  F   UNL     1       6.466  -2.966  -3.498  1.00  0.00    -0.203 F 
ATOM     57  C   UNL     1       7.306  -0.845  -4.083  1.00  0.00     0.198 A 
ATOM     58  C   UNL     1       6.434   0.305  -6.002  1.00  0.00     0.198 A 
ATOM     59  F   UNL     1       4.723  -0.675  -7.285  1.00  0.00    -0.203 F 
ATOM     60  F   UNL     1       8.132  -0.881  -3.028  1.00  0.00    -0.200 F 
ATOM     61  C   UNL     1       7.304   0.259  -4.923  1.00  0.00     0.200 A 
ATOM     62  F   UNL     1       6.437   1.368  -6.819  1.00  0.00    -0.200 F 
ATOM     63  F   UNL     1       8.138   1.282  -4.689  1.00  0.00    -0.200 F 
ENDBRANCH  39  53
BRANCH  40  64
ATOM     64  C   UNL     1      -0.814  -9.373  -7.153  1.00  0.00     0.064 A 
ATOM     65  C   UNL     1      -0.460 -10.716  -6.977  1.00  0.00     0.173 A 
ATOM     66  C   UNL     1      -2.117  -9.088  -7.586  1.00  0.00     0.173 A 
ATOM     67  F   UNL     1       0.782 -11.036  -6.586  1.00  0.00    -0.203 F 
ATOM     68  C   UNL     1      -1.374 -11.737  -7.231  1.00  0.00     0.198 A 
ATOM     69  C   UNL     1      -3.036 -10.108  -7.817  1.00  0.00     0.198 A 
ATOM     70  F   UNL     1      -2.501  -7.816  -7.769  1.00  0.00    -0.203 F 
ATOM     71  F   UNL     1      -1.003 -13.016  -7.085  1.00  0.00    -0.200 F 
ATOM     72  C   UNL     1      -2.663 -11.432  -7.643  1.00  0.00     0.200 A 
ATOM     73  F   UNL     1      -4.284  -9.808  -8.205  1.00  0.00    -0.200 F 
ATOM     74  F   UNL     1      -3.543 -12.414  -7.878  1.00  0.00    -0.200 F 
ENDBRANCH  40  64
BRANCH  52  75
ATOM     75  C   UNL     1       4.924  -7.076 -10.361  1.00  0.00     0.064 A 
ATOM     76  C   UNL     1       4.423  -6.799 -11.640  1.00  0.00     0.173 A 
ATOM     77  C   UNL     1       6.142  -7.764 -10.262  1.00  0.00     0.173 A 
ATOM     78  F   UNL     1       3.252  -6.159 -11.783  1.00  0.00    -0.203 F 
ATOM     79  C   UNL     1       5.108  -7.212 -12.780  1.00  0.00     0.198 A 
ATOM     80  C   UNL     1       6.835  -8.156 -11.404  1.00  0.00     0.198 A 
ATOM     81  F   UNL     1       6.662  -8.049  -9.059  1.00  0.00    -0.203 F 
ATOM     82  F   UNL     1       4.593  -6.971 -13.993  1.00  0.00    -0.200 F 
ATOM     83  C   UNL     1       6.315  -7.884 -12.661  1.00  0.00     0.200 A 
ATOM     84  F   UNL     1       8.005  -8.799 -11.288  1.00  0.00    -0.200 F 
ATOM     85  F   UNL     1       6.975  -8.278 -13.759  1.00  0.00    -0.200 F 
ENDBRANCH  52  75
ENDBRANCH  26  27
ENDBRANCH  19  21
ENDBRANCH  18  19
ENDBRANCH  17  18
ENDBRANCH   1  17
TORSDOF 15
