REMARK SMILES COC[C@@H](C)N(C)C(=O)N1CCC(CC(=O)OCCOC(=O)c2ccc(-c3c4nc(c(-c5c(F)c(F)c(F)c(F)c5F)c5ccc([nH]5)c(-c5c(F)c(F)c(F)c(F)c5F)c5nc(c(-c6c(F)c(F)c(F)c(F)c6F)c6ccc3[nH]6)C=C5)C=C4)cc2)CC1
REMARK SMILES IDX 17 1 15 2 16 3 14 4 13 5 8 6 9 7 10 8 11 9 87 10 12 11 86 12
REMARK SMILES IDX 6 13 7 14 4 15 5 16 3 17 2 18 1 19 18 20 19 21 20 22 21 23
REMARK SMILES IDX 22 24 23 25 24 26 85 27 25 28 84 29 26 30 27 31 28 32 78 33
REMARK SMILES IDX 29 34 83 35 77 36 79 37 30 38 82 39 76 40 75 41 31 43 63 44
REMARK SMILES IDX 43 45 62 46 44 47 47 48 61 49 80 50 45 51 46 52 60 54 81 55
REMARK SMILES IDX 48 56 32 57 33 58 41 59 34 60 35 61 39 62 42 63 36 64 37 65
REMARK SMILES IDX 40 66 38 67 64 68 65 69 73 70 66 71 67 72 71 73 74 74 68 75
REMARK SMILES IDX 69 76 72 77 70 78 49 79 50 80 58 81 51 82 52 83 56 84 59 85
REMARK SMILES IDX 53 86 54 87 57 88 55 89
REMARK H PARENT 79 42 47 53
REMARK Flexibility Score: inf
ROOT
ATOM      1  O   UNL     1       7.510   2.972  -7.405  1.00  0.00    -0.462 OA
ENDROOT
BRANCH   1   2
ATOM      2  C   UNL     1       7.228   4.270  -7.139  1.00  0.00     0.306 C 
ATOM      3  O   UNL     1       7.868   5.227  -7.557  1.00  0.00    -0.252 OA
BRANCH   2   4
ATOM      4  C   UNL     1       6.045   4.425  -6.204  1.00  0.00     0.126 C 
BRANCH   4   5
ATOM      5  C   UNL     1       4.822   3.545  -6.519  1.00  0.00     0.003 C 
ATOM      6  C   UNL     1       2.272   1.541  -4.275  1.00  0.00     0.320 C 
ATOM      7  O   UNL     1       3.133   1.103  -3.511  1.00  0.00    -0.248 OA
ATOM      8  N   UNL     1       2.602   1.930  -5.559  1.00  0.00    -0.325 N 
ATOM      9  C   UNL     1       3.740   1.286  -6.191  1.00  0.00     0.121 C 
ATOM     10  C   UNL     1       2.312   3.271  -6.053  1.00  0.00     0.121 C 
ATOM     11  C   UNL     1       5.005   2.109  -5.992  1.00  0.00     0.026 C 
ATOM     12  C   UNL     1       3.546   4.173  -5.912  1.00  0.00     0.026 C 
BRANCH   6  13
ATOM     13  N   UNL     1       0.936   1.617  -3.915  1.00  0.00    -0.323 N 
ATOM     14  C   UNL     1      -0.156   1.739  -4.872  1.00  0.00     0.149 C 
BRANCH  13  15
ATOM     15  C   UNL     1       0.545   1.344  -2.512  1.00  0.00     0.109 C 
ATOM     16  C   UNL     1       1.093   2.421  -1.572  1.00  0.00     0.033 C 
BRANCH  15  17
ATOM     17  C   UNL     1       0.906  -0.096  -2.073  1.00  0.00     0.184 C 
BRANCH  17  18
ATOM     18  O   UNL     1       0.170  -0.541  -0.929  1.00  0.00    -0.383 OA
ATOM     19  C   UNL     1       0.838  -0.314   0.305  1.00  0.00     0.194 C 
ENDBRANCH  17  18
ENDBRANCH  15  17
ENDBRANCH  13  15
ENDBRANCH   6  13
ENDBRANCH   4   5
ENDBRANCH   2   4
ENDBRANCH   1   2
BRANCH   1  20
ATOM     20  C   UNL     1       8.624   2.706  -8.278  1.00  0.00     0.274 C 
BRANCH  20  21
ATOM     21  C   UNL     1       8.149   2.416  -9.702  1.00  0.00     0.275 C 
BRANCH  21  22
ATOM     22  O   UNL     1       7.648   3.611 -10.329  1.00  0.00    -0.458 OA
BRANCH  22  23
ATOM     23  C   UNL     1       6.304   3.758 -10.327  1.00  0.00     0.338 C 
ATOM     24  O   UNL     1       5.464   2.972  -9.920  1.00  0.00    -0.246 OA
BRANCH  23  25
ATOM     25  C   UNL     1       5.982   5.110 -10.801  1.00  0.00     0.060 A 
ATOM     26  C   UNL     1       5.524   6.053  -9.877  1.00  0.00     0.016 A 
ATOM     27  C   UNL     1       6.109   5.436 -12.152  1.00  0.00     0.016 A 
ATOM     28  C   UNL     1       5.211   7.343 -10.299  1.00  0.00     0.010 A 
ATOM     29  C   UNL     1       5.796   6.731 -12.573  1.00  0.00     0.010 A 
ATOM     30  C   UNL     1       5.351   7.693 -11.649  1.00  0.00    -0.014 A 
BRANCH  30  31
ATOM     31  C   UNL     1       5.052   9.073 -12.098  1.00  0.00     0.031 A 
ATOM     32  C   UNL     1       3.802   9.359 -12.875  1.00  0.00     0.074 A 
ATOM     33  C   UNL     1       5.923  10.061 -11.823  1.00  0.00     0.049 A 
ATOM     34  N   UNL     1       3.422  10.472 -13.450  1.00  0.00    -0.248 NA
ATOM     35  C   UNL     1       2.854   8.246 -13.026  1.00  0.00     0.031 C 
ATOM     36  C   UNL     1       7.154   9.907 -11.050  1.00  0.00     0.029 A 
ATOM     37  N   UNL     1       5.912  11.387 -12.178  1.00  0.00    -0.354 N 
ATOM     38  C   UNL     1       2.200  10.191 -14.043  1.00  0.00     0.074 A 
ATOM     39  C   UNL     1       1.907   8.799 -13.772  1.00  0.00     0.031 C 
ATOM     40  C   UNL     1       7.788  11.090 -10.997  1.00  0.00     0.029 A 
ATOM     41  C   UNL     1       7.031  12.070 -11.772  1.00  0.00     0.049 A 
ATOM     42  H   UNL     1       5.173  11.807 -12.675  1.00  0.00     0.167 HD
ATOM     43  C   UNL     1       1.397  11.024 -14.747  1.00  0.00     0.037 A 
ATOM     44  C   UNL     1       7.421  13.332 -12.030  1.00  0.00     0.037 A 
ATOM     45  C   UNL     1       1.691  12.410 -15.006  1.00  0.00     0.049 A 
ATOM     46  C   UNL     1       6.547  14.213 -12.879  1.00  0.00     0.074 A 
ATOM     47  C   UNL     1       0.921  13.346 -15.675  1.00  0.00     0.029 A 
ATOM     48  N   UNL     1       2.854  13.057 -14.614  1.00  0.00    -0.354 N 
ATOM     49  N   UNL     1       5.385  13.947 -13.423  1.00  0.00    -0.248 NA
ATOM     50  C   UNL     1       7.045  15.567 -13.161  1.00  0.00     0.031 C 
ATOM     51  C   UNL     1       1.639  14.546 -15.729  1.00  0.00     0.029 A 
ATOM     52  C   UNL     1       2.837  14.370 -15.057  1.00  0.00     0.049 A 
ATOM     53  H   UNL     1       3.583  12.644 -14.098  1.00  0.00     0.167 HD
ATOM     54  C   UNL     1       5.008  15.098 -14.101  1.00  0.00     0.074 A 
ATOM     55  C   UNL     1       6.056  16.073 -13.884  1.00  0.00     0.031 C 
ATOM     56  C   UNL     1       3.896  15.324 -14.842  1.00  0.00     0.037 A 
BRANCH  43  57
ATOM     57  C   UNL     1       0.131  10.455 -15.313  1.00  0.00     0.064 A 
ATOM     58  C   UNL     1      -0.972  10.158 -14.499  1.00  0.00     0.173 A 
ATOM     59  C   UNL     1       0.003  10.250 -16.695  1.00  0.00     0.173 A 
ATOM     60  F   UNL     1      -0.895  10.325 -13.171  1.00  0.00    -0.203 F 
ATOM     61  C   UNL     1      -2.151   9.658 -15.047  1.00  0.00     0.198 A 
ATOM     62  C   UNL     1      -1.185   9.772 -17.242  1.00  0.00     0.198 A 
ATOM     63  F   UNL     1       1.027  10.523 -17.517  1.00  0.00    -0.203 F 
ATOM     64  F   UNL     1      -3.180   9.347 -14.247  1.00  0.00    -0.200 F 
ATOM     65  C   UNL     1      -2.259   9.472 -16.417  1.00  0.00     0.200 A 
ATOM     66  F   UNL     1      -1.291   9.602 -18.567  1.00  0.00    -0.200 F 
ATOM     67  F   UNL     1      -3.397   8.998 -16.943  1.00  0.00    -0.200 F 
ENDBRANCH  43  57
BRANCH  44  68
ATOM     68  C   UNL     1       8.722  13.824 -11.507  1.00  0.00     0.064 A 
ATOM     69  C   UNL     1       8.774  14.798 -10.502  1.00  0.00     0.173 A 
ATOM     70  C   UNL     1       9.937  13.332 -12.007  1.00  0.00     0.173 A 
ATOM     71  F   UNL     1       7.639  15.319 -10.014  1.00  0.00    -0.203 F 
ATOM     72  C   UNL     1       9.995  15.269 -10.022  1.00  0.00     0.198 A 
ATOM     73  C   UNL     1      11.156  13.784 -11.507  1.00  0.00     0.198 A 
ATOM     74  F   UNL     1       9.940  12.403 -12.973  1.00  0.00    -0.203 F 
ATOM     75  F   UNL     1      10.018  16.230  -9.088  1.00  0.00    -0.200 F 
ATOM     76  C   UNL     1      11.184  14.757 -10.519  1.00  0.00     0.200 A 
ATOM     77  F   UNL     1      12.302  13.280 -11.984  1.00  0.00    -0.200 F 
ATOM     78  F   UNL     1      12.357  15.207 -10.053  1.00  0.00    -0.200 F 
ENDBRANCH  44  68
BRANCH  56  79
ATOM     79  C   UNL     1       3.756  16.680 -15.468  1.00  0.00     0.064 A 
ATOM     80  C   UNL     1       4.525  17.052 -16.579  1.00  0.00     0.173 A 
ATOM     81  C   UNL     1       2.820  17.601 -14.975  1.00  0.00     0.173 A 
ATOM     82  F   UNL     1       5.446  16.212 -17.075  1.00  0.00    -0.203 F 
ATOM     83  C   UNL     1       4.376  18.307 -17.164  1.00  0.00     0.198 A 
ATOM     84  C   UNL     1       2.655  18.845 -15.578  1.00  0.00     0.198 A 
ATOM     85  F   UNL     1       2.057  17.290 -13.916  1.00  0.00    -0.203 F 
ATOM     86  F   UNL     1       5.151  18.659 -18.200  1.00  0.00    -0.200 F 
ATOM     87  C   UNL     1       3.437  19.199 -16.667  1.00  0.00     0.200 A 
ATOM     88  F   UNL     1       1.741  19.702 -15.103  1.00  0.00    -0.200 F 
ATOM     89  F   UNL     1       3.291  20.405 -17.235  1.00  0.00    -0.200 F 
ENDBRANCH  56  79
ENDBRANCH  30  31
ENDBRANCH  23  25
ENDBRANCH  22  23
ENDBRANCH  21  22
ENDBRANCH  20  21
ENDBRANCH   1  20
TORSDOF 16
