REMARK SMILES C[C@@H]([NH2+]CC(C)(C)S(C)(=O)=O)C(=O)OCCOC(=O)c1ccc(-c2c3nc(c(-c4c(F)c(F)c(F)c(F)c4F)c4ccc([nH]4)c(-c4c(F)c(F)c(F)c(F)c4F)c4nc(c(-c5c(F)c(F)c(F)c(F)c5F)c5ccc2[nH]5)C=C4)C=C3)cc1
REMARK SMILES IDX 15 1 14 2 12 3 13 4 2 5 1 6 3 7 4 10 5 11 6 12 7 13 8 14
REMARK SMILES IDX 9 15 10 16 11 17 16 18 17 19 18 20 19 21 20 22 21 23 82 24
REMARK SMILES IDX 22 25 81 26 23 27 24 28 25 29 75 30 26 31 80 32 74 33 76 34
REMARK SMILES IDX 27 35 79 36 73 37 72 38 28 40 60 41 40 42 59 43 41 44 44 45
REMARK SMILES IDX 58 46 77 47 42 48 43 49 57 51 78 52 45 53 29 54 30 55 38 56
REMARK SMILES IDX 31 57 32 58 36 59 39 60 33 61 34 62 37 63 35 64 61 65 62 66
REMARK SMILES IDX 70 67 63 68 64 69 68 70 71 71 65 72 66 73 69 74 67 75 46 76
REMARK SMILES IDX 47 77 55 78 48 79 49 80 53 81 56 82 50 83 51 84 54 85 52 86
REMARK H PARENT 3 8 3 9 76 39 44 50
REMARK Flexibility Score: inf
ROOT
ATOM      1  C   UNL     1      -3.254   0.833   0.331  1.00  0.00     0.274 C 
ENDROOT
BRANCH   1   2
ATOM      2  O   UNL     1      -1.820   0.942   0.251  1.00  0.00    -0.458 OA
BRANCH   2   3
ATOM      3  C   UNL     1      -1.168   0.512   1.361  1.00  0.00     0.364 C 
ATOM      4  O   UNL     1      -1.752   0.078   2.351  1.00  0.00    -0.245 OA
BRANCH   3   5
ATOM      5  C   UNL     1       0.363   0.604   1.292  1.00  0.00     0.290 C 
ATOM      6  C   UNL     1       0.894   0.808  -0.128  1.00  0.00     0.088 C 
BRANCH   5   7
ATOM      7  N   UNL     1       0.918   1.637   2.195  1.00  0.00    -0.333 N 
ATOM      8  H   UNL     1       0.661   2.546   1.810  1.00  0.00     0.347 HD
ATOM      9  H   UNL     1       1.918   1.435   2.227  1.00  0.00     0.347 HD
BRANCH   7  10
ATOM     10  C   UNL     1       0.496   1.623   3.604  1.00  0.00     0.283 C 
BRANCH  10  11
ATOM     11  C   UNL     1       1.183   0.759   4.706  1.00  0.00     0.115 C 
ATOM     12  C   UNL     1       2.715   0.877   4.620  1.00  0.00     0.034 C 
ATOM     13  C   UNL     1       0.723   1.304   6.080  1.00  0.00     0.034 C 
BRANCH  11  14
ATOM     14  S   UNL     1       0.771  -1.019   4.679  1.00  0.00     0.158 S 
ATOM     15  C   UNL     1      -1.006  -1.172   4.745  1.00  0.00     0.159 C 
ATOM     16  O   UNL     1       1.246  -1.570   3.426  1.00  0.00    -0.228 OA
ATOM     17  O   UNL     1       1.263  -1.598   5.920  1.00  0.00    -0.228 OA
ENDBRANCH  11  14
ENDBRANCH  10  11
ENDBRANCH   7  10
ENDBRANCH   5   7
ENDBRANCH   3   5
ENDBRANCH   2   3
ENDBRANCH   1   2
BRANCH   1  18
ATOM     18  C   UNL     1      -3.778  -0.519  -0.177  1.00  0.00     0.275 C 
BRANCH  18  19
ATOM     19  O   UNL     1      -3.303  -1.651   0.587  1.00  0.00    -0.458 OA
BRANCH  19  20
ATOM     20  C   UNL     1      -2.175  -2.234   0.105  1.00  0.00     0.338 C 
ATOM     21  O   UNL     1      -1.566  -1.899  -0.897  1.00  0.00    -0.246 OA
BRANCH  20  22
ATOM     22  C   UNL     1      -1.643  -3.256   1.040  1.00  0.00     0.060 A 
ATOM     23  C   UNL     1      -0.265  -3.243   1.270  1.00  0.00     0.016 A 
ATOM     24  C   UNL     1      -2.431  -4.236   1.651  1.00  0.00     0.016 A 
ATOM     25  C   UNL     1       0.323  -4.168   2.135  1.00  0.00     0.010 A 
ATOM     26  C   UNL     1      -1.832  -5.189   2.500  1.00  0.00     0.010 A 
ATOM     27  C   UNL     1      -0.450  -5.154   2.755  1.00  0.00    -0.014 A 
BRANCH  27  28
ATOM     28  C   UNL     1       0.249  -6.168   3.592  1.00  0.00     0.031 A 
ATOM     29  C   UNL     1       0.821  -7.394   2.944  1.00  0.00     0.074 A 
ATOM     30  C   UNL     1       0.490  -5.945   4.898  1.00  0.00     0.049 A 
ATOM     31  N   UNL     1       1.530  -8.361   3.471  1.00  0.00    -0.248 NA
ATOM     32  C   UNL     1       0.571  -7.544   1.503  1.00  0.00     0.031 C 
ATOM     33  C   UNL     1       0.064  -4.762   5.634  1.00  0.00     0.029 A 
ATOM     34  N   UNL     1       1.180  -6.687   5.829  1.00  0.00    -0.354 N 
ATOM     35  C   UNL     1       1.825  -9.225   2.428  1.00  0.00     0.074 A 
ATOM     36  C   UNL     1       1.193  -8.684   1.241  1.00  0.00     0.031 C 
ATOM     37  C   UNL     1       0.515  -4.841   6.897  1.00  0.00     0.029 A 
ATOM     38  C   UNL     1       1.225  -6.105   7.075  1.00  0.00     0.049 A 
ATOM     39  H   UNL     1       1.601  -7.553   5.624  1.00  0.00     0.167 HD
ATOM     40  C   UNL     1       2.560 -10.362   2.454  1.00  0.00     0.037 A 
ATOM     41  C   UNL     1       1.762  -6.548   8.230  1.00  0.00     0.037 A 
ATOM     42  C   UNL     1       3.167 -10.922   3.635  1.00  0.00     0.049 A 
ATOM     43  C   UNL     1       2.484  -7.873   8.250  1.00  0.00     0.074 A 
ATOM     44  C   UNL     1       3.887 -12.098   3.759  1.00  0.00     0.029 A 
ATOM     45  N   UNL     1       3.119 -10.352   4.899  1.00  0.00    -0.354 N 
ATOM     46  N   UNL     1       2.748  -8.692   7.261  1.00  0.00    -0.248 NA
ATOM     47  C   UNL     1       2.985  -8.337   9.553  1.00  0.00     0.031 C 
ATOM     48  C   UNL     1       4.228 -12.268   5.106  1.00  0.00     0.029 A 
ATOM     49  C   UNL     1       3.776 -11.165   5.811  1.00  0.00     0.049 A 
ATOM     50  H   UNL     1       2.683  -9.497   5.116  1.00  0.00     0.167 HD
ATOM     51  C   UNL     1       3.460  -9.749   7.815  1.00  0.00     0.074 A 
ATOM     52  C   UNL     1       3.618  -9.453   9.222  1.00  0.00     0.031 C 
ATOM     53  C   UNL     1       3.932 -10.869   7.213  1.00  0.00     0.037 A 
BRANCH  40  54
ATOM     54  C   UNL     1       2.715 -11.106   1.161  1.00  0.00     0.064 A 
ATOM     55  C   UNL     1       3.525 -10.619   0.124  1.00  0.00     0.173 A 
ATOM     56  C   UNL     1       2.068 -12.336   0.968  1.00  0.00     0.173 A 
ATOM     57  F   UNL     1       4.151  -9.439   0.252  1.00  0.00    -0.203 F 
ATOM     58  C   UNL     1       3.665 -11.327  -1.067  1.00  0.00     0.198 A 
ATOM     59  C   UNL     1       2.234 -13.055  -0.211  1.00  0.00     0.198 A 
ATOM     60  F   UNL     1       1.284 -12.845   1.930  1.00  0.00    -0.203 F 
ATOM     61  F   UNL     1       4.407 -10.823  -2.062  1.00  0.00    -0.200 F 
ATOM     62  C   UNL     1       3.026 -12.548  -1.230  1.00  0.00     0.200 A 
ATOM     63  F   UNL     1       1.627 -14.240  -0.362  1.00  0.00    -0.200 F 
ATOM     64  F   UNL     1       3.168 -13.232  -2.373  1.00  0.00    -0.200 F 
ENDBRANCH  40  54
BRANCH  41  65
ATOM     65  C   UNL     1       1.598  -5.768   9.491  1.00  0.00     0.064 A 
ATOM     66  C   UNL     1       2.702  -5.265  10.195  1.00  0.00     0.173 A 
ATOM     67  C   UNL     1       0.329  -5.588  10.064  1.00  0.00     0.173 A 
ATOM     68  F   UNL     1       3.942  -5.443   9.715  1.00  0.00    -0.203 F 
ATOM     69  C   UNL     1       2.547  -4.648  11.436  1.00  0.00     0.198 A 
ATOM     70  C   UNL     1       0.172  -4.937  11.286  1.00  0.00     0.198 A 
ATOM     71  F   UNL     1      -0.763  -6.062   9.446  1.00  0.00    -0.203 F 
ATOM     72  F   UNL     1       3.627  -4.254  12.126  1.00  0.00    -0.200 F 
ATOM     73  C   UNL     1       1.282  -4.481  11.979  1.00  0.00     0.200 A 
ATOM     74  F   UNL     1      -1.054  -4.774  11.803  1.00  0.00    -0.200 F 
ATOM     75  F   UNL     1       1.135  -3.904  13.179  1.00  0.00    -0.200 F 
ENDBRANCH  41  65
BRANCH  53  76
ATOM     76  C   UNL     1       4.690 -11.846   8.070  1.00  0.00     0.064 A 
ATOM     77  C   UNL     1       4.061 -12.588   9.082  1.00  0.00     0.173 A 
ATOM     78  C   UNL     1       6.065 -12.050   7.872  1.00  0.00     0.173 A 
ATOM     79  F   UNL     1       2.751 -12.426   9.324  1.00  0.00    -0.203 F 
ATOM     80  C   UNL     1       4.786 -13.461   9.891  1.00  0.00     0.198 A 
ATOM     81  C   UNL     1       6.779 -12.953   8.657  1.00  0.00     0.198 A 
ATOM     82  F   UNL     1       6.719 -11.378   6.913  1.00  0.00    -0.203 F 
ATOM     83  F   UNL     1       4.175 -14.105  10.895  1.00  0.00    -0.200 F 
ATOM     84  C   UNL     1       6.143 -13.647   9.674  1.00  0.00     0.200 A 
ATOM     85  F   UNL     1       8.087 -13.144   8.434  1.00  0.00    -0.200 F 
ATOM     86  F   UNL     1       6.838 -14.486  10.453  1.00  0.00    -0.200 F 
ENDBRANCH  53  76
ENDBRANCH  27  28
ENDBRANCH  20  22
ENDBRANCH  19  20
ENDBRANCH  18  19
ENDBRANCH   1  18
TORSDOF 15
