REMARK SMILES O=C(CC1(CC(=O)OCCOC(=O)c2ccc(-c3c4nc(c(-c5c(F)c(F)c(F)c(F)c5F)c5ccc([nH]5)c(-c5c(F)c(F)c(F)c(F)c5F)c5nc(c(-c6c(F)c(F)c(F)c(F)c6F)c6ccc3[nH]6)C=C5)C=C4)cc2)CCCCC1)NNC(=O)C1CC1
REMARK SMILES IDX 8 1 6 2 7 3 5 4 4 5 77 6 81 7 78 8 80 9 79 10 3 11 2 12 1 13
REMARK SMILES IDX 82 14 83 16 84 17 85 19 86 20 87 21 88 22 9 23 10 24 11 25
REMARK SMILES IDX 12 26 13 27 14 28 15 29 76 30 16 31 75 32 17 33 18 34 19 35
REMARK SMILES IDX 69 36 20 37 74 38 68 39 70 40 21 41 73 42 67 43 66 44 22 46
REMARK SMILES IDX 54 47 34 48 53 49 35 50 38 51 52 52 71 53 36 54 37 55 51 57
REMARK SMILES IDX 72 58 39 59 23 60 24 61 32 62 25 63 26 64 30 65 33 66 27 67
REMARK SMILES IDX 28 68 31 69 29 70 55 71 56 72 64 73 57 74 58 75 62 76 65 77
REMARK SMILES IDX 59 78 60 79 63 80 61 81 40 82 41 83 49 84 42 85 43 86 47 87
REMARK SMILES IDX 50 88 44 89 45 90 48 91 46 92
REMARK H PARENT 82 15 83 18 70 45 38 56
REMARK Flexibility Score: inf
ROOT
ATOM      1  O   UNL     1       4.595  -3.303  -0.698  1.00  0.00    -0.462 OA
ENDROOT
BRANCH   1   2
ATOM      2  C   UNL     1       5.496  -2.440  -0.193  1.00  0.00     0.306 C 
ATOM      3  O   UNL     1       6.585  -2.203  -0.708  1.00  0.00    -0.252 OA
BRANCH   2   4
ATOM      4  C   UNL     1       5.045  -1.767   1.076  1.00  0.00     0.130 C 
BRANCH   4   5
ATOM      5  C   UNL     1       3.547  -1.624   1.595  1.00  0.00    -0.010 C 
ATOM      6  C   UNL     1       3.789  -1.235   3.113  1.00  0.00     0.008 C 
ATOM      7  C   UNL     1       2.805  -2.972   1.637  1.00  0.00     0.008 C 
ATOM      8  C   UNL     1       4.595  -2.269   3.917  1.00  0.00     0.001 C 
ATOM      9  C   UNL     1       3.624  -4.075   2.316  1.00  0.00     0.001 C 
ATOM     10  C   UNL     1       4.118  -3.708   3.719  1.00  0.00     0.000 C 
BRANCH   5  11
ATOM     11  C   UNL     1       2.559  -0.450   1.023  1.00  0.00     0.109 C 
BRANCH  11  12
ATOM     12  C   UNL     1       1.621  -0.470  -0.281  1.00  0.00     0.238 C 
ATOM     13  O   UNL     1       0.485  -0.949  -0.235  1.00  0.00    -0.273 OA
ATOM     14  N   UNL     1       2.063   0.203  -1.436  1.00  0.00    -0.268 N 
ATOM     15  H   UNL     1       2.923   0.681  -1.403  1.00  0.00     0.191 HD
BRANCH  14  16
ATOM     16  N   UNL     1       1.316   0.221  -2.653  1.00  0.00    -0.267 N 
ATOM     17  C   UNL     1       1.705   0.235  -4.008  1.00  0.00     0.241 C 
ATOM     18  H   UNL     1       0.341   0.225  -2.520  1.00  0.00     0.191 HD
ATOM     19  O   UNL     1       0.817   0.158  -4.857  1.00  0.00    -0.273 OA
BRANCH  17  20
ATOM     20  C   UNL     1       3.123   0.382  -4.504  1.00  0.00     0.080 C 
ATOM     21  C   UNL     1       3.853  -0.676  -5.326  1.00  0.00     0.014 C 
ATOM     22  C   UNL     1       3.428   0.578  -5.992  1.00  0.00     0.014 C 
ENDBRANCH  17  20
ENDBRANCH  14  16
ENDBRANCH  11  12
ENDBRANCH   5  11
ENDBRANCH   4   5
ENDBRANCH   2   4
ENDBRANCH   1   2
BRANCH   1  23
ATOM     23  C   UNL     1       4.606  -3.309  -2.127  1.00  0.00     0.274 C 
BRANCH  23  24
ATOM     24  C   UNL     1       4.056  -1.964  -2.573  1.00  0.00     0.275 C 
BRANCH  24  25
ATOM     25  O   UNL     1       5.041  -0.872  -2.703  1.00  0.00    -0.458 OA
BRANCH  25  26
ATOM     26  C   UNL     1       5.038   0.048  -1.728  1.00  0.00     0.338 C 
ATOM     27  O   UNL     1       4.357  -0.053  -0.699  1.00  0.00    -0.246 OA
BRANCH  26  28
ATOM     28  C   UNL     1       5.619   1.379  -1.771  1.00  0.00     0.060 A 
ATOM     29  C   UNL     1       6.680   1.598  -0.892  1.00  0.00     0.016 A 
ATOM     30  C   UNL     1       4.790   2.469  -2.120  1.00  0.00     0.016 A 
ATOM     31  C   UNL     1       6.960   2.894  -0.466  1.00  0.00     0.010 A 
ATOM     32  C   UNL     1       5.126   3.774  -1.784  1.00  0.00     0.010 A 
ATOM     33  C   UNL     1       6.237   3.992  -0.981  1.00  0.00    -0.014 A 
BRANCH  33  34
ATOM     34  C   UNL     1       6.848   5.332  -0.916  1.00  0.00     0.031 A 
ATOM     35  C   UNL     1       6.288   6.463  -0.121  1.00  0.00     0.074 A 
ATOM     36  C   UNL     1       7.971   5.463  -1.646  1.00  0.00     0.049 A 
ATOM     37  N   UNL     1       6.830   7.630   0.115  1.00  0.00    -0.248 NA
ATOM     38  C   UNL     1       4.953   6.287   0.466  1.00  0.00     0.031 C 
ATOM     39  C   UNL     1       8.513   4.421  -2.527  1.00  0.00     0.029 A 
ATOM     40  N   UNL     1       8.882   6.474  -1.731  1.00  0.00    -0.354 N 
ATOM     41  C   UNL     1       5.912   8.329   0.884  1.00  0.00     0.074 A 
ATOM     42  C   UNL     1       4.757   7.468   1.043  1.00  0.00     0.031 C 
ATOM     43  C   UNL     1       9.719   4.794  -2.960  1.00  0.00     0.029 A 
ATOM     44  C   UNL     1       9.992   6.133  -2.463  1.00  0.00     0.049 A 
ATOM     45  H   UNL     1       8.756   7.356  -1.312  1.00  0.00     0.167 HD
ATOM     46  C   UNL     1       6.044   9.574   1.405  1.00  0.00     0.037 A 
ATOM     47  C   UNL     1      11.117   6.824  -2.701  1.00  0.00     0.037 A 
ATOM     48  C   UNL     1       7.208  10.405   1.203  1.00  0.00     0.049 A 
ATOM     49  C   UNL     1      11.238   8.183  -2.093  1.00  0.00     0.074 A 
ATOM     50  C   UNL     1       7.472  11.667   1.705  1.00  0.00     0.029 A 
ATOM     51  N   UNL     1       8.304  10.053   0.421  1.00  0.00    -0.354 N 
ATOM     52  N   UNL     1      10.397   8.811  -1.306  1.00  0.00    -0.248 NA
ATOM     53  C   UNL     1      12.454   8.934  -2.410  1.00  0.00     0.031 C 
ATOM     54  C   UNL     1       8.699  12.098   1.187  1.00  0.00     0.029 A 
ATOM     55  C   UNL     1       9.232  11.084   0.405  1.00  0.00     0.049 A 
ATOM     56  H   UNL     1       8.406   9.196  -0.053  1.00  0.00     0.167 HD
ATOM     57  C   UNL     1      10.979  10.035  -1.031  1.00  0.00     0.074 A 
ATOM     58  C   UNL     1      12.263  10.043  -1.709  1.00  0.00     0.031 C 
ATOM     59  C   UNL     1      10.493  11.065  -0.295  1.00  0.00     0.037 A 
BRANCH  46  60
ATOM     60  C   UNL     1       4.905  10.118   2.223  1.00  0.00     0.064 A 
ATOM     61  C   UNL     1       4.588   9.595   3.486  1.00  0.00     0.173 A 
ATOM     62  C   UNL     1       4.147  11.206   1.761  1.00  0.00     0.173 A 
ATOM     63  F   UNL     1       5.276   8.553   3.977  1.00  0.00    -0.203 F 
ATOM     64  C   UNL     1       3.540  10.120   4.241  1.00  0.00     0.198 A 
ATOM     65  C   UNL     1       3.118  11.746   2.530  1.00  0.00     0.198 A 
ATOM     66  F   UNL     1       4.410  11.755   0.566  1.00  0.00    -0.203 F 
ATOM     67  F   UNL     1       3.230   9.573   5.425  1.00  0.00    -0.200 F 
ATOM     68  C   UNL     1       2.809  11.197   3.765  1.00  0.00     0.200 A 
ATOM     69  F   UNL     1       2.422  12.797   2.074  1.00  0.00    -0.200 F 
ATOM     70  F   UNL     1       1.804  11.703   4.494  1.00  0.00    -0.200 F 
ENDBRANCH  46  60
BRANCH  47  71
ATOM     71  C   UNL     1      12.187   6.210  -3.523  1.00  0.00     0.064 A 
ATOM     72  C   UNL     1      13.408   5.831  -2.952  1.00  0.00     0.173 A 
ATOM     73  C   UNL     1      11.980   5.918  -4.880  1.00  0.00     0.173 A 
ATOM     74  F   UNL     1      13.652   6.088  -1.658  1.00  0.00    -0.203 F 
ATOM     75  C   UNL     1      14.387   5.193  -3.710  1.00  0.00     0.198 A 
ATOM     76  C   UNL     1      12.944   5.249  -5.628  1.00  0.00     0.198 A 
ATOM     77  F   UNL     1      10.817   6.237  -5.467  1.00  0.00    -0.203 F 
ATOM     78  F   UNL     1      15.558   4.865  -3.148  1.00  0.00    -0.200 F 
ATOM     79  C   UNL     1      14.150   4.893  -5.044  1.00  0.00     0.200 A 
ATOM     80  F   UNL     1      12.697   4.933  -6.906  1.00  0.00    -0.200 F 
ATOM     81  F   UNL     1      15.084   4.260  -5.767  1.00  0.00    -0.200 F 
ENDBRANCH  47  71
BRANCH  59  82
ATOM     82  C   UNL     1      11.372  12.275  -0.192  1.00  0.00     0.064 A 
ATOM     83  C   UNL     1      11.571  13.130  -1.287  1.00  0.00     0.173 A 
ATOM     84  C   UNL     1      12.021  12.581   1.012  1.00  0.00     0.173 A 
ATOM     85  F   UNL     1      10.990  12.862  -2.467  1.00  0.00    -0.203 F 
ATOM     86  C   UNL     1      12.415  14.231  -1.188  1.00  0.00     0.198 A 
ATOM     87  C   UNL     1      12.839  13.701   1.117  1.00  0.00     0.198 A 
ATOM     88  F   UNL     1      11.861  11.793   2.086  1.00  0.00    -0.203 F 
ATOM     89  F   UNL     1      12.639  15.000  -2.262  1.00  0.00    -0.200 F 
ATOM     90  C   UNL     1      13.043  14.519   0.015  1.00  0.00     0.200 A 
ATOM     91  F   UNL     1      13.438  13.984   2.281  1.00  0.00    -0.200 F 
ATOM     92  F   UNL     1      13.856  15.580   0.109  1.00  0.00    -0.200 F 
ENDBRANCH  59  82
ENDBRANCH  33  34
ENDBRANCH  26  28
ENDBRANCH  25  26
ENDBRANCH  24  25
ENDBRANCH  23  24
ENDBRANCH   1  23
TORSDOF 16
