REMARK SMILES CC1=C(CC(=O)OCCOC(=O)c2ccc(-c3c4nc(c(-c5c(F)c(F)c(F)c(F)c5F)c5ccc([nH]5)c(-c5c(F)c(F)c(F)c(F)c5F)c5nc(c(-c6c(F)c(F)c(F)c(F)c6F)c6ccc3[nH]6)C=C5)C=C4)cc2)c2cc(F)ccc2/C1=C\c1cccc(OCc2ccccc2)c1
REMARK SMILES IDX 7 1 5 2 6 3 4 4 3 5 1 6 2 7 83 8 76 9 82 10 84 11 77 12
REMARK SMILES IDX 81 13 78 14 80 15 79 16 85 17 86 18 98 19 87 20 89 21 88 22
REMARK SMILES IDX 90 23 91 24 92 25 93 26 97 27 94 28 96 29 95 30 8 31 9 32
REMARK SMILES IDX 10 33 11 34 12 35 13 36 14 37 75 38 15 39 74 40 16 41 17 42
REMARK SMILES IDX 18 43 68 44 19 45 73 46 67 47 69 48 20 49 72 50 66 51 65 52
REMARK SMILES IDX 21 54 53 55 33 56 52 57 34 58 37 59 51 60 70 61 35 62 36 63
REMARK SMILES IDX 50 65 71 66 38 67 22 68 23 69 31 70 24 71 25 72 29 73 32 74
REMARK SMILES IDX 26 75 27 76 30 77 28 78 54 79 55 80 63 81 56 82 57 83 61 84
REMARK SMILES IDX 64 85 58 86 59 87 62 88 60 89 39 90 40 91 48 92 41 93 42 94
REMARK SMILES IDX 46 95 49 96 43 97 44 98 47 99 45 100
REMARK H PARENT 69 53 37 64
REMARK Flexibility Score: inf
ROOT
ATOM      1  O   UNL     1       0.932  -0.096   3.910  1.00  0.00    -0.462 OA
ENDROOT
BRANCH   1   2
ATOM      2  C   UNL     1      -0.209  -0.683   3.466  1.00  0.00     0.310 C 
ATOM      3  O   UNL     1      -0.754  -1.643   4.004  1.00  0.00    -0.252 OA
BRANCH   2   4
ATOM      4  C   UNL     1      -0.793  -0.045   2.214  1.00  0.00     0.159 C 
BRANCH   4   5
ATOM      5  C   UNL     1      -0.127   1.193   1.717  1.00  0.00    -0.025 C 
ATOM      6  C   UNL     1       1.437   0.209  -0.040  1.00  0.00     0.045 C 
ATOM      7  C   UNL     1       0.817   1.309   0.756  1.00  0.00    -0.039 C 
ATOM      8  C   UNL     1       1.147   2.728   0.561  1.00  0.00    -0.014 C 
ATOM      9  C   UNL     1      -0.475   2.552   2.170  1.00  0.00    -0.011 A 
ATOM     10  C   UNL     1       0.314   3.501   1.498  1.00  0.00    -0.010 A 
ATOM     11  C   UNL     1       2.020   3.179  -0.355  1.00  0.00     0.017 C 
ATOM     12  C   UNL     1      -1.430   2.964   3.086  1.00  0.00     0.048 A 
ATOM     13  C   UNL     1       0.189   4.857   1.781  1.00  0.00     0.012 A 
ATOM     14  C   UNL     1      -1.552   4.322   3.365  1.00  0.00     0.123 A 
ATOM     15  C   UNL     1      -0.748   5.267   2.731  1.00  0.00     0.040 A 
ATOM     16  F   UNL     1      -2.472   4.730   4.250  1.00  0.00    -0.207 F 
BRANCH  11  17
ATOM     17  C   UNL     1       2.284   4.585  -0.655  1.00  0.00    -0.021 A 
ATOM     18  C   UNL     1       3.261   5.299   0.039  1.00  0.00     0.008 A 
ATOM     19  C   UNL     1       1.505   5.223  -1.629  1.00  0.00     0.054 A 
ATOM     20  C   UNL     1       3.444   6.654  -0.230  1.00  0.00     0.004 A 
ATOM     21  C   UNL     1       1.708   6.568  -1.929  1.00  0.00     0.120 A 
ATOM     22  C   UNL     1       2.670   7.283  -1.210  1.00  0.00     0.046 A 
BRANCH  21  23
ATOM     23  O   UNL     1       1.045   7.288  -2.885  1.00  0.00    -0.489 OA
BRANCH  23  24
ATOM     24  C   UNL     1       0.173   6.590  -3.785  1.00  0.00     0.265 C 
BRANCH  24  25
ATOM     25  C   UNL     1       0.917   5.732  -4.786  1.00  0.00    -0.011 A 
ATOM     26  C   UNL     1       1.953   6.277  -5.556  1.00  0.00     0.007 A 
ATOM     27  C   UNL     1       0.591   4.377  -4.949  1.00  0.00     0.007 A 
ATOM     28  C   UNL     1       2.668   5.476  -6.448  1.00  0.00     0.000 A 
ATOM     29  C   UNL     1       1.314   3.575  -5.832  1.00  0.00     0.000 A 
ATOM     30  C   UNL     1       2.354   4.124  -6.580  1.00  0.00     0.000 A 
ENDBRANCH  24  25
ENDBRANCH  23  24
ENDBRANCH  21  23
ENDBRANCH  11  17
ENDBRANCH   4   5
ENDBRANCH   2   4
ENDBRANCH   1   2
BRANCH   1  31
ATOM     31  C   UNL     1       1.492  -0.634   5.125  1.00  0.00     0.274 C 
BRANCH  31  32
ATOM     32  C   UNL     1       1.093   0.220   6.325  1.00  0.00     0.275 C 
BRANCH  32  33
ATOM     33  O   UNL     1      -0.340   0.262   6.427  1.00  0.00    -0.458 OA
BRANCH  33  34
ATOM     34  C   UNL     1      -0.887   1.498   6.450  1.00  0.00     0.338 C 
ATOM     35  O   UNL     1      -0.310   2.570   6.469  1.00  0.00    -0.246 OA
BRANCH  34  36
ATOM     36  C   UNL     1      -2.354   1.376   6.478  1.00  0.00     0.060 A 
ATOM     37  C   UNL     1      -3.062   2.033   7.482  1.00  0.00     0.016 A 
ATOM     38  C   UNL     1      -3.034   0.699   5.463  1.00  0.00     0.016 A 
ATOM     39  C   UNL     1      -4.456   1.976   7.486  1.00  0.00     0.010 A 
ATOM     40  C   UNL     1      -4.426   0.732   5.411  1.00  0.00     0.010 A 
ATOM     41  C   UNL     1      -5.152   1.336   6.444  1.00  0.00    -0.014 A 
BRANCH  41  42
ATOM     42  C   UNL     1      -6.635   1.276   6.469  1.00  0.00     0.031 A 
ATOM     43  C   UNL     1      -7.339  -0.043   6.634  1.00  0.00     0.074 A 
ATOM     44  C   UNL     1      -7.350   2.413   6.370  1.00  0.00     0.049 A 
ATOM     45  N   UNL     1      -8.615  -0.280   6.815  1.00  0.00    -0.248 NA
ATOM     46  C   UNL     1      -6.512  -1.258   6.570  1.00  0.00     0.031 C 
ATOM     47  C   UNL     1      -6.790   3.745   6.133  1.00  0.00     0.029 A 
ATOM     48  N   UNL     1      -8.700   2.635   6.482  1.00  0.00    -0.354 N 
ATOM     49  C   UNL     1      -8.735  -1.660   6.896  1.00  0.00     0.074 A 
ATOM     50  C   UNL     1      -7.421  -2.216   6.672  1.00  0.00     0.031 C 
ATOM     51  C   UNL     1      -7.780   4.651   6.175  1.00  0.00     0.029 A 
ATOM     52  C   UNL     1      -9.044   3.963   6.427  1.00  0.00     0.049 A 
ATOM     53  H   UNL     1      -9.359   1.911   6.590  1.00  0.00     0.167 HD
ATOM     54  C   UNL     1      -9.835  -2.398   7.173  1.00  0.00     0.037 A 
ATOM     55  C   UNL     1     -10.239   4.561   6.593  1.00  0.00     0.037 A 
ATOM     56  C   UNL     1     -11.138  -1.845   7.423  1.00  0.00     0.049 A 
ATOM     57  C   UNL     1     -11.445   3.722   6.915  1.00  0.00     0.074 A 
ATOM     58  C   UNL     1     -12.302  -2.505   7.776  1.00  0.00     0.029 A 
ATOM     59  N   UNL     1     -11.447  -0.496   7.347  1.00  0.00    -0.354 N 
ATOM     60  N   UNL     1     -11.528   2.425   7.083  1.00  0.00    -0.248 NA
ATOM     61  C   UNL     1     -12.722   4.431   7.082  1.00  0.00     0.031 C 
ATOM     62  C   UNL     1     -13.325  -1.558   7.880  1.00  0.00     0.029 A 
ATOM     63  C   UNL     1     -12.789  -0.304   7.628  1.00  0.00     0.049 A 
ATOM     64  H   UNL     1     -10.808   0.220   7.127  1.00  0.00     0.167 HD
ATOM     65  C   UNL     1     -12.856   2.164   7.392  1.00  0.00     0.074 A 
ATOM     66  C   UNL     1     -13.542   3.439   7.405  1.00  0.00     0.031 C 
ATOM     67  C   UNL     1     -13.453   0.973   7.639  1.00  0.00     0.037 A 
BRANCH  54  68
ATOM     68  C   UNL     1      -9.671  -3.886   7.257  1.00  0.00     0.064 A 
ATOM     69  C   UNL     1      -9.010  -4.482   8.341  1.00  0.00     0.173 A 
ATOM     70  C   UNL     1     -10.223  -4.725   6.280  1.00  0.00     0.173 A 
ATOM     71  F   UNL     1      -8.454  -3.720   9.296  1.00  0.00    -0.203 F 
ATOM     72  C   UNL     1      -8.893  -5.866   8.435  1.00  0.00     0.198 A 
ATOM     73  C   UNL     1     -10.126  -6.110   6.389  1.00  0.00     0.198 A 
ATOM     74  F   UNL     1     -10.869  -4.204   5.226  1.00  0.00    -0.203 F 
ATOM     75  F   UNL     1      -8.228  -6.413   9.462  1.00  0.00    -0.200 F 
ATOM     76  C   UNL     1      -9.458  -6.679   7.464  1.00  0.00     0.200 A 
ATOM     77  F   UNL     1     -10.681  -6.896   5.456  1.00  0.00    -0.200 F 
ATOM     78  F   UNL     1      -9.355  -8.011   7.562  1.00  0.00    -0.200 F 
ENDBRANCH  54  68
BRANCH  55  79
ATOM     79  C   UNL     1     -10.336   6.041   6.526  1.00  0.00     0.064 A 
ATOM     80  C   UNL     1     -10.537   6.799   7.688  1.00  0.00     0.173 A 
ATOM     81  C   UNL     1     -10.214   6.727   5.310  1.00  0.00     0.173 A 
ATOM     82  F   UNL     1     -10.680   6.185   8.872  1.00  0.00    -0.203 F 
ATOM     83  C   UNL     1     -10.621   8.189   7.634  1.00  0.00     0.198 A 
ATOM     84  C   UNL     1     -10.278   8.118   5.260  1.00  0.00     0.198 A 
ATOM     85  F   UNL     1     -10.020   6.045   4.171  1.00  0.00    -0.203 F 
ATOM     86  F   UNL     1     -10.845   8.888   8.755  1.00  0.00    -0.200 F 
ATOM     87  C   UNL     1     -10.486   8.847   6.421  1.00  0.00     0.200 A 
ATOM     88  F   UNL     1     -10.137   8.752   4.088  1.00  0.00    -0.200 F 
ATOM     89  F   UNL     1     -10.561  10.184   6.371  1.00  0.00    -0.200 F 
ENDBRANCH  55  79
BRANCH  67  90
ATOM     90  C   UNL     1     -14.919   0.983   7.949  1.00  0.00     0.064 A 
ATOM     91  C   UNL     1     -15.874   1.180   6.942  1.00  0.00     0.173 A 
ATOM     92  C   UNL     1     -15.375   0.710   9.248  1.00  0.00     0.173 A 
ATOM     93  F   UNL     1     -15.485   1.455   5.688  1.00  0.00    -0.203 F 
ATOM     94  C   UNL     1     -17.235   1.114   7.226  1.00  0.00     0.198 A 
ATOM     95  C   UNL     1     -16.736   0.621   9.523  1.00  0.00     0.198 A 
ATOM     96  F   UNL     1     -14.499   0.506  10.243  1.00  0.00    -0.203 F 
ATOM     97  F   UNL     1     -18.132   1.331   6.254  1.00  0.00    -0.200 F 
ATOM     98  C   UNL     1     -17.665   0.825   8.513  1.00  0.00     0.200 A 
ATOM     99  F   UNL     1     -17.149   0.329  10.764  1.00  0.00    -0.200 F 
ATOM    100  F   UNL     1     -18.975   0.745   8.781  1.00  0.00    -0.200 F 
ENDBRANCH  67  90
ENDBRANCH  41  42
ENDBRANCH  34  36
ENDBRANCH  33  34
ENDBRANCH  32  33
ENDBRANCH  31  32
ENDBRANCH   1  31
TORSDOF 16
