REMARK SMILES CCOc1ccc(-c2nn(-c3ccccc3)cc2/C=C2/SC(=S)N(CC(=O)OCCOC(=O)c3ccc(-c4c5nc(c(-c6c(F)c(F)c(F)c(F)c6F)c6ccc([nH]6)c(-c6c(F)c(F)c(F)c(F)c6F)c6nc(c(-c7c(F)c(F)c(F)c(F)c7F)c7ccc4[nH]7)C=C6)C=C5)cc3)C2=O)cc1F
REMARK SMILES IDX 28 1 26 2 27 3 25 4 24 5 19 6 20 7 21 8 97 9 22 10 98 11
REMARK SMILES IDX 23 12 18 13 8 14 9 15 10 16 17 17 7 18 4 19 5 20 100 21 6 22
REMARK SMILES IDX 99 23 101 24 3 25 2 26 1 27 11 28 12 29 16 30 13 31 15 32
REMARK SMILES IDX 14 33 29 34 30 35 31 36 32 37 33 38 34 39 35 40 96 41 36 42
REMARK SMILES IDX 95 43 37 44 38 45 39 46 89 47 40 48 94 49 88 50 90 51 41 52
REMARK SMILES IDX 93 53 87 54 86 55 42 57 74 58 54 59 73 60 55 61 58 62 72 63
REMARK SMILES IDX 91 64 56 65 57 66 71 68 92 69 59 70 43 71 44 72 52 73 45 74
REMARK SMILES IDX 46 75 50 76 53 77 47 78 48 79 51 80 49 81 75 82 76 83 84 84
REMARK SMILES IDX 77 85 78 86 82 87 85 88 79 89 80 90 83 91 81 92 60 93 61 94
REMARK SMILES IDX 69 95 62 96 63 97 67 98 70 99 64 100 65 101 68 102 66 103
REMARK H PARENT 90 56 58 67
REMARK Flexibility Score: inf
ROOT
ATOM      1  O   UNL     1      10.319   7.879  -2.291  1.00  0.00    -0.461 OA
ENDROOT
BRANCH   1   2
ATOM      2  C   UNL     1       9.462   8.503  -3.146  1.00  0.00     0.326 C 
ATOM      3  O   UNL     1       9.788   8.944  -4.245  1.00  0.00    -0.250 OA
BRANCH   2   4
ATOM      4  C   UNL     1       8.031   8.632  -2.620  1.00  0.00     0.250 C 
BRANCH   4   5
ATOM      5  N   UNL     1       7.691   7.891  -1.400  1.00  0.00    -0.282 N 
ATOM      6  C   UNL     1       7.165   4.659   0.093  1.00  0.00     0.033 C 
ATOM      7  C   UNL     1       7.071   5.967  -0.195  1.00  0.00     0.081 C 
ATOM      8  S   UNL     1       7.119   7.195   1.020  1.00  0.00    -0.054 SA
ATOM      9  C   UNL     1       7.099   6.645  -1.518  1.00  0.00     0.266 C 
ATOM     10  C   UNL     1       7.754   8.390  -0.121  1.00  0.00     0.148 C 
ATOM     11  O   UNL     1       6.487   6.242  -2.491  1.00  0.00    -0.268 OA
ATOM     12  S   UNL     1       8.297   9.887   0.371  1.00  0.00    -0.052 S 
BRANCH   6  13
ATOM     13  C   UNL     1       7.588   3.609  -0.776  1.00  0.00     0.022 A 
ATOM     14  C   UNL     1       6.878   2.618  -1.518  1.00  0.00     0.100 A 
ATOM     15  N   UNL     1       7.759   1.791  -2.128  1.00  0.00    -0.167 NA
ATOM     16  N   UNL     1       8.997   2.206  -1.731  1.00  0.00    -0.240 N 
ATOM     17  C   UNL     1       8.923   3.281  -0.893  1.00  0.00     0.123 A 
BRANCH  14  18
ATOM     18  C   UNL     1       5.415   2.406  -1.600  1.00  0.00     0.006 A 
ATOM     19  C   UNL     1       2.613   1.983  -1.462  1.00  0.00     0.154 A 
ATOM     20  C   UNL     1       3.117   3.272  -1.612  1.00  0.00     0.050 A 
ATOM     21  C   UNL     1       3.500   0.908  -1.480  1.00  0.00     0.165 A 
ATOM     22  C   UNL     1       4.507   3.479  -1.681  1.00  0.00     0.014 A 
ATOM     23  C   UNL     1       4.884   1.110  -1.539  1.00  0.00     0.053 A 
ATOM     24  F   UNL     1       3.034  -0.349  -1.447  1.00  0.00    -0.203 F 
BRANCH  19  25
ATOM     25  O   UNL     1       1.257   1.798  -1.437  1.00  0.00    -0.491 OA
BRANCH  25  26
ATOM     26  C   UNL     1       0.736   1.570  -0.118  1.00  0.00     0.226 C 
ATOM     27  C   UNL     1       0.711   0.092   0.243  1.00  0.00     0.049 C 
ENDBRANCH  25  26
ENDBRANCH  19  25
ENDBRANCH  14  18
BRANCH  16  28
ATOM     28  C   UNL     1      10.196   1.735  -2.338  1.00  0.00     0.065 A 
ATOM     29  C   UNL     1      10.432   2.080  -3.662  1.00  0.00     0.028 A 
ATOM     30  C   UNL     1      11.083   0.864  -1.719  1.00  0.00     0.028 A 
ATOM     31  C   UNL     1      11.442   1.503  -4.433  1.00  0.00     0.002 A 
ATOM     32  C   UNL     1      12.124   0.290  -2.480  1.00  0.00     0.002 A 
ATOM     33  C   UNL     1      12.282   0.581  -3.840  1.00  0.00     0.000 A 
ENDBRANCH  16  28
ENDBRANCH   6  13
ENDBRANCH   4   5
ENDBRANCH   2   4
ENDBRANCH   1   2
BRANCH   1  34
ATOM     34  C   UNL     1      11.614   7.549  -2.841  1.00  0.00     0.274 C 
BRANCH  34  35
ATOM     35  C   UNL     1      11.670   6.108  -3.361  1.00  0.00     0.275 C 
BRANCH  35  36
ATOM     36  O   UNL     1      10.792   5.870  -4.483  1.00  0.00    -0.458 OA
BRANCH  36  37
ATOM     37  C   UNL     1       9.530   5.534  -4.131  1.00  0.00     0.338 C 
ATOM     38  O   UNL     1       9.099   5.629  -2.978  1.00  0.00    -0.246 OA
BRANCH  37  39
ATOM     39  C   UNL     1       8.796   4.767  -5.166  1.00  0.00     0.060 A 
ATOM     40  C   UNL     1       7.578   4.187  -4.771  1.00  0.00     0.016 A 
ATOM     41  C   UNL     1       9.518   4.198  -6.212  1.00  0.00     0.016 A 
ATOM     42  C   UNL     1       7.260   2.888  -5.163  1.00  0.00     0.010 A 
ATOM     43  C   UNL     1       9.200   2.896  -6.590  1.00  0.00     0.010 A 
ATOM     44  C   UNL     1       8.161   2.181  -5.955  1.00  0.00    -0.014 A 
BRANCH  44  45
ATOM     45  C   UNL     1       7.899   0.777  -6.326  1.00  0.00     0.031 A 
ATOM     46  C   UNL     1       7.142   0.802  -7.580  1.00  0.00     0.074 A 
ATOM     47  C   UNL     1       8.280  -0.405  -5.776  1.00  0.00     0.049 A 
ATOM     48  N   UNL     1       5.853   0.791  -7.660  1.00  0.00    -0.248 NA
ATOM     49  C   UNL     1       7.828   1.214  -8.812  1.00  0.00     0.031 C 
ATOM     50  C   UNL     1       9.079  -0.659  -4.591  1.00  0.00     0.029 A 
ATOM     51  N   UNL     1       8.086  -1.692  -6.242  1.00  0.00    -0.354 N 
ATOM     52  C   UNL     1       5.611   0.924  -9.011  1.00  0.00     0.074 A 
ATOM     53  C   UNL     1       6.781   1.543  -9.571  1.00  0.00     0.031 C 
ATOM     54  C   UNL     1       9.583  -1.913  -4.588  1.00  0.00     0.029 A 
ATOM     55  C   UNL     1       8.946  -2.644  -5.659  1.00  0.00     0.049 A 
ATOM     56  H   UNL     1       7.410  -1.923  -6.920  1.00  0.00     0.167 HD
ATOM     57  C   UNL     1       4.734   0.081  -9.614  1.00  0.00     0.037 A 
ATOM     58  C   UNL     1       9.057  -3.966  -5.957  1.00  0.00     0.037 A 
ATOM     59  C   UNL     1       3.932  -0.614  -8.635  1.00  0.00     0.049 A 
ATOM     60  C   UNL     1       7.765  -4.361  -6.548  1.00  0.00     0.074 A 
ATOM     61  C   UNL     1       2.985  -0.262  -7.696  1.00  0.00     0.029 A 
ATOM     62  N   UNL     1       4.457  -1.819  -8.246  1.00  0.00    -0.354 N 
ATOM     63  N   UNL     1       6.663  -4.456  -5.858  1.00  0.00    -0.248 NA
ATOM     64  C   UNL     1       7.608  -4.303  -7.993  1.00  0.00     0.031 C 
ATOM     65  C   UNL     1       3.065  -1.234  -6.657  1.00  0.00     0.029 A 
ATOM     66  C   UNL     1       4.013  -2.192  -7.007  1.00  0.00     0.049 A 
ATOM     67  H   UNL     1       5.078  -2.352  -8.793  1.00  0.00     0.167 HD
ATOM     68  C   UNL     1       5.697  -3.995  -6.726  1.00  0.00     0.074 A 
ATOM     69  C   UNL     1       6.291  -4.094  -8.055  1.00  0.00     0.031 C 
ATOM     70  C   UNL     1       4.662  -3.244  -6.254  1.00  0.00     0.037 A 
BRANCH  57  71
ATOM     71  C   UNL     1       4.964  -0.478 -10.997  1.00  0.00     0.064 A 
ATOM     72  C   UNL     1       6.233  -0.648 -11.602  1.00  0.00     0.173 A 
ATOM     73  C   UNL     1       3.894  -1.094 -11.663  1.00  0.00     0.173 A 
ATOM     74  F   UNL     1       7.376  -0.314 -10.994  1.00  0.00    -0.203 F 
ATOM     75  C   UNL     1       6.407  -1.292 -12.820  1.00  0.00     0.198 A 
ATOM     76  C   UNL     1       4.083  -1.809 -12.849  1.00  0.00     0.198 A 
ATOM     77  F   UNL     1       2.662  -1.071 -11.134  1.00  0.00    -0.203 F 
ATOM     78  F   UNL     1       7.638  -1.390 -13.341  1.00  0.00    -0.200 F 
ATOM     79  C   UNL     1       5.334  -1.890 -13.436  1.00  0.00     0.200 A 
ATOM     80  F   UNL     1       3.054  -2.464 -13.399  1.00  0.00    -0.200 F 
ATOM     81  F   UNL     1       5.520  -2.591 -14.562  1.00  0.00    -0.200 F 
ENDBRANCH  57  71
BRANCH  58  82
ATOM     82  C   UNL     1      10.229  -4.887  -5.982  1.00  0.00     0.064 A 
ATOM     83  C   UNL     1      11.541  -4.402  -6.119  1.00  0.00     0.173 A 
ATOM     84  C   UNL     1      10.051  -6.265  -6.229  1.00  0.00     0.173 A 
ATOM     85  F   UNL     1      11.818  -3.106  -5.922  1.00  0.00    -0.203 F 
ATOM     86  C   UNL     1      12.587  -5.221  -6.564  1.00  0.00     0.198 A 
ATOM     87  C   UNL     1      11.095  -7.080  -6.680  1.00  0.00     0.198 A 
ATOM     88  F   UNL     1       8.835  -6.822  -6.126  1.00  0.00    -0.203 F 
ATOM     89  F   UNL     1      13.803  -4.695  -6.768  1.00  0.00    -0.200 F 
ATOM     90  C   UNL     1      12.357  -6.551  -6.873  1.00  0.00     0.200 A 
ATOM     91  F   UNL     1      10.856  -8.361  -7.000  1.00  0.00    -0.200 F 
ATOM     92  F   UNL     1      13.337  -7.304  -7.393  1.00  0.00    -0.200 F 
ENDBRANCH  58  82
BRANCH  70  93
ATOM     93  C   UNL     1       4.260  -3.424  -4.820  1.00  0.00     0.064 A 
ATOM     94  C   UNL     1       2.956  -3.884  -4.580  1.00  0.00     0.173 A 
ATOM     95  C   UNL     1       5.042  -3.081  -3.705  1.00  0.00     0.173 A 
ATOM     96  F   UNL     1       2.160  -4.210  -5.611  1.00  0.00    -0.203 F 
ATOM     97  C   UNL     1       2.443  -3.975  -3.292  1.00  0.00     0.198 A 
ATOM     98  C   UNL     1       4.537  -3.212  -2.409  1.00  0.00     0.198 A 
ATOM     99  F   UNL     1       6.278  -2.586  -3.852  1.00  0.00    -0.203 F 
ATOM    100  F   UNL     1       1.175  -4.368  -3.108  1.00  0.00    -0.200 F 
ATOM    101  C   UNL     1       3.235  -3.646  -2.205  1.00  0.00     0.200 A 
ATOM    102  F   UNL     1       5.304  -2.898  -1.353  1.00  0.00    -0.200 F 
ATOM    103  F   UNL     1       2.740  -3.740  -0.963  1.00  0.00    -0.200 F 
ENDBRANCH  70  93
ENDBRANCH  44  45
ENDBRANCH  37  39
ENDBRANCH  36  37
ENDBRANCH  35  36
ENDBRANCH  34  35
ENDBRANCH   1  34
TORSDOF 17
