REMARK SMILES CC(C)[C@H](C(=O)OCCOC(=O)c1ccc(-c2c3nc(c(-c4c(F)c(F)c(F)c(F)c4F)c4ccc([nH]4)c(-c4c(F)c(F)c(F)c(F)c4F)c4nc(c(-c5c(F)c(F)c(F)c(F)c5F)c5ccc2[nH]5)C=C4)C=C3)cc1)[NH+]1CC2(CCCCCC2)C1
REMARK SMILES IDX 7 1 5 2 6 3 4 4 2 5 1 6 3 7 76 8 77 9 85 10 78 12 79 13
REMARK SMILES IDX 80 14 81 15 82 16 84 18 83 19 8 21 9 22 10 23 11 24 12 25
REMARK SMILES IDX 13 26 14 27 75 28 15 29 74 30 16 31 17 32 18 33 68 34 19 35
REMARK SMILES IDX 73 36 67 37 69 38 20 39 72 40 66 41 65 42 21 44 53 45 33 46
REMARK SMILES IDX 52 47 34 48 37 49 51 50 70 51 35 52 36 53 50 55 71 56 38 57
REMARK SMILES IDX 22 58 23 59 31 60 24 61 25 62 29 63 32 64 26 65 27 66 30 67
REMARK SMILES IDX 28 68 54 69 55 70 63 71 56 72 57 73 61 74 64 75 58 76 59 77
REMARK SMILES IDX 62 78 60 79 39 80 40 81 48 82 41 83 42 84 46 85 49 86 43 87
REMARK SMILES IDX 44 88 47 89 45 90
REMARK H PARENT 76 11 69 43 37 54
REMARK Flexibility Score: 80.00
ROOT
ATOM      1  O   UNL     1       1.472   1.784  -0.118  1.00  0.00    -0.458 OA
ENDROOT
BRANCH   1   2
ATOM      2  C   UNL     1       0.719   1.754  -1.252  1.00  0.00     0.365 C 
ATOM      3  O   UNL     1       1.175   1.650  -2.387  1.00  0.00    -0.245 OA
BRANCH   2   4
ATOM      4  C   UNL     1      -0.795   1.876  -0.948  1.00  0.00     0.297 C 
BRANCH   4   5
ATOM      5  C   UNL     1      -1.185   0.921   0.248  1.00  0.00     0.053 C 
ATOM      6  C   UNL     1      -0.838   1.336   1.683  1.00  0.00     0.014 C 
ATOM      7  C   UNL     1      -2.597   0.318   0.154  1.00  0.00     0.014 C 
ENDBRANCH   4   5
BRANCH   4   8
ATOM      8  N   UNL     1      -1.134   3.286  -1.190  1.00  0.00    -0.322 N 
ATOM      9  C   UNL     1      -1.000   4.211  -0.086  1.00  0.00     0.275 C 
ATOM     10  C   UNL     1      -2.527   3.645  -1.425  1.00  0.00     0.275 C 
ATOM     11  H   UNL     1      -0.486   3.362  -1.975  1.00  0.00     0.348 HD
ATOM     12  C   UNL     1      -2.559   4.401  -0.053  1.00  0.00     0.068 C 
BRANCH  12  13
ATOM     13  C   UNL     1      -2.903   5.897  -0.097  1.00  0.00     0.019 C 
BRANCH  13  14
ATOM     14  C   UNL     1      -2.754   6.551   1.285  1.00  0.00     0.001 C 
BRANCH  14  15
ATOM     15  C   UNL     1      -3.979   6.333   2.175  1.00  0.00     0.000 C 
BRANCH  15  16
ATOM     16  C   UNL     1      -4.054   5.002   2.923  1.00  0.00     0.000 CG0
ATOM     17  G   UNL     1      -3.250   3.852   2.343  1.00  0.00     0.000 G0
ENDBRANCH  15  16
ENDBRANCH  14  15
ENDBRANCH  13  14
ENDBRANCH  12  13
BRANCH  12  18
ATOM     18  C   UNL     1      -3.508   3.624   0.866  1.00  0.00     0.019 C 
BRANCH  18  19
ATOM     19  C   UNL     1      -3.250   3.852   2.343  1.00  0.00     0.001 CG0
ATOM     20  G   UNL     1      -4.054   5.002   2.923  1.00  0.00     0.000 G0
ENDBRANCH  18  19
ENDBRANCH  12  18
ENDBRANCH   4   8
ENDBRANCH   2   4
ENDBRANCH   1   2
BRANCH   1  21
ATOM     21  C   UNL     1       2.886   1.592  -0.290  1.00  0.00     0.274 C 
BRANCH  21  22
ATOM     22  C   UNL     1       3.264   0.118  -0.129  1.00  0.00     0.275 C 
BRANCH  22  23
ATOM     23  O   UNL     1       2.761  -0.662  -1.231  1.00  0.00    -0.458 OA
BRANCH  23  24
ATOM     24  C   UNL     1       1.732  -1.498  -0.956  1.00  0.00     0.338 C 
ATOM     25  O   UNL     1       1.229  -1.738   0.125  1.00  0.00    -0.246 OA
BRANCH  24  26
ATOM     26  C   UNL     1       1.192  -1.999  -2.229  1.00  0.00     0.060 A 
ATOM     27  C   UNL     1       0.028  -1.416  -2.734  1.00  0.00     0.016 A 
ATOM     28  C   UNL     1       1.811  -3.045  -2.908  1.00  0.00     0.016 A 
ATOM     29  C   UNL     1      -0.499  -1.833  -3.950  1.00  0.00     0.010 A 
ATOM     30  C   UNL     1       1.278  -3.473  -4.127  1.00  0.00     0.010 A 
ATOM     31  C   UNL     1       0.132  -2.856  -4.661  1.00  0.00    -0.014 A 
BRANCH  31  32
ATOM     32  C   UNL     1      -0.408  -3.289  -5.968  1.00  0.00     0.031 A 
ATOM     33  C   UNL     1      -1.137  -4.591  -6.074  1.00  0.00     0.074 A 
ATOM     34  C   UNL     1      -0.228  -2.511  -7.050  1.00  0.00     0.049 A 
ATOM     35  N   UNL     1      -1.527  -5.237  -7.142  1.00  0.00    -0.248 NA
ATOM     36  C   UNL     1      -1.471  -5.257  -4.806  1.00  0.00     0.031 C 
ATOM     37  C   UNL     1       0.402  -1.190  -7.043  1.00  0.00     0.029 A 
ATOM     38  N   UNL     1      -0.542  -2.726  -8.368  1.00  0.00    -0.354 N 
ATOM     39  C   UNL     1      -2.128  -6.398  -6.678  1.00  0.00     0.074 A 
ATOM     40  C   UNL     1      -2.050  -6.371  -5.233  1.00  0.00     0.031 C 
ATOM     41  C   UNL     1       0.443  -0.719  -8.300  1.00  0.00     0.029 A 
ATOM     42  C   UNL     1      -0.097  -1.731  -9.203  1.00  0.00     0.049 A 
ATOM     43  H   UNL     1      -1.038  -3.516  -8.684  1.00  0.00     0.167 HD
ATOM     44  C   UNL     1      -2.686  -7.395  -7.404  1.00  0.00     0.037 A 
ATOM     45  C   UNL     1      -0.078  -1.672 -10.548  1.00  0.00     0.037 A 
ATOM     46  C   UNL     1      -2.762  -7.398  -8.842  1.00  0.00     0.049 A 
ATOM     47  C   UNL     1      -0.618  -2.836 -11.333  1.00  0.00     0.074 A 
ATOM     48  C   UNL     1      -3.321  -8.350  -9.677  1.00  0.00     0.029 A 
ATOM     49  N   UNL     1      -2.256  -6.396  -9.659  1.00  0.00    -0.354 N 
ATOM     50  N   UNL     1      -1.165  -3.945 -10.896  1.00  0.00    -0.248 NA
ATOM     51  C   UNL     1      -0.518  -2.751 -12.796  1.00  0.00     0.031 C 
ATOM     52  C   UNL     1      -3.110  -7.946 -11.000  1.00  0.00     0.029 A 
ATOM     53  C   UNL     1      -2.460  -6.722 -10.989  1.00  0.00     0.049 A 
ATOM     54  H   UNL     1      -1.817  -5.575  -9.339  1.00  0.00     0.167 HD
ATOM     55  C   UNL     1      -1.483  -4.685 -12.026  1.00  0.00     0.074 A 
ATOM     56  C   UNL     1      -1.087  -3.889 -13.170  1.00  0.00     0.031 C 
ATOM     57  C   UNL     1      -2.046  -5.915 -12.110  1.00  0.00     0.037 A 
BRANCH  44  58
ATOM     58  C   UNL     1      -3.214  -8.584  -6.658  1.00  0.00     0.064 A 
ATOM     59  C   UNL     1      -4.394  -8.521  -5.902  1.00  0.00     0.173 A 
ATOM     60  C   UNL     1      -2.539  -9.812  -6.721  1.00  0.00     0.173 A 
ATOM     61  F   UNL     1      -5.067  -7.366  -5.796  1.00  0.00    -0.203 F 
ATOM     62  C   UNL     1      -4.867  -9.640  -5.221  1.00  0.00     0.198 A 
ATOM     63  C   UNL     1      -3.027 -10.935  -6.059  1.00  0.00     0.198 A 
ATOM     64  F   UNL     1      -1.405  -9.925  -7.431  1.00  0.00    -0.203 F 
ATOM     65  F   UNL     1      -5.974  -9.548  -4.471  1.00  0.00    -0.200 F 
ATOM     66  C   UNL     1      -4.187 -10.847  -5.305  1.00  0.00     0.200 A 
ATOM     67  F   UNL     1      -2.374 -12.102  -6.149  1.00  0.00    -0.200 F 
ATOM     68  F   UNL     1      -4.646 -11.923  -4.651  1.00  0.00    -0.200 F 
ENDBRANCH  44  58
BRANCH  45  69
ATOM     69  C   UNL     1       0.523  -0.496 -11.230  1.00  0.00     0.064 A 
ATOM     70  C   UNL     1      -0.267   0.396 -11.966  1.00  0.00     0.173 A 
ATOM     71  C   UNL     1       1.902  -0.242 -11.161  1.00  0.00     0.173 A 
ATOM     72  F   UNL     1      -1.585   0.179 -12.087  1.00  0.00    -0.203 F 
ATOM     73  C   UNL     1       0.298   1.494 -12.611  1.00  0.00     0.198 A 
ATOM     74  C   UNL     1       2.462   0.872 -11.783  1.00  0.00     0.198 A 
ATOM     75  F   UNL     1       2.705  -1.070 -10.476  1.00  0.00    -0.203 F 
ATOM     76  F   UNL     1      -0.474   2.309 -13.342  1.00  0.00    -0.200 F 
ATOM     77  C   UNL     1       1.661   1.736 -12.513  1.00  0.00     0.200 A 
ATOM     78  F   UNL     1       3.777   1.106 -11.676  1.00  0.00    -0.200 F 
ATOM     79  F   UNL     1       2.202   2.795 -13.129  1.00  0.00    -0.200 F 
ENDBRANCH  45  69
BRANCH  57  80
ATOM     80  C   UNL     1      -2.271  -6.469 -13.486  1.00  0.00     0.064 A 
ATOM     81  C   UNL     1      -1.205  -6.943 -14.264  1.00  0.00     0.173 A 
ATOM     82  C   UNL     1      -3.567  -6.563 -14.014  1.00  0.00     0.173 A 
ATOM     83  F   UNL     1       0.054  -6.857 -13.808  1.00  0.00    -0.203 F 
ATOM     84  C   UNL     1      -1.428  -7.476 -15.530  1.00  0.00     0.198 A 
ATOM     85  C   UNL     1      -3.788  -7.121 -15.269  1.00  0.00     0.198 A 
ATOM     86  F   UNL     1      -4.619  -6.126 -13.305  1.00  0.00    -0.203 F 
ATOM     87  F   UNL     1      -0.391  -7.887 -16.274  1.00  0.00    -0.200 F 
ATOM     88  C   UNL     1      -2.719  -7.572 -16.028  1.00  0.00     0.200 A 
ATOM     89  F   UNL     1      -5.037  -7.224 -15.744  1.00  0.00    -0.200 F 
ATOM     90  F   UNL     1      -2.932  -8.093 -17.244  1.00  0.00    -0.200 F 
ENDBRANCH  57  80
ENDBRANCH  31  32
ENDBRANCH  24  26
ENDBRANCH  23  24
ENDBRANCH  22  23
ENDBRANCH  21  22
ENDBRANCH   1  21
TORSDOF 13
