REMARK SMILES O=C(Cn1ccc2ccc(CO)cc21)OCCOC(=O)c1ccc(-c2c3nc(c(-c4c(F)c(F)c(F)c(F)c4F)c4ccc([nH]4)c(-c4c(F)c(F)c(F)c(F)c4F)c4nc(c(-c5c(F)c(F)c(F)c(F)c5F)c5ccc2[nH]5)C=C4)C=C3)cc1
REMARK SMILES IDX 16 1 15 2 2 3 1 4 3 5 4 6 5 7 14 8 6 9 7 10 13 11 8 12 10 13
REMARK SMILES IDX 9 14 11 15 12 16 17 18 18 19 19 20 20 21 21 22 22 23 83 24
REMARK SMILES IDX 23 25 82 26 24 27 25 28 26 29 76 30 27 31 81 32 75 33 77 34
REMARK SMILES IDX 28 35 80 36 74 37 73 38 29 40 61 41 41 42 60 43 42 44 45 45
REMARK SMILES IDX 59 46 78 47 43 48 44 49 58 51 79 52 46 53 30 54 31 55 39 56
REMARK SMILES IDX 32 57 33 58 37 59 40 60 34 61 35 62 38 63 36 64 62 65 63 66
REMARK SMILES IDX 71 67 64 68 65 69 69 70 72 71 66 72 67 73 70 74 68 75 47 76
REMARK SMILES IDX 48 77 56 78 49 79 50 80 54 81 57 82 51 83 52 84 55 85 53 86
REMARK H PARENT 12 17 77 39 45 50
REMARK Flexibility Score: inf
ROOT
ATOM      1  C   UNL     1       4.766  -0.311   1.086  1.00  0.00     0.274 C 
ENDROOT
BRANCH   1   2
ATOM      2  O   UNL     1       3.571   0.483   1.269  1.00  0.00    -0.461 OA
BRANCH   2   3
ATOM      3  C   UNL     1       3.054   1.318   0.331  1.00  0.00     0.326 C 
ATOM      4  O   UNL     1       2.177   2.123   0.644  1.00  0.00    -0.250 OA
BRANCH   3   5
ATOM      5  C   UNL     1       3.447   1.124  -1.099  1.00  0.00     0.244 C 
BRANCH   5   6
ATOM      6  N   UNL     1       4.476   1.969  -1.671  1.00  0.00    -0.336 N 
ATOM      7  C   UNL     1       4.340   3.325  -1.804  1.00  0.00     0.087 A 
ATOM      8  C   UNL     1       5.512   1.508  -2.475  1.00  0.00     0.049 A 
ATOM      9  C   UNL     1       5.321   3.765  -2.658  1.00  0.00     0.028 A 
ATOM     10  C   UNL     1       6.058   2.634  -3.097  1.00  0.00    -0.000 A 
ATOM     11  C   UNL     1       5.992   0.209  -2.754  1.00  0.00     0.033 A 
ATOM     12  C   UNL     1       7.121   2.465  -4.004  1.00  0.00     0.011 A 
ATOM     13  C   UNL     1       7.046   0.053  -3.675  1.00  0.00    -0.021 A 
ATOM     14  C   UNL     1       7.603   1.180  -4.284  1.00  0.00     0.007 A 
BRANCH  13  15
ATOM     15  C   UNL     1       7.545  -1.325  -4.037  1.00  0.00     0.191 C 
BRANCH  15  16
ATOM     16  O   UNL     1       7.988  -2.014  -2.876  1.00  0.00    -0.392 OA
ATOM     17  H   UNL     1       8.714  -1.521  -2.464  1.00  0.00     0.211 HD
ENDBRANCH  15  16
ENDBRANCH  13  15
ENDBRANCH   5   6
ENDBRANCH   3   5
ENDBRANCH   2   3
ENDBRANCH   1   2
BRANCH   1  18
ATOM     18  C   UNL     1       4.439  -1.796   0.864  1.00  0.00     0.275 C 
BRANCH  18  19
ATOM     19  O   UNL     1       3.752  -1.956  -0.391  1.00  0.00    -0.458 OA
BRANCH  19  20
ATOM     20  C   UNL     1       2.492  -2.465  -0.349  1.00  0.00     0.338 C 
ATOM     21  O   UNL     1       1.994  -3.117   0.550  1.00  0.00    -0.246 OA
BRANCH  20  22
ATOM     22  C   UNL     1       1.721  -1.783  -1.419  1.00  0.00     0.060 A 
ATOM     23  C   UNL     1       2.298  -1.474  -2.654  1.00  0.00     0.016 A 
ATOM     24  C   UNL     1       0.499  -1.204  -1.046  1.00  0.00     0.016 A 
ATOM     25  C   UNL     1       1.733  -0.459  -3.424  1.00  0.00     0.010 A 
ATOM     26  C   UNL     1      -0.074  -0.202  -1.830  1.00  0.00     0.010 A 
ATOM     27  C   UNL     1       0.579   0.230  -2.983  1.00  0.00    -0.014 A 
BRANCH  27  28
ATOM     28  C   UNL     1       0.061   1.312  -3.841  1.00  0.00     0.031 A 
ATOM     29  C   UNL     1      -0.166   0.861  -5.242  1.00  0.00     0.074 A 
ATOM     30  C   UNL     1      -0.298   2.568  -3.486  1.00  0.00     0.049 A 
ATOM     31  N   UNL     1       0.390   1.295  -6.326  1.00  0.00    -0.248 NA
ATOM     32  C   UNL     1      -1.018  -0.324  -5.427  1.00  0.00     0.031 C 
ATOM     33  C   UNL     1      -0.412   3.139  -2.143  1.00  0.00     0.029 A 
ATOM     34  N   UNL     1      -0.729   3.600  -4.288  1.00  0.00    -0.354 N 
ATOM     35  C   UNL     1      -0.151   0.531  -7.355  1.00  0.00     0.074 A 
ATOM     36  C   UNL     1      -0.896  -0.533  -6.736  1.00  0.00     0.031 C 
ATOM     37  C   UNL     1      -1.081   4.316  -2.208  1.00  0.00     0.029 A 
ATOM     38  C   UNL     1      -1.327   4.654  -3.601  1.00  0.00     0.049 A 
ATOM     39  H   UNL     1      -0.624   3.593  -5.267  1.00  0.00     0.167 HD
ATOM     40  C   UNL     1      -0.121   0.948  -8.648  1.00  0.00     0.037 A 
ATOM     41  C   UNL     1      -2.012   5.700  -4.136  1.00  0.00     0.037 A 
ATOM     42  C   UNL     1       0.877   1.959  -8.859  1.00  0.00     0.049 A 
ATOM     43  C   UNL     1      -1.612   5.826  -5.554  1.00  0.00     0.074 A 
ATOM     44  C   UNL     1       2.254   2.010  -8.813  1.00  0.00     0.029 A 
ATOM     45  N   UNL     1       0.443   3.257  -8.878  1.00  0.00    -0.354 N 
ATOM     46  N   UNL     1      -0.455   6.256  -5.962  1.00  0.00    -0.248 NA
ATOM     47  C   UNL     1      -2.439   5.189  -6.568  1.00  0.00     0.031 C 
ATOM     48  C   UNL     1       2.575   3.341  -8.415  1.00  0.00     0.029 A 
ATOM     49  C   UNL     1       1.379   4.042  -8.261  1.00  0.00     0.049 A 
ATOM     50  H   UNL     1      -0.402   3.573  -9.271  1.00  0.00     0.167 HD
ATOM     51  C   UNL     1      -0.228   5.563  -7.136  1.00  0.00     0.074 A 
ATOM     52  C   UNL     1      -1.533   5.059  -7.539  1.00  0.00     0.031 C 
ATOM     53  C   UNL     1       1.040   5.220  -7.497  1.00  0.00     0.037 A 
BRANCH  40  54
ATOM     54  C   UNL     1      -1.251   0.716  -9.622  1.00  0.00     0.064 A 
ATOM     55  C   UNL     1      -1.082   1.068 -10.976  1.00  0.00     0.173 A 
ATOM     56  C   UNL     1      -2.581   0.447  -9.228  1.00  0.00     0.173 A 
ATOM     57  F   UNL     1       0.132   1.384 -11.453  1.00  0.00    -0.203 F 
ATOM     58  C   UNL     1      -2.167   1.196 -11.847  1.00  0.00     0.198 A 
ATOM     59  C   UNL     1      -3.654   0.519 -10.114  1.00  0.00     0.198 A 
ATOM     60  F   UNL     1      -2.914   0.218  -7.952  1.00  0.00    -0.203 F 
ATOM     61  F   UNL     1      -1.971   1.653 -13.092  1.00  0.00    -0.200 F 
ATOM     62  C   UNL     1      -3.452   0.922 -11.415  1.00  0.00     0.200 A 
ATOM     63  F   UNL     1      -4.893   0.273  -9.667  1.00  0.00    -0.200 F 
ATOM     64  F   UNL     1      -4.498   1.096 -12.233  1.00  0.00    -0.200 F 
ENDBRANCH  40  54
BRANCH  41  65
ATOM     65  C   UNL     1      -3.175   6.472  -3.618  1.00  0.00     0.064 A 
ATOM     66  C   UNL     1      -3.576   7.677  -4.232  1.00  0.00     0.173 A 
ATOM     67  C   UNL     1      -4.104   5.886  -2.742  1.00  0.00     0.173 A 
ATOM     68  F   UNL     1      -2.770   8.294  -5.109  1.00  0.00    -0.203 F 
ATOM     69  C   UNL     1      -4.849   8.223  -4.029  1.00  0.00     0.198 A 
ATOM     70  C   UNL     1      -5.372   6.437  -2.533  1.00  0.00     0.198 A 
ATOM     71  F   UNL     1      -3.845   4.710  -2.155  1.00  0.00    -0.203 F 
ATOM     72  F   UNL     1      -5.223   9.321  -4.702  1.00  0.00    -0.200 F 
ATOM     73  C   UNL     1      -5.752   7.592  -3.192  1.00  0.00     0.200 A 
ATOM     74  F   UNL     1      -6.251   5.799  -1.748  1.00  0.00    -0.200 F 
ATOM     75  F   UNL     1      -6.998   8.067  -3.058  1.00  0.00    -0.200 F 
ENDBRANCH  41  65
BRANCH  53  76
ATOM     76  C   UNL     1       2.172   5.974  -6.862  1.00  0.00     0.064 A 
ATOM     77  C   UNL     1       2.465   5.966  -5.488  1.00  0.00     0.173 A 
ATOM     78  C   UNL     1       3.065   6.643  -7.712  1.00  0.00     0.173 A 
ATOM     79  F   UNL     1       1.707   5.279  -4.622  1.00  0.00    -0.203 F 
ATOM     80  C   UNL     1       3.584   6.631  -4.990  1.00  0.00     0.198 A 
ATOM     81  C   UNL     1       4.205   7.265  -7.217  1.00  0.00     0.198 A 
ATOM     82  F   UNL     1       2.853   6.652  -9.038  1.00  0.00    -0.203 F 
ATOM     83  F   UNL     1       3.834   6.635  -3.673  1.00  0.00    -0.200 F 
ATOM     84  C   UNL     1       4.460   7.266  -5.856  1.00  0.00     0.200 A 
ATOM     85  F   UNL     1       5.071   7.842  -8.062  1.00  0.00    -0.200 F 
ATOM     86  F   UNL     1       5.566   7.858  -5.381  1.00  0.00    -0.200 F 
ENDBRANCH  53  76
ENDBRANCH  27  28
ENDBRANCH  20  22
ENDBRANCH  19  20
ENDBRANCH  18  19
ENDBRANCH   1  18
TORSDOF 14
