REMARK SMILES CC(C)OCCS(=O)(=O)N1CCC[C@H](C(=O)OCCOC(=O)c2ccc(-c3c4nc(c(-c5c(F)c(F)c(F)c(F)c5F)c5ccc([nH]5)c(-c5c(F)c(F)c(F)c(F)c5F)c5nc(c(-c6c(F)c(F)c(F)c(F)c6F)c6ccc3[nH]6)C=C5)C=C4)cc2)C1
REMARK SMILES IDX 17 1 15 2 16 3 14 4 10 5 11 6 86 7 12 8 13 9 7 10 8 11 9 12
REMARK SMILES IDX 6 13 5 14 4 15 2 16 1 17 3 18 18 19 19 20 20 21 21 22 22 23
REMARK SMILES IDX 23 24 24 25 85 26 25 27 84 28 26 29 27 30 28 31 78 32 29 33
REMARK SMILES IDX 83 34 77 35 79 36 30 37 82 38 76 39 75 40 31 42 63 43 43 44
REMARK SMILES IDX 62 45 44 46 47 47 61 48 80 49 45 50 46 51 60 53 81 54 48 55
REMARK SMILES IDX 32 56 33 57 41 58 34 59 35 60 39 61 42 62 36 63 37 64 40 65
REMARK SMILES IDX 38 66 64 67 65 68 73 69 66 70 67 71 71 72 74 73 68 74 69 75
REMARK SMILES IDX 72 76 70 77 49 78 50 79 58 80 51 81 52 82 56 83 59 84 53 85
REMARK SMILES IDX 54 86 57 87 55 88
REMARK H PARENT 79 41 47 52
REMARK Flexibility Score: inf
ROOT
ATOM      1  O   UNL     1       1.029   2.973   2.279  1.00  0.00    -0.462 OA
ENDROOT
BRANCH   1   2
ATOM      2  C   UNL     1       0.980   3.915   1.302  1.00  0.00     0.310 C 
ATOM      3  O   UNL     1       0.030   4.672   1.118  1.00  0.00    -0.252 OA
BRANCH   2   4
ATOM      4  C   UNL     1       2.218   3.972   0.419  1.00  0.00     0.114 C 
ATOM      5  N   UNL     1       1.982   2.028  -1.177  1.00  0.00    -0.201 NA
ATOM      6  C   UNL     1       3.324   1.515  -0.741  1.00  0.00     0.102 C 
ATOM      7  C   UNL     1       1.917   3.521  -1.015  1.00  0.00     0.117 C 
ATOM      8  C   UNL     1       3.572   1.847   0.726  1.00  0.00     0.018 C 
ATOM      9  C   UNL     1       3.486   3.342   0.993  1.00  0.00     0.018 C 
BRANCH   5  10
ATOM     10  S   UNL     1       1.569   1.470  -2.761  1.00  0.00     0.216 S 
ATOM     11  O   UNL     1       2.040   0.107  -2.890  1.00  0.00    -0.212 OA
ATOM     12  O   UNL     1       2.034   2.484  -3.686  1.00  0.00    -0.212 OA
BRANCH  10  13
ATOM     13  C   UNL     1      -0.232   1.450  -2.815  1.00  0.00     0.182 C 
BRANCH  13  14
ATOM     14  C   UNL     1      -0.862   0.110  -2.436  1.00  0.00     0.178 C 
BRANCH  14  15
ATOM     15  O   UNL     1      -1.704   0.031  -1.285  1.00  0.00    -0.378 OA
BRANCH  15  16
ATOM     16  C   UNL     1      -1.231   0.462  -0.016  1.00  0.00     0.112 C 
ATOM     17  C   UNL     1       0.139  -0.082   0.386  1.00  0.00     0.038 C 
ATOM     18  C   UNL     1      -1.396   1.966   0.067  1.00  0.00     0.038 C 
ENDBRANCH  15  16
ENDBRANCH  14  15
ENDBRANCH  13  14
ENDBRANCH  10  13
ENDBRANCH   5  10
ENDBRANCH   2   4
ENDBRANCH   1   2
BRANCH   1  19
ATOM     19  C   UNL     1      -0.136   2.824   3.125  1.00  0.00     0.274 C 
BRANCH  19  20
ATOM     20  C   UNL     1       0.112   3.268   4.565  1.00  0.00     0.275 C 
BRANCH  20  21
ATOM     21  O   UNL     1       0.202   4.699   4.630  1.00  0.00    -0.458 OA
BRANCH  21  22
ATOM     22  C   UNL     1       1.437   5.183   4.378  1.00  0.00     0.338 C 
ATOM     23  O   UNL     1       2.474   4.559   4.248  1.00  0.00    -0.246 OA
BRANCH  22  24
ATOM     24  C   UNL     1       1.330   6.613   4.081  1.00  0.00     0.060 A 
ATOM     25  C   UNL     1       1.724   7.035   2.809  1.00  0.00     0.016 A 
ATOM     26  C   UNL     1       0.931   7.529   5.052  1.00  0.00     0.016 A 
ATOM     27  C   UNL     1       1.752   8.383   2.499  1.00  0.00     0.010 A 
ATOM     28  C   UNL     1       0.964   8.888   4.745  1.00  0.00     0.010 A 
ATOM     29  C   UNL     1       1.398   9.316   3.477  1.00  0.00    -0.014 A 
BRANCH  29  30
ATOM     30  C   UNL     1       1.606  10.750   3.203  1.00  0.00     0.031 A 
ATOM     31  C   UNL     1       2.776  11.440   3.835  1.00  0.00     0.074 A 
ATOM     32  C   UNL     1       0.774  11.398   2.373  1.00  0.00     0.049 A 
ATOM     33  N   UNL     1       3.087  12.708   3.840  1.00  0.00    -0.248 NA
ATOM     34  C   UNL     1       3.723  10.582   4.566  1.00  0.00     0.031 C 
ATOM     35  C   UNL     1      -0.343  10.788   1.652  1.00  0.00     0.029 A 
ATOM     36  N   UNL     1       0.736  12.716   2.002  1.00  0.00    -0.354 N 
ATOM     37  C   UNL     1       4.246  12.806   4.596  1.00  0.00     0.074 A 
ATOM     38  C   UNL     1       4.577  11.472   5.048  1.00  0.00     0.031 C 
ATOM     39  C   UNL     1      -0.966  11.735   0.933  1.00  0.00     0.029 A 
ATOM     40  C   UNL     1      -0.326  13.021   1.190  1.00  0.00     0.049 A 
ATOM     41  H   UNL     1       1.405  13.378   2.290  1.00  0.00     0.167 HD
ATOM     42  C   UNL     1       4.963  13.917   4.883  1.00  0.00     0.037 A 
ATOM     43  C   UNL     1      -0.752  14.217   0.745  1.00  0.00     0.037 A 
ATOM     44  C   UNL     1       4.615  15.231   4.410  1.00  0.00     0.049 A 
ATOM     45  C   UNL     1       0.019  15.447   1.143  1.00  0.00     0.074 A 
ATOM     46  C   UNL     1       5.266  16.431   4.632  1.00  0.00     0.029 A 
ATOM     47  N   UNL     1       3.511  15.513   3.616  1.00  0.00    -0.354 N 
ATOM     48  N   UNL     1       1.105  15.544   1.873  1.00  0.00    -0.248 NA
ATOM     49  C   UNL     1      -0.498  16.734   0.662  1.00  0.00     0.031 C 
ATOM     50  C   UNL     1       4.526  17.446   4.015  1.00  0.00     0.029 A 
ATOM     51  C   UNL     1       3.446  16.872   3.360  1.00  0.00     0.049 A 
ATOM     52  H   UNL     1       2.869  14.845   3.284  1.00  0.00     0.167 HD
ATOM     53  C   UNL     1       1.415  16.895   1.922  1.00  0.00     0.074 A 
ATOM     54  C   UNL     1       0.410  17.578   1.130  1.00  0.00     0.031 C 
ATOM     55  C   UNL     1       2.434  17.520   2.563  1.00  0.00     0.037 A 
BRANCH  42  56
ATOM     56  C   UNL     1       6.155  13.762   5.781  1.00  0.00     0.064 A 
ATOM     57  C   UNL     1       7.323  13.107   5.361  1.00  0.00     0.173 A 
ATOM     58  C   UNL     1       6.132  14.288   7.082  1.00  0.00     0.173 A 
ATOM     59  F   UNL     1       7.391  12.568   4.135  1.00  0.00    -0.203 F 
ATOM     60  C   UNL     1       8.412  12.962   6.219  1.00  0.00     0.198 A 
ATOM     61  C   UNL     1       7.233  14.168   7.926  1.00  0.00     0.198 A 
ATOM     62  F   UNL     1       5.040  14.922   7.536  1.00  0.00    -0.203 F 
ATOM     63  F   UNL     1       9.496  12.286   5.814  1.00  0.00    -0.200 F 
ATOM     64  C   UNL     1       8.368  13.498   7.497  1.00  0.00     0.200 A 
ATOM     65  F   UNL     1       7.192  14.695   9.158  1.00  0.00    -0.200 F 
ATOM     66  F   UNL     1       9.417  13.360   8.320  1.00  0.00    -0.200 F 
ENDBRANCH  42  56
BRANCH  43  67
ATOM     67  C   UNL     1      -1.977  14.306  -0.091  1.00  0.00     0.064 A 
ATOM     68  C   UNL     1      -1.910  14.707  -1.432  1.00  0.00     0.173 A 
ATOM     69  C   UNL     1      -3.241  13.996   0.433  1.00  0.00     0.173 A 
ATOM     70  F   UNL     1      -0.728  15.034  -1.974  1.00  0.00    -0.203 F 
ATOM     71  C   UNL     1      -3.061  14.810  -2.211  1.00  0.00     0.198 A 
ATOM     72  C   UNL     1      -4.387  14.069  -0.355  1.00  0.00     0.198 A 
ATOM     73  F   UNL     1      -3.362  13.607   1.711  1.00  0.00    -0.203 F 
ATOM     74  F   UNL     1      -2.973  15.239  -3.477  1.00  0.00    -0.200 F 
ATOM     75  C   UNL     1      -4.297  14.485  -1.674  1.00  0.00     0.200 A 
ATOM     76  F   UNL     1      -5.578  13.739   0.164  1.00  0.00    -0.200 F 
ATOM     77  F   UNL     1      -5.403  14.579  -2.426  1.00  0.00    -0.200 F 
ENDBRANCH  43  67
BRANCH  55  78
ATOM     78  C   UNL     1       2.527  19.009   2.404  1.00  0.00     0.064 A 
ATOM     79  C   UNL     1       1.611  19.874   3.021  1.00  0.00     0.173 A 
ATOM     80  C   UNL     1       3.569  19.577   1.655  1.00  0.00     0.173 A 
ATOM     81  F   UNL     1       0.589  19.378   3.733  1.00  0.00    -0.203 F 
ATOM     82  C   UNL     1       1.720  21.253   2.869  1.00  0.00     0.198 A 
ATOM     83  C   UNL     1       3.693  20.957   1.535  1.00  0.00     0.198 A 
ATOM     84  F   UNL     1       4.475  18.792   1.052  1.00  0.00    -0.203 F 
ATOM     85  F   UNL     1       0.803  22.059   3.423  1.00  0.00    -0.200 F 
ATOM     86  C   UNL     1       2.764  21.794   2.134  1.00  0.00     0.200 A 
ATOM     87  F   UNL     1       4.713  21.478   0.838  1.00  0.00    -0.200 F 
ATOM     88  F   UNL     1       2.871  23.122   1.997  1.00  0.00    -0.200 F 
ENDBRANCH  55  78
ENDBRANCH  29  30
ENDBRANCH  22  24
ENDBRANCH  21  22
ENDBRANCH  20  21
ENDBRANCH  19  20
ENDBRANCH   1  19
TORSDOF 16
