REMARK SMILES NS(=O)(=O)c1ccc(/N=C/c2ccc(O)c(C(=O)OCCOC(=O)c3ccc(-c4c5nc(c(-c6c(F)c(F)c(F)c(F)c6F)c6ccc([nH]6)c(-c6c(F)c(F)c(F)c(F)c6F)c6nc(c(-c7c(F)c(F)c(F)c(F)c7F)c7ccc4[nH]7)C=C6)C=C5)cc3)c2)cc1
REMARK SMILES IDX 20 1 19 2 17 3 18 4 16 5 11 6 12 7 88 8 13 9 14 10 10 11
REMARK SMILES IDX 9 12 8 13 5 14 6 15 90 16 7 17 89 18 2 19 3 20 4 21 1 22
REMARK SMILES IDX 15 25 21 27 22 28 23 29 24 30 25 31 26 32 87 33 27 34 86 35
REMARK SMILES IDX 28 36 29 37 30 38 80 39 31 40 85 41 79 42 81 43 32 44 84 45
REMARK SMILES IDX 78 46 77 47 33 49 65 50 45 51 64 52 46 53 49 54 63 55 82 56
REMARK SMILES IDX 47 57 48 58 62 60 83 61 50 62 34 63 35 64 43 65 36 66 37 67
REMARK SMILES IDX 41 68 44 69 38 70 39 71 42 72 40 73 66 74 67 75 75 76 68 77
REMARK SMILES IDX 69 78 73 79 76 80 70 81 71 82 74 83 72 84 51 85 52 86 60 87
REMARK SMILES IDX 53 88 54 89 58 90 61 91 55 92 56 93 59 94 57 95
REMARK H PARENT 1 23 1 24 15 26 81 48 49 59
REMARK Flexibility Score: inf
ROOT
ATOM      1  C   UNL     1       6.460   8.652   6.148  1.00  0.00     0.275 C 
ENDROOT
BRANCH   1   2
ATOM      2  O   UNL     1       5.278   8.657   5.321  1.00  0.00    -0.458 OA
BRANCH   2   3
ATOM      3  C   UNL     1       4.171   9.233   5.845  1.00  0.00     0.342 C 
ATOM      4  O   UNL     1       4.056   9.748   6.948  1.00  0.00    -0.246 OA
BRANCH   3   5
ATOM      5  C   UNL     1       3.080   9.293   4.847  1.00  0.00     0.102 A 
ATOM      6  C   UNL     1       1.867   8.374   2.974  1.00  0.00    -0.006 A 
ATOM      7  C   UNL     1       1.041   9.502   2.933  1.00  0.00     0.013 A 
ATOM      8  C   UNL     1       2.921   8.287   3.891  1.00  0.00     0.029 A 
ATOM      9  C   UNL     1       1.190  10.495   3.897  1.00  0.00     0.048 A 
ATOM     10  C   UNL     1       2.159  10.351   4.886  1.00  0.00     0.130 A 
BRANCH   6  11
ATOM     11  C   UNL     1       1.510   7.223   2.125  1.00  0.00     0.119 C 
ATOM     12  N   UNL     1       2.094   6.079   2.275  1.00  0.00    -0.256 NA
BRANCH  12  13
ATOM     13  C   UNL     1       1.647   4.975   1.533  1.00  0.00     0.063 A 
ATOM     14  C   UNL     1       0.879   2.657   0.156  1.00  0.00     0.082 A 
ATOM     15  C   UNL     1       1.269   2.567   1.492  1.00  0.00     0.024 A 
ATOM     16  C   UNL     1       0.865   3.892  -0.497  1.00  0.00     0.024 A 
ATOM     17  C   UNL     1       1.649   3.728   2.171  1.00  0.00     0.030 A 
ATOM     18  C   UNL     1       1.254   5.044   0.192  1.00  0.00     0.030 A 
BRANCH  14  19
ATOM     19  S   UNL     1       0.482   1.209  -0.776  1.00  0.00     0.238 S 
ATOM     20  O   UNL     1       1.093   1.321  -2.080  1.00  0.00    -0.207 OA
ATOM     21  O   UNL     1      -0.919   0.917  -0.590  1.00  0.00    -0.207 OA
BRANCH  19  22
ATOM     22  N   UNL     1       1.324  -0.024  -0.004  1.00  0.00    -0.225 NA
ATOM     23  H   UNL     1       1.149  -0.907  -0.484  1.00  0.00     0.137 HD
ATOM     24  H   UNL     1       1.012  -0.095   0.964  1.00  0.00     0.137 HD
ENDBRANCH  19  22
ENDBRANCH  14  19
ENDBRANCH  12  13
ENDBRANCH   6  11
BRANCH  10  25
ATOM     25  O   UNL     1       2.110  11.267   5.903  1.00  0.00    -0.507 OA
ATOM     26  H   UNL     1       1.475  11.956   5.883  1.00  0.00     0.293 HD
ENDBRANCH  10  25
ENDBRANCH   3   5
ENDBRANCH   2   3
ENDBRANCH   1   2
BRANCH   1  27
ATOM     27  C   UNL     1       7.468   9.693   5.662  1.00  0.00     0.275 C 
BRANCH  27  28
ATOM     28  O   UNL     1       6.958  11.016   5.911  1.00  0.00    -0.458 OA
BRANCH  28  29
ATOM     29  C   UNL     1       6.686  11.761   4.815  1.00  0.00     0.338 C 
ATOM     30  O   UNL     1       6.860  11.469   3.646  1.00  0.00    -0.246 OA
BRANCH  29  31
ATOM     31  C   UNL     1       6.082  13.032   5.242  1.00  0.00     0.060 A 
ATOM     32  C   UNL     1       4.811  13.010   5.806  1.00  0.00     0.016 A 
ATOM     33  C   UNL     1       6.710  14.245   4.981  1.00  0.00     0.016 A 
ATOM     34  C   UNL     1       4.122  14.195   6.045  1.00  0.00     0.010 A 
ATOM     35  C   UNL     1       6.057  15.437   5.313  1.00  0.00     0.010 A 
ATOM     36  C   UNL     1       4.744  15.429   5.824  1.00  0.00    -0.014 A 
BRANCH  36  37
ATOM     37  C   UNL     1       4.030  16.712   6.081  1.00  0.00     0.031 A 
ATOM     38  C   UNL     1       3.884  17.717   4.971  1.00  0.00     0.074 A 
ATOM     39  C   UNL     1       3.525  16.998   7.298  1.00  0.00     0.049 A 
ATOM     40  N   UNL     1       3.575  18.988   5.030  1.00  0.00    -0.248 NA
ATOM     41  C   UNL     1       4.138  17.224   3.609  1.00  0.00     0.031 C 
ATOM     42  C   UNL     1       3.504  16.093   8.446  1.00  0.00     0.029 A 
ATOM     43  N   UNL     1       2.932  18.145   7.772  1.00  0.00    -0.354 N 
ATOM     44  C   UNL     1       3.678  19.462   3.728  1.00  0.00     0.074 A 
ATOM     45  C   UNL     1       4.064  18.340   2.899  1.00  0.00     0.031 C 
ATOM     46  C   UNL     1       2.900  16.701   9.477  1.00  0.00     0.029 A 
ATOM     47  C   UNL     1       2.593  18.076   9.101  1.00  0.00     0.049 A 
ATOM     48  H   UNL     1       2.768  18.938   7.213  1.00  0.00     0.167 HD
ATOM     49  C   UNL     1       3.479  20.725   3.275  1.00  0.00     0.037 A 
ATOM     50  C   UNL     1       2.143  19.027   9.942  1.00  0.00     0.037 A 
ATOM     51  C   UNL     1       3.033  21.816   4.103  1.00  0.00     0.049 A 
ATOM     52  C   UNL     1       1.992  20.435   9.439  1.00  0.00     0.074 A 
ATOM     53  C   UNL     1       2.789  23.131   3.745  1.00  0.00     0.029 A 
ATOM     54  N   UNL     1       2.746  21.711   5.457  1.00  0.00    -0.354 N 
ATOM     55  N   UNL     1       2.179  20.905   8.230  1.00  0.00    -0.248 NA
ATOM     56  C   UNL     1       1.599  21.451  10.425  1.00  0.00     0.031 C 
ATOM     57  C   UNL     1       2.393  23.830   4.891  1.00  0.00     0.029 A 
ATOM     58  C   UNL     1       2.342  22.941   5.953  1.00  0.00     0.049 A 
ATOM     59  H   UNL     1       2.818  20.885   5.987  1.00  0.00     0.167 HD
ATOM     60  C   UNL     1       1.907  22.264   8.302  1.00  0.00     0.074 A 
ATOM     61  C   UNL     1       1.535  22.542   9.675  1.00  0.00     0.031 C 
ATOM     62  C   UNL     1       1.960  23.195   7.319  1.00  0.00     0.037 A 
BRANCH  49  63
ATOM     63  C   UNL     1       3.803  21.003   1.834  1.00  0.00     0.064 A 
ATOM     64  C   UNL     1       3.027  20.503   0.779  1.00  0.00     0.173 A 
ATOM     65  C   UNL     1       4.918  21.793   1.508  1.00  0.00     0.173 A 
ATOM     66  F   UNL     1       1.958  19.733   1.032  1.00  0.00    -0.203 F 
ATOM     67  C   UNL     1       3.378  20.747  -0.548  1.00  0.00     0.198 A 
ATOM     68  C   UNL     1       5.247  22.063   0.182  1.00  0.00     0.198 A 
ATOM     69  F   UNL     1       5.691  22.306   2.477  1.00  0.00    -0.203 F 
ATOM     70  F   UNL     1       2.658  20.206  -1.540  1.00  0.00    -0.200 F 
ATOM     71  C   UNL     1       4.484  21.530  -0.845  1.00  0.00     0.200 A 
ATOM     72  F   UNL     1       6.308  22.832  -0.101  1.00  0.00    -0.200 F 
ATOM     73  F   UNL     1       4.822  21.761  -2.121  1.00  0.00    -0.200 F 
ENDBRANCH  49  63
BRANCH  50  74
ATOM     74  C   UNL     1       1.846  18.681  11.357  1.00  0.00     0.064 A 
ATOM     75  C   UNL     1       0.528  18.684  11.833  1.00  0.00     0.173 A 
ATOM     76  C   UNL     1       2.862  18.312  12.253  1.00  0.00     0.173 A 
ATOM     77  F   UNL     1      -0.474  19.058  11.025  1.00  0.00    -0.203 F 
ATOM     78  C   UNL     1       0.237  18.326  13.148  1.00  0.00     0.198 A 
ATOM     79  C   UNL     1       2.567  17.925  13.558  1.00  0.00     0.198 A 
ATOM     80  F   UNL     1       4.141  18.298  11.850  1.00  0.00    -0.203 F 
ATOM     81  F   UNL     1      -1.029  18.364  13.586  1.00  0.00    -0.200 F 
ATOM     82  C   UNL     1       1.255  17.935  14.006  1.00  0.00     0.200 A 
ATOM     83  F   UNL     1       3.552  17.533  14.377  1.00  0.00    -0.200 F 
ATOM     84  F   UNL     1       0.972  17.572  15.264  1.00  0.00    -0.200 F 
ENDBRANCH  50  74
BRANCH  62  85
ATOM     85  C   UNL     1       1.552  24.593   7.677  1.00  0.00     0.064 A 
ATOM     86  C   UNL     1       2.382  25.434   8.431  1.00  0.00     0.173 A 
ATOM     87  C   UNL     1       0.331  25.110   7.218  1.00  0.00     0.173 A 
ATOM     88  F   UNL     1       3.551  24.979   8.908  1.00  0.00    -0.203 F 
ATOM     89  C   UNL     1       1.997  26.739   8.726  1.00  0.00     0.198 A 
ATOM     90  C   UNL     1      -0.039  26.422   7.493  1.00  0.00     0.198 A 
ATOM     91  F   UNL     1      -0.496  24.344   6.490  1.00  0.00    -0.203 F 
ATOM     92  F   UNL     1       2.787  27.515   9.480  1.00  0.00    -0.200 F 
ATOM     93  C   UNL     1       0.791  27.234   8.250  1.00  0.00     0.200 A 
ATOM     94  F   UNL     1      -1.200  26.902   7.024  1.00  0.00    -0.200 F 
ATOM     95  F   UNL     1       0.426  28.494   8.528  1.00  0.00    -0.200 F 
ENDBRANCH  62  85
ENDBRANCH  36  37
ENDBRANCH  29  31
ENDBRANCH  28  29
ENDBRANCH  27  28
ENDBRANCH   1  27
TORSDOF 16
