REMARK SMILES Cc1ccccc1[C@@H]1[NH2+][C@H](C(=O)OCCOC(=O)c2ccc(-c3c4nc(c(-c5c(F)c(F)c(F)c(F)c5F)c5ccc([nH]5)c(-c5c(F)c(F)c(F)c(F)c5F)c5nc(c(-c6c(F)c(F)c(F)c(F)c6F)c6ccc3[nH]6)C=C5)C=C4)cc2)CC2=c3ccccc3=N[C@H]21
REMARK SMILES IDX 15 1 14 2 13 3 11 4 12 5 10 6 8 7 9 8 91 9 83 12 90 13 82 14
REMARK SMILES IDX 84 15 89 16 85 17 88 18 86 19 87 20 7 21 1 22 2 23 3 24 4 25
REMARK SMILES IDX 6 26 5 27 16 28 17 29 18 30 19 31 20 32 81 33 21 34 80 35
REMARK SMILES IDX 22 36 23 37 24 38 74 39 25 40 79 41 73 42 75 43 26 44 78 45
REMARK SMILES IDX 72 46 71 47 27 49 59 50 39 51 58 52 40 53 43 54 57 55 76 56
REMARK SMILES IDX 41 57 42 58 56 60 77 61 44 62 28 63 29 64 37 65 30 66 31 67
REMARK SMILES IDX 35 68 38 69 32 70 33 71 36 72 34 73 60 74 61 75 69 76 62 77
REMARK SMILES IDX 63 78 67 79 70 80 64 81 65 82 68 83 66 84 45 85 46 86 54 87
REMARK SMILES IDX 47 88 48 89 52 90 55 91 49 92 50 93 53 94 51 95
REMARK H PARENT 9 10 9 11 75 48 43 59
REMARK Flexibility Score: inf
ROOT
ATOM      1  C   UNL     1      -2.342   7.197  -3.309  1.00  0.00     0.275 C 
ENDROOT
BRANCH   1   2
ATOM      2  C   UNL     1      -2.777   6.849  -1.887  1.00  0.00     0.274 C 
BRANCH   2   3
ATOM      3  O   UNL     1      -1.859   5.955  -1.256  1.00  0.00    -0.458 OA
BRANCH   3   4
ATOM      4  C   UNL     1      -2.450   5.141  -0.349  1.00  0.00     0.365 C 
ATOM      5  O   UNL     1      -3.647   5.182  -0.065  1.00  0.00    -0.245 OA
BRANCH   4   6
ATOM      6  C   UNL     1      -1.502   4.276   0.441  1.00  0.00     0.298 C 
ATOM      7  C   UNL     1       0.514   2.904   0.716  1.00  0.00     0.243 C 
ATOM      8  N   UNL     1      -0.285   3.757  -0.235  1.00  0.00    -0.326 N 
ATOM      9  C   UNL     1       0.694   3.463   2.193  1.00  0.00     0.196 C 
ATOM     10  H   UNL     1      -0.560   3.196  -1.041  1.00  0.00     0.347 HD
ATOM     11  H   UNL     1       0.289   4.545  -0.538  1.00  0.00     0.347 HD
ATOM     12  C   UNL     1      -0.560   4.176   2.595  1.00  0.00    -0.024 C 
ATOM     13  N   UNL     1       0.800   2.340   3.180  1.00  0.00    -0.270 NA
ATOM     14  C   UNL     1      -1.109   5.146   1.633  1.00  0.00     0.111 C 
ATOM     15  C   UNL     1      -1.216   3.531   3.548  1.00  0.00     0.002 A 
ATOM     16  C   UNL     1      -0.300   2.431   3.865  1.00  0.00     0.066 A 
ATOM     17  C   UNL     1      -2.571   3.558   3.992  1.00  0.00     0.010 A 
ATOM     18  C   UNL     1      -0.769   1.496   4.907  1.00  0.00     0.028 A 
ATOM     19  C   UNL     1      -2.976   2.588   4.826  1.00  0.00     0.001 A 
ATOM     20  C   UNL     1      -2.043   1.591   5.330  1.00  0.00     0.002 A 
BRANCH   7  21
ATOM     21  C   UNL     1       1.887   2.529   0.157  1.00  0.00     0.015 A 
ATOM     22  C   UNL     1       2.642   4.961  -0.222  1.00  0.00     0.045 C 
ATOM     23  C   UNL     1       2.880   3.476  -0.181  1.00  0.00    -0.042 A 
ATOM     24  C   UNL     1       4.195   3.032  -0.414  1.00  0.00     0.004 A 
ATOM     25  C   UNL     1       4.520   1.677  -0.386  1.00  0.00     0.000 A 
ATOM     26  C   UNL     1       2.225   1.158   0.125  1.00  0.00     0.010 A 
ATOM     27  C   UNL     1       3.527   0.737  -0.146  1.00  0.00     0.001 A 
ENDBRANCH   7  21
ENDBRANCH   4   6
ENDBRANCH   3   4
ENDBRANCH   2   3
ENDBRANCH   1   2
BRANCH   1  28
ATOM     28  O   UNL     1      -1.673   6.189  -4.128  1.00  0.00    -0.458 OA
BRANCH  28  29
ATOM     29  C   UNL     1      -1.652   4.843  -3.976  1.00  0.00     0.338 C 
ATOM     30  O   UNL     1      -0.662   4.168  -4.232  1.00  0.00    -0.246 OA
BRANCH  29  31
ATOM     31  C   UNL     1      -2.894   4.192  -3.525  1.00  0.00     0.060 A 
ATOM     32  C   UNL     1      -2.838   3.010  -2.758  1.00  0.00     0.016 A 
ATOM     33  C   UNL     1      -4.106   4.813  -3.787  1.00  0.00     0.016 A 
ATOM     34  C   UNL     1      -3.989   2.524  -2.137  1.00  0.00     0.010 A 
ATOM     35  C   UNL     1      -5.208   4.415  -3.075  1.00  0.00     0.010 A 
ATOM     36  C   UNL     1      -5.165   3.255  -2.277  1.00  0.00    -0.014 A 
BRANCH  36  37
ATOM     37  C   UNL     1      -6.492   2.785  -1.915  1.00  0.00     0.031 A 
ATOM     38  C   UNL     1      -7.122   2.973  -0.596  1.00  0.00     0.074 A 
ATOM     39  C   UNL     1      -7.205   2.468  -3.019  1.00  0.00     0.049 A 
ATOM     40  N   UNL     1      -8.270   2.469  -0.301  1.00  0.00    -0.248 NA
ATOM     41  C   UNL     1      -6.549   3.717   0.516  1.00  0.00     0.031 C 
ATOM     42  C   UNL     1      -8.638   2.464  -3.238  1.00  0.00     0.029 A 
ATOM     43  N   UNL     1      -6.672   2.041  -4.246  1.00  0.00    -0.354 N 
ATOM     44  C   UNL     1      -8.722   3.049   0.866  1.00  0.00     0.074 A 
ATOM     45  C   UNL     1      -7.571   3.745   1.387  1.00  0.00     0.031 C 
ATOM     46  C   UNL     1      -8.896   1.796  -4.378  1.00  0.00     0.029 A 
ATOM     47  C   UNL     1      -7.640   1.212  -4.823  1.00  0.00     0.049 A 
ATOM     48  H   UNL     1      -5.794   2.276  -4.624  1.00  0.00     0.167 HD
ATOM     49  C   UNL     1     -10.056   2.953   1.149  1.00  0.00     0.037 A 
ATOM     50  C   UNL     1      -7.372  -0.125  -4.912  1.00  0.00     0.037 A 
ATOM     51  C   UNL     1     -10.712   2.137   0.127  1.00  0.00     0.049 A 
ATOM     52  C   UNL     1      -8.332  -0.923  -4.070  1.00  0.00     0.074 A 
ATOM     53  C   UNL     1     -11.435   2.465  -1.007  1.00  0.00     0.029 A 
ATOM     54  N   UNL     1     -10.372   0.795   0.012  1.00  0.00    -0.354 N 
ATOM     55  N   UNL     1      -8.882  -0.489  -2.967  1.00  0.00    -0.248 NA
ATOM     56  C   UNL     1      -8.823  -2.233  -4.470  1.00  0.00     0.031 C 
ATOM     57  C   UNL     1     -11.504   1.309  -1.826  1.00  0.00     0.029 A 
ATOM     58  C   UNL     1     -10.836   0.280  -1.180  1.00  0.00     0.049 A 
ATOM     59  H   UNL     1      -9.871   0.283   0.687  1.00  0.00     0.167 HD
ATOM     60  C   UNL     1      -9.844  -1.379  -2.562  1.00  0.00     0.074 A 
ATOM     61  C   UNL     1      -9.751  -2.462  -3.525  1.00  0.00     0.031 C 
ATOM     62  C   UNL     1     -10.671  -1.130  -1.500  1.00  0.00     0.037 A 
BRANCH  49  63
ATOM     63  C   UNL     1     -10.863   3.742   2.168  1.00  0.00     0.064 A 
ATOM     64  C   UNL     1     -12.273   3.845   2.036  1.00  0.00     0.173 A 
ATOM     65  C   UNL     1     -10.336   4.438   3.270  1.00  0.00     0.173 A 
ATOM     66  F   UNL     1     -12.942   3.183   1.084  1.00  0.00    -0.203 F 
ATOM     67  C   UNL     1     -13.064   4.633   2.877  1.00  0.00     0.198 A 
ATOM     68  C   UNL     1     -11.129   5.241   4.106  1.00  0.00     0.198 A 
ATOM     69  F   UNL     1      -9.049   4.339   3.612  1.00  0.00    -0.203 F 
ATOM     70  F   UNL     1     -14.388   4.699   2.675  1.00  0.00    -0.200 F 
ATOM     71  C   UNL     1     -12.490   5.347   3.903  1.00  0.00     0.200 A 
ATOM     72  F   UNL     1     -10.558   5.910   5.118  1.00  0.00    -0.200 F 
ATOM     73  F   UNL     1     -13.242   6.116   4.702  1.00  0.00    -0.200 F 
ENDBRANCH  49  63
BRANCH  50  74
ATOM     74  C   UNL     1      -5.911  -0.395  -5.112  1.00  0.00     0.064 A 
ATOM     75  C   UNL     1      -5.303   0.155  -6.264  1.00  0.00     0.173 A 
ATOM     76  C   UNL     1      -5.064  -0.751  -4.053  1.00  0.00     0.173 A 
ATOM     77  F   UNL     1      -6.064   0.524  -7.308  1.00  0.00    -0.203 F 
ATOM     78  C   UNL     1      -3.945   0.470  -6.295  1.00  0.00     0.198 A 
ATOM     79  C   UNL     1      -3.695  -0.454  -4.100  1.00  0.00     0.198 A 
ATOM     80  F   UNL     1      -5.566  -1.278  -2.928  1.00  0.00    -0.203 F 
ATOM     81  F   UNL     1      -3.436   1.127  -7.348  1.00  0.00    -0.200 F 
ATOM     82  C   UNL     1      -3.147   0.190  -5.201  1.00  0.00     0.200 A 
ATOM     83  F   UNL     1      -2.920  -0.708  -3.035  1.00  0.00    -0.200 F 
ATOM     84  F   UNL     1      -1.864   0.579  -5.188  1.00  0.00    -0.200 F 
ENDBRANCH  50  74
BRANCH  62  85
ATOM     85  C   UNL     1     -11.515  -2.133  -0.732  1.00  0.00     0.064 A 
ATOM     86  C   UNL     1     -11.381  -3.526  -0.834  1.00  0.00     0.173 A 
ATOM     87  C   UNL     1     -12.418  -1.698   0.279  1.00  0.00     0.173 A 
ATOM     88  F   UNL     1     -10.470  -4.092  -1.631  1.00  0.00    -0.203 F 
ATOM     89  C   UNL     1     -12.139  -4.407  -0.057  1.00  0.00     0.198 A 
ATOM     90  C   UNL     1     -13.112  -2.579   1.105  1.00  0.00     0.198 A 
ATOM     91  F   UNL     1     -12.636  -0.401   0.536  1.00  0.00    -0.203 F 
ATOM     92  F   UNL     1     -12.007  -5.728  -0.242  1.00  0.00    -0.200 F 
ATOM     93  C   UNL     1     -12.992  -3.936   0.921  1.00  0.00     0.200 A 
ATOM     94  F   UNL     1     -13.878  -2.097   2.094  1.00  0.00    -0.200 F 
ATOM     95  F   UNL     1     -13.671  -4.786   1.701  1.00  0.00    -0.200 F 
ENDBRANCH  62  85
ENDBRANCH  36  37
ENDBRANCH  29  31
ENDBRANCH  28  29
ENDBRANCH   1  28
TORSDOF 12
