REMARK SMILES CN(C)c1ccc(C(=O)NCCCC(=O)OCCOC(=O)c2ccc(-c3c4nc(c(-c5c(F)c(F)c(F)c(F)c5F)c5ccc([nH]5)c(-c5c(F)c(F)c(F)c(F)c5F)c5nc(c(-c6c(F)c(F)c(F)c(F)c6F)c6ccc3[nH]6)C=C5)C=C4)cc2)cn1
REMARK SMILES IDX 16 1 14 2 15 3 13 4 12 5 11 6 10 7 8 8 9 9 7 11 4 12 5 13
REMARK SMILES IDX 86 14 6 15 85 16 2 17 1 18 3 19 17 20 18 21 19 22 20 23
REMARK SMILES IDX 21 24 22 25 23 26 84 27 24 28 83 29 25 30 26 31 27 32 77 33
REMARK SMILES IDX 28 34 82 35 76 36 78 37 29 38 81 39 75 40 74 41 30 43 62 44
REMARK SMILES IDX 42 45 61 46 43 47 46 48 60 49 79 50 44 51 45 52 59 54 80 55
REMARK SMILES IDX 47 56 31 57 32 58 40 59 33 60 34 61 38 62 41 63 35 64 36 65
REMARK SMILES IDX 39 66 37 67 63 68 64 69 72 70 65 71 66 72 70 73 73 74 67 75
REMARK SMILES IDX 68 76 71 77 69 78 48 79 49 80 57 81 50 82 51 83 55 84 58 85
REMARK SMILES IDX 52 86 53 87 56 88 54 89
REMARK H PARENT 10 10 78 42 46 53
REMARK Flexibility Score: inf
ROOT
ATOM      1  O   UNL     1       5.535  -5.667   6.216  1.00  0.00    -0.462 OA
ENDROOT
BRANCH   1   2
ATOM      2  C   UNL     1       6.042  -5.001   7.284  1.00  0.00     0.305 C 
ATOM      3  O   UNL     1       7.059  -5.314   7.890  1.00  0.00    -0.252 OA
BRANCH   2   4
ATOM      4  C   UNL     1       5.170  -3.837   7.690  1.00  0.00     0.124 C 
BRANCH   4   5
ATOM      5  C   UNL     1       5.003  -2.742   6.638  1.00  0.00     0.033 C 
BRANCH   5   6
ATOM      6  C   UNL     1       4.066  -3.055   5.472  1.00  0.00     0.117 C 
BRANCH   6   7
ATOM      7  N   UNL     1       2.723  -3.375   5.920  1.00  0.00    -0.352 N 
ATOM      8  C   UNL     1       1.496  -2.892   5.552  1.00  0.00     0.252 C 
ATOM      9  O   UNL     1       0.520  -3.228   6.221  1.00  0.00    -0.269 OA
ATOM     10  H   UNL     1       2.688  -4.067   6.619  1.00  0.00     0.163 HD
BRANCH   8  11
ATOM     11  C   UNL     1       1.295  -1.994   4.397  1.00  0.00     0.058 A 
ATOM     12  C   UNL     1       0.615  -0.288   2.288  1.00  0.00     0.127 A 
ATOM     13  C   UNL     1       1.692  -1.169   2.170  1.00  0.00     0.048 A 
ATOM     14  N   UNL     1      -0.101  -0.259   3.433  1.00  0.00    -0.239 NA
ATOM     15  C   UNL     1       2.027  -2.036   3.218  1.00  0.00     0.019 A 
ATOM     16  C   UNL     1       0.232  -1.107   4.440  1.00  0.00     0.127 A 
BRANCH  12  17
ATOM     17  N   UNL     1       0.239   0.556   1.260  1.00  0.00    -0.363 N 
ATOM     18  C   UNL     1       0.683   0.364  -0.105  1.00  0.00     0.144 C 
ATOM     19  C   UNL     1      -0.794   1.539   1.544  1.00  0.00     0.144 C 
ENDBRANCH  12  17
ENDBRANCH   8  11
ENDBRANCH   6   7
ENDBRANCH   5   6
ENDBRANCH   4   5
ENDBRANCH   2   4
ENDBRANCH   1   2
BRANCH   1  20
ATOM     20  C   UNL     1       6.269  -6.829   5.778  1.00  0.00     0.274 C 
BRANCH  20  21
ATOM     21  C   UNL     1       7.227  -6.503   4.629  1.00  0.00     0.275 C 
BRANCH  21  22
ATOM     22  O   UNL     1       8.361  -5.740   5.084  1.00  0.00    -0.458 OA
BRANCH  22  23
ATOM     23  C   UNL     1       8.235  -4.400   4.982  1.00  0.00     0.338 C 
ATOM     24  O   UNL     1       7.301  -3.783   4.484  1.00  0.00    -0.246 OA
BRANCH  23  25
ATOM     25  C   UNL     1       9.335  -3.736   5.699  1.00  0.00     0.060 A 
ATOM     26  C   UNL     1       9.007  -2.831   6.713  1.00  0.00     0.016 A 
ATOM     27  C   UNL     1      10.670  -3.946   5.347  1.00  0.00     0.016 A 
ATOM     28  C   UNL     1      10.004  -2.116   7.368  1.00  0.00     0.010 A 
ATOM     29  C   UNL     1      11.674  -3.232   6.010  1.00  0.00     0.010 A 
ATOM     30  C   UNL     1      11.345  -2.302   7.013  1.00  0.00    -0.014 A 
BRANCH  30  31
ATOM     31  C   UNL     1      12.389  -1.475   7.661  1.00  0.00     0.031 A 
ATOM     32  C   UNL     1      13.004  -0.332   6.909  1.00  0.00     0.074 A 
ATOM     33  C   UNL     1      12.754  -1.728   8.931  1.00  0.00     0.049 A 
ATOM     34  N   UNL     1      13.964   0.480   7.273  1.00  0.00    -0.248 NA
ATOM     35  C   UNL     1      12.465  -0.064   5.566  1.00  0.00     0.031 C 
ATOM     36  C   UNL     1      12.191  -2.779   9.778  1.00  0.00     0.029 A 
ATOM     37  N   UNL     1      13.687  -1.117   9.730  1.00  0.00    -0.354 N 
ATOM     38  C   UNL     1      14.160   1.338   6.199  1.00  0.00     0.074 A 
ATOM     39  C   UNL     1      13.228   0.943   5.164  1.00  0.00     0.031 C 
ATOM     40  C   UNL     1      12.788  -2.738  10.980  1.00  0.00     0.029 A 
ATOM     41  C   UNL     1      13.803  -1.687  10.973  1.00  0.00     0.049 A 
ATOM     42  H   UNL     1      14.223  -0.343   9.439  1.00  0.00     0.167 HD
ATOM     43  C   UNL     1      15.037   2.363   6.091  1.00  0.00     0.037 A 
ATOM     44  C   UNL     1      14.648  -1.404  11.982  1.00  0.00     0.037 A 
ATOM     45  C   UNL     1      15.947   2.767   7.131  1.00  0.00     0.049 A 
ATOM     46  C   UNL     1      15.648  -0.291  11.814  1.00  0.00     0.074 A 
ATOM     47  C   UNL     1      16.862   3.805   7.123  1.00  0.00     0.029 A 
ATOM     48  N   UNL     1      16.054   2.148   8.368  1.00  0.00    -0.354 N 
ATOM     49  N   UNL     1      15.823   0.518  10.798  1.00  0.00    -0.248 NA
ATOM     50  C   UNL     1      16.570  -0.056  12.934  1.00  0.00     0.031 C 
ATOM     51  C   UNL     1      17.551   3.791   8.341  1.00  0.00     0.029 A 
ATOM     52  C   UNL     1      17.034   2.771   9.124  1.00  0.00     0.049 A 
ATOM     53  H   UNL     1      15.514   1.381   8.665  1.00  0.00     0.167 HD
ATOM     54  C   UNL     1      16.851   1.376  11.167  1.00  0.00     0.074 A 
ATOM     55  C   UNL     1      17.255   0.995  12.504  1.00  0.00     0.031 C 
ATOM     56  C   UNL     1      17.409   2.390  10.461  1.00  0.00     0.037 A 
BRANCH  43  57
ATOM     57  C   UNL     1      15.080   3.105   4.790  1.00  0.00     0.064 A 
ATOM     58  C   UNL     1      14.069   4.002   4.418  1.00  0.00     0.173 A 
ATOM     59  C   UNL     1      16.171   2.946   3.922  1.00  0.00     0.173 A 
ATOM     60  F   UNL     1      12.998   4.177   5.206  1.00  0.00    -0.203 F 
ATOM     61  C   UNL     1      14.140   4.700   3.214  1.00  0.00     0.198 A 
ATOM     62  C   UNL     1      16.250   3.663   2.732  1.00  0.00     0.198 A 
ATOM     63  F   UNL     1      17.165   2.101   4.234  1.00  0.00    -0.203 F 
ATOM     64  F   UNL     1      13.144   5.525   2.860  1.00  0.00    -0.200 F 
ATOM     65  C   UNL     1      15.233   4.536   2.377  1.00  0.00     0.200 A 
ATOM     66  F   UNL     1      17.312   3.509   1.928  1.00  0.00    -0.200 F 
ATOM     67  F   UNL     1      15.303   5.213   1.222  1.00  0.00    -0.200 F 
ENDBRANCH  43  57
BRANCH  44  68
ATOM     68  C   UNL     1      14.597  -2.192  13.240  1.00  0.00     0.064 A 
ATOM     69  C   UNL     1      14.166  -1.609  14.440  1.00  0.00     0.173 A 
ATOM     70  C   UNL     1      15.003  -3.534  13.275  1.00  0.00     0.173 A 
ATOM     71  F   UNL     1      13.795  -0.321  14.462  1.00  0.00    -0.203 F 
ATOM     72  C   UNL     1      14.161  -2.334  15.630  1.00  0.00     0.198 A 
ATOM     73  C   UNL     1      14.971  -4.266  14.460  1.00  0.00     0.198 A 
ATOM     74  F   UNL     1      15.428  -4.137  12.154  1.00  0.00    -0.203 F 
ATOM     75  F   UNL     1      13.792  -1.738  16.772  1.00  0.00    -0.200 F 
ATOM     76  C   UNL     1      14.559  -3.662  15.638  1.00  0.00     0.200 A 
ATOM     77  F   UNL     1      15.349  -5.551  14.462  1.00  0.00    -0.200 F 
ATOM     78  F   UNL     1      14.556  -4.357  16.784  1.00  0.00    -0.200 F 
ENDBRANCH  44  68
BRANCH  56  79
ATOM     79  C   UNL     1      18.483   3.188  11.139  1.00  0.00     0.064 A 
ATOM     80  C   UNL     1      19.771   2.672  11.335  1.00  0.00     0.173 A 
ATOM     81  C   UNL     1      18.227   4.501  11.564  1.00  0.00     0.173 A 
ATOM     82  F   UNL     1      20.060   1.416  10.960  1.00  0.00    -0.203 F 
ATOM     83  C   UNL     1      20.759   3.433  11.954  1.00  0.00     0.198 A 
ATOM     84  C   UNL     1      19.224   5.268  12.158  1.00  0.00     0.198 A 
ATOM     85  F   UNL     1      17.011   5.042  11.393  1.00  0.00    -0.203 F 
ATOM     86  F   UNL     1      21.972   2.905  12.171  1.00  0.00    -0.200 F 
ATOM     87  C   UNL     1      20.487   4.732  12.358  1.00  0.00     0.200 A 
ATOM     88  F   UNL     1      18.963   6.526  12.538  1.00  0.00    -0.200 F 
ATOM     89  F   UNL     1      21.441   5.465  12.949  1.00  0.00    -0.200 F 
ENDBRANCH  56  79
ENDBRANCH  30  31
ENDBRANCH  23  25
ENDBRANCH  22  23
ENDBRANCH  21  22
ENDBRANCH  20  21
ENDBRANCH   1  20
TORSDOF 16
