REMARK SMILES C[NH+](C)[C@H]1CCN(C(=O)C(=O)c2ccccc2)C[C@H]1CCC(=O)OCCOC(=O)c1ccc(-c2c3nc(c(-c4c(F)c(F)c(F)c(F)c4F)c4ccc([nH]4)c(-c4c(F)c(F)c(F)c(F)c4F)c4nc(c(-c5c(F)c(F)c(F)c(F)c5F)c5ccc2[nH]5)C=C4)C=C3)cc1
REMARK SMILES IDX 24 1 22 2 23 3 21 4 20 5 19 6 4 7 5 8 6 9 18 10 7 11 2 12
REMARK SMILES IDX 1 13 3 14 8 16 9 17 10 18 11 19 12 20 13 21 17 22 14 23
REMARK SMILES IDX 16 24 15 25 25 26 26 27 27 28 28 29 29 30 30 31 31 32 92 33
REMARK SMILES IDX 32 34 91 35 33 36 34 37 35 38 85 39 36 40 90 41 84 42 86 43
REMARK SMILES IDX 37 44 89 45 83 46 82 47 38 49 70 50 50 51 69 52 51 53 54 54
REMARK SMILES IDX 68 55 87 56 52 57 53 58 67 60 88 61 55 62 39 63 40 64 48 65
REMARK SMILES IDX 41 66 42 67 46 68 49 69 43 70 44 71 47 72 45 73 71 74 72 75
REMARK SMILES IDX 80 76 73 77 74 78 78 79 81 80 75 81 76 82 79 83 77 84 56 85
REMARK SMILES IDX 57 86 65 87 58 88 59 89 63 90 66 91 60 92 61 93 64 94 62 95
REMARK H PARENT 2 15 86 48 54 59
REMARK Flexibility Score: inf
ROOT
ATOM      1  O   UNL     1       3.231  -0.108   2.568  1.00  0.00    -0.462 OA
ENDROOT
BRANCH   1   2
ATOM      2  C   UNL     1       2.659   0.475   3.650  1.00  0.00     0.305 C 
ATOM      3  O   UNL     1       2.445  -0.094   4.715  1.00  0.00    -0.252 OA
BRANCH   2   4
ATOM      4  C   UNL     1       2.325   1.939   3.442  1.00  0.00     0.123 C 
BRANCH   4   5
ATOM      5  C   UNL     1       2.801   2.602   2.148  1.00  0.00     0.023 C 
BRANCH   5   6
ATOM      6  C   UNL     1       2.172   2.148   0.801  1.00  0.00     0.067 C 
ATOM      7  C   UNL     1       0.618   2.274   0.685  1.00  0.00     0.190 C 
ATOM      8  C   UNL     1       0.239   3.771   0.663  1.00  0.00     0.087 C 
ATOM      9  C   UNL     1       0.963   4.511  -0.454  1.00  0.00     0.126 C 
ATOM     10  C   UNL     1       2.861   2.943  -0.337  1.00  0.00     0.129 C 
ATOM     11  N   UNL     1       2.405   4.332  -0.393  1.00  0.00    -0.335 N 
BRANCH   7  12
ATOM     12  N   UNL     1      -0.073   1.480   1.730  1.00  0.00    -0.337 N 
ATOM     13  C   UNL     1      -0.062   0.041   1.451  1.00  0.00     0.332 C 
ATOM     14  C   UNL     1      -1.442   1.896   2.034  1.00  0.00     0.332 C 
ATOM     15  H   UNL     1       0.486   1.677   2.560  1.00  0.00     0.347 HD
ENDBRANCH   7  12
BRANCH  11  16
ATOM     16  C   UNL     1       3.212   5.461  -0.598  1.00  0.00     0.294 C 
ATOM     17  O   UNL     1       2.750   6.600  -0.644  1.00  0.00    -0.265 OA
BRANCH  16  18
ATOM     18  C   UNL     1       4.721   5.304  -0.831  1.00  0.00     0.250 C 
ATOM     19  O   UNL     1       5.152   4.325  -1.431  1.00  0.00    -0.283 OA
BRANCH  18  20
ATOM     20  C   UNL     1       5.651   6.413  -0.457  1.00  0.00     0.028 A 
ATOM     21  C   UNL     1       6.884   6.489  -1.124  1.00  0.00     0.012 A 
ATOM     22  C   UNL     1       5.330   7.394   0.489  1.00  0.00     0.012 A 
ATOM     23  C   UNL     1       7.759   7.551  -0.883  1.00  0.00     0.001 A 
ATOM     24  C   UNL     1       6.208   8.457   0.728  1.00  0.00     0.001 A 
ATOM     25  C   UNL     1       7.416   8.540   0.036  1.00  0.00     0.000 A 
ENDBRANCH  18  20
ENDBRANCH  16  18
ENDBRANCH  11  16
ENDBRANCH   5   6
ENDBRANCH   4   5
ENDBRANCH   2   4
ENDBRANCH   1   2
BRANCH   1  26
ATOM     26  C   UNL     1       3.579  -1.504   2.670  1.00  0.00     0.274 C 
BRANCH  26  27
ATOM     27  C   UNL     1       5.082  -1.699   2.471  1.00  0.00     0.275 C 
BRANCH  27  28
ATOM     28  O   UNL     1       5.812  -1.081   3.546  1.00  0.00    -0.458 OA
BRANCH  28  29
ATOM     29  C   UNL     1       6.205   0.187   3.298  1.00  0.00     0.338 C 
ATOM     30  O   UNL     1       6.124   0.805   2.245  1.00  0.00    -0.246 OA
BRANCH  29  31
ATOM     31  C   UNL     1       6.595   0.829   4.557  1.00  0.00     0.060 A 
ATOM     32  C   UNL     1       5.795   1.879   5.009  1.00  0.00     0.016 A 
ATOM     33  C   UNL     1       7.768   0.486   5.229  1.00  0.00     0.016 A 
ATOM     34  C   UNL     1       6.167   2.616   6.124  1.00  0.00     0.010 A 
ATOM     35  C   UNL     1       8.149   1.233   6.348  1.00  0.00     0.010 A 
ATOM     36  C   UNL     1       7.364   2.317   6.782  1.00  0.00    -0.014 A 
BRANCH  36  37
ATOM     37  C   UNL     1       7.854   3.246   7.826  1.00  0.00     0.031 A 
ATOM     38  C   UNL     1       8.963   4.199   7.486  1.00  0.00     0.074 A 
ATOM     39  C   UNL     1       7.267   3.284   9.035  1.00  0.00     0.049 A 
ATOM     40  N   UNL     1       9.605   5.038   8.257  1.00  0.00    -0.248 NA
ATOM     41  C   UNL     1       9.410   4.208   6.083  1.00  0.00     0.031 C 
ATOM     42  C   UNL     1       6.134   2.459   9.450  1.00  0.00     0.029 A 
ATOM     43  N   UNL     1       7.542   4.057  10.134  1.00  0.00    -0.354 N 
ATOM     44  C   UNL     1      10.555   5.644   7.445  1.00  0.00     0.074 A 
ATOM     45  C   UNL     1      10.408   5.078   6.122  1.00  0.00     0.031 C 
ATOM     46  C   UNL     1       5.808   2.770  10.716  1.00  0.00     0.029 A 
ATOM     47  C   UNL     1       6.737   3.783  11.212  1.00  0.00     0.049 A 
ATOM     48  H   UNL     1       8.248   4.743  10.149  1.00  0.00     0.167 HD
ATOM     49  C   UNL     1      11.467   6.586   7.780  1.00  0.00     0.037 A 
ATOM     50  C   UNL     1       6.769   4.278  12.463  1.00  0.00     0.037 A 
ATOM     51  C   UNL     1      11.582   7.167   9.091  1.00  0.00     0.049 A 
ATOM     52  C   UNL     1       7.803   5.315  12.812  1.00  0.00     0.074 A 
ATOM     53  C   UNL     1      12.485   8.113   9.544  1.00  0.00     0.029 A 
ATOM     54  N   UNL     1      10.750   6.864  10.159  1.00  0.00    -0.354 N 
ATOM     55  N   UNL     1       8.731   5.847  12.054  1.00  0.00    -0.248 NA
ATOM     56  C   UNL     1       7.793   5.820  14.192  1.00  0.00     0.031 C 
ATOM     57  C   UNL     1      12.214   8.364  10.894  1.00  0.00     0.029 A 
ATOM     58  C   UNL     1      11.117   7.605  11.270  1.00  0.00     0.049 A 
ATOM     59  H   UNL     1      10.008   6.216  10.131  1.00  0.00     0.167 HD
ATOM     60  C   UNL     1       9.398   6.765  12.854  1.00  0.00     0.074 A 
ATOM     61  C   UNL     1       8.758   6.729  14.153  1.00  0.00     0.031 C 
ATOM     62  C   UNL     1      10.449   7.564  12.545  1.00  0.00     0.037 A 
BRANCH  49  63
ATOM     63  C   UNL     1      12.437   7.015   6.720  1.00  0.00     0.064 A 
ATOM     64  C   UNL     1      12.051   7.835   5.650  1.00  0.00     0.173 A 
ATOM     65  C   UNL     1      13.779   6.612   6.788  1.00  0.00     0.173 A 
ATOM     66  F   UNL     1      10.775   8.231   5.529  1.00  0.00    -0.203 F 
ATOM     67  C   UNL     1      12.969   8.218   4.675  1.00  0.00     0.198 A 
ATOM     68  C   UNL     1      14.700   7.017   5.826  1.00  0.00     0.198 A 
ATOM     69  F   UNL     1      14.198   5.826   7.792  1.00  0.00    -0.203 F 
ATOM     70  F   UNL     1      12.570   8.966   3.637  1.00  0.00    -0.200 F 
ATOM     71  C   UNL     1      14.293   7.814   4.767  1.00  0.00     0.200 A 
ATOM     72  F   UNL     1      15.980   6.633   5.922  1.00  0.00    -0.200 F 
ATOM     73  F   UNL     1      15.176   8.187   3.831  1.00  0.00    -0.200 F 
ENDBRANCH  49  63
BRANCH  50  74
ATOM     74  C   UNL     1       5.805   3.787  13.482  1.00  0.00     0.064 A 
ATOM     75  C   UNL     1       4.796   4.619  13.986  1.00  0.00     0.173 A 
ATOM     76  C   UNL     1       5.883   2.478  13.982  1.00  0.00     0.173 A 
ATOM     77  F   UNL     1       4.697   5.886  13.558  1.00  0.00    -0.203 F 
ATOM     78  C   UNL     1       3.914   4.166  14.965  1.00  0.00     0.198 A 
ATOM     79  C   UNL     1       4.982   2.018  14.940  1.00  0.00     0.198 A 
ATOM     80  F   UNL     1       6.832   1.643  13.534  1.00  0.00    -0.203 F 
ATOM     81  F   UNL     1       2.989   4.997  15.465  1.00  0.00    -0.200 F 
ATOM     82  C   UNL     1       4.003   2.865  15.437  1.00  0.00     0.200 A 
ATOM     83  F   UNL     1       5.067   0.758  15.385  1.00  0.00    -0.200 F 
ATOM     84  F   UNL     1       3.154   2.431  16.378  1.00  0.00    -0.200 F 
ENDBRANCH  50  74
BRANCH  62  85
ATOM     85  C   UNL     1      10.934   8.496  13.614  1.00  0.00     0.064 A 
ATOM     86  C   UNL     1      11.659   8.034  14.722  1.00  0.00     0.173 A 
ATOM     87  C   UNL     1      10.687   9.874  13.515  1.00  0.00     0.173 A 
ATOM     88  F   UNL     1      11.906   6.723  14.867  1.00  0.00    -0.203 F 
ATOM     89  C   UNL     1      12.094   8.915  15.707  1.00  0.00     0.198 A 
ATOM     90  C   UNL     1      11.147  10.754  14.489  1.00  0.00     0.198 A 
ATOM     91  F   UNL     1      10.004  10.365  12.470  1.00  0.00    -0.203 F 
ATOM     92  F   UNL     1      12.743   8.446  16.783  1.00  0.00    -0.200 F 
ATOM     93  C   UNL     1      11.842  10.274  15.588  1.00  0.00     0.200 A 
ATOM     94  F   UNL     1      10.912  12.068  14.367  1.00  0.00    -0.200 F 
ATOM     95  F   UNL     1      12.262  11.120  16.539  1.00  0.00    -0.200 F 
ENDBRANCH  62  85
ENDBRANCH  36  37
ENDBRANCH  29  31
ENDBRANCH  28  29
ENDBRANCH  27  28
ENDBRANCH  26  27
ENDBRANCH   1  26
TORSDOF 17
