REMARK SMILES O=C(CC[N@@H+]1C[C@@H](c2ccccc2)[C@@H]2[C@H]1[C@H]1CC[N@H+]2CC1)OCCOC(=O)c1ccc(-c2c3nc(c(-c4c(F)c(F)c(F)c(F)c4F)c4ccc([nH]4)c(-c4c(F)c(F)c(F)c(F)c4F)c4nc(c(-c5c(F)c(F)c(F)c(F)c5F)c5ccc2[nH]5)C=C4)C=C3)cc1
REMARK SMILES IDX 23 1 22 2 2 3 1 4 3 5 4 6 5 7 6 8 15 9 7 11 14 12 16 13
REMARK SMILES IDX 19 14 17 15 21 16 18 17 20 18 8 20 9 21 13 22 10 23 12 24
REMARK SMILES IDX 11 25 24 26 25 27 26 28 27 29 28 30 29 31 90 32 30 33 89 34
REMARK SMILES IDX 31 35 32 36 33 37 83 38 34 39 88 40 82 41 84 42 35 43 87 44
REMARK SMILES IDX 81 45 80 46 36 48 68 49 48 50 67 51 49 52 52 53 66 54 85 55
REMARK SMILES IDX 50 56 51 57 65 59 86 60 53 61 37 62 38 63 46 64 39 65 40 66
REMARK SMILES IDX 44 67 47 68 41 69 42 70 45 71 43 72 69 73 70 74 78 75 71 76
REMARK SMILES IDX 72 77 76 78 79 79 73 80 74 81 77 82 75 83 54 84 55 85 63 86
REMARK SMILES IDX 56 87 57 88 61 89 64 90 58 91 59 92 62 93 60 94
REMARK H PARENT 5 10 19 19 84 47 52 58
REMARK Flexibility Score: inf
ROOT
ATOM      1  C   UNL     1       4.278   0.206  -1.464  1.00  0.00     0.274 C 
ENDROOT
BRANCH   1   2
ATOM      2  O   UNL     1       2.877  -0.009  -1.164  1.00  0.00    -0.462 OA
BRANCH   2   3
ATOM      3  C   UNL     1       2.334   0.007   0.077  1.00  0.00     0.311 C 
ATOM      4  O   UNL     1       1.179  -0.378   0.256  1.00  0.00    -0.252 OA
BRANCH   3   5
ATOM      5  C   UNL     1       3.159   0.511   1.233  1.00  0.00     0.184 C 
BRANCH   5   6
ATOM      6  C   UNL     1       3.619  -0.581   2.195  1.00  0.00     0.274 C 
BRANCH   6   7
ATOM      7  N   UNL     1       4.583  -1.546   1.637  1.00  0.00    -0.326 N 
ATOM      8  C   UNL     1       3.914  -2.506   0.693  1.00  0.00     0.277 C 
ATOM      9  C   UNL     1       5.214  -2.359   2.728  1.00  0.00     0.247 C 
ATOM     10  H   UNL     1       5.288  -1.001   1.141  1.00  0.00     0.348 HD
ATOM     11  C   UNL     1       4.671  -3.845   0.526  1.00  0.00     0.139 C 
ATOM     12  C   UNL     1       5.192  -4.064   1.958  1.00  0.00     0.256 C 
ATOM     13  C   UNL     1       6.957  -1.966   3.204  1.00  0.00     0.065 C 
ATOM     14  N   UNL     1       6.427  -5.008   2.363  1.00  0.00    -0.327 N 
ATOM     15  C   UNL     1       7.059  -2.804   2.097  1.00  0.00     0.071 C 
ATOM     16  C   UNL     1       8.405  -3.082   3.377  1.00  0.00     0.071 C 
ATOM     17  C   UNL     1       6.487  -4.111   3.409  1.00  0.00     0.263 C 
ATOM     18  C   UNL     1       8.035  -4.703   2.413  1.00  0.00     0.263 C 
ATOM     19  H   UNL     1       6.258  -5.949   2.008  1.00  0.00     0.348 HD
BRANCH  11  20
ATOM     20  C   UNL     1       5.657  -3.997  -0.627  1.00  0.00    -0.033 A 
ATOM     21  C   UNL     1       6.519  -2.988  -1.087  1.00  0.00     0.004 A 
ATOM     22  C   UNL     1       5.755  -5.258  -1.240  1.00  0.00     0.004 A 
ATOM     23  C   UNL     1       7.537  -3.268  -2.003  1.00  0.00     0.000 A 
ATOM     24  C   UNL     1       6.729  -5.522  -2.206  1.00  0.00     0.000 A 
ATOM     25  C   UNL     1       7.646  -4.538  -2.558  1.00  0.00     0.000 A 
ENDBRANCH  11  20
ENDBRANCH   6   7
ENDBRANCH   5   6
ENDBRANCH   3   5
ENDBRANCH   2   3
ENDBRANCH   1   2
BRANCH   1  26
ATOM     26  C   UNL     1       4.511   1.578  -2.091  1.00  0.00     0.275 C 
BRANCH  26  27
ATOM     27  O   UNL     1       4.057   2.600  -1.192  1.00  0.00    -0.458 OA
BRANCH  27  28
ATOM     28  C   UNL     1       2.754   2.947  -1.359  1.00  0.00     0.338 C 
ATOM     29  O   UNL     1       2.026   2.654  -2.281  1.00  0.00    -0.246 OA
BRANCH  28  30
ATOM     30  C   UNL     1       2.281   3.595  -0.117  1.00  0.00     0.060 A 
ATOM     31  C   UNL     1       0.991   3.282   0.328  1.00  0.00     0.016 A 
ATOM     32  C   UNL     1       3.086   4.486   0.599  1.00  0.00     0.016 A 
ATOM     33  C   UNL     1       0.476   3.915   1.455  1.00  0.00     0.010 A 
ATOM     34  C   UNL     1       2.568   5.123   1.727  1.00  0.00     0.010 A 
ATOM     35  C   UNL     1       1.244   4.877   2.126  1.00  0.00    -0.014 A 
BRANCH  35  36
ATOM     36  C   UNL     1       0.577   5.773   3.096  1.00  0.00     0.031 A 
ATOM     37  C   UNL     1       0.101   7.114   2.609  1.00  0.00     0.074 A 
ATOM     38  C   UNL     1       0.348   5.380   4.360  1.00  0.00     0.049 A 
ATOM     39  N   UNL     1      -0.560   8.044   3.247  1.00  0.00    -0.248 NA
ATOM     40  C   UNL     1       0.416   7.452   1.210  1.00  0.00     0.031 C 
ATOM     41  C   UNL     1       0.754   4.099   4.934  1.00  0.00     0.029 A 
ATOM     42  N   UNL     1      -0.288   6.027   5.388  1.00  0.00    -0.354 N 
ATOM     43  C   UNL     1      -0.761   9.061   2.323  1.00  0.00     0.074 A 
ATOM     44  C   UNL     1      -0.098   8.666   1.101  1.00  0.00     0.031 C 
ATOM     45  C   UNL     1       0.361   4.056   6.219  1.00  0.00     0.029 A 
ATOM     46  C   UNL     1      -0.311   5.310   6.558  1.00  0.00     0.049 A 
ATOM     47  H   UNL     1      -0.690   6.921   5.296  1.00  0.00     0.167 HD
ATOM     48  C   UNL     1      -1.460  10.211   2.472  1.00  0.00     0.037 A 
ATOM     49  C   UNL     1      -0.815   5.639   7.763  1.00  0.00     0.037 A 
ATOM     50  C   UNL     1      -2.099  10.610   3.697  1.00  0.00     0.049 A 
ATOM     51  C   UNL     1      -1.532   6.957   7.920  1.00  0.00     0.074 A 
ATOM     52  C   UNL     1      -2.824  11.758   3.960  1.00  0.00     0.029 A 
ATOM     53  N   UNL     1      -2.079   9.870   4.871  1.00  0.00    -0.354 N 
ATOM     54  N   UNL     1      -1.756   7.894   7.030  1.00  0.00    -0.248 NA
ATOM     55  C   UNL     1      -2.084   7.253   9.249  1.00  0.00     0.031 C 
ATOM     56  C   UNL     1      -3.199  11.737   5.308  1.00  0.00     0.029 A 
ATOM     57  C   UNL     1      -2.761  10.548   5.868  1.00  0.00     0.049 A 
ATOM     58  H   UNL     1      -1.645   8.993   4.979  1.00  0.00     0.167 HD
ATOM     59  C   UNL     1      -2.494   8.874   7.682  1.00  0.00     0.074 A 
ATOM     60  C   UNL     1      -2.706   8.402   9.034  1.00  0.00     0.031 C 
ATOM     61  C   UNL     1      -2.954  10.061   7.210  1.00  0.00     0.037 A 
BRANCH  48  62
ATOM     62  C   UNL     1      -1.558  11.118   1.280  1.00  0.00     0.064 A 
ATOM     63  C   UNL     1      -2.321  10.769   0.154  1.00  0.00     0.173 A 
ATOM     64  C   UNL     1      -0.909  12.361   1.272  1.00  0.00     0.173 A 
ATOM     65  F   UNL     1      -2.945   9.583   0.102  1.00  0.00    -0.203 F 
ATOM     66  C   UNL     1      -2.411  11.621  -0.944  1.00  0.00     0.198 A 
ATOM     67  C   UNL     1      -1.027  13.224   0.186  1.00  0.00     0.198 A 
ATOM     68  F   UNL     1      -0.166  12.743   2.322  1.00  0.00    -0.203 F 
ATOM     69  F   UNL     1      -3.105  11.246  -2.027  1.00  0.00    -0.200 F 
ATOM     70  C   UNL     1      -1.771  12.852  -0.923  1.00  0.00     0.200 A 
ATOM     71  F   UNL     1      -0.417  14.417   0.212  1.00  0.00    -0.200 F 
ATOM     72  F   UNL     1      -1.867  13.676  -1.976  1.00  0.00    -0.200 F 
ENDBRANCH  48  62
BRANCH  49  73
ATOM     73  C   UNL     1      -0.659   4.714   8.917  1.00  0.00     0.064 A 
ATOM     74  C   UNL     1      -1.767   4.095   9.513  1.00  0.00     0.173 A 
ATOM     75  C   UNL     1       0.604   4.461   9.474  1.00  0.00     0.173 A 
ATOM     76  F   UNL     1      -2.999   4.321   9.033  1.00  0.00    -0.203 F 
ATOM     77  C   UNL     1      -1.623   3.289  10.641  1.00  0.00     0.198 A 
ATOM     78  C   UNL     1       0.751   3.627  10.580  1.00  0.00     0.198 A 
ATOM     79  F   UNL     1       1.698   5.025   8.942  1.00  0.00    -0.203 F 
ATOM     80  F   UNL     1      -2.706   2.763  11.229  1.00  0.00    -0.200 F 
ATOM     81  C   UNL     1      -0.363   3.052  11.171  1.00  0.00     0.200 A 
ATOM     82  F   UNL     1       1.972   3.390  11.079  1.00  0.00    -0.200 F 
ATOM     83  F   UNL     1      -0.225   2.279  12.256  1.00  0.00    -0.200 F 
ENDBRANCH  49  73
BRANCH  61  84
ATOM     84  C   UNL     1      -3.749  10.913   8.161  1.00  0.00     0.064 A 
ATOM     85  C   UNL     1      -3.156  11.527   9.274  1.00  0.00     0.173 A 
ATOM     86  C   UNL     1      -5.120  11.125   7.949  1.00  0.00     0.173 A 
ATOM     87  F   UNL     1      -1.850  11.349   9.528  1.00  0.00    -0.203 F 
ATOM     88  C   UNL     1      -3.915  12.280  10.166  1.00  0.00     0.198 A 
ATOM     89  C   UNL     1      -5.868  11.911   8.822  1.00  0.00     0.198 A 
ATOM     90  F   UNL     1      -5.737  10.573   6.893  1.00  0.00    -0.203 F 
ATOM     91  F   UNL     1      -3.340  12.797  11.261  1.00  0.00    -0.200 F 
ATOM     92  C   UNL     1      -5.268  12.475   9.937  1.00  0.00     0.200 A 
ATOM     93  F   UNL     1      -7.172  12.114   8.589  1.00  0.00    -0.200 F 
ATOM     94  F   UNL     1      -5.997  13.199  10.798  1.00  0.00    -0.200 F 
ENDBRANCH  61  84
ENDBRANCH  35  36
ENDBRANCH  28  30
ENDBRANCH  27  28
ENDBRANCH  26  27
ENDBRANCH   1  26
TORSDOF 14
