REMARK SMILES CC[C@]1(C(=O)OCCOC(=O)c2ccc(-c3c4nc(c(-c5c(F)c(F)c(F)c(F)c5F)c5ccc([nH]5)c(-c5c(F)c(F)c(F)c(F)c5F)c5nc(c(-c6c(F)c(F)c(F)c(F)c6F)c6ccc3[nH]6)C=C5)C=C4)cc2)CCCN(C(=O)c2csc(C)c2-c2ccccc2)C1
REMARK SMILES IDX 7 1 6 2 4 3 5 4 3 5 75 6 93 7 76 8 78 9 77 10 2 11 1 12
REMARK SMILES IDX 79 13 80 14 81 15 82 16 86 17 83 18 84 19 85 20 87 21 88 22
REMARK SMILES IDX 92 23 89 24 91 25 90 26 8 27 9 28 10 29 11 30 12 31 13 32
REMARK SMILES IDX 74 33 14 34 73 35 15 36 16 37 17 38 67 39 18 40 72 41 66 42
REMARK SMILES IDX 68 43 19 44 71 45 65 46 64 47 20 49 52 50 32 51 51 52 33 53
REMARK SMILES IDX 36 54 50 55 69 56 34 57 35 58 49 60 70 61 37 62 21 63 22 64
REMARK SMILES IDX 30 65 23 66 24 67 28 68 31 69 25 70 26 71 29 72 27 73 53 74
REMARK SMILES IDX 54 75 62 76 55 77 56 78 60 79 63 80 57 81 58 82 61 83 59 84
REMARK SMILES IDX 38 85 39 86 47 87 40 88 41 89 45 90 48 91 42 92 43 93 46 94
REMARK SMILES IDX 44 95
REMARK H PARENT 68 48 36 59
REMARK Flexibility Score: inf
ROOT
ATOM      1  C   UNL     1       1.917   3.068  -3.489  1.00  0.00     0.274 C 
ENDROOT
BRANCH   1   2
ATOM      2  O   UNL     1       2.029   3.117  -2.050  1.00  0.00    -0.462 OA
BRANCH   2   3
ATOM      3  C   UNL     1       0.927   2.680  -1.386  1.00  0.00     0.313 C 
ATOM      4  O   UNL     1      -0.045   2.174  -1.938  1.00  0.00    -0.252 OA
BRANCH   3   5
ATOM      5  C   UNL     1       0.943   2.993   0.111  1.00  0.00     0.085 C 
ATOM      6  C   UNL     1       2.278   3.521   0.673  1.00  0.00     0.022 C 
ATOM      7  C   UNL     1      -0.068   4.153   0.220  1.00  0.00     0.138 C 
ATOM      8  C   UNL     1       2.118   3.980   2.128  1.00  0.00     0.023 C 
ATOM      9  N   UNL     1      -0.259   4.577   1.603  1.00  0.00    -0.337 N 
ATOM     10  C   UNL     1       0.956   4.962   2.328  1.00  0.00     0.120 C 
BRANCH   5  11
ATOM     11  C   UNL     1       0.431   1.739   0.889  1.00  0.00     0.017 C 
ATOM     12  C   UNL     1       1.488   0.670   1.153  1.00  0.00     0.005 C 
ENDBRANCH   5  11
BRANCH   9  13
ATOM     13  C   UNL     1      -1.577   4.605   2.073  1.00  0.00     0.255 C 
ATOM     14  O   UNL     1      -2.521   4.281   1.355  1.00  0.00    -0.269 OA
BRANCH  13  15
ATOM     15  C   UNL     1      -1.836   4.998   3.453  1.00  0.00     0.058 A 
ATOM     16  C   UNL     1      -1.468   6.212   3.998  1.00  0.00     0.079 A 
ATOM     17  C   UNL     1      -2.641   4.232   4.379  1.00  0.00     0.008 A 
ATOM     18  S   UNL     1      -2.007   6.402   5.604  1.00  0.00    -0.148 S 
ATOM     19  C   UNL     1      -2.808   4.886   5.590  1.00  0.00     0.010 A 
ATOM     20  C   UNL     1      -3.569   4.471   6.808  1.00  0.00     0.057 C 
BRANCH  17  21
ATOM     21  C   UNL     1      -3.238   2.925   4.112  1.00  0.00    -0.016 A 
ATOM     22  C   UNL     1      -4.624   2.796   3.963  1.00  0.00     0.009 A 
ATOM     23  C   UNL     1      -2.421   1.798   3.964  1.00  0.00     0.009 A 
ATOM     24  C   UNL     1      -5.187   1.549   3.683  1.00  0.00     0.001 A 
ATOM     25  C   UNL     1      -2.987   0.553   3.678  1.00  0.00     0.001 A 
ATOM     26  C   UNL     1      -4.369   0.429   3.540  1.00  0.00     0.000 A 
ENDBRANCH  17  21
ENDBRANCH  13  15
ENDBRANCH   9  13
ENDBRANCH   3   5
ENDBRANCH   2   3
ENDBRANCH   1   2
BRANCH   1  27
ATOM     27  C   UNL     1       2.486   1.774  -4.065  1.00  0.00     0.275 C 
BRANCH  27  28
ATOM     28  O   UNL     1       1.799   0.634  -3.519  1.00  0.00    -0.458 OA
BRANCH  28  29
ATOM     29  C   UNL     1       2.589  -0.388  -3.127  1.00  0.00     0.338 C 
ATOM     30  O   UNL     1       3.805  -0.458  -3.249  1.00  0.00    -0.246 OA
BRANCH  29  31
ATOM     31  C   UNL     1       1.807  -1.462  -2.477  1.00  0.00     0.060 A 
ATOM     32  C   UNL     1       0.764  -1.175  -1.598  1.00  0.00     0.016 A 
ATOM     33  C   UNL     1       2.247  -2.780  -2.614  1.00  0.00     0.016 A 
ATOM     34  C   UNL     1       0.277  -2.168  -0.742  1.00  0.00     0.010 A 
ATOM     35  C   UNL     1       1.685  -3.792  -1.828  1.00  0.00     0.010 A 
ATOM     36  C   UNL     1       0.748  -3.486  -0.826  1.00  0.00    -0.014 A 
BRANCH  36  37
ATOM     37  C   UNL     1       0.379  -4.516   0.192  1.00  0.00     0.031 A 
ATOM     38  C   UNL     1       1.467  -5.226   0.963  1.00  0.00     0.074 A 
ATOM     39  C   UNL     1      -0.905  -4.815   0.471  1.00  0.00     0.049 A 
ATOM     40  N   UNL     1       1.401  -6.318   1.684  1.00  0.00    -0.248 NA
ATOM     41  C   UNL     1       2.816  -4.639   0.896  1.00  0.00     0.031 C 
ATOM     42  C   UNL     1      -2.079  -4.182  -0.125  1.00  0.00     0.029 A 
ATOM     43  N   UNL     1      -1.433  -5.732   1.349  1.00  0.00    -0.354 N 
ATOM     44  C   UNL     1       2.708  -6.601   2.067  1.00  0.00     0.074 A 
ATOM     45  C   UNL     1       3.543  -5.550   1.528  1.00  0.00     0.031 C 
ATOM     46  C   UNL     1      -3.186  -4.686   0.442  1.00  0.00     0.029 A 
ATOM     47  C   UNL     1      -2.805  -5.743   1.374  1.00  0.00     0.049 A 
ATOM     48  H   UNL     1      -0.879  -6.324   1.908  1.00  0.00     0.167 HD
ATOM     49  C   UNL     1       3.168  -7.651   2.789  1.00  0.00     0.037 A 
ATOM     50  C   UNL     1      -3.664  -6.538   2.040  1.00  0.00     0.037 A 
ATOM     51  C   UNL     1       2.331  -8.639   3.416  1.00  0.00     0.049 A 
ATOM     52  C   UNL     1      -3.136  -7.660   2.890  1.00  0.00     0.074 A 
ATOM     53  C   UNL     1       2.703  -9.752   4.152  1.00  0.00     0.029 A 
ATOM     54  N   UNL     1       0.946  -8.604   3.420  1.00  0.00    -0.354 N 
ATOM     55  N   UNL     1      -1.895  -8.011   3.119  1.00  0.00    -0.248 NA
ATOM     56  C   UNL     1      -4.133  -8.518   3.547  1.00  0.00     0.031 C 
ATOM     57  C   UNL     1       1.541 -10.390   4.601  1.00  0.00     0.029 A 
ATOM     58  C   UNL     1       0.448  -9.661   4.163  1.00  0.00     0.049 A 
ATOM     59  H   UNL     1       0.397  -7.927   2.962  1.00  0.00     0.167 HD
ATOM     60  C   UNL     1      -1.960  -9.133   3.933  1.00  0.00     0.074 A 
ATOM     61  C   UNL     1      -3.363  -9.385   4.189  1.00  0.00     0.031 C 
ATOM     62  C   UNL     1      -0.949  -9.899   4.408  1.00  0.00     0.037 A 
BRANCH  49  63
ATOM     63  C   UNL     1       4.654  -7.813   2.908  1.00  0.00     0.064 A 
ATOM     64  C   UNL     1       5.425  -7.018   3.766  1.00  0.00     0.173 A 
ATOM     65  C   UNL     1       5.308  -8.816   2.174  1.00  0.00     0.173 A 
ATOM     66  F   UNL     1       4.849  -6.036   4.475  1.00  0.00    -0.203 F 
ATOM     67  C   UNL     1       6.801  -7.210   3.873  1.00  0.00     0.198 A 
ATOM     68  C   UNL     1       6.679  -9.020   2.301  1.00  0.00     0.198 A 
ATOM     69  F   UNL     1       4.613  -9.606   1.342  1.00  0.00    -0.203 F 
ATOM     70  F   UNL     1       7.526  -6.415   4.672  1.00  0.00    -0.200 F 
ATOM     71  C   UNL     1       7.425  -8.214   3.146  1.00  0.00     0.200 A 
ATOM     72  F   UNL     1       7.277  -9.997   1.605  1.00  0.00    -0.200 F 
ATOM     73  F   UNL     1       8.748  -8.401   3.257  1.00  0.00    -0.200 F 
ENDBRANCH  49  63
BRANCH  50  74
ATOM     74  C   UNL     1      -5.126  -6.321   1.901  1.00  0.00     0.064 A 
ATOM     75  C   UNL     1      -5.876  -5.796   2.962  1.00  0.00     0.173 A 
ATOM     76  C   UNL     1      -5.798  -6.624   0.708  1.00  0.00     0.173 A 
ATOM     77  F   UNL     1      -5.279  -5.520   4.131  1.00  0.00    -0.203 F 
ATOM     78  C   UNL     1      -7.247  -5.585   2.836  1.00  0.00     0.198 A 
ATOM     79  C   UNL     1      -7.164  -6.388   0.575  1.00  0.00     0.198 A 
ATOM     80  F   UNL     1      -5.123  -7.132  -0.333  1.00  0.00    -0.203 F 
ATOM     81  F   UNL     1      -7.948  -5.114   3.876  1.00  0.00    -0.200 F 
ATOM     82  C   UNL     1      -7.888  -5.873   1.640  1.00  0.00     0.200 A 
ATOM     83  F   UNL     1      -7.778  -6.657  -0.585  1.00  0.00    -0.200 F 
ATOM     84  F   UNL     1      -9.205  -5.660   1.516  1.00  0.00    -0.200 F 
ENDBRANCH  50  74
BRANCH  62  85
ATOM     85  C   UNL     1      -1.326 -11.075   5.255  1.00  0.00     0.064 A 
ATOM     86  C   UNL     1      -1.835 -12.249   4.681  1.00  0.00     0.173 A 
ATOM     87  C   UNL     1      -1.162 -11.035   6.646  1.00  0.00     0.173 A 
ATOM     88  F   UNL     1      -2.022 -12.326   3.355  1.00  0.00    -0.203 F 
ATOM     89  C   UNL     1      -2.189 -13.336   5.476  1.00  0.00     0.198 A 
ATOM     90  C   UNL     1      -1.501 -12.130   7.436  1.00  0.00     0.198 A 
ATOM     91  F   UNL     1      -0.677  -9.934   7.238  1.00  0.00    -0.203 F 
ATOM     92  F   UNL     1      -2.710 -14.434   4.913  1.00  0.00    -0.200 F 
ATOM     93  C   UNL     1      -2.019 -13.276   6.852  1.00  0.00     0.200 A 
ATOM     94  F   UNL     1      -1.334 -12.073   8.765  1.00  0.00    -0.200 F 
ATOM     95  F   UNL     1      -2.366 -14.321   7.616  1.00  0.00    -0.200 F 
ENDBRANCH  62  85
ENDBRANCH  36  37
ENDBRANCH  29  31
ENDBRANCH  28  29
ENDBRANCH  27  28
ENDBRANCH   1  27
TORSDOF 15
