REMARK SMILES C[C@@H](CC(=O)OCCOC(=O)c1ccc(-c2c3nc(c(-c4c(F)c(F)c(F)c(F)c4F)c4ccc([nH]4)c(-c4c(F)c(F)c(F)c(F)c4F)c4nc(c(-c5c(F)c(F)c(F)c(F)c5F)c5ccc2[nH]5)C=C4)C=C3)cc1)Cc1nnc(C2C(C)(C)C2(C)C)o1
REMARK SMILES IDX 7 1 6 2 4 3 5 4 3 5 2 6 1 7 75 8 76 9 77 10 87 11 78 12
REMARK SMILES IDX 79 13 80 14 81 15 84 16 82 17 83 18 85 19 86 20 8 21 9 22
REMARK SMILES IDX 10 23 11 24 12 25 13 26 74 27 14 28 73 29 15 30 16 31 17 32
REMARK SMILES IDX 67 33 18 34 72 35 66 36 68 37 19 38 71 39 65 40 64 41 20 43
REMARK SMILES IDX 52 44 32 45 51 46 33 47 36 48 50 49 69 50 34 51 35 52 49 54
REMARK SMILES IDX 70 55 37 56 21 57 22 58 30 59 23 60 24 61 28 62 31 63 25 64
REMARK SMILES IDX 26 65 29 66 27 67 53 68 54 69 62 70 55 71 56 72 60 73 63 74
REMARK SMILES IDX 57 75 58 76 61 77 59 78 38 79 39 80 47 81 40 82 41 83 45 84
REMARK SMILES IDX 48 85 42 86 43 87 46 88 44 89
REMARK H PARENT 68 42 36 53
REMARK Flexibility Score: inf
ROOT
ATOM      1  C   UNL     1       0.509   2.527  -2.837  1.00  0.00     0.274 C 
ENDROOT
BRANCH   1   2
ATOM      2  O   UNL     1       0.791   1.750  -1.656  1.00  0.00    -0.462 OA
BRANCH   2   3
ATOM      3  C   UNL     1       1.218   2.441  -0.574  1.00  0.00     0.306 C 
ATOM      4  O   UNL     1       1.333   3.661  -0.523  1.00  0.00    -0.252 OA
BRANCH   3   5
ATOM      5  C   UNL     1       1.621   1.559   0.587  1.00  0.00     0.126 C 
BRANCH   5   6
ATOM      6  C   UNL     1       1.004   0.157   0.739  1.00  0.00     0.006 C 
ATOM      7  C   UNL     1       1.562  -0.832  -0.291  1.00  0.00     0.009 C 
BRANCH   6   8
ATOM      8  C   UNL     1      -0.538   0.172   0.759  1.00  0.00     0.103 C 
BRANCH   8   9
ATOM      9  C   UNL     1      -1.117  -0.985   1.495  1.00  0.00     0.216 A 
ATOM     10  N   UNL     1      -0.565  -2.124   1.850  1.00  0.00    -0.113 NA
ATOM     11  O   UNL     1      -2.409  -0.865   1.933  1.00  0.00    -0.425 OA
ATOM     12  N   UNL     1      -1.518  -2.808   2.567  1.00  0.00    -0.113 NA
ATOM     13  C   UNL     1      -2.595  -2.047   2.603  1.00  0.00     0.220 A 
BRANCH  13  14
ATOM     14  C   UNL     1      -3.847  -2.485   3.354  1.00  0.00     0.090 C 
ATOM     15  C   UNL     1      -4.757  -1.476   4.063  1.00  0.00    -0.017 C 
ATOM     16  C   UNL     1      -5.267  -2.242   2.841  1.00  0.00    -0.017 C 
ATOM     17  C   UNL     1      -5.226  -1.871   5.452  1.00  0.00     0.012 C 
ATOM     18  C   UNL     1      -4.520   0.016   3.974  1.00  0.00     0.012 C 
ATOM     19  C   UNL     1      -5.511  -1.532   1.528  1.00  0.00     0.012 C 
ATOM     20  C   UNL     1      -6.268  -3.366   3.048  1.00  0.00     0.012 C 
ENDBRANCH  13  14
ENDBRANCH   8   9
ENDBRANCH   6   8
ENDBRANCH   5   6
ENDBRANCH   3   5
ENDBRANCH   2   3
ENDBRANCH   1   2
BRANCH   1  21
ATOM     21  C   UNL     1      -0.985   2.818  -2.966  1.00  0.00     0.275 C 
BRANCH  21  22
ATOM     22  O   UNL     1      -1.417   3.695  -1.911  1.00  0.00    -0.458 OA
BRANCH  22  23
ATOM     23  C   UNL     1      -2.285   3.164  -1.023  1.00  0.00     0.338 C 
ATOM     24  O   UNL     1      -2.783   2.053  -1.030  1.00  0.00    -0.246 OA
BRANCH  23  25
ATOM     25  C   UNL     1      -2.511   4.127   0.061  1.00  0.00     0.060 A 
ATOM     26  C   UNL     1      -1.678   4.082   1.180  1.00  0.00     0.016 A 
ATOM     27  C   UNL     1      -3.609   4.988   0.021  1.00  0.00     0.016 A 
ATOM     28  C   UNL     1      -1.958   4.881   2.284  1.00  0.00     0.010 A 
ATOM     29  C   UNL     1      -3.873   5.810   1.120  1.00  0.00     0.010 A 
ATOM     30  C   UNL     1      -3.063   5.743   2.267  1.00  0.00    -0.014 A 
BRANCH  30  31
ATOM     31  C   UNL     1      -3.385   6.535   3.476  1.00  0.00     0.031 A 
ATOM     32  C   UNL     1      -4.515   6.117   4.370  1.00  0.00     0.074 A 
ATOM     33  C   UNL     1      -2.633   7.604   3.791  1.00  0.00     0.049 A 
ATOM     34  N   UNL     1      -4.949   6.678   5.471  1.00  0.00    -0.248 NA
ATOM     35  C   UNL     1      -5.258   4.910   3.975  1.00  0.00     0.031 C 
ATOM     36  C   UNL     1      -1.499   8.097   3.010  1.00  0.00     0.029 A 
ATOM     37  N   UNL     1      -2.704   8.462   4.859  1.00  0.00    -0.354 N 
ATOM     38  C   UNL     1      -6.024   5.907   5.889  1.00  0.00     0.074 A 
ATOM     39  C   UNL     1      -6.185   4.842   4.921  1.00  0.00     0.031 C 
ATOM     40  C   UNL     1      -0.969   9.161   3.634  1.00  0.00     0.029 A 
ATOM     41  C   UNL     1      -1.739   9.436   4.844  1.00  0.00     0.049 A 
ATOM     42  H   UNL     1      -3.383   8.385   5.568  1.00  0.00     0.167 HD
ATOM     43  C   UNL     1      -6.805   6.073   6.983  1.00  0.00     0.037 A 
ATOM     44  C   UNL     1      -1.505  10.439   5.710  1.00  0.00     0.037 A 
ATOM     45  C   UNL     1      -6.638   7.117   7.958  1.00  0.00     0.049 A 
ATOM     46  C   UNL     1      -2.376  10.589   6.925  1.00  0.00     0.074 A 
ATOM     47  C   UNL     1      -7.383   7.365   9.098  1.00  0.00     0.029 A 
ATOM     48  N   UNL     1      -5.646   8.085   7.911  1.00  0.00    -0.354 N 
ATOM     49  N   UNL     1      -3.395   9.860   7.304  1.00  0.00    -0.248 NA
ATOM     50  C   UNL     1      -2.062  11.703   7.831  1.00  0.00     0.031 C 
ATOM     51  C   UNL     1      -6.851   8.494   9.733  1.00  0.00     0.029 A 
ATOM     52  C   UNL     1      -5.761   8.933   9.000  1.00  0.00     0.049 A 
ATOM     53  H   UNL     1      -4.961   8.158   7.207  1.00  0.00     0.167 HD
ATOM     54  C   UNL     1      -3.842  10.419   8.492  1.00  0.00     0.074 A 
ATOM     55  C   UNL     1      -2.971  11.540   8.782  1.00  0.00     0.031 C 
ATOM     56  C   UNL     1      -4.885  10.042   9.270  1.00  0.00     0.037 A 
BRANCH  43  57
ATOM     57  C   UNL     1      -7.930   5.104   7.173  1.00  0.00     0.064 A 
ATOM     58  C   UNL     1      -7.707   3.814   7.675  1.00  0.00     0.173 A 
ATOM     59  C   UNL     1      -9.248   5.480   6.875  1.00  0.00     0.173 A 
ATOM     60  F   UNL     1      -6.460   3.406   7.956  1.00  0.00    -0.203 F 
ATOM     61  C   UNL     1      -8.765   2.929   7.861  1.00  0.00     0.198 A 
ATOM     62  C   UNL     1     -10.305   4.597   7.077  1.00  0.00     0.198 A 
ATOM     63  F   UNL     1      -9.508   6.703   6.391  1.00  0.00    -0.203 F 
ATOM     64  F   UNL     1      -8.528   1.690   8.314  1.00  0.00    -0.200 F 
ATOM     65  C   UNL     1     -10.062   3.322   7.567  1.00  0.00     0.200 A 
ATOM     66  F   UNL     1     -11.558   4.979   6.795  1.00  0.00    -0.200 F 
ATOM     67  F   UNL     1     -11.080   2.469   7.747  1.00  0.00    -0.200 F 
ENDBRANCH  43  57
BRANCH  44  68
ATOM     68  C   UNL     1      -0.382  11.373   5.461  1.00  0.00     0.064 A 
ATOM     69  C   UNL     1       0.804  11.283   6.201  1.00  0.00     0.173 A 
ATOM     70  C   UNL     1      -0.468  12.361   4.471  1.00  0.00     0.173 A 
ATOM     71  F   UNL     1       0.918  10.366   7.172  1.00  0.00    -0.203 F 
ATOM     72  C   UNL     1       1.863  12.155   5.964  1.00  0.00     0.198 A 
ATOM     73  C   UNL     1       0.598  13.221   4.223  1.00  0.00     0.198 A 
ATOM     74  F   UNL     1      -1.586  12.483   3.740  1.00  0.00    -0.203 F 
ATOM     75  F   UNL     1       2.978  12.068   6.702  1.00  0.00    -0.200 F 
ATOM     76  C   UNL     1       1.762  13.120   4.972  1.00  0.00     0.200 A 
ATOM     77  F   UNL     1       0.499  14.149   3.261  1.00  0.00    -0.200 F 
ATOM     78  F   UNL     1       2.783  13.956   4.742  1.00  0.00    -0.200 F 
ENDBRANCH  44  68
BRANCH  56  79
ATOM     79  C   UNL     1      -5.133  10.845  10.508  1.00  0.00     0.064 A 
ATOM     80  C   UNL     1      -5.777  12.089  10.449  1.00  0.00     0.173 A 
ATOM     81  C   UNL     1      -4.747  10.356  11.764  1.00  0.00     0.173 A 
ATOM     82  F   UNL     1      -6.149  12.600   9.267  1.00  0.00    -0.203 F 
ATOM     83  C   UNL     1      -6.012  12.825  11.607  1.00  0.00     0.198 A 
ATOM     84  C   UNL     1      -4.997  11.088  12.921  1.00  0.00     0.198 A 
ATOM     85  F   UNL     1      -4.128   9.171  11.867  1.00  0.00    -0.203 F 
ATOM     86  F   UNL     1      -6.601  14.026  11.527  1.00  0.00    -0.200 F 
ATOM     87  C   UNL     1      -5.625  12.323  12.841  1.00  0.00     0.200 A 
ATOM     88  F   UNL     1      -4.625  10.603  14.114  1.00  0.00    -0.200 F 
ATOM     89  F   UNL     1      -5.850  13.034  13.955  1.00  0.00    -0.200 F 
ENDBRANCH  56  79
ENDBRANCH  30  31
ENDBRANCH  23  25
ENDBRANCH  22  23
ENDBRANCH  21  22
ENDBRANCH   1  21
TORSDOF 15
