REMARK SMILES CCOC(=O)c1ccc(NC(=O)[C@@H]2[C@H]3c4ccccc4[C@H](c4ccccc43)[C@@H]2C(=O)OCCOC(=O)c2ccc(-c3c4nc(c(-c5c(F)c(F)c(F)c(F)c5F)c5ccc([nH]5)c(-c5c(F)c(F)c(F)c(F)c5F)c5nc(c(-c6c(F)c(F)c(F)c(F)c6F)c6ccc3[nH]6)C=C5)C=C4)cc2)cc1
REMARK SMILES IDX 31 1 29 2 30 3 28 4 13 5 14 6 15 7 27 8 21 9 16 10 20 11
REMARK SMILES IDX 22 12 26 13 17 14 19 15 23 16 25 17 18 18 24 19 11 20 10 21
REMARK SMILES IDX 12 23 9 24 6 25 7 26 101 27 8 28 100 29 4 30 5 31 3 32 2 33
REMARK SMILES IDX 1 34 32 35 33 36 34 37 35 38 36 39 37 40 38 41 99 42 39 43
REMARK SMILES IDX 98 44 40 45 41 46 42 47 92 48 43 49 97 50 91 51 93 52 44 53
REMARK SMILES IDX 96 54 90 55 89 56 45 58 77 59 57 60 76 61 58 62 61 63 75 64
REMARK SMILES IDX 94 65 59 66 60 67 74 69 95 70 62 71 46 72 47 73 55 74 48 75
REMARK SMILES IDX 49 76 53 77 56 78 50 79 51 80 54 81 52 82 78 83 79 84 87 85
REMARK SMILES IDX 80 86 81 87 85 88 88 89 82 90 83 91 86 92 84 93 63 94 64 95
REMARK SMILES IDX 72 96 65 97 66 98 70 99 73 100 67 101 68 102 71 103 69 104
REMARK H PARENT 10 22 93 57 61 68
REMARK Flexibility Score: inf
ROOT
ATOM      1  O   UNL     1       2.682  -2.768  -5.191  1.00  0.00    -0.462 OA
ENDROOT
BRANCH   1   2
ATOM      2  C   UNL     1       3.656  -3.029  -4.311  1.00  0.00     0.310 C 
ATOM      3  O   UNL     1       3.684  -2.571  -3.171  1.00  0.00    -0.252 OA
BRANCH   2   4
ATOM      4  C   UNL     1       4.713  -4.114  -4.833  1.00  0.00     0.124 C 
ATOM      5  C   UNL     1       4.371  -5.378  -6.086  1.00  0.00     0.106 C 
ATOM      6  C   UNL     1       3.628  -7.226  -5.470  1.00  0.00     0.063 C 
ATOM      7  C   UNL     1       5.412  -7.333  -5.199  1.00  0.00    -0.036 A 
ATOM      8  C   UNL     1       2.232  -7.025  -3.717  1.00  0.00    -0.036 A 
ATOM      9  C   UNL     1       4.650  -4.881  -3.555  1.00  0.00     0.065 C 
ATOM     10  C   UNL     1       6.098  -8.448  -5.667  1.00  0.00     0.004 A 
ATOM     11  C   UNL     1       5.933  -6.125  -4.314  1.00  0.00    -0.036 A 
ATOM     12  C   UNL     1       2.841  -5.460  -2.911  1.00  0.00    -0.036 A 
ATOM     13  C   UNL     1       1.086  -7.554  -3.084  1.00  0.00     0.004 A 
ATOM     14  C   UNL     1       7.449  -8.393  -5.445  1.00  0.00     0.000 A 
ATOM     15  C   UNL     1       7.312  -6.096  -4.286  1.00  0.00     0.004 A 
ATOM     16  C   UNL     1       2.138  -4.765  -1.973  1.00  0.00     0.004 A 
ATOM     17  C   UNL     1       0.560  -6.776  -2.012  1.00  0.00     0.000 A 
ATOM     18  C   UNL     1       8.033  -7.222  -4.862  1.00  0.00     0.000 A 
ATOM     19  C   UNL     1       0.995  -5.457  -1.558  1.00  0.00     0.000 A 
BRANCH   5  20
ATOM     20  C   UNL     1       4.415  -4.261  -7.362  1.00  0.00     0.229 C 
ATOM     21  N   UNL     1       4.540  -2.813  -7.343  1.00  0.00    -0.326 N 
ATOM     22  H   UNL     1       4.596  -2.509  -8.278  1.00  0.00     0.169 HD
ATOM     23  O   UNL     1       4.453  -4.734  -8.515  1.00  0.00    -0.274 OA
BRANCH  21  24
ATOM     24  C   UNL     1       4.616  -1.597  -6.472  1.00  0.00     0.041 A 
ATOM     25  C   UNL     1       3.780   0.145  -4.275  1.00  0.00     0.060 A 
ATOM     26  C   UNL     1       5.030  -0.495  -4.268  1.00  0.00     0.018 A 
ATOM     27  C   UNL     1       3.162   0.215  -5.526  1.00  0.00     0.018 A 
ATOM     28  C   UNL     1       5.456  -1.339  -5.368  1.00  0.00     0.027 A 
ATOM     29  C   UNL     1       3.592  -0.626  -6.620  1.00  0.00     0.027 A 
BRANCH  25  30
ATOM     30  C   UNL     1       3.116   0.552  -2.948  1.00  0.00     0.338 C 
ATOM     31  O   UNL     1       3.748   1.021  -2.013  1.00  0.00    -0.246 OA
BRANCH  30  32
ATOM     32  O   UNL     1       1.774   0.260  -2.890  1.00  0.00    -0.462 OA
BRANCH  32  33
ATOM     33  C   UNL     1       1.001   0.718  -1.732  1.00  0.00     0.230 C 
ATOM     34  C   UNL     1       1.180  -0.055  -0.423  1.00  0.00     0.049 C 
ENDBRANCH  32  33
ENDBRANCH  30  32
ENDBRANCH  25  30
ENDBRANCH  21  24
ENDBRANCH   5  20
ENDBRANCH   2   4
ENDBRANCH   1   2
BRANCH   1  35
ATOM     35  C   UNL     1       1.384  -2.272  -4.779  1.00  0.00     0.274 C 
BRANCH  35  36
ATOM     36  C   UNL     1       0.413  -3.102  -5.591  1.00  0.00     0.275 C 
BRANCH  36  37
ATOM     37  O   UNL     1       0.684  -4.431  -5.141  1.00  0.00    -0.458 OA
BRANCH  37  38
ATOM     38  C   UNL     1       1.777  -4.880  -5.789  1.00  0.00     0.338 C 
ATOM     39  O   UNL     1       1.970  -4.692  -6.986  1.00  0.00    -0.246 OA
BRANCH  38  40
ATOM     40  C   UNL     1       2.523  -5.955  -5.080  1.00  0.00     0.060 A 
ATOM     41  C   UNL     1       3.926  -6.794  -3.825  1.00  0.00     0.016 A 
ATOM     42  C   UNL     1       1.516  -7.230  -5.779  1.00  0.00     0.016 A 
ATOM     43  C   UNL     1       3.993  -8.416  -3.530  1.00  0.00     0.010 A 
ATOM     44  C   UNL     1       1.787  -8.784  -5.289  1.00  0.00     0.010 A 
ATOM     45  C   UNL     1       2.941  -9.268  -4.153  1.00  0.00    -0.014 A 
BRANCH  45  46
ATOM     46  C   UNL     1       2.866 -10.533  -3.401  1.00  0.00     0.031 A 
ATOM     47  C   UNL     1       2.991 -11.713  -4.258  1.00  0.00     0.074 A 
ATOM     48  C   UNL     1       2.849 -10.567  -2.036  1.00  0.00     0.049 A 
ATOM     49  N   UNL     1       2.979 -12.959  -3.917  1.00  0.00    -0.248 NA
ATOM     50  C   UNL     1       3.140 -11.460  -5.704  1.00  0.00     0.031 C 
ATOM     51  C   UNL     1       2.847  -9.408  -1.111  1.00  0.00     0.029 A 
ATOM     52  N   UNL     1       2.877 -11.622  -1.158  1.00  0.00    -0.354 N 
ATOM     53  C   UNL     1       3.094 -13.631  -5.111  1.00  0.00     0.074 A 
ATOM     54  C   UNL     1       3.061 -12.680  -6.189  1.00  0.00     0.031 C 
ATOM     55  C   UNL     1       2.867  -9.813   0.165  1.00  0.00     0.029 A 
ATOM     56  C   UNL     1       2.834 -11.255   0.174  1.00  0.00     0.049 A 
ATOM     57  H   UNL     1       2.925 -12.560  -1.452  1.00  0.00     0.167 HD
ATOM     58  C   UNL     1       3.268 -14.950  -5.263  1.00  0.00     0.037 A 
ATOM     59  C   UNL     1       2.755 -12.011   1.283  1.00  0.00     0.037 A 
ATOM     60  C   UNL     1       3.302 -15.841  -4.150  1.00  0.00     0.049 A 
ATOM     61  C   UNL     1       2.803 -13.490   1.058  1.00  0.00     0.074 A 
ATOM     62  C   UNL     1       3.431 -17.209  -4.163  1.00  0.00     0.029 A 
ATOM     63  N   UNL     1       3.178 -15.442  -2.822  1.00  0.00    -0.354 N 
ATOM     64  N   UNL     1       2.916 -14.136  -0.080  1.00  0.00    -0.248 NA
ATOM     65  C   UNL     1       2.736 -14.348   2.241  1.00  0.00     0.031 C 
ATOM     66  C   UNL     1       3.268 -17.652  -2.853  1.00  0.00     0.029 A 
ATOM     67  C   UNL     1       3.167 -16.554  -2.007  1.00  0.00     0.049 A 
ATOM     68  H   UNL     1       3.108 -14.510  -2.513  1.00  0.00     0.167 HD
ATOM     69  C   UNL     1       2.976 -15.474   0.247  1.00  0.00     0.074 A 
ATOM     70  C   UNL     1       2.903 -15.544   1.696  1.00  0.00     0.031 C 
ATOM     71  C   UNL     1       3.087 -16.550  -0.568  1.00  0.00     0.037 A 
BRANCH  58  72
ATOM     72  C   UNL     1       3.328 -15.449  -6.659  1.00  0.00     0.064 A 
ATOM     73  C   UNL     1       4.382 -15.131  -7.530  1.00  0.00     0.173 A 
ATOM     74  C   UNL     1       2.256 -16.200  -7.152  1.00  0.00     0.173 A 
ATOM     75  F   UNL     1       5.391 -14.345  -7.120  1.00  0.00    -0.203 F 
ATOM     76  C   UNL     1       4.352 -15.547  -8.855  1.00  0.00     0.198 A 
ATOM     77  C   UNL     1       2.255 -16.656  -8.460  1.00  0.00     0.198 A 
ATOM     78  F   UNL     1       1.202 -16.468  -6.367  1.00  0.00    -0.203 F 
ATOM     79  F   UNL     1       5.324 -15.167  -9.696  1.00  0.00    -0.200 F 
ATOM     80  C   UNL     1       3.299 -16.326  -9.312  1.00  0.00     0.200 A 
ATOM     81  F   UNL     1       1.234 -17.402  -8.901  1.00  0.00    -0.200 F 
ATOM     82  F   UNL     1       3.281 -16.746 -10.584  1.00  0.00    -0.200 F 
ENDBRANCH  58  72
BRANCH  59  83
ATOM     83  C   UNL     1       2.599 -11.411   2.640  1.00  0.00     0.064 A 
ATOM     84  C   UNL     1       3.549 -11.612   3.652  1.00  0.00     0.173 A 
ATOM     85  C   UNL     1       1.459 -10.659   2.974  1.00  0.00     0.173 A 
ATOM     86  F   UNL     1       4.662 -12.316   3.395  1.00  0.00    -0.203 F 
ATOM     87  C   UNL     1       3.341 -11.139   4.949  1.00  0.00     0.198 A 
ATOM     88  C   UNL     1       1.271 -10.151   4.260  1.00  0.00     0.198 A 
ATOM     89  F   UNL     1       0.517 -10.417   2.051  1.00  0.00    -0.203 F 
ATOM     90  F   UNL     1       4.231 -11.418   5.912  1.00  0.00    -0.200 F 
ATOM     91  C   UNL     1       2.203 -10.409   5.252  1.00  0.00     0.200 A 
ATOM     92  F   UNL     1       0.180  -9.425   4.540  1.00  0.00    -0.200 F 
ATOM     93  F   UNL     1       1.997  -9.969   6.501  1.00  0.00    -0.200 F 
ENDBRANCH  59  83
BRANCH  71  94
ATOM     94  C   UNL     1       3.189 -17.880   0.102  1.00  0.00     0.064 A 
ATOM     95  C   UNL     1       2.114 -18.436   0.805  1.00  0.00     0.173 A 
ATOM     96  C   UNL     1       4.370 -18.628  -0.021  1.00  0.00     0.173 A 
ATOM     97  F   UNL     1       0.968 -17.752   0.946  1.00  0.00    -0.203 F 
ATOM     98  C   UNL     1       2.237 -19.679   1.409  1.00  0.00     0.198 A 
ATOM     99  C   UNL     1       4.464 -19.897   0.527  1.00  0.00     0.198 A 
ATOM    100  F   UNL     1       5.416 -18.139  -0.705  1.00  0.00    -0.203 F 
ATOM    101  F   UNL     1       1.231 -20.159   2.152  1.00  0.00    -0.200 F 
ATOM    102  C   UNL     1       3.405 -20.413   1.258  1.00  0.00     0.200 A 
ATOM    103  F   UNL     1       5.576 -20.620   0.343  1.00  0.00    -0.200 F 
ATOM    104  F   UNL     1       3.513 -21.622   1.825  1.00  0.00    -0.200 F 
ENDBRANCH  71  94
ENDBRANCH  45  46
ENDBRANCH  38  40
ENDBRANCH  37  38
ENDBRANCH  36  37
ENDBRANCH  35  36
ENDBRANCH   1  35
TORSDOF 16
