REMARK SMILES C=CCN(CC(=O)OCCOC(=O)c1ccc(-c2c3nc(c(-c4c(F)c(F)c(F)c(F)c4F)c4ccc([nH]4)c(-c4c(F)c(F)c(F)c(F)c4F)c4nc(c(-c5c(F)c(F)c(F)c(F)c5F)c5ccc2[nH]5)C=C4)C=C3)cc1)c1nccn(C)c1=O
REMARK SMILES IDX 9 1 8 2 6 3 7 4 5 5 4 6 3 7 2 8 1 9 77 10 78 11 83 12 79 13
REMARK SMILES IDX 81 14 84 15 80 16 82 17 10 18 11 19 12 20 13 21 14 22 15 23
REMARK SMILES IDX 76 24 16 25 75 26 17 27 18 28 19 29 69 30 20 31 74 32 68 33
REMARK SMILES IDX 70 34 21 35 73 36 67 37 66 38 22 40 54 41 34 42 53 43 35 44
REMARK SMILES IDX 38 45 52 46 71 47 36 48 37 49 51 51 72 52 39 53 23 54 24 55
REMARK SMILES IDX 32 56 25 57 26 58 30 59 33 60 27 61 28 62 31 63 29 64 55 65
REMARK SMILES IDX 56 66 64 67 57 68 58 69 62 70 65 71 59 72 60 73 63 74 61 75
REMARK SMILES IDX 40 76 41 77 49 78 42 79 43 80 47 81 50 82 44 83 45 84 48 85
REMARK SMILES IDX 46 86
REMARK H PARENT 70 39 38 50
REMARK Flexibility Score: inf
ROOT
ATOM      1  C   UNL     1      -5.844   2.195  -1.097  1.00  0.00     0.274 C 
ENDROOT
BRANCH   1   2
ATOM      2  O   UNL     1      -4.463   1.787  -1.055  1.00  0.00    -0.461 OA
BRANCH   2   3
ATOM      3  C   UNL     1      -3.724   2.001  -2.172  1.00  0.00     0.325 C 
ATOM      4  O   UNL     1      -4.176   2.456  -3.221  1.00  0.00    -0.250 OA
BRANCH   3   5
ATOM      5  C   UNL     1      -2.258   1.598  -2.040  1.00  0.00     0.241 C 
BRANCH   5   6
ATOM      6  N   UNL     1      -1.824   1.271  -0.679  1.00  0.00    -0.337 N 
BRANCH   6   7
ATOM      7  C   UNL     1      -1.420  -0.095  -0.409  1.00  0.00     0.146 C 
BRANCH   7   8
ATOM      8  C   UNL     1       0.008  -0.269  -0.852  1.00  0.00    -0.014 C 
ATOM      9  C   UNL     1       1.026  -0.603  -0.047  1.00  0.00     0.006 C 
ENDBRANCH   7   8
ENDBRANCH   6   7
BRANCH   6  10
ATOM     10  C   UNL     1      -1.404   2.292   0.166  1.00  0.00     0.196 A 
ATOM     11  N   UNL     1      -0.337   2.992  -0.140  1.00  0.00    -0.233 NA
ATOM     12  C   UNL     1      -2.246   2.600   1.446  1.00  0.00     0.293 A 
ATOM     13  C   UNL     1       0.003   4.018   0.698  1.00  0.00     0.131 A 
ATOM     14  N   UNL     1      -1.868   3.765   2.112  1.00  0.00    -0.314 N 
ATOM     15  O   UNL     1      -3.166   1.857   1.772  1.00  0.00    -0.265 OA
ATOM     16  C   UNL     1      -0.723   4.430   1.743  1.00  0.00     0.109 A 
ATOM     17  C   UNL     1      -2.746   4.345   3.106  1.00  0.00     0.153 C 
ENDBRANCH   6  10
ENDBRANCH   5   6
ENDBRANCH   3   5
ENDBRANCH   2   3
ENDBRANCH   1   2
BRANCH   1  18
ATOM     18  C   UNL     1      -6.052   3.583  -0.485  1.00  0.00     0.275 C 
BRANCH  18  19
ATOM     19  O   UNL     1      -5.520   4.625  -1.326  1.00  0.00    -0.458 OA
BRANCH  19  20
ATOM     20  C   UNL     1      -4.250   4.971  -1.029  1.00  0.00     0.338 C 
ATOM     21  O   UNL     1      -3.547   4.518  -0.148  1.00  0.00    -0.246 OA
BRANCH  20  22
ATOM     22  C   UNL     1      -3.740   6.006  -1.924  1.00  0.00     0.060 A 
ATOM     23  C   UNL     1      -2.845   5.644  -2.934  1.00  0.00     0.016 A 
ATOM     24  C   UNL     1      -3.975   7.344  -1.608  1.00  0.00     0.016 A 
ATOM     25  C   UNL     1      -2.166   6.635  -3.637  1.00  0.00     0.010 A 
ATOM     26  C   UNL     1      -3.303   8.334  -2.320  1.00  0.00     0.010 A 
ATOM     27  C   UNL     1      -2.386   7.983  -3.325  1.00  0.00    -0.014 A 
BRANCH  27  28
ATOM     28  C   UNL     1      -1.677   9.051  -4.056  1.00  0.00     0.031 A 
ATOM     29  C   UNL     1      -0.538   9.778  -3.413  1.00  0.00     0.074 A 
ATOM     30  C   UNL     1      -2.116   9.396  -5.277  1.00  0.00     0.049 A 
ATOM     31  N   UNL     1       0.067  10.870  -3.800  1.00  0.00    -0.248 NA
ATOM     32  C   UNL     1      -0.011   9.203  -2.165  1.00  0.00     0.031 C 
ATOM     33  C   UNL     1      -3.193   8.722  -6.003  1.00  0.00     0.029 A 
ATOM     34  N   UNL     1      -1.734  10.416  -6.107  1.00  0.00    -0.354 N 
ATOM     35  C   UNL     1       1.030  11.130  -2.835  1.00  0.00     0.074 A 
ATOM     36  C   UNL     1       0.932  10.079  -1.844  1.00  0.00     0.031 C 
ATOM     37  C   UNL     1      -3.406   9.366  -7.160  1.00  0.00     0.029 A 
ATOM     38  C   UNL     1      -2.516  10.521  -7.229  1.00  0.00     0.049 A 
ATOM     39  H   UNL     1      -0.975  11.014  -5.917  1.00  0.00     0.167 HD
ATOM     40  C   UNL     1       1.906  12.161  -2.787  1.00  0.00     0.037 A 
ATOM     41  C   UNL     1      -2.541  11.471  -8.180  1.00  0.00     0.037 A 
ATOM     42  C   UNL     1       1.992  13.195  -3.786  1.00  0.00     0.049 A 
ATOM     43  C   UNL     1      -1.588  12.625  -8.084  1.00  0.00     0.074 A 
ATOM     44  C   UNL     1       2.840  14.288  -3.831  1.00  0.00     0.029 A 
ATOM     45  N   UNL     1       1.196  13.258  -4.921  1.00  0.00    -0.354 N 
ATOM     46  N   UNL     1      -0.700  12.884  -7.155  1.00  0.00    -0.248 NA
ATOM     47  C   UNL     1      -1.643  13.621  -9.161  1.00  0.00     0.031 C 
ATOM     48  C   UNL     1       2.541  15.025  -4.983  1.00  0.00     0.029 A 
ATOM     49  C   UNL     1       1.527  14.375  -5.669  1.00  0.00     0.049 A 
ATOM     50  H   UNL     1       0.499  12.605  -5.159  1.00  0.00     0.167 HD
ATOM     51  C   UNL     1      -0.079  14.062  -7.540  1.00  0.00     0.074 A 
ATOM     52  C   UNL     1      -0.689  14.466  -8.792  1.00  0.00     0.031 C 
ATOM     53  C   UNL     1       0.907  14.748  -6.914  1.00  0.00     0.037 A 
BRANCH  40  54
ATOM     54  C   UNL     1       2.820  12.241  -1.603  1.00  0.00     0.064 A 
ATOM     55  C   UNL     1       3.944  11.411  -1.485  1.00  0.00     0.173 A 
ATOM     56  C   UNL     1       2.593  13.190  -0.596  1.00  0.00     0.173 A 
ATOM     57  F   UNL     1       4.195  10.479  -2.417  1.00  0.00    -0.203 F 
ATOM     58  C   UNL     1       4.801  11.520  -0.393  1.00  0.00     0.198 A 
ATOM     59  C   UNL     1       3.462  13.308   0.486  1.00  0.00     0.198 A 
ATOM     60  F   UNL     1       1.531  14.007  -0.664  1.00  0.00    -0.203 F 
ATOM     61  F   UNL     1       5.855  10.699  -0.285  1.00  0.00    -0.200 F 
ATOM     62  C   UNL     1       4.563  12.472   0.588  1.00  0.00     0.200 A 
ATOM     63  F   UNL     1       3.233  14.232   1.430  1.00  0.00    -0.200 F 
ATOM     64  F   UNL     1       5.392  12.579   1.635  1.00  0.00    -0.200 F 
ENDBRANCH  40  54
BRANCH  41  65
ATOM     65  C   UNL     1      -3.529  11.366  -9.279  1.00  0.00     0.064 A 
ATOM     66  C   UNL     1      -3.134  10.985 -10.567  1.00  0.00     0.173 A 
ATOM     67  C   UNL     1      -4.895  11.590  -9.049  1.00  0.00     0.173 A 
ATOM     68  F   UNL     1      -1.836  10.778 -10.834  1.00  0.00    -0.203 F 
ATOM     69  C   UNL     1      -4.070  10.831 -11.587  1.00  0.00     0.198 A 
ATOM     70  C   UNL     1      -5.831  11.415 -10.064  1.00  0.00     0.198 A 
ATOM     71  F   UNL     1      -5.319  11.951  -7.829  1.00  0.00    -0.203 F 
ATOM     72  F   UNL     1      -3.666  10.483 -12.816  1.00  0.00    -0.200 F 
ATOM     73  C   UNL     1      -5.418  11.037 -11.332  1.00  0.00     0.200 A 
ATOM     74  F   UNL     1      -7.134  11.603  -9.811  1.00  0.00    -0.200 F 
ATOM     75  F   UNL     1      -6.319  10.873 -12.310  1.00  0.00    -0.200 F 
ENDBRANCH  41  65
BRANCH  53  76
ATOM     76  C   UNL     1       1.406  15.985  -7.593  1.00  0.00     0.064 A 
ATOM     77  C   UNL     1       0.698  17.192  -7.520  1.00  0.00     0.173 A 
ATOM     78  C   UNL     1       2.623  15.968  -8.289  1.00  0.00     0.173 A 
ATOM     79  F   UNL     1      -0.478  17.247  -6.877  1.00  0.00    -0.203 F 
ATOM     80  C   UNL     1       1.187  18.341  -8.134  1.00  0.00     0.198 A 
ATOM     81  C   UNL     1       3.116  17.123  -8.888  1.00  0.00     0.198 A 
ATOM     82  F   UNL     1       3.333  14.834  -8.382  1.00  0.00    -0.203 F 
ATOM     83  F   UNL     1       0.482  19.479  -8.079  1.00  0.00    -0.200 F 
ATOM     84  C   UNL     1       2.397  18.307  -8.813  1.00  0.00     0.200 A 
ATOM     85  F   UNL     1       4.287  17.090  -9.540  1.00  0.00    -0.200 F 
ATOM     86  F   UNL     1       2.866  19.415  -9.402  1.00  0.00    -0.200 F 
ENDBRANCH  53  76
ENDBRANCH  27  28
ENDBRANCH  20  22
ENDBRANCH  19  20
ENDBRANCH  18  19
ENDBRANCH   1  18
TORSDOF 15
