REMARK SMILES C[NH2+][C@](C)(C(=O)OCCOC(=O)c1ccc(-c2c3nc(c(-c4c(F)c(F)c(F)c(F)c4F)c4ccc([nH]4)c(-c4c(F)c(F)c(F)c(F)c4F)c4nc(c(-c5c(F)c(F)c(F)c(F)c5F)c5ccc2[nH]5)C=C4)C=C3)cc1)c1cccc(Cl)c1
REMARK SMILES IDX 9 1 8 2 7 3 5 4 6 5 3 6 4 7 2 8 1 9 76 12 77 13 82 14 78 15
REMARK SMILES IDX 80 16 79 17 81 18 10 19 11 20 12 21 13 22 14 23 75 24 15 25
REMARK SMILES IDX 74 26 16 27 17 28 18 29 68 30 19 31 73 32 67 33 69 34 20 35
REMARK SMILES IDX 72 36 66 37 65 38 21 40 53 41 33 42 52 43 34 44 37 45 51 46
REMARK SMILES IDX 70 47 35 48 36 49 50 51 71 52 38 53 22 54 23 55 31 56 24 57
REMARK SMILES IDX 25 58 29 59 32 60 26 61 27 62 30 63 28 64 54 65 55 66 63 67
REMARK SMILES IDX 56 68 57 69 61 70 64 71 58 72 59 73 62 74 60 75 39 76 40 77
REMARK SMILES IDX 48 78 41 79 42 80 46 81 49 82 43 83 44 84 47 85 45 86
REMARK H PARENT 2 10 2 11 69 39 37 50
REMARK Flexibility Score: inf
ROOT
ATOM      1  C   UNL     1      -1.087   5.438  -2.071  1.00  0.00     0.275 C 
ENDROOT
BRANCH   1   2
ATOM      2  C   UNL     1      -1.509   4.986  -0.676  1.00  0.00     0.274 C 
BRANCH   2   3
ATOM      3  O   UNL     1      -0.896   3.727  -0.334  1.00  0.00    -0.457 OA
BRANCH   3   4
ATOM      4  C   UNL     1      -1.695   2.615  -0.374  1.00  0.00     0.372 C 
ATOM      5  O   UNL     1      -2.874   2.661  -0.708  1.00  0.00    -0.244 OA
BRANCH   4   6
ATOM      6  C   UNL     1      -0.933   1.325   0.158  1.00  0.00     0.216 C 
ATOM      7  C   UNL     1       0.598   1.553   0.057  1.00  0.00     0.098 C 
BRANCH   6   8
ATOM      8  N   UNL     1      -1.311   1.073   1.582  1.00  0.00    -0.331 N 
ATOM      9  C   UNL     1      -1.157   2.202   2.485  1.00  0.00     0.332 C 
ATOM     10  H   UNL     1      -2.290   0.788   1.601  1.00  0.00     0.347 HD
ATOM     11  H   UNL     1      -0.666   0.358   1.918  1.00  0.00     0.347 HD
ENDBRANCH   6   8
BRANCH   6  12
ATOM     12  C   UNL     1      -1.361   0.044  -0.626  1.00  0.00     0.025 A 
ATOM     13  C   UNL     1      -2.726  -0.253  -0.835  1.00  0.00     0.011 A 
ATOM     14  C   UNL     1      -0.433  -0.914  -1.084  1.00  0.00     0.031 A 
ATOM     15  C   UNL     1      -3.139  -1.396  -1.530  1.00  0.00     0.002 A 
ATOM     16  C   UNL     1      -0.851  -2.071  -1.753  1.00  0.00     0.041 A 
ATOM     17  C   UNL     1      -2.198  -2.307  -1.994  1.00  0.00     0.020 A 
ATOM     18  Cl  UNL     1       0.320  -3.224  -2.270  1.00  0.00    -0.084 Cl
ENDBRANCH   6  12
ENDBRANCH   4   6
ENDBRANCH   3   4
ENDBRANCH   2   3
ENDBRANCH   1   2
BRANCH   1  19
ATOM     19  O   UNL     1      -1.643   4.559  -3.064  1.00  0.00    -0.458 OA
BRANCH  19  20
ATOM     20  C   UNL     1      -0.769   3.721  -3.662  1.00  0.00     0.338 C 
ATOM     21  O   UNL     1       0.440   3.654  -3.504  1.00  0.00    -0.246 OA
BRANCH  20  22
ATOM     22  C   UNL     1      -1.515   2.814  -4.539  1.00  0.00     0.060 A 
ATOM     23  C   UNL     1      -2.161   1.716  -3.972  1.00  0.00     0.016 A 
ATOM     24  C   UNL     1      -1.492   2.988  -5.922  1.00  0.00     0.016 A 
ATOM     25  C   UNL     1      -2.757   0.759  -4.786  1.00  0.00     0.010 A 
ATOM     26  C   UNL     1      -2.135   2.051  -6.736  1.00  0.00     0.010 A 
ATOM     27  C   UNL     1      -2.754   0.917  -6.176  1.00  0.00    -0.014 A 
BRANCH  27  28
ATOM     28  C   UNL     1      -3.321  -0.134  -7.057  1.00  0.00     0.031 A 
ATOM     29  C   UNL     1      -2.409  -0.881  -7.986  1.00  0.00     0.074 A 
ATOM     30  C   UNL     1      -4.632  -0.439  -7.027  1.00  0.00     0.049 A 
ATOM     31  N   UNL     1      -2.703  -1.626  -9.020  1.00  0.00    -0.248 NA
ATOM     32  C   UNL     1      -0.967  -0.765  -7.716  1.00  0.00     0.031 C 
ATOM     33  C   UNL     1      -5.614   0.127  -6.104  1.00  0.00     0.029 A 
ATOM     34  N   UNL     1      -5.363  -1.306  -7.802  1.00  0.00    -0.354 N 
ATOM     35  C   UNL     1      -1.486  -2.009  -9.564  1.00  0.00     0.074 A 
ATOM     36  C   UNL     1      -0.448  -1.439  -8.732  1.00  0.00     0.031 C 
ATOM     37  C   UNL     1      -6.815  -0.420  -6.353  1.00  0.00     0.029 A 
ATOM     38  C   UNL     1      -6.704  -1.304  -7.510  1.00  0.00     0.049 A 
ATOM     39  H   UNL     1      -4.963  -1.873  -8.500  1.00  0.00     0.167 HD
ATOM     40  C   UNL     1      -1.262  -2.755 -10.672  1.00  0.00     0.037 A 
ATOM     41  C   UNL     1      -7.734  -1.903  -8.139  1.00  0.00     0.037 A 
ATOM     42  C   UNL     1      -2.302  -3.362 -11.459  1.00  0.00     0.049 A 
ATOM     43  C   UNL     1      -7.470  -2.695  -9.390  1.00  0.00     0.074 A 
ATOM     44  C   UNL     1      -2.188  -4.104 -12.621  1.00  0.00     0.029 A 
ATOM     45  N   UNL     1      -3.652  -3.315 -11.144  1.00  0.00    -0.354 N 
ATOM     46  N   UNL     1      -6.328  -2.951  -9.980  1.00  0.00    -0.248 NA
ATOM     47  C   UNL     1      -8.641  -3.252 -10.084  1.00  0.00     0.031 C 
ATOM     48  C   UNL     1      -3.472  -4.492 -13.019  1.00  0.00     0.029 A 
ATOM     49  C   UNL     1      -4.381  -4.017 -12.088  1.00  0.00     0.049 A 
ATOM     50  H   UNL     1      -4.034  -2.852 -10.364  1.00  0.00     0.167 HD
ATOM     51  C   UNL     1      -6.639  -3.699 -11.107  1.00  0.00     0.074 A 
ATOM     52  C   UNL     1      -8.077  -3.872 -11.111  1.00  0.00     0.031 C 
ATOM     53  C   UNL     1      -5.810  -4.187 -12.061  1.00  0.00     0.037 A 
BRANCH  40  54
ATOM     54  C   UNL     1       0.156  -2.906 -11.128  1.00  0.00     0.064 A 
ATOM     55  C   UNL     1       1.057  -3.763 -10.483  1.00  0.00     0.173 A 
ATOM     56  C   UNL     1       0.609  -2.194 -12.249  1.00  0.00     0.173 A 
ATOM     57  F   UNL     1       0.676  -4.450  -9.396  1.00  0.00    -0.203 F 
ATOM     58  C   UNL     1       2.369  -3.888 -10.934  1.00  0.00     0.198 A 
ATOM     59  C   UNL     1       1.914  -2.339 -12.711  1.00  0.00     0.198 A 
ATOM     60  F   UNL     1      -0.217  -1.362 -12.901  1.00  0.00    -0.203 F 
ATOM     61  F   UNL     1       3.228  -4.684 -10.281  1.00  0.00    -0.200 F 
ATOM     62  C   UNL     1       2.794  -3.181 -12.050  1.00  0.00     0.200 A 
ATOM     63  F   UNL     1       2.319  -1.661 -13.794  1.00  0.00    -0.200 F 
ATOM     64  F   UNL     1       4.056  -3.307 -12.485  1.00  0.00    -0.200 F 
ENDBRANCH  40  54
BRANCH  41  65
ATOM     65  C   UNL     1      -9.118  -1.724  -7.627  1.00  0.00     0.064 A 
ATOM     66  C   UNL     1      -9.817  -2.795  -7.055  1.00  0.00     0.173 A 
ATOM     67  C   UNL     1      -9.766  -0.482  -7.695  1.00  0.00     0.173 A 
ATOM     68  F   UNL     1      -9.251  -4.009  -6.995  1.00  0.00    -0.203 F 
ATOM     69  C   UNL     1     -11.114  -2.630  -6.571  1.00  0.00     0.198 A 
ATOM     70  C   UNL     1     -11.051  -0.311  -7.186  1.00  0.00     0.198 A 
ATOM     71  F   UNL     1      -9.142   0.573  -8.241  1.00  0.00    -0.203 F 
ATOM     72  F   UNL     1     -11.774  -3.677  -6.059  1.00  0.00    -0.200 F 
ATOM     73  C   UNL     1     -11.726  -1.386  -6.629  1.00  0.00     0.200 A 
ATOM     74  F   UNL     1     -11.634   0.894  -7.234  1.00  0.00    -0.200 F 
ATOM     75  F   UNL     1     -12.969  -1.226  -6.154  1.00  0.00    -0.200 F 
ENDBRANCH  41  65
BRANCH  53  76
ATOM     76  C   UNL     1      -6.429  -4.979 -13.171  1.00  0.00     0.064 A 
ATOM     77  C   UNL     1      -7.085  -4.348 -14.237  1.00  0.00     0.173 A 
ATOM     78  C   UNL     1      -6.308  -6.375 -13.200  1.00  0.00     0.173 A 
ATOM     79  F   UNL     1      -7.236  -3.015 -14.243  1.00  0.00    -0.203 F 
ATOM     80  C   UNL     1      -7.605  -5.091 -15.293  1.00  0.00     0.198 A 
ATOM     81  C   UNL     1      -6.814  -7.113 -14.266  1.00  0.00     0.198 A 
ATOM     82  F   UNL     1      -5.685  -7.020 -12.202  1.00  0.00    -0.203 F 
ATOM     83  F   UNL     1      -8.248  -4.472 -16.293  1.00  0.00    -0.200 F 
ATOM     84  C   UNL     1      -7.462  -6.471 -15.310  1.00  0.00     0.200 A 
ATOM     85  F   UNL     1      -6.669  -8.445 -14.285  1.00  0.00    -0.200 F 
ATOM     86  F   UNL     1      -7.955  -7.184 -16.333  1.00  0.00    -0.200 F 
ENDBRANCH  53  76
ENDBRANCH  27  28
ENDBRANCH  20  22
ENDBRANCH  19  20
ENDBRANCH   1  19
TORSDOF 13
