REMARK SMILES C[C@H](C(=O)OCCOC(=O)c1ccc(-c2c3nc(c(-c4c(F)c(F)c(F)c(F)c4F)c4ccc([nH]4)c(-c4c(F)c(F)c(F)c(F)c4F)c4nc(c(-c5c(F)c(F)c(F)c(F)c5F)c5ccc2[nH]5)C=C4)C=C3)cc1)[C@H](C)[S@@](=O)c1cccs1
REMARK SMILES IDX 6 1 5 2 3 3 4 4 2 5 1 6 74 7 75 8 76 9 77 10 78 11 79 12
REMARK SMILES IDX 82 13 80 14 81 15 7 16 8 17 9 18 10 19 11 20 12 21 73 22
REMARK SMILES IDX 13 23 72 24 14 25 15 26 16 27 66 28 17 29 71 30 65 31 67 32
REMARK SMILES IDX 18 33 70 34 64 35 63 36 19 38 51 39 31 40 50 41 32 42 35 43
REMARK SMILES IDX 49 44 68 45 33 46 34 47 48 49 69 50 36 51 20 52 21 53 29 54
REMARK SMILES IDX 22 55 23 56 27 57 30 58 24 59 25 60 28 61 26 62 52 63 53 64
REMARK SMILES IDX 61 65 54 66 55 67 59 68 62 69 56 70 57 71 60 72 58 73 37 74
REMARK SMILES IDX 38 75 46 76 39 77 40 78 44 79 47 80 41 81 42 82 45 83 43 84
REMARK H PARENT 67 37 35 48
REMARK Flexibility Score: inf
ROOT
ATOM      1  C   UNL     1      -4.228   1.748   2.804  1.00  0.00     0.274 C 
ENDROOT
BRANCH   1   2
ATOM      2  O   UNL     1      -3.132   1.558   1.886  1.00  0.00    -0.462 OA
BRANCH   2   3
ATOM      3  C   UNL     1      -2.083   0.846   2.360  1.00  0.00     0.309 C 
ATOM      4  O   UNL     1      -2.055   0.254   3.433  1.00  0.00    -0.252 OA
BRANCH   3   5
ATOM      5  C   UNL     1      -0.937   0.761   1.372  1.00  0.00     0.112 C 
ATOM      6  C   UNL     1      -1.279  -0.332   0.343  1.00  0.00     0.021 C 
BRANCH   5   7
ATOM      7  C   UNL     1      -0.504   2.055   0.668  1.00  0.00     0.096 C 
ATOM      8  C   UNL     1       0.935   1.925   0.140  1.00  0.00     0.023 C 
BRANCH   7   9
ATOM      9  S   UNL     1      -0.636   3.647   1.534  1.00  0.00     0.067 S 
ATOM     10  O   UNL     1      -2.016   4.214   1.395  1.00  0.00    -0.253 OA
BRANCH   9  11
ATOM     11  C   UNL     1      -0.342   3.352   3.216  1.00  0.00     0.091 A 
ATOM     12  C   UNL     1      -1.127   3.913   4.201  1.00  0.00     0.029 A 
ATOM     13  S   UNL     1       0.978   2.497   3.858  1.00  0.00    -0.135 S 
ATOM     14  C   UNL     1      -0.654   3.598   5.507  1.00  0.00     0.013 A 
ATOM     15  C   UNL     1       0.469   2.801   5.466  1.00  0.00     0.066 A 
ENDBRANCH   9  11
ENDBRANCH   7   9
ENDBRANCH   5   7
ENDBRANCH   3   5
ENDBRANCH   2   3
ENDBRANCH   1   2
BRANCH   1  16
ATOM     16  C   UNL     1      -5.418   0.890   2.391  1.00  0.00     0.275 C 
BRANCH  16  17
ATOM     17  O   UNL     1      -5.030  -0.495   2.411  1.00  0.00    -0.458 OA
BRANCH  17  18
ATOM     18  C   UNL     1      -5.327  -1.201   1.301  1.00  0.00     0.338 C 
ATOM     19  O   UNL     1      -5.951  -0.824   0.320  1.00  0.00    -0.246 OA
BRANCH  18  20
ATOM     20  C   UNL     1      -4.781  -2.563   1.415  1.00  0.00     0.060 A 
ATOM     21  C   UNL     1      -3.440  -2.764   1.743  1.00  0.00     0.016 A 
ATOM     22  C   UNL     1      -5.589  -3.648   1.075  1.00  0.00     0.016 A 
ATOM     23  C   UNL     1      -2.878  -4.035   1.630  1.00  0.00     0.010 A 
ATOM     24  C   UNL     1      -5.048  -4.935   1.059  1.00  0.00     0.010 A 
ATOM     25  C   UNL     1      -3.677  -5.138   1.294  1.00  0.00    -0.014 A 
BRANCH  25  26
ATOM     26  C   UNL     1      -3.090  -6.498   1.149  1.00  0.00     0.031 A 
ATOM     27  C   UNL     1      -3.184  -7.221  -0.169  1.00  0.00     0.074 A 
ATOM     28  C   UNL     1      -2.483  -7.096   2.192  1.00  0.00     0.049 A 
ATOM     29  N   UNL     1      -2.928  -8.475  -0.449  1.00  0.00    -0.248 NA
ATOM     30  C   UNL     1      -3.642  -6.432  -1.323  1.00  0.00     0.031 C 
ATOM     31  C   UNL     1      -2.280  -6.498   3.512  1.00  0.00     0.029 A 
ATOM     32  N   UNL     1      -1.926  -8.346   2.305  1.00  0.00    -0.354 N 
ATOM     33  C   UNL     1      -3.250  -8.638  -1.790  1.00  0.00     0.074 A 
ATOM     34  C   UNL     1      -3.713  -7.354  -2.273  1.00  0.00     0.031 C 
ATOM     35  C   UNL     1      -1.619  -7.367   4.292  1.00  0.00     0.029 A 
ATOM     36  C   UNL     1      -1.424  -8.611   3.555  1.00  0.00     0.049 A 
ATOM     37  H   UNL     1      -1.891  -8.990   1.561  1.00  0.00     0.167 HD
ATOM     38  C   UNL     1      -3.172  -9.759  -2.546  1.00  0.00     0.037 A 
ATOM     39  C   UNL     1      -0.902  -9.742   4.066  1.00  0.00     0.037 A 
ATOM     40  C   UNL     1      -2.654 -11.019  -2.081  1.00  0.00     0.049 A 
ATOM     41  C   UNL     1      -0.837 -10.976   3.212  1.00  0.00     0.074 A 
ATOM     42  C   UNL     1      -2.516 -12.207  -2.778  1.00  0.00     0.029 A 
ATOM     43  N   UNL     1      -2.171 -11.247  -0.802  1.00  0.00    -0.354 N 
ATOM     44  N   UNL     1      -1.202 -11.137   1.964  1.00  0.00    -0.248 NA
ATOM     45  C   UNL     1      -0.310 -12.193   3.847  1.00  0.00     0.031 C 
ATOM     46  C   UNL     1      -1.969 -13.162  -1.912  1.00  0.00     0.029 A 
ATOM     47  C   UNL     1      -1.739 -12.558  -0.687  1.00  0.00     0.049 A 
ATOM     48  H   UNL     1      -2.138 -10.576  -0.082  1.00  0.00     0.167 HD
ATOM     49  C   UNL     1      -0.946 -12.466   1.661  1.00  0.00     0.074 A 
ATOM     50  C   UNL     1      -0.375 -13.065   2.850  1.00  0.00     0.031 C 
ATOM     51  C   UNL     1      -1.172 -13.134   0.504  1.00  0.00     0.037 A 
BRANCH  38  52
ATOM     52  C   UNL     1      -3.688  -9.686  -3.952  1.00  0.00     0.064 A 
ATOM     53  C   UNL     1      -2.969  -9.050  -4.973  1.00  0.00     0.173 A 
ATOM     54  C   UNL     1      -4.905 -10.300  -4.287  1.00  0.00     0.173 A 
ATOM     55  F   UNL     1      -1.808  -8.436  -4.700  1.00  0.00    -0.203 F 
ATOM     56  C   UNL     1      -3.459  -9.015  -6.277  1.00  0.00     0.198 A 
ATOM     57  C   UNL     1      -5.380 -10.283  -5.595  1.00  0.00     0.198 A 
ATOM     58  F   UNL     1      -5.628 -10.926  -3.345  1.00  0.00    -0.203 F 
ATOM     59  F   UNL     1      -2.773  -8.372  -7.232  1.00  0.00    -0.200 F 
ATOM     60  C   UNL     1      -4.660  -9.636  -6.588  1.00  0.00     0.200 A 
ATOM     61  F   UNL     1      -6.536 -10.891  -5.895  1.00  0.00    -0.200 F 
ATOM     62  F   UNL     1      -5.126  -9.607  -7.844  1.00  0.00    -0.200 F 
ENDBRANCH  38  52
BRANCH  39  63
ATOM     63  C   UNL     1      -0.432  -9.765   5.475  1.00  0.00     0.064 A 
ATOM     64  C   UNL     1       0.934  -9.838   5.774  1.00  0.00     0.173 A 
ATOM     65  C   UNL     1      -1.335  -9.699   6.546  1.00  0.00     0.173 A 
ATOM     66  F   UNL     1       1.832  -9.930   4.782  1.00  0.00    -0.203 F 
ATOM     67  C   UNL     1       1.381  -9.849   7.093  1.00  0.00     0.198 A 
ATOM     68  C   UNL     1      -0.886  -9.684   7.864  1.00  0.00     0.198 A 
ATOM     69  F   UNL     1      -2.654  -9.630   6.310  1.00  0.00    -0.203 F 
ATOM     70  F   UNL     1       2.691  -9.953   7.354  1.00  0.00    -0.200 F 
ATOM     71  C   UNL     1       0.471  -9.764   8.137  1.00  0.00     0.200 A 
ATOM     72  F   UNL     1      -1.768  -9.590   8.869  1.00  0.00    -0.200 F 
ATOM     73  F   UNL     1       0.902  -9.764   9.405  1.00  0.00    -0.200 F 
ENDBRANCH  39  63
BRANCH  51  74
ATOM     74  C   UNL     1      -0.782 -14.579   0.466  1.00  0.00     0.064 A 
ATOM     75  C   UNL     1      -1.566 -15.562   1.087  1.00  0.00     0.173 A 
ATOM     76  C   UNL     1       0.368 -14.988  -0.224  1.00  0.00     0.173 A 
ATOM     77  F   UNL     1      -2.666 -15.215   1.771  1.00  0.00    -0.203 F 
ATOM     78  C   UNL     1      -1.200 -16.904   1.034  1.00  0.00     0.198 A 
ATOM     79  C   UNL     1       0.720 -16.332  -0.291  1.00  0.00     0.198 A 
ATOM     80  F   UNL     1       1.147 -14.082  -0.835  1.00  0.00    -0.203 F 
ATOM     81  F   UNL     1      -1.943 -17.824   1.665  1.00  0.00    -0.200 F 
ATOM     82  C   UNL     1      -0.061 -17.288   0.342  1.00  0.00     0.200 A 
ATOM     83  F   UNL     1       1.818 -16.703  -0.964  1.00  0.00    -0.200 F 
ATOM     84  F   UNL     1       0.289 -18.581   0.291  1.00  0.00    -0.200 F 
ENDBRANCH  51  74
ENDBRANCH  25  26
ENDBRANCH  18  20
ENDBRANCH  17  18
ENDBRANCH  16  17
ENDBRANCH   1  16
TORSDOF 14
