REMARK SMILES O=C(CC1CC[NH+](C[C@@H]2Cc3ccccc32)CC1)OCCOC(=O)c1ccc(-c2c3nc(c(-c4c(F)c(F)c(F)c(F)c4F)c4ccc([nH]4)c(-c4c(F)c(F)c(F)c(F)c4F)c4nc(c(-c5c(F)c(F)c(F)c(F)c5F)c5ccc2[nH]5)C=C4)C=C3)cc1
REMARK SMILES IDX 20 1 19 2 2 3 1 4 3 5 4 6 5 7 18 8 6 9 17 10 7 11 8 13 9 14
REMARK SMILES IDX 10 15 16 16 11 17 15 18 12 19 14 20 13 21 21 22 22 23 23 24
REMARK SMILES IDX 24 25 25 26 26 27 87 28 27 29 86 30 28 31 29 32 30 33 80 34
REMARK SMILES IDX 31 35 85 36 79 37 81 38 32 39 84 40 78 41 77 42 33 44 65 45
REMARK SMILES IDX 45 46 64 47 46 48 49 49 63 50 82 51 47 52 48 53 62 55 83 56
REMARK SMILES IDX 50 57 34 58 35 59 43 60 36 61 37 62 41 63 44 64 38 65 39 66
REMARK SMILES IDX 42 67 40 68 66 69 67 70 75 71 68 72 69 73 73 74 76 75 70 76
REMARK SMILES IDX 71 77 74 78 72 79 51 80 52 81 60 82 53 83 54 84 58 85 61 86
REMARK SMILES IDX 55 87 56 88 59 89 57 90
REMARK H PARENT 7 12 81 43 49 54
REMARK Flexibility Score: inf
ROOT
ATOM      1  C   UNL     1      -4.711  -2.243   1.198  1.00  0.00     0.274 C 
ENDROOT
BRANCH   1   2
ATOM      2  O   UNL     1      -3.610  -2.306   0.275  1.00  0.00    -0.462 OA
BRANCH   2   3
ATOM      3  C   UNL     1      -2.813  -1.240   0.060  1.00  0.00     0.306 C 
ATOM      4  O   UNL     1      -1.612  -1.397  -0.132  1.00  0.00    -0.252 OA
BRANCH   3   5
ATOM      5  C   UNL     1      -3.451   0.131   0.008  1.00  0.00     0.126 C 
BRANCH   5   6
ATOM      6  C   UNL     1      -4.283   0.528  -1.223  1.00  0.00     0.011 C 
ATOM      7  C   UNL     1      -4.209  -0.398  -2.436  1.00  0.00     0.066 C 
ATOM      8  C   UNL     1      -3.884   1.937  -1.697  1.00  0.00     0.066 C 
ATOM      9  C   UNL     1      -2.834  -0.382  -3.103  1.00  0.00     0.262 C 
ATOM     10  C   UNL     1      -2.481   1.945  -2.321  1.00  0.00     0.262 C 
ATOM     11  N   UNL     1      -2.329   0.956  -3.380  1.00  0.00    -0.334 N 
ATOM     12  H   UNL     1      -2.995   1.296  -4.073  1.00  0.00     0.348 HD
BRANCH  11  13
ATOM     13  C   UNL     1      -1.024   0.982  -4.065  1.00  0.00     0.270 C 
BRANCH  13  14
ATOM     14  C   UNL     1       0.288   0.566  -3.370  1.00  0.00     0.079 C 
ATOM     15  C   UNL     1       0.554  -0.771  -2.578  1.00  0.00     0.050 C 
ATOM     16  C   UNL     1       0.737   1.276  -2.115  1.00  0.00    -0.036 A 
ATOM     17  C   UNL     1       0.976   0.106  -1.435  1.00  0.00    -0.043 A 
ATOM     18  C   UNL     1       1.014   2.503  -1.556  1.00  0.00     0.004 A 
ATOM     19  C   UNL     1       1.468   0.086  -0.150  1.00  0.00     0.004 A 
ATOM     20  C   UNL     1       1.537   2.517  -0.258  1.00  0.00     0.000 A 
ATOM     21  C   UNL     1       1.759   1.316   0.442  1.00  0.00     0.000 A 
ENDBRANCH  13  14
ENDBRANCH  11  13
ENDBRANCH   5   6
ENDBRANCH   3   5
ENDBRANCH   2   3
ENDBRANCH   1   2
BRANCH   1  22
ATOM     22  C   UNL     1      -4.223  -2.171   2.651  1.00  0.00     0.275 C 
BRANCH  22  23
ATOM     23  O   UNL     1      -3.864  -0.815   2.990  1.00  0.00    -0.458 OA
BRANCH  23  24
ATOM     24  C   UNL     1      -2.549  -0.573   3.234  1.00  0.00     0.338 C 
ATOM     25  O   UNL     1      -1.653  -1.384   3.301  1.00  0.00    -0.246 OA
BRANCH  24  26
ATOM     26  C   UNL     1      -2.334   0.895   3.246  1.00  0.00     0.060 A 
ATOM     27  C   UNL     1      -1.322   1.422   2.437  1.00  0.00     0.016 A 
ATOM     28  C   UNL     1      -3.105   1.744   4.041  1.00  0.00     0.016 A 
ATOM     29  C   UNL     1      -1.064   2.796   2.435  1.00  0.00     0.010 A 
ATOM     30  C   UNL     1      -2.831   3.118   4.054  1.00  0.00     0.010 A 
ATOM     31  C   UNL     1      -1.790   3.651   3.271  1.00  0.00    -0.014 A 
BRANCH  31  32
ATOM     32  C   UNL     1      -1.327   5.048   3.492  1.00  0.00     0.031 A 
ATOM     33  C   UNL     1      -0.558   5.348   4.750  1.00  0.00     0.074 A 
ATOM     34  C   UNL     1      -1.543   6.032   2.601  1.00  0.00     0.049 A 
ATOM     35  N   UNL     1      -0.179   6.498   5.247  1.00  0.00    -0.248 NA
ATOM     36  C   UNL     1      -0.161   4.183   5.555  1.00  0.00     0.031 C 
ATOM     37  C   UNL     1      -2.176   5.872   1.295  1.00  0.00     0.029 A 
ATOM     38  N   UNL     1      -1.253   7.375   2.673  1.00  0.00    -0.354 N 
ATOM     39  C   UNL     1       0.471   6.197   6.436  1.00  0.00     0.074 A 
ATOM     40  C   UNL     1       0.425   4.759   6.593  1.00  0.00     0.031 C 
ATOM     41  C   UNL     1      -2.243   7.075   0.695  1.00  0.00     0.029 A 
ATOM     42  C   UNL     1      -1.706   8.096   1.595  1.00  0.00     0.049 A 
ATOM     43  H   UNL     1      -0.766   7.781   3.427  1.00  0.00     0.167 HD
ATOM     44  C   UNL     1       1.054   7.040   7.321  1.00  0.00     0.037 A 
ATOM     45  C   UNL     1      -1.722   9.428   1.380  1.00  0.00     0.037 A 
ATOM     46  C   UNL     1       1.115   8.469   7.162  1.00  0.00     0.049 A 
ATOM     47  C   UNL     1      -1.159  10.361   2.427  1.00  0.00     0.074 A 
ATOM     48  C   UNL     1       1.674   9.409   8.010  1.00  0.00     0.029 A 
ATOM     49  N   UNL     1       0.598   9.165   6.080  1.00  0.00    -0.354 N 
ATOM     50  N   UNL     1      -0.583  10.078   3.570  1.00  0.00    -0.248 NA
ATOM     51  C   UNL     1      -1.260  11.804   2.155  1.00  0.00     0.031 C 
ATOM     52  C   UNL     1       1.445  10.678   7.469  1.00  0.00     0.029 A 
ATOM     53  C   UNL     1       0.803  10.525   6.251  1.00  0.00     0.049 A 
ATOM     54  H   UNL     1       0.151   8.754   5.304  1.00  0.00     0.167 HD
ATOM     55  C   UNL     1      -0.222  11.298   4.133  1.00  0.00     0.074 A 
ATOM     56  C   UNL     1      -0.639  12.326   3.204  1.00  0.00     0.031 C 
ATOM     57  C   UNL     1       0.401  11.542   5.312  1.00  0.00     0.037 A 
BRANCH  44  58
ATOM     58  C   UNL     1       1.623   6.437   8.572  1.00  0.00     0.064 A 
ATOM     59  C   UNL     1       2.778   5.642   8.557  1.00  0.00     0.173 A 
ATOM     60  C   UNL     1       0.997   6.663   9.807  1.00  0.00     0.173 A 
ATOM     61  F   UNL     1       3.403   5.380   7.399  1.00  0.00    -0.203 F 
ATOM     62  C   UNL     1       3.264   5.065   9.728  1.00  0.00     0.198 A 
ATOM     63  C   UNL     1       1.506   6.114  10.980  1.00  0.00     0.198 A 
ATOM     64  F   UNL     1      -0.109   7.419   9.878  1.00  0.00    -0.203 F 
ATOM     65  F   UNL     1       4.333   4.258   9.681  1.00  0.00    -0.200 F 
ATOM     66  C   UNL     1       2.632   5.306  10.938  1.00  0.00     0.200 A 
ATOM     67  F   UNL     1       0.900   6.359  12.150  1.00  0.00    -0.200 F 
ATOM     68  F   UNL     1       3.101   4.751  12.064  1.00  0.00    -0.200 F 
ENDBRANCH  44  58
BRANCH  45  69
ATOM     69  C   UNL     1      -2.328   9.977   0.136  1.00  0.00     0.064 A 
ATOM     70  C   UNL     1      -1.548  10.640  -0.821  1.00  0.00     0.173 A 
ATOM     71  C   UNL     1      -3.708   9.884  -0.102  1.00  0.00     0.173 A 
ATOM     72  F   UNL     1      -0.229  10.788  -0.625  1.00  0.00    -0.203 F 
ATOM     73  C   UNL     1      -2.125  11.203  -1.959  1.00  0.00     0.198 A 
ATOM     74  C   UNL     1      -4.279  10.419  -1.255  1.00  0.00     0.198 A 
ATOM     75  F   UNL     1      -4.504   9.272   0.787  1.00  0.00    -0.203 F 
ATOM     76  F   UNL     1      -1.363  11.878  -2.830  1.00  0.00    -0.200 F 
ATOM     77  C   UNL     1      -3.489  11.085  -2.179  1.00  0.00     0.200 A 
ATOM     78  F   UNL     1      -5.597  10.296  -1.466  1.00  0.00    -0.200 F 
ATOM     79  F   UNL     1      -4.043  11.624  -3.273  1.00  0.00    -0.200 F 
ENDBRANCH  45  69
BRANCH  57  80
ATOM     80  C   UNL     1       0.728  12.970   5.653  1.00  0.00     0.064 A 
ATOM     81  C   UNL     1      -0.264  13.895   6.010  1.00  0.00     0.173 A 
ATOM     82  C   UNL     1       2.064  13.400   5.682  1.00  0.00     0.173 A 
ATOM     83  F   UNL     1      -1.558  13.540   5.988  1.00  0.00    -0.203 F 
ATOM     84  C   UNL     1       0.068  15.201   6.363  1.00  0.00     0.198 A 
ATOM     85  C   UNL     1       2.395  14.697   6.066  1.00  0.00     0.198 A 
ATOM     86  F   UNL     1       3.054  12.554   5.358  1.00  0.00    -0.203 F 
ATOM     87  F   UNL     1      -0.900  16.079   6.660  1.00  0.00    -0.200 F 
ATOM     88  C   UNL     1       1.397  15.598   6.400  1.00  0.00     0.200 A 
ATOM     89  F   UNL     1       3.681  15.072   6.117  1.00  0.00    -0.200 F 
ATOM     90  F   UNL     1       1.714  16.851   6.753  1.00  0.00    -0.200 F 
ENDBRANCH  57  80
ENDBRANCH  31  32
ENDBRANCH  24  26
ENDBRANCH  23  24
ENDBRANCH  22  23
ENDBRANCH   1  22
TORSDOF 14
