REMARK SMILES CCC[NH2+][C@@]1(C(=O)OCCOC(=O)c2ccc(-c3c4nc(c(-c5c(F)c(F)c(F)c(F)c5F)c5ccc([nH]5)c(-c5c(F)c(F)c(F)c(F)c5F)c5nc(c(-c6c(F)c(F)c(F)c(F)c6F)c6ccc3[nH]6)C=C5)C=C4)cc2)CC[C@@H](SC2CCCC2)C1
REMARK SMILES IDX 9 1 8 2 6 3 7 4 5 5 77 6 86 7 78 8 79 9 4 10 3 13 2 14 1 15
REMARK SMILES IDX 80 16 81 17 82 18 85 19 83 20 84 21 10 22 11 23 12 24 13 25
REMARK SMILES IDX 14 26 15 27 76 28 16 29 75 30 17 31 18 32 19 33 69 34 20 35
REMARK SMILES IDX 74 36 68 37 70 38 21 39 73 40 67 41 66 42 22 44 54 45 34 46
REMARK SMILES IDX 53 47 35 48 38 49 52 50 71 51 36 52 37 53 51 55 72 56 39 57
REMARK SMILES IDX 23 58 24 59 32 60 25 61 26 62 30 63 33 64 27 65 28 66 31 67
REMARK SMILES IDX 29 68 55 69 56 70 64 71 57 72 58 73 62 74 65 75 59 76 60 77
REMARK SMILES IDX 63 78 61 79 40 80 41 81 49 82 42 83 43 84 47 85 50 86 44 87
REMARK SMILES IDX 45 88 48 89 46 90
REMARK H PARENT 4 11 4 12 70 43 38 54
REMARK Flexibility Score: inf
ROOT
ATOM      1  C   UNL     1      -0.349   1.319   7.042  1.00  0.00     0.274 C 
ENDROOT
BRANCH   1   2
ATOM      2  O   UNL     1       0.358   1.971   5.968  1.00  0.00    -0.457 OA
BRANCH   2   3
ATOM      3  C   UNL     1       0.715   1.173   4.917  1.00  0.00     0.368 C 
ATOM      4  O   UNL     1       0.519  -0.037   4.897  1.00  0.00    -0.245 OA
BRANCH   3   5
ATOM      5  C   UNL     1       1.444   1.986   3.790  1.00  0.00     0.195 C 
ATOM      6  C   UNL     1       2.913   2.213   4.162  1.00  0.00     0.082 C 
ATOM      7  C   UNL     1       0.842   3.408   3.645  1.00  0.00     0.095 C 
ATOM      8  C   UNL     1       2.956   3.543   4.903  1.00  0.00     0.022 C 
ATOM      9  C   UNL     1       1.809   4.373   4.337  1.00  0.00     0.054 C 
BRANCH   5  10
ATOM     10  N   UNL     1       1.294   1.278   2.485  1.00  0.00    -0.332 N 
ATOM     11  H   UNL     1       0.314   1.016   2.382  1.00  0.00     0.347 HD
ATOM     12  H   UNL     1       1.627   1.931   1.776  1.00  0.00     0.347 HD
BRANCH  10  13
ATOM     13  C   UNL     1       2.103   0.066   2.320  1.00  0.00     0.261 C 
BRANCH  13  14
ATOM     14  C   UNL     1       1.531  -0.824   1.211  1.00  0.00     0.058 C 
ATOM     15  C   UNL     1       1.504  -0.165  -0.160  1.00  0.00     0.010 C 
ENDBRANCH  13  14
ENDBRANCH  10  13
ENDBRANCH   5  10
BRANCH   9  16
ATOM     16  S   UNL     1       2.233   5.943   3.463  1.00  0.00    -0.155 SA
BRANCH  16  17
ATOM     17  C   UNL     1       3.163   5.569   1.927  1.00  0.00     0.047 C 
ATOM     18  C   UNL     1       4.484   4.831   2.054  1.00  0.00     0.014 C 
ATOM     19  C   UNL     1       2.411   4.865   0.807  1.00  0.00     0.014 C 
ATOM     20  C   UNL     1       4.802   4.349   0.642  1.00  0.00     0.001 C 
ATOM     21  C   UNL     1       3.486   4.324  -0.129  1.00  0.00     0.001 C 
ENDBRANCH  16  17
ENDBRANCH   9  16
ENDBRANCH   3   5
ENDBRANCH   2   3
ENDBRANCH   1   2
BRANCH   1  22
ATOM     22  C   UNL     1      -1.867   1.475   6.905  1.00  0.00     0.275 C 
BRANCH  22  23
ATOM     23  O   UNL     1      -2.371   0.759   5.763  1.00  0.00    -0.458 OA
BRANCH  23  24
ATOM     24  C   UNL     1      -2.599   1.510   4.661  1.00  0.00     0.338 C 
ATOM     25  O   UNL     1      -2.498   2.723   4.559  1.00  0.00    -0.246 OA
BRANCH  24  26
ATOM     26  C   UNL     1      -2.868   0.632   3.510  1.00  0.00     0.060 A 
ATOM     27  C   UNL     1      -2.063   0.779   2.377  1.00  0.00     0.016 A 
ATOM     28  C   UNL     1      -3.918  -0.287   3.516  1.00  0.00     0.016 A 
ATOM     29  C   UNL     1      -2.277  -0.016   1.254  1.00  0.00     0.010 A 
ATOM     30  C   UNL     1      -4.155  -1.062   2.377  1.00  0.00     0.010 A 
ATOM     31  C   UNL     1      -3.334  -0.931   1.243  1.00  0.00    -0.014 A 
BRANCH  31  32
ATOM     32  C   UNL     1      -3.642  -1.690   0.011  1.00  0.00     0.031 A 
ATOM     33  C   UNL     1      -4.597  -1.105  -0.985  1.00  0.00     0.074 A 
ATOM     34  C   UNL     1      -3.066  -2.882  -0.219  1.00  0.00     0.049 A 
ATOM     35  N   UNL     1      -5.134  -1.657  -2.042  1.00  0.00    -0.248 NA
ATOM     36  C   UNL     1      -4.990   0.295  -0.766  1.00  0.00     0.031 C 
ATOM     37  C   UNL     1      -2.036  -3.496   0.616  1.00  0.00     0.029 A 
ATOM     38  N   UNL     1      -3.279  -3.795  -1.221  1.00  0.00    -0.354 N 
ATOM     39  C   UNL     1      -5.934  -0.676  -2.610  1.00  0.00     0.074 A 
ATOM     40  C   UNL     1      -5.812   0.506  -1.784  1.00  0.00     0.031 C 
ATOM     41  C   UNL     1      -1.725  -4.700   0.106  1.00  0.00     0.029 A 
ATOM     42  C   UNL     1      -2.573  -4.961  -1.056  1.00  0.00     0.049 A 
ATOM     43  H   UNL     1      -3.879  -3.630  -1.984  1.00  0.00     0.167 HD
ATOM     44  C   UNL     1      -6.709  -0.763  -3.716  1.00  0.00     0.037 A 
ATOM     45  C   UNL     1      -2.645  -6.120  -1.740  1.00  0.00     0.037 A 
ATOM     46  C   UNL     1      -6.850  -1.953  -4.512  1.00  0.00     0.049 A 
ATOM     47  C   UNL     1      -3.626  -6.240  -2.880  1.00  0.00     0.074 A 
ATOM     48  C   UNL     1      -7.662  -2.167  -5.611  1.00  0.00     0.029 A 
ATOM     49  N   UNL     1      -6.161  -3.135  -4.283  1.00  0.00    -0.354 N 
ATOM     50  N   UNL     1      -4.422  -5.330  -3.388  1.00  0.00    -0.248 NA
ATOM     51  C   UNL     1      -3.733  -7.555  -3.530  1.00  0.00     0.031 C 
ATOM     52  C   UNL     1      -7.494  -3.493  -6.024  1.00  0.00     0.029 A 
ATOM     53  C   UNL     1      -6.543  -4.089  -5.211  1.00  0.00     0.049 A 
ATOM     54  H   UNL     1      -5.499  -3.275  -3.568  1.00  0.00     0.167 HD
ATOM     55  C   UNL     1      -5.096  -5.949  -4.432  1.00  0.00     0.074 A 
ATOM     56  C   UNL     1      -4.617  -7.314  -4.489  1.00  0.00     0.031 C 
ATOM     57  C   UNL     1      -6.028  -5.433  -5.269  1.00  0.00     0.037 A 
BRANCH  44  58
ATOM     58  C   UNL     1      -7.507   0.447  -4.090  1.00  0.00     0.064 A 
ATOM     59  C   UNL     1      -6.907   1.572  -4.673  1.00  0.00     0.173 A 
ATOM     60  C   UNL     1      -8.893   0.475  -3.873  1.00  0.00     0.173 A 
ATOM     61  F   UNL     1      -5.583   1.599  -4.882  1.00  0.00    -0.203 F 
ATOM     62  C   UNL     1      -7.665   2.692  -5.006  1.00  0.00     0.198 A 
ATOM     63  C   UNL     1      -9.650   1.587  -4.229  1.00  0.00     0.198 A 
ATOM     64  F   UNL     1      -9.512  -0.577  -3.319  1.00  0.00    -0.203 F 
ATOM     65  F   UNL     1      -7.066   3.774  -5.525  1.00  0.00    -0.200 F 
ATOM     66  C   UNL     1      -9.035   2.697  -4.789  1.00  0.00     0.200 A 
ATOM     67  F   UNL     1     -10.975   1.587  -4.025  1.00  0.00    -0.200 F 
ATOM     68  F   UNL     1      -9.762   3.775  -5.112  1.00  0.00    -0.200 F 
ENDBRANCH  44  58
BRANCH  45  69
ATOM     69  C   UNL     1      -1.809  -7.282  -1.339  1.00  0.00     0.064 A 
ATOM     70  C   UNL     1      -0.801  -7.771  -2.182  1.00  0.00     0.173 A 
ATOM     71  C   UNL     1      -2.026  -7.952  -0.126  1.00  0.00     0.173 A 
ATOM     72  F   UNL     1      -0.576  -7.184  -3.367  1.00  0.00    -0.203 F 
ATOM     73  C   UNL     1      -0.056  -8.896  -1.835  1.00  0.00     0.198 A 
ATOM     74  C   UNL     1      -1.261  -9.060   0.233  1.00  0.00     0.198 A 
ATOM     75  F   UNL     1      -2.985  -7.533   0.712  1.00  0.00    -0.203 F 
ATOM     76  F   UNL     1       0.866  -9.374  -2.683  1.00  0.00    -0.200 F 
ATOM     77  C   UNL     1      -0.282  -9.536  -0.626  1.00  0.00     0.200 A 
ATOM     78  F   UNL     1      -1.480  -9.672   1.404  1.00  0.00    -0.200 F 
ATOM     79  F   UNL     1       0.432 -10.621  -0.295  1.00  0.00    -0.200 F 
ENDBRANCH  45  69
BRANCH  57  80
ATOM     80  C   UNL     1      -6.553  -6.320  -6.359  1.00  0.00     0.064 A 
ATOM     81  C   UNL     1      -7.483  -7.335  -6.099  1.00  0.00     0.173 A 
ATOM     82  C   UNL     1      -6.180  -6.090  -7.693  1.00  0.00     0.173 A 
ATOM     83  F   UNL     1      -7.858  -7.600  -4.839  1.00  0.00    -0.203 F 
ATOM     84  C   UNL     1      -8.018  -8.095  -7.136  1.00  0.00     0.198 A 
ATOM     85  C   UNL     1      -6.734  -6.835  -8.729  1.00  0.00     0.198 A 
ATOM     86  F   UNL     1      -5.297  -5.125  -7.991  1.00  0.00    -0.203 F 
ATOM     87  F   UNL     1      -8.888  -9.077  -6.865  1.00  0.00    -0.200 F 
ATOM     88  C   UNL     1      -7.651  -7.838  -8.450  1.00  0.00     0.200 A 
ATOM     89  F   UNL     1      -6.389  -6.577  -9.998  1.00  0.00    -0.200 F 
ATOM     90  F   UNL     1      -8.182  -8.558  -9.448  1.00  0.00    -0.200 F 
ENDBRANCH  57  80
ENDBRANCH  31  32
ENDBRANCH  24  26
ENDBRANCH  23  24
ENDBRANCH  22  23
ENDBRANCH   1  22
TORSDOF 16
