REMARK SMILES CCCCCCNC(=O)Oc1cccc(-c2ccc([C@@H](C)C(=O)OCCOC(=O)c3ccc(-c4c5nc(c(-c6c(F)c(F)c(F)c(F)c6F)c6ccc([nH]6)c(-c6c(F)c(F)c(F)c(F)c6F)c6nc(c(-c7c(F)c(F)c(F)c(F)c7F)c7ccc4[nH]7)C=C6)C=C5)cc3)cc2Cl)c1
REMARK SMILES IDX 20 1 21 2 19 3 16 4 17 5 94 6 18 7 93 8 95 9 15 10 11 11
REMARK SMILES IDX 12 12 96 13 13 14 14 15 10 16 8 17 7 18 9 20 6 21 5 22 4 23
REMARK SMILES IDX 3 24 2 25 1 26 22 27 23 28 24 29 25 30 26 31 27 32 28 33
REMARK SMILES IDX 29 34 30 35 31 36 92 37 32 38 91 39 33 40 34 41 35 42 85 43
REMARK SMILES IDX 36 44 90 45 84 46 86 47 37 48 89 49 83 50 82 51 38 53 70 54
REMARK SMILES IDX 50 55 69 56 51 57 54 58 68 59 87 60 52 61 53 62 67 64 88 65
REMARK SMILES IDX 55 66 39 67 40 68 48 69 41 70 42 71 46 72 49 73 43 74 44 75
REMARK SMILES IDX 47 76 45 77 71 78 72 79 80 80 73 81 74 82 78 83 81 84 75 85
REMARK SMILES IDX 76 86 79 87 77 88 56 89 57 90 65 91 58 92 59 93 63 94 66 95
REMARK SMILES IDX 60 96 61 97 64 98 62 99
REMARK H PARENT 7 19 86 52 54 63
REMARK Flexibility Score: inf
ROOT
ATOM      1  C   UNL     1      -5.378 -13.875   0.305  1.00  0.00     0.126 C 
ATOM      2  C   UNL     1      -6.696 -14.583   0.003  1.00  0.00     0.025 C 
ENDROOT
BRANCH   1   3
ATOM      3  C   UNL     1      -5.268 -12.529  -0.396  1.00  0.00    -0.033 A 
ATOM      4  C   UNL     1      -5.147  -9.960  -1.643  1.00  0.00     0.000 A 
ATOM      5  C   UNL     1      -5.279 -11.144  -2.394  1.00  0.00     0.010 A 
ATOM      6  C   UNL     1      -5.052 -10.094  -0.246  1.00  0.00     0.049 A 
ATOM      7  C   UNL     1      -5.346 -12.402  -1.785  1.00  0.00     0.005 A 
ATOM      8  C   UNL     1      -5.113 -11.357   0.362  1.00  0.00     0.025 A 
ATOM      9  Cl  UNL     1      -4.932  -8.730   0.818  1.00  0.00    -0.084 Cl
BRANCH   4  10
ATOM     10  C   UNL     1      -5.185  -8.660  -2.343  1.00  0.00    -0.013 A 
ATOM     11  C   UNL     1      -4.258  -6.482  -2.873  1.00  0.00     0.133 A 
ATOM     12  C   UNL     1      -5.371  -6.162  -3.647  1.00  0.00     0.047 A 
ATOM     13  C   UNL     1      -4.152  -7.715  -2.227  1.00  0.00     0.056 A 
ATOM     14  C   UNL     1      -6.390  -7.097  -3.793  1.00  0.00     0.004 A 
ATOM     15  C   UNL     1      -6.298  -8.330  -3.142  1.00  0.00     0.009 A 
BRANCH  11  16
ATOM     16  O   UNL     1      -3.329  -5.449  -2.659  1.00  0.00    -0.410 OA
BRANCH  16  17
ATOM     17  C   UNL     1      -1.986  -5.695  -2.897  1.00  0.00     0.412 C 
ATOM     18  N   UNL     1      -1.189  -4.617  -2.620  1.00  0.00    -0.321 N 
ATOM     19  H   UNL     1      -0.223  -4.734  -2.767  1.00  0.00     0.167 HD
ATOM     20  O   UNL     1      -1.507  -6.738  -3.325  1.00  0.00    -0.224 OA
BRANCH  18  21
ATOM     21  C   UNL     1      -1.617  -3.320  -2.133  1.00  0.00     0.119 C 
BRANCH  21  22
ATOM     22  C   UNL     1      -1.019  -2.992  -0.765  1.00  0.00     0.021 C 
BRANCH  22  23
ATOM     23  C   UNL     1       0.509  -2.869  -0.740  1.00  0.00     0.002 C 
BRANCH  23  24
ATOM     24  C   UNL     1       1.106  -1.814  -1.678  1.00  0.00    -0.000 C 
BRANCH  24  25
ATOM     25  C   UNL     1       0.622  -0.380  -1.450  1.00  0.00    -0.003 C 
ATOM     26  C   UNL     1       0.991   0.171  -0.081  1.00  0.00     0.004 C 
ENDBRANCH  24  25
ENDBRANCH  23  24
ENDBRANCH  22  23
ENDBRANCH  21  22
ENDBRANCH  18  21
ENDBRANCH  16  17
ENDBRANCH  11  16
ENDBRANCH   4  10
ENDBRANCH   1   3
BRANCH   1  27
ATOM     27  C   UNL     1      -4.210 -14.834   0.109  1.00  0.00     0.313 C 
ATOM     28  O   UNL     1      -3.863 -15.621   0.984  1.00  0.00    -0.252 OA
BRANCH  27  29
ATOM     29  O   UNL     1      -3.640 -14.758  -1.121  1.00  0.00    -0.462 OA
BRANCH  29  30
ATOM     30  C   UNL     1      -2.502 -15.608  -1.365  1.00  0.00     0.274 C 
BRANCH  30  31
ATOM     31  C   UNL     1      -1.185 -14.842  -1.217  1.00  0.00     0.275 C 
BRANCH  31  32
ATOM     32  O   UNL     1      -0.933 -14.488   0.156  1.00  0.00    -0.458 OA
BRANCH  32  33
ATOM     33  C   UNL     1      -1.327 -13.242   0.503  1.00  0.00     0.338 C 
ATOM     34  O   UNL     1      -1.816 -12.390  -0.219  1.00  0.00    -0.246 OA
BRANCH  33  35
ATOM     35  C   UNL     1      -1.214 -13.067   1.958  1.00  0.00     0.060 A 
ATOM     36  C   UNL     1      -2.392 -12.857   2.677  1.00  0.00     0.016 A 
ATOM     37  C   UNL     1       0.025 -12.999   2.594  1.00  0.00     0.016 A 
ATOM     38  C   UNL     1      -2.343 -12.547   4.031  1.00  0.00     0.010 A 
ATOM     39  C   UNL     1       0.076 -12.698   3.960  1.00  0.00     0.010 A 
ATOM     40  C   UNL     1      -1.107 -12.449   4.680  1.00  0.00    -0.014 A 
BRANCH  40  41
ATOM     41  C   UNL     1      -1.071 -12.017   6.098  1.00  0.00     0.031 A 
ATOM     42  C   UNL     1      -0.638 -10.622   6.444  1.00  0.00     0.074 A 
ATOM     43  C   UNL     1      -1.474 -12.861   7.066  1.00  0.00     0.049 A 
ATOM     44  N   UNL     1      -0.515 -10.060   7.620  1.00  0.00    -0.248 NA
ATOM     45  C   UNL     1      -0.294  -9.741   5.317  1.00  0.00     0.031 C 
ATOM     46  C   UNL     1      -1.947 -14.228   6.848  1.00  0.00     0.029 A 
ATOM     47  N   UNL     1      -1.552 -12.690   8.425  1.00  0.00    -0.354 N 
ATOM     48  C   UNL     1      -0.058  -8.772   7.377  1.00  0.00     0.074 A 
ATOM     49  C   UNL     1       0.088  -8.636   5.943  1.00  0.00     0.031 C 
ATOM     50  C   UNL     1      -2.268 -14.772   8.034  1.00  0.00     0.029 A 
ATOM     51  C   UNL     1      -1.991 -13.805   9.093  1.00  0.00     0.049 A 
ATOM     52  H   UNL     1      -1.317 -11.847   8.877  1.00  0.00     0.167 HD
ATOM     53  C   UNL     1       0.212  -7.791   8.272  1.00  0.00     0.037 A 
ATOM     54  C   UNL     1      -2.133 -14.027  10.414  1.00  0.00     0.037 A 
ATOM     55  C   UNL     1       0.034  -7.916   9.695  1.00  0.00     0.049 A 
ATOM     56  C   UNL     1      -1.809 -12.925  11.385  1.00  0.00     0.074 A 
ATOM     57  C   UNL     1       0.240  -6.964  10.678  1.00  0.00     0.029 A 
ATOM     58  N   UNL     1      -0.398  -9.067  10.337  1.00  0.00    -0.354 N 
ATOM     59  N   UNL     1      -1.393 -11.706  11.145  1.00  0.00    -0.248 NA
ATOM     60  C   UNL     1      -1.974 -13.231  12.813  1.00  0.00     0.031 C 
ATOM     61  C   UNL     1      -0.027  -7.551  11.919  1.00  0.00     0.029 A 
ATOM     62  C   UNL     1      -0.441  -8.856  11.706  1.00  0.00     0.049 A 
ATOM     63  H   UNL     1      -0.638  -9.909   9.887  1.00  0.00     0.167 HD
ATOM     64  C   UNL     1      -1.263 -11.095  12.385  1.00  0.00     0.074 A 
ATOM     65  C   UNL     1      -1.664 -12.072  13.376  1.00  0.00     0.031 C 
ATOM     66  C   UNL     1      -0.843  -9.840  12.677  1.00  0.00     0.037 A 
BRANCH  53  67
ATOM     67  C   UNL     1       0.757  -6.499   7.742  1.00  0.00     0.064 A 
ATOM     68  C   UNL     1      -0.053  -5.576   7.066  1.00  0.00     0.173 A 
ATOM     69  C   UNL     1       2.103  -6.162   7.955  1.00  0.00     0.173 A 
ATOM     70  F   UNL     1      -1.343  -5.857   6.827  1.00  0.00    -0.203 F 
ATOM     71  C   UNL     1       0.469  -4.369   6.606  1.00  0.00     0.198 A 
ATOM     72  C   UNL     1       2.615  -4.945   7.515  1.00  0.00     0.198 A 
ATOM     73  F   UNL     1       2.918  -7.010   8.601  1.00  0.00    -0.203 F 
ATOM     74  F   UNL     1      -0.314  -3.515   5.931  1.00  0.00    -0.200 F 
ATOM     75  C   UNL     1       1.800  -4.052   6.837  1.00  0.00     0.200 A 
ATOM     76  F   UNL     1       3.898  -4.636   7.748  1.00  0.00    -0.200 F 
ATOM     77  F   UNL     1       2.298  -2.887   6.401  1.00  0.00    -0.200 F 
ENDBRANCH  53  67
BRANCH  54  78
ATOM     78  C   UNL     1      -2.585 -15.357  10.896  1.00  0.00     0.064 A 
ATOM     79  C   UNL     1      -3.844 -15.524  11.488  1.00  0.00     0.173 A 
ATOM     80  C   UNL     1      -1.759 -16.485  10.788  1.00  0.00     0.173 A 
ATOM     81  F   UNL     1      -4.659 -14.469  11.637  1.00  0.00    -0.203 F 
ATOM     82  C   UNL     1      -4.253 -16.766  11.970  1.00  0.00     0.198 A 
ATOM     83  C   UNL     1      -2.179 -17.732  11.246  1.00  0.00     0.198 A 
ATOM     84  F   UNL     1      -0.543 -16.377  10.232  1.00  0.00    -0.203 F 
ATOM     85  F   UNL     1      -5.442 -16.889  12.574  1.00  0.00    -0.200 F 
ATOM     86  C   UNL     1      -3.422 -17.869  11.844  1.00  0.00     0.200 A 
ATOM     87  F   UNL     1      -1.377 -18.797  11.113  1.00  0.00    -0.200 F 
ATOM     88  F   UNL     1      -3.816 -19.063  12.307  1.00  0.00    -0.200 F 
ENDBRANCH  54  78
BRANCH  66  89
ATOM     89  C   UNL     1      -0.816  -9.449  14.125  1.00  0.00     0.064 A 
ATOM     90  C   UNL     1       0.163  -9.946  14.998  1.00  0.00     0.173 A 
ATOM     91  C   UNL     1      -1.760  -8.547  14.637  1.00  0.00     0.173 A 
ATOM     92  F   UNL     1       1.077 -10.824  14.558  1.00  0.00    -0.203 F 
ATOM     93  C   UNL     1       0.179  -9.573  16.340  1.00  0.00     0.198 A 
ATOM     94  C   UNL     1      -1.724  -8.156  15.973  1.00  0.00     0.198 A 
ATOM     95  F   UNL     1      -2.712  -8.040  13.841  1.00  0.00    -0.203 F 
ATOM     96  F   UNL     1       1.095 -10.095  17.167  1.00  0.00    -0.200 F 
ATOM     97  C   UNL     1      -0.760  -8.675  16.824  1.00  0.00     0.200 A 
ATOM     98  F   UNL     1      -2.626  -7.281  16.438  1.00  0.00    -0.200 F 
ATOM     99  F   UNL     1      -0.741  -8.315  18.115  1.00  0.00    -0.200 F 
ENDBRANCH  66  89
ENDBRANCH  40  41
ENDBRANCH  33  35
ENDBRANCH  32  33
ENDBRANCH  31  32
ENDBRANCH  30  31
ENDBRANCH  29  30
ENDBRANCH  27  29
ENDBRANCH   1  27
TORSDOF 20
