REMARK SMILES O=C(OCCOC(=O)c1cc(-c2ccc(C(F)(F)F)cc2)cc([N+](=O)[O-])c1)c1ccc(-c2c3nc(c(-c4c(F)c(F)c(F)c(F)c4F)c4ccc([nH]4)c(-c4c(F)c(F)c(F)c(F)c4F)c4nc(c(-c5c(F)c(F)c(F)c(F)c5F)c5ccc2[nH]5)C=C4)C=C3)cc1
REMARK SMILES IDX 4 1 3 2 2 3 1 4 28 5 29 6 90 7 30 8 89 9 31 10 32 11 33 12
REMARK SMILES IDX 83 13 34 14 88 15 82 16 84 17 35 18 87 19 81 20 80 21 36 23
REMARK SMILES IDX 68 24 48 25 67 26 49 27 52 28 66 29 85 30 50 31 51 32 65 34
REMARK SMILES IDX 86 35 53 36 37 37 38 38 46 39 39 40 40 41 44 42 47 43 41 44
REMARK SMILES IDX 42 45 45 46 43 47 69 48 70 49 78 50 71 51 72 52 76 53 79 54
REMARK SMILES IDX 73 55 74 56 77 57 75 58 54 59 55 60 63 61 56 62 57 63 61 64
REMARK SMILES IDX 64 65 58 66 59 67 62 68 60 69 5 70 6 71 7 72 8 73 9 74 10 75
REMARK SMILES IDX 27 76 11 77 23 78 22 79 12 80 13 81 21 82 14 83 20 84 15 85
REMARK SMILES IDX 16 86 17 87 18 88 19 89 24 90 25 91 26 92
REMARK H PARENT 84 22 52 33
REMARK Flexibility Score: inf
ROOT
ATOM      1  C   UNL     1       4.107   1.456  -0.808  1.00  0.00     0.275 C 
ENDROOT
BRANCH   1   2
ATOM      2  O   UNL     1       2.984   0.592  -1.065  1.00  0.00    -0.458 OA
BRANCH   2   3
ATOM      3  C   UNL     1       2.782  -0.713  -0.771  1.00  0.00     0.338 C 
ATOM      4  O   UNL     1       1.785  -1.276  -1.224  1.00  0.00    -0.246 OA
BRANCH   3   5
ATOM      5  C   UNL     1       3.629  -1.496   0.182  1.00  0.00     0.060 A 
ATOM      6  C   UNL     1       4.969  -1.247   0.475  1.00  0.00     0.016 A 
ATOM      7  C   UNL     1       3.005  -2.579   0.838  1.00  0.00     0.016 A 
ATOM      8  C   UNL     1       5.644  -1.992   1.440  1.00  0.00     0.010 A 
ATOM      9  C   UNL     1       3.673  -3.327   1.812  1.00  0.00     0.010 A 
ATOM     10  C   UNL     1       5.002  -3.027   2.121  1.00  0.00    -0.014 A 
BRANCH  10  11
ATOM     11  C   UNL     1       5.796  -3.831   3.071  1.00  0.00     0.031 A 
ATOM     12  C   UNL     1       6.346  -5.147   2.623  1.00  0.00     0.074 A 
ATOM     13  C   UNL     1       6.141  -3.312   4.263  1.00  0.00     0.049 A 
ATOM     14  N   UNL     1       7.189  -5.935   3.234  1.00  0.00    -0.248 NA
ATOM     15  C   UNL     1       5.937  -5.612   1.288  1.00  0.00     0.031 C 
ATOM     16  C   UNL     1       5.761  -1.983   4.737  1.00  0.00     0.029 A 
ATOM     17  N   UNL     1       6.899  -3.821   5.284  1.00  0.00    -0.354 N 
ATOM     18  C   UNL     1       7.465  -6.952   2.334  1.00  0.00     0.074 A 
ATOM     19  C   UNL     1       6.640  -6.728   1.167  1.00  0.00     0.031 C 
ATOM     20  C   UNL     1       6.239  -1.803   5.979  1.00  0.00     0.029 A 
ATOM     21  C   UNL     1       6.959  -3.000   6.384  1.00  0.00     0.049 A 
ATOM     22  H   UNL     1       7.356  -4.692   5.235  1.00  0.00     0.167 HD
ATOM     23  C   UNL     1       8.364  -7.954   2.459  1.00  0.00     0.037 A 
ATOM     24  C   UNL     1       7.531  -3.196   7.585  1.00  0.00     0.037 A 
ATOM     25  C   UNL     1       9.140  -8.189   3.647  1.00  0.00     0.049 A 
ATOM     26  C   UNL     1       8.379  -4.421   7.769  1.00  0.00     0.074 A 
ATOM     27  C   UNL     1      10.035  -9.210   3.908  1.00  0.00     0.029 A 
ATOM     28  N   UNL     1       9.095  -7.393   4.785  1.00  0.00    -0.354 N 
ATOM     29  N   UNL     1       8.653  -5.368   6.905  1.00  0.00    -0.248 NA
ATOM     30  C   UNL     1       9.038  -4.581   9.070  1.00  0.00     0.031 C 
ATOM     31  C   UNL     1      10.493  -9.061   5.222  1.00  0.00     0.029 A 
ATOM     32  C   UNL     1       9.927  -7.916   5.763  1.00  0.00     0.049 A 
ATOM     33  H   UNL     1       8.552  -6.578   4.883  1.00  0.00     0.167 HD
ATOM     34  C   UNL     1       9.547  -6.215   7.539  1.00  0.00     0.074 A 
ATOM     35  C   UNL     1       9.778  -5.660   8.859  1.00  0.00     0.031 C 
ATOM     36  C   UNL     1      10.133  -7.345   7.071  1.00  0.00     0.037 A 
BRANCH  23  37
ATOM     37  C   UNL     1       8.527  -8.867   1.282  1.00  0.00     0.064 A 
ATOM     38  C   UNL     1       9.155  -8.432   0.104  1.00  0.00     0.173 A 
ATOM     39  C   UNL     1       8.044 -10.181   1.322  1.00  0.00     0.173 A 
ATOM     40  F   UNL     1       9.611  -7.173   0.006  1.00  0.00    -0.203 F 
ATOM     41  C   UNL     1       9.270  -9.273  -1.000  1.00  0.00     0.198 A 
ATOM     42  C   UNL     1       8.183 -11.028   0.226  1.00  0.00     0.198 A 
ATOM     43  F   UNL     1       7.429 -10.642   2.421  1.00  0.00    -0.203 F 
ATOM     44  F   UNL     1       9.826  -8.820  -2.132  1.00  0.00    -0.200 F 
ATOM     45  C   UNL     1       8.789 -10.572  -0.936  1.00  0.00     0.200 A 
ATOM     46  F   UNL     1       7.720 -12.284   0.289  1.00  0.00    -0.200 F 
ATOM     47  F   UNL     1       8.897 -11.381  -1.999  1.00  0.00    -0.200 F 
ENDBRANCH  23  37
BRANCH  24  48
ATOM     48  C   UNL     1       7.315  -2.224   8.690  1.00  0.00     0.064 A 
ATOM     49  C   UNL     1       8.353  -1.433   9.198  1.00  0.00     0.173 A 
ATOM     50  C   UNL     1       6.051  -2.102   9.291  1.00  0.00     0.173 A 
ATOM     51  F   UNL     1       9.584  -1.528   8.675  1.00  0.00    -0.203 F 
ATOM     52  C   UNL     1       8.145  -0.581  10.283  1.00  0.00     0.198 A 
ATOM     53  C   UNL     1       5.836  -1.229  10.355  1.00  0.00     0.198 A 
ATOM     54  F   UNL     1       5.029  -2.851   8.854  1.00  0.00    -0.203 F 
ATOM     55  F   UNL     1       9.170   0.117  10.789  1.00  0.00    -0.200 F 
ATOM     56  C   UNL     1       6.886  -0.477  10.858  1.00  0.00     0.200 A 
ATOM     57  F   UNL     1       4.620  -1.133  10.909  1.00  0.00    -0.200 F 
ATOM     58  F   UNL     1       6.693   0.331  11.909  1.00  0.00    -0.200 F 
ENDBRANCH  24  48
BRANCH  36  59
ATOM     59  C   UNL     1      11.100  -8.030   7.989  1.00  0.00     0.064 A 
ATOM     60  C   UNL     1      10.672  -8.691   9.150  1.00  0.00     0.173 A 
ATOM     61  C   UNL     1      12.473  -8.031   7.699  1.00  0.00     0.173 A 
ATOM     62  F   UNL     1       9.371  -8.702   9.479  1.00  0.00    -0.203 F 
ATOM     63  C   UNL     1      11.587  -9.293  10.007  1.00  0.00     0.198 A 
ATOM     64  C   UNL     1      13.381  -8.666   8.539  1.00  0.00     0.198 A 
ATOM     65  F   UNL     1      12.932  -7.417   6.597  1.00  0.00    -0.203 F 
ATOM     66  F   UNL     1      11.163  -9.861  11.144  1.00  0.00    -0.200 F 
ATOM     67  C   UNL     1      12.939  -9.287   9.698  1.00  0.00     0.200 A 
ATOM     68  F   UNL     1      14.685  -8.672   8.231  1.00  0.00    -0.200 F 
ATOM     69  F   UNL     1      13.819  -9.869  10.524  1.00  0.00    -0.200 F 
ENDBRANCH  36  59
ENDBRANCH  10  11
ENDBRANCH   3   5
ENDBRANCH   2   3
ENDBRANCH   1   2
BRANCH   1  70
ATOM     70  C   UNL     1       4.123   2.115   0.576  1.00  0.00     0.275 C 
BRANCH  70  71
ATOM     71  O   UNL     1       3.720   1.242   1.643  1.00  0.00    -0.458 OA
BRANCH  71  72
ATOM     72  C   UNL     1       2.396   1.281   1.928  1.00  0.00     0.338 C 
ATOM     73  O   UNL     1       1.553   1.994   1.400  1.00  0.00    -0.246 OA
BRANCH  72  74
ATOM     74  C   UNL     1       2.055   0.239   2.912  1.00  0.00     0.067 A 
ATOM     75  C   UNL     1       0.942  -0.572   2.647  1.00  0.00     0.025 A 
ATOM     76  C   UNL     1       2.747   0.119   4.119  1.00  0.00     0.101 A 
ATOM     77  C   UNL     1       0.520  -1.536   3.574  1.00  0.00    -0.011 A 
ATOM     78  C   UNL     1       2.323  -0.845   5.044  1.00  0.00     0.270 A 
ATOM     79  C   UNL     1       1.243  -1.691   4.764  1.00  0.00     0.094 A 
BRANCH  77  80
ATOM     80  C   UNL     1      -0.761  -2.221   3.398  1.00  0.00    -0.018 A 
ATOM     81  C   UNL     1      -0.967  -3.230   2.451  1.00  0.00     0.009 A 
ATOM     82  C   UNL     1      -1.845  -1.809   4.190  1.00  0.00     0.009 A 
ATOM     83  C   UNL     1      -2.238  -3.797   2.289  1.00  0.00     0.014 A 
ATOM     84  C   UNL     1      -3.110  -2.367   4.027  1.00  0.00     0.014 A 
ATOM     85  C   UNL     1      -3.324  -3.361   3.066  1.00  0.00     0.056 A 
BRANCH  85  86
ATOM     86  C   UNL     1      -4.703  -3.934   2.854  1.00  0.00     0.416 C 
ATOM     87  F   UNL     1      -5.158  -3.738   1.586  1.00  0.00    -0.166 F 
ATOM     88  F   UNL     1      -4.749  -5.278   3.068  1.00  0.00    -0.166 F 
ATOM     89  F   UNL     1      -5.647  -3.393   3.675  1.00  0.00    -0.166 F 
ENDBRANCH  85  86
ENDBRANCH  77  80
BRANCH  78  90
ATOM     90  N   UNL     1       2.945  -0.910   6.371  1.00  0.00     0.062 N 
ATOM     91  O   UNL     1       2.700  -1.898   7.074  1.00  0.00    -0.258 OA
ATOM     92  O   UNL     1       3.666   0.040   6.711  1.00  0.00    -0.258 OA
ENDBRANCH  78  90
ENDBRANCH  72  74
ENDBRANCH  71  72
ENDBRANCH  70  71
ENDBRANCH   1  70
TORSDOF 14
