REMARK SMILES O=C(NC[C@@H]1CC[C@H](C(=O)OCCOC(=O)c2ccc(-c3c4nc(c(-c5c(F)c(F)c(F)c(F)c5F)c5ccc([nH]5)c(-c5c(F)c(F)c(F)c(F)c5F)c5nc(c(-c6c(F)c(F)c(F)c(F)c6F)c6ccc3[nH]6)C=C5)C=C4)cc2)O1)Nc1ncccn1
REMARK SMILES IDX 12 1 11 2 9 3 10 4 8 5 5 6 6 7 80 8 7 9 4 10 3 11 1 12 2 13
REMARK SMILES IDX 81 14 82 17 83 18 87 19 84 20 86 21 85 22 13 23 14 24 15 25
REMARK SMILES IDX 16 26 17 27 18 28 79 29 19 30 78 31 20 32 21 33 22 34 72 35
REMARK SMILES IDX 23 36 77 37 71 38 73 39 24 40 76 41 70 42 69 43 25 45 57 46
REMARK SMILES IDX 37 47 56 48 38 49 41 50 55 51 74 52 39 53 40 54 54 56 75 57
REMARK SMILES IDX 42 58 26 59 27 60 35 61 28 62 29 63 33 64 36 65 30 66 31 67
REMARK SMILES IDX 34 68 32 69 58 70 59 71 67 72 60 73 61 74 65 75 68 76 62 77
REMARK SMILES IDX 63 78 66 79 64 80 43 81 44 82 52 83 45 84 46 85 50 86 53 87
REMARK SMILES IDX 47 88 48 89 51 90 49 91
REMARK H PARENT 3 15 81 16 73 44 41 55
REMARK Flexibility Score: inf
ROOT
ATOM      1  C   UNL     1       5.062   2.500  -2.851  1.00  0.00     0.274 C 
ENDROOT
BRANCH   1   2
ATOM      2  O   UNL     1       5.043   2.675  -1.421  1.00  0.00    -0.460 OA
BRANCH   2   3
ATOM      3  C   UNL     1       6.151   2.290  -0.733  1.00  0.00     0.335 C 
ATOM      4  O   UNL     1       7.133   1.761  -1.242  1.00  0.00    -0.249 OA
BRANCH   3   5
ATOM      5  C   UNL     1       6.046   2.580   0.778  1.00  0.00     0.228 C 
ATOM      6  C   UNL     1       4.547   1.181   1.885  1.00  0.00     0.138 C 
ATOM      7  C   UNL     1       3.791   2.422   1.416  1.00  0.00     0.037 C 
ATOM      8  O   UNL     1       5.932   1.368   1.534  1.00  0.00    -0.361 OA
ATOM      9  C   UNL     1       4.883   3.443   1.221  1.00  0.00     0.047 C 
BRANCH   6  10
ATOM     10  C   UNL     1       4.071  -0.141   1.264  1.00  0.00     0.149 C 
BRANCH  10  11
ATOM     11  N   UNL     1       2.627  -0.229   1.151  1.00  0.00    -0.335 N 
ATOM     12  O   UNL     1       0.663  -0.072   0.139  1.00  0.00    -0.248 OA
ATOM     13  C   UNL     1       1.860  -0.311   0.023  1.00  0.00     0.321 C 
ATOM     14  N   UNL     1       2.511  -0.681  -1.107  1.00  0.00    -0.276 N 
ATOM     15  H   UNL     1       2.133  -0.229   2.003  1.00  0.00     0.165 HD
ATOM     16  H   UNL     1       3.446  -0.975  -1.007  1.00  0.00     0.175 HD
BRANCH  14  17
ATOM     17  C   UNL     1       1.986  -0.684  -2.387  1.00  0.00     0.230 A 
ATOM     18  N   UNL     1       2.729  -1.359  -3.282  1.00  0.00    -0.221 NA
ATOM     19  N   UNL     1       0.855  -0.037  -2.687  1.00  0.00    -0.221 NA
ATOM     20  C   UNL     1       2.245  -1.430  -4.537  1.00  0.00     0.117 A 
ATOM     21  C   UNL     1       0.421  -0.123  -3.957  1.00  0.00     0.117 A 
ATOM     22  C   UNL     1       1.079  -0.825  -4.935  1.00  0.00     0.040 A 
ENDBRANCH  14  17
ENDBRANCH  10  11
ENDBRANCH   6  10
ENDBRANCH   3   5
ENDBRANCH   2   3
ENDBRANCH   1   2
BRANCH   1  23
ATOM     23  C   UNL     1       5.249   3.842  -3.563  1.00  0.00     0.275 C 
BRANCH  23  24
ATOM     24  O   UNL     1       6.556   4.395  -3.313  1.00  0.00    -0.458 OA
BRANCH  24  25
ATOM     25  C   UNL     1       6.624   5.240  -2.259  1.00  0.00     0.338 C 
ATOM     26  O   UNL     1       5.716   5.604  -1.533  1.00  0.00    -0.246 OA
BRANCH  25  27
ATOM     27  C   UNL     1       8.026   5.579  -1.986  1.00  0.00     0.060 A 
ATOM     28  C   UNL     1       8.615   5.030  -0.846  1.00  0.00     0.016 A 
ATOM     29  C   UNL     1       8.712   6.513  -2.761  1.00  0.00     0.016 A 
ATOM     30  C   UNL     1       9.885   5.430  -0.452  1.00  0.00     0.010 A 
ATOM     31  C   UNL     1      10.000   6.903  -2.375  1.00  0.00     0.010 A 
ATOM     32  C   UNL     1      10.584   6.377  -1.209  1.00  0.00    -0.014 A 
BRANCH  32  33
ATOM     33  C   UNL     1      11.904   6.850  -0.732  1.00  0.00     0.031 A 
ATOM     34  C   UNL     1      12.037   8.222  -0.142  1.00  0.00     0.074 A 
ATOM     35  C   UNL     1      12.966   6.026  -0.781  1.00  0.00     0.049 A 
ATOM     36  N   UNL     1      13.113   8.851   0.261  1.00  0.00    -0.248 NA
ATOM     37  C   UNL     1      10.794   8.991   0.021  1.00  0.00     0.031 C 
ATOM     38  C   UNL     1      12.942   4.647  -1.269  1.00  0.00     0.029 A 
ATOM     39  N   UNL     1      14.270   6.226  -0.405  1.00  0.00    -0.354 N 
ATOM     40  C   UNL     1      12.681  10.095   0.698  1.00  0.00     0.074 A 
ATOM     41  C   UNL     1      11.246  10.138   0.506  1.00  0.00     0.031 C 
ATOM     42  C   UNL     1      14.171   4.120  -1.150  1.00  0.00     0.029 A 
ATOM     43  C   UNL     1      15.077   5.139  -0.627  1.00  0.00     0.049 A 
ATOM     44  H   UNL     1      14.595   7.069  -0.013  1.00  0.00     0.167 HD
ATOM     45  C   UNL     1      13.418  11.107   1.213  1.00  0.00     0.037 A 
ATOM     46  C   UNL     1      16.403   4.992  -0.452  1.00  0.00     0.037 A 
ATOM     47  C   UNL     1      14.841  11.050   1.423  1.00  0.00     0.049 A 
ATOM     48  C   UNL     1      17.207   6.151   0.067  1.00  0.00     0.074 A 
ATOM     49  C   UNL     1      15.681  12.026   1.931  1.00  0.00     0.029 A 
ATOM     50  N   UNL     1      15.633   9.947   1.142  1.00  0.00    -0.354 N 
ATOM     51  N   UNL     1      16.799   7.341   0.436  1.00  0.00    -0.248 NA
ATOM     52  C   UNL     1      18.658   5.952   0.179  1.00  0.00     0.031 C 
ATOM     53  C   UNL     1      16.987  11.523   1.930  1.00  0.00     0.029 A 
ATOM     54  C   UNL     1      16.955  10.222   1.454  1.00  0.00     0.049 A 
ATOM     55  H   UNL     1      15.305   9.095   0.775  1.00  0.00     0.167 HD
ATOM     56  C   UNL     1      17.936   8.026   0.838  1.00  0.00     0.074 A 
ATOM     57  C   UNL     1      19.051   7.115   0.680  1.00  0.00     0.031 C 
ATOM     58  C   UNL     1      18.047   9.298   1.292  1.00  0.00     0.037 A 
BRANCH  45  59
ATOM     59  C   UNL     1      12.699  12.378   1.553  1.00  0.00     0.064 A 
ATOM     60  C   UNL     1      11.883  12.482   2.688  1.00  0.00     0.173 A 
ATOM     61  C   UNL     1      12.847  13.512   0.741  1.00  0.00     0.173 A 
ATOM     62  F   UNL     1      11.697  11.420   3.486  1.00  0.00    -0.203 F 
ATOM     63  C   UNL     1      11.223  13.672   2.987  1.00  0.00     0.198 A 
ATOM     64  C   UNL     1      12.203  14.706   1.054  1.00  0.00     0.198 A 
ATOM     65  F   UNL     1      13.617  13.462  -0.356  1.00  0.00    -0.203 F 
ATOM     66  F   UNL     1      10.416  13.739   4.055  1.00  0.00    -0.200 F 
ATOM     67  C   UNL     1      11.388  14.783   2.173  1.00  0.00     0.200 A 
ATOM     68  F   UNL     1      12.369  15.781   0.271  1.00  0.00    -0.200 F 
ATOM     69  F   UNL     1      10.753  15.928   2.463  1.00  0.00    -0.200 F 
ENDBRANCH  45  59
BRANCH  46  70
ATOM     70  C   UNL     1      17.053   3.703  -0.793  1.00  0.00     0.064 A 
ATOM     71  C   UNL     1      17.551   2.860   0.209  1.00  0.00     0.173 A 
ATOM     72  C   UNL     1      17.183   3.284  -2.126  1.00  0.00     0.173 A 
ATOM     73  F   UNL     1      17.473   3.231   1.495  1.00  0.00    -0.203 F 
ATOM     74  C   UNL     1      18.161   1.648  -0.110  1.00  0.00     0.198 A 
ATOM     75  C   UNL     1      17.771   2.062  -2.441  1.00  0.00     0.198 A 
ATOM     76  F   UNL     1      16.725   4.058  -3.121  1.00  0.00    -0.203 F 
ATOM     77  F   UNL     1      18.659   0.876   0.865  1.00  0.00    -0.200 F 
ATOM     78  C   UNL     1      18.264   1.247  -1.433  1.00  0.00     0.200 A 
ATOM     79  F   UNL     1      17.860   1.674  -3.721  1.00  0.00    -0.200 F 
ATOM     80  F   UNL     1      18.844   0.079  -1.738  1.00  0.00    -0.200 F 
ENDBRANCH  46  70
BRANCH  58  81
ATOM     81  C   UNL     1      19.419   9.766   1.672  1.00  0.00     0.064 A 
ATOM     82  C   UNL     1      20.369  10.108   0.700  1.00  0.00     0.173 A 
ATOM     83  C   UNL     1      19.774   9.903   3.022  1.00  0.00     0.173 A 
ATOM     84  F   UNL     1      20.079   9.976  -0.603  1.00  0.00    -0.203 F 
ATOM     85  C   UNL     1      21.636  10.553   1.066  1.00  0.00     0.198 A 
ATOM     86  C   UNL     1      21.035  10.369   3.384  1.00  0.00     0.198 A 
ATOM     87  F   UNL     1      18.897   9.591   3.987  1.00  0.00    -0.203 F 
ATOM     88  F   UNL     1      22.543  10.839   0.122  1.00  0.00    -0.200 F 
ATOM     89  C   UNL     1      21.966  10.688   2.407  1.00  0.00     0.200 A 
ATOM     90  F   UNL     1      21.350  10.505   4.680  1.00  0.00    -0.200 F 
ATOM     91  F   UNL     1      23.185  11.119   2.758  1.00  0.00    -0.200 F 
ENDBRANCH  58  81
ENDBRANCH  32  33
ENDBRANCH  25  27
ENDBRANCH  24  25
ENDBRANCH  23  24
ENDBRANCH   1  23
TORSDOF 14
