REMARK SMILES CC(C)[C@@H](CC(=O)OCCOC(=O)c1ccc(-c2c3nc(c(-c4c(F)c(F)c(F)c(F)c4F)c4ccc([nH]4)c(-c4c(F)c(F)c(F)c(F)c4F)c4nc(c(-c5c(F)c(F)c(F)c(F)c5F)c5ccc2[nH]5)C=C4)C=C3)cc1)NC(=O)OCc1ccccc1
REMARK SMILES IDX 8 1 6 2 7 3 5 4 4 5 2 6 1 7 3 8 77 9 78 10 79 12 80 13 81 14
REMARK SMILES IDX 82 15 83 16 87 17 84 18 86 19 85 20 9 21 10 22 11 23 12 24
REMARK SMILES IDX 13 25 14 26 15 27 76 28 16 29 75 30 17 31 18 32 19 33 69 34
REMARK SMILES IDX 20 35 74 36 68 37 70 38 21 39 73 40 67 41 66 42 22 44 54 45
REMARK SMILES IDX 34 46 53 47 35 48 38 49 52 50 71 51 36 52 37 53 51 55 72 56
REMARK SMILES IDX 39 57 23 58 24 59 32 60 25 61 26 62 30 63 33 64 27 65 28 66
REMARK SMILES IDX 31 67 29 68 55 69 56 70 64 71 57 72 58 73 62 74 65 75 59 76
REMARK SMILES IDX 60 77 63 78 61 79 40 80 41 81 49 82 42 83 43 84 47 85 50 86
REMARK SMILES IDX 44 87 45 88 48 89 46 90
REMARK H PARENT 77 11 70 43 38 54
REMARK Flexibility Score: inf
ROOT
ATOM      1  O   UNL     1       0.172  -1.971  -2.310  1.00  0.00    -0.462 OA
ENDROOT
BRANCH   1   2
ATOM      2  C   UNL     1      -0.866  -1.103  -2.356  1.00  0.00     0.308 C 
ATOM      3  O   UNL     1      -1.498  -0.834  -3.372  1.00  0.00    -0.252 OA
BRANCH   2   4
ATOM      4  C   UNL     1      -1.169  -0.428  -1.036  1.00  0.00     0.148 C 
BRANCH   4   5
ATOM      5  C   UNL     1      -0.713  -1.081   0.278  1.00  0.00     0.099 C 
BRANCH   5   6
ATOM      6  C   UNL     1       0.824  -1.179   0.486  1.00  0.00     0.006 C 
ATOM      7  C   UNL     1       1.536   0.145   0.201  1.00  0.00     0.009 C 
ATOM      8  C   UNL     1       1.160  -1.636   1.913  1.00  0.00     0.009 C 
ENDBRANCH   5   6
BRANCH   5   9
ATOM      9  N   UNL     1      -1.338  -2.386   0.486  1.00  0.00    -0.318 N 
ATOM     10  C   UNL     1      -2.120  -2.781   1.529  1.00  0.00     0.407 C 
ATOM     11  H   UNL     1      -1.173  -3.061  -0.212  1.00  0.00     0.167 HD
ATOM     12  O   UNL     1      -2.335  -3.972   1.746  1.00  0.00    -0.225 OA
BRANCH  10  13
ATOM     13  O   UNL     1      -2.589  -1.756   2.278  1.00  0.00    -0.445 OA
BRANCH  13  14
ATOM     14  C   UNL     1      -3.278  -2.146   3.474  1.00  0.00     0.270 C 
BRANCH  14  15
ATOM     15  C   UNL     1      -4.697  -2.596   3.220  1.00  0.00    -0.011 A 
ATOM     16  C   UNL     1      -5.702  -1.669   2.915  1.00  0.00     0.007 A 
ATOM     17  C   UNL     1      -5.026  -3.958   3.289  1.00  0.00     0.007 A 
ATOM     18  C   UNL     1      -7.012  -2.097   2.699  1.00  0.00     0.000 A 
ATOM     19  C   UNL     1      -6.335  -4.385   3.073  1.00  0.00     0.000 A 
ATOM     20  C   UNL     1      -7.327  -3.451   2.783  1.00  0.00     0.000 A 
ENDBRANCH  14  15
ENDBRANCH  13  14
ENDBRANCH  10  13
ENDBRANCH   5   9
ENDBRANCH   4   5
ENDBRANCH   2   4
ENDBRANCH   1   2
BRANCH   1  21
ATOM     21  C   UNL     1       0.533  -2.620  -3.547  1.00  0.00     0.274 C 
BRANCH  21  22
ATOM     22  C   UNL     1       0.041  -4.069  -3.588  1.00  0.00     0.275 C 
BRANCH  22  23
ATOM     23  O   UNL     1      -1.398  -4.135  -3.570  1.00  0.00    -0.458 OA
BRANCH  23  24
ATOM     24  C   UNL     1      -1.933  -4.309  -2.339  1.00  0.00     0.338 C 
ATOM     25  O   UNL     1      -1.323  -4.448  -1.292  1.00  0.00    -0.246 OA
BRANCH  24  26
ATOM     26  C   UNL     1      -3.394  -4.163  -2.404  1.00  0.00     0.060 A 
ATOM     27  C   UNL     1      -3.961  -2.951  -2.008  1.00  0.00     0.016 A 
ATOM     28  C   UNL     1      -4.204  -5.239  -2.761  1.00  0.00     0.016 A 
ATOM     29  C   UNL     1      -5.344  -2.806  -1.957  1.00  0.00     0.010 A 
ATOM     30  C   UNL     1      -5.595  -5.084  -2.738  1.00  0.00     0.010 A 
ATOM     31  C   UNL     1      -6.175  -3.870  -2.326  1.00  0.00    -0.014 A 
BRANCH  31  32
ATOM     32  C   UNL     1      -7.650  -3.713  -2.266  1.00  0.00     0.031 A 
ATOM     33  C   UNL     1      -8.450  -4.473  -1.248  1.00  0.00     0.074 A 
ATOM     34  C   UNL     1      -8.269  -2.891  -3.135  1.00  0.00     0.049 A 
ATOM     35  N   UNL     1      -9.749  -4.527  -1.087  1.00  0.00    -0.248 NA
ATOM     36  C   UNL     1      -7.692  -5.284  -0.284  1.00  0.00     0.031 C 
ATOM     37  C   UNL     1      -7.601  -2.083  -4.155  1.00  0.00     0.029 A 
ATOM     38  N   UNL     1      -9.602  -2.615  -3.311  1.00  0.00    -0.354 N 
ATOM     39  C   UNL     1      -9.961  -5.372  -0.005  1.00  0.00     0.074 A 
ATOM     40  C   UNL     1      -8.663  -5.845   0.423  1.00  0.00     0.031 C 
ATOM     41  C   UNL     1      -8.526  -1.413  -4.860  1.00  0.00     0.029 A 
ATOM     42  C   UNL     1      -9.853  -1.782  -4.374  1.00  0.00     0.049 A 
ATOM     43  H   UNL     1     -10.310  -2.978  -2.731  1.00  0.00     0.167 HD
ATOM     44  C   UNL     1     -11.132  -5.705   0.588  1.00  0.00     0.037 A 
ATOM     45  C   UNL     1     -11.020  -1.392  -4.920  1.00  0.00     0.037 A 
ATOM     46  C   UNL     1     -12.424  -5.249   0.150  1.00  0.00     0.049 A 
ATOM     47  C   UNL     1     -12.311  -1.869  -4.312  1.00  0.00     0.074 A 
ATOM     48  C   UNL     1     -13.666  -5.527   0.691  1.00  0.00     0.029 A 
ATOM     49  N   UNL     1     -12.638  -4.430  -0.949  1.00  0.00    -0.354 N 
ATOM     50  N   UNL     1     -12.500  -2.631  -3.262  1.00  0.00    -0.248 NA
ATOM     51  C   UNL     1     -13.552  -1.432  -4.966  1.00  0.00     0.031 C 
ATOM     52  C   UNL     1     -14.637  -4.919  -0.112  1.00  0.00     0.029 A 
ATOM     53  C   UNL     1     -13.996  -4.222  -1.124  1.00  0.00     0.049 A 
ATOM     54  H   UNL     1     -11.930  -4.053  -1.519  1.00  0.00     0.167 HD
ATOM     55  C   UNL     1     -13.875  -2.744  -3.113  1.00  0.00     0.074 A 
ATOM     56  C   UNL     1     -14.475  -1.961  -4.174  1.00  0.00     0.031 C 
ATOM     57  C   UNL     1     -14.578  -3.433  -2.181  1.00  0.00     0.037 A 
BRANCH  44  58
ATOM     58  C   UNL     1     -11.069  -6.622   1.771  1.00  0.00     0.064 A 
ATOM     59  C   UNL     1     -10.666  -6.160   3.032  1.00  0.00     0.173 A 
ATOM     60  C   UNL     1     -11.447  -7.967   1.655  1.00  0.00     0.173 A 
ATOM     61  F   UNL     1     -10.320  -4.876   3.200  1.00  0.00    -0.203 F 
ATOM     62  C   UNL     1     -10.602  -7.020   4.125  1.00  0.00     0.198 A 
ATOM     63  C   UNL     1     -11.410  -8.818   2.756  1.00  0.00     0.198 A 
ATOM     64  F   UNL     1     -11.859  -8.453   0.474  1.00  0.00    -0.203 F 
ATOM     65  F   UNL     1     -10.171  -6.565   5.310  1.00  0.00    -0.200 F 
ATOM     66  C   UNL     1     -10.978  -8.347   3.987  1.00  0.00     0.200 A 
ATOM     67  F   UNL     1     -11.791 -10.097   2.626  1.00  0.00    -0.200 F 
ATOM     68  F   UNL     1     -10.922  -9.174   5.041  1.00  0.00    -0.200 F 
ENDBRANCH  44  58
BRANCH  45  69
ATOM     69  C   UNL     1     -11.018  -0.528  -6.130  1.00  0.00     0.064 A 
ATOM     70  C   UNL     1     -11.476   0.795  -6.078  1.00  0.00     0.173 A 
ATOM     71  C   UNL     1     -10.563  -1.013  -7.366  1.00  0.00     0.173 A 
ATOM     72  F   UNL     1     -11.946   1.296  -4.926  1.00  0.00    -0.203 F 
ATOM     73  C   UNL     1     -11.493   1.595  -7.218  1.00  0.00     0.198 A 
ATOM     74  C   UNL     1     -10.551  -0.202  -8.498  1.00  0.00     0.198 A 
ATOM     75  F   UNL     1     -10.117  -2.273  -7.470  1.00  0.00    -0.203 F 
ATOM     76  F   UNL     1     -11.978   2.842  -7.151  1.00  0.00    -0.200 F 
ATOM     77  C   UNL     1     -11.024   1.099  -8.426  1.00  0.00     0.200 A 
ATOM     78  F   UNL     1     -10.087  -0.683  -9.659  1.00  0.00    -0.200 F 
ATOM     79  F   UNL     1     -11.036   1.871  -9.521  1.00  0.00    -0.200 F 
ENDBRANCH  45  69
BRANCH  57  80
ATOM     80  C   UNL     1     -16.074  -3.345  -2.244  1.00  0.00     0.064 A 
ATOM     81  C   UNL     1     -16.808  -3.991  -3.249  1.00  0.00     0.173 A 
ATOM     82  C   UNL     1     -16.785  -2.640  -1.260  1.00  0.00     0.173 A 
ATOM     83  F   UNL     1     -16.174  -4.665  -4.221  1.00  0.00    -0.203 F 
ATOM     84  C   UNL     1     -18.198  -3.914  -3.281  1.00  0.00     0.198 A 
ATOM     85  C   UNL     1     -18.175  -2.591  -1.278  1.00  0.00     0.198 A 
ATOM     86  F   UNL     1     -16.130  -2.010  -0.274  1.00  0.00    -0.203 F 
ATOM     87  F   UNL     1     -18.877  -4.501  -4.277  1.00  0.00    -0.200 F 
ATOM     88  C   UNL     1     -18.880  -3.222  -2.292  1.00  0.00     0.200 A 
ATOM     89  F   UNL     1     -18.834  -1.933  -0.314  1.00  0.00    -0.200 F 
ATOM     90  F   UNL     1     -20.219  -3.157  -2.319  1.00  0.00    -0.200 F 
ENDBRANCH  57  80
ENDBRANCH  31  32
ENDBRANCH  24  26
ENDBRANCH  23  24
ENDBRANCH  22  23
ENDBRANCH  21  22
ENDBRANCH   1  21
TORSDOF 17
