REMARK SMILES CCN(C(=O)N[C@@H]1CCOC1)[C@H]1COC[C@H]1C(=O)OCCOC(=O)c1ccc(-c2c3nc(c(-c4c(F)c(F)c(F)c(F)c4F)c4ccc([nH]4)c(-c4c(F)c(F)c(F)c(F)c4F)c4nc(c(-c5c(F)c(F)c(F)c(F)c5F)c5ccc2[nH]5)C=C4)C=C3)cc1
REMARK SMILES IDX 20 1 19 2 17 3 18 4 16 5 12 6 13 7 14 8 15 9 3 10 2 11 1 12
REMARK SMILES IDX 4 13 5 14 6 15 7 17 8 18 11 19 9 20 10 21 21 22 22 23 23 24
REMARK SMILES IDX 24 25 25 26 26 27 87 28 27 29 86 30 28 31 29 32 30 33 80 34
REMARK SMILES IDX 31 35 85 36 79 37 81 38 32 39 84 40 78 41 77 42 33 44 65 45
REMARK SMILES IDX 45 46 64 47 46 48 49 49 63 50 82 51 47 52 48 53 62 55 83 56
REMARK SMILES IDX 50 57 34 58 35 59 43 60 36 61 37 62 41 63 44 64 38 65 39 66
REMARK SMILES IDX 42 67 40 68 66 69 67 70 75 71 68 72 69 73 73 74 76 75 70 76
REMARK SMILES IDX 71 77 74 78 72 79 51 80 52 81 60 82 53 83 54 84 58 85 61 86
REMARK SMILES IDX 55 87 56 88 59 89 57 90
REMARK H PARENT 6 16 81 43 49 54
REMARK Flexibility Score: inf
ROOT
ATOM      1  C   UNL     1       4.729   1.256  -0.715  1.00  0.00     0.274 C 
ENDROOT
BRANCH   1   2
ATOM      2  O   UNL     1       4.538  -0.161  -0.512  1.00  0.00    -0.462 OA
BRANCH   2   3
ATOM      3  C   UNL     1       4.297  -0.532   0.760  1.00  0.00     0.313 C 
ATOM      4  O   UNL     1       4.549   0.173   1.737  1.00  0.00    -0.252 OA
BRANCH   3   5
ATOM      5  C   UNL     1       3.693  -1.896   0.948  1.00  0.00     0.150 C 
ATOM      6  C   UNL     1       2.671  -2.633   0.070  1.00  0.00     0.129 C 
ATOM      7  C   UNL     1       2.582  -3.881   0.970  1.00  0.00     0.186 C 
ATOM      8  O   UNL     1       3.940  -4.194   1.354  1.00  0.00    -0.378 OA
ATOM      9  C   UNL     1       4.705  -2.973   1.248  1.00  0.00     0.177 C 
BRANCH   6  10
ATOM     10  N   UNL     1       3.073  -2.941  -1.331  1.00  0.00    -0.319 N 
BRANCH  10  11
ATOM     11  C   UNL     1       2.580  -4.171  -1.963  1.00  0.00     0.118 C 
ATOM     12  C   UNL     1       3.425  -5.409  -1.701  1.00  0.00     0.027 C 
ENDBRANCH  10  11
BRANCH  10  13
ATOM     13  C   UNL     1       3.177  -1.866  -2.202  1.00  0.00     0.318 C 
ATOM     14  O   UNL     1       2.474  -0.867  -2.115  1.00  0.00    -0.249 OA
ATOM     15  N   UNL     1       4.326  -1.866  -2.946  1.00  0.00    -0.333 N 
ATOM     16  H   UNL     1       5.146  -1.509  -2.535  1.00  0.00     0.165 HD
BRANCH  15  17
ATOM     17  C   UNL     1       4.404  -2.367  -4.319  1.00  0.00     0.112 C 
ATOM     18  C   UNL     1       5.135  -3.690  -4.389  1.00  0.00     0.056 C 
ATOM     19  C   UNL     1       5.335  -1.509  -5.181  1.00  0.00     0.185 C 
ATOM     20  C   UNL     1       6.587  -3.268  -4.317  1.00  0.00     0.162 C 
ATOM     21  O   UNL     1       6.674  -1.987  -4.957  1.00  0.00    -0.379 OA
ENDBRANCH  15  17
ENDBRANCH  10  13
ENDBRANCH   6  10
ENDBRANCH   3   5
ENDBRANCH   2   3
ENDBRANCH   1   2
BRANCH   1  22
ATOM     22  C   UNL     1       3.383   1.942  -0.964  1.00  0.00     0.275 C 
BRANCH  22  23
ATOM     23  O   UNL     1       2.517   1.721   0.162  1.00  0.00    -0.458 OA
BRANCH  23  24
ATOM     24  C   UNL     1       1.194   1.793  -0.107  1.00  0.00     0.338 C 
ATOM     25  O   UNL     1       0.666   2.068  -1.170  1.00  0.00    -0.246 OA
BRANCH  24  26
ATOM     26  C   UNL     1       0.438   1.618   1.151  1.00  0.00     0.060 A 
ATOM     27  C   UNL     1       0.742   0.609   2.071  1.00  0.00     0.016 A 
ATOM     28  C   UNL     1      -0.618   2.496   1.399  1.00  0.00     0.016 A 
ATOM     29  C   UNL     1      -0.025   0.464   3.231  1.00  0.00     0.010 A 
ATOM     30  C   UNL     1      -1.351   2.383   2.579  1.00  0.00     0.010 A 
ATOM     31  C   UNL     1      -1.072   1.358   3.498  1.00  0.00    -0.014 A 
BRANCH  31  32
ATOM     32  C   UNL     1      -1.910   1.239   4.718  1.00  0.00     0.031 A 
ATOM     33  C   UNL     1      -3.363   0.879   4.586  1.00  0.00     0.074 A 
ATOM     34  C   UNL     1      -1.392   1.531   5.925  1.00  0.00     0.049 A 
ATOM     35  N   UNL     1      -4.315   0.917   5.484  1.00  0.00    -0.248 NA
ATOM     36  C   UNL     1      -3.807   0.429   3.257  1.00  0.00     0.031 C 
ATOM     37  C   UNL     1       0.005   1.882   6.182  1.00  0.00     0.029 A 
ATOM     38  N   UNL     1      -1.988   1.606   7.159  1.00  0.00    -0.354 N 
ATOM     39  C   UNL     1      -5.473   0.532   4.822  1.00  0.00     0.074 A 
ATOM     40  C   UNL     1      -5.110   0.274   3.445  1.00  0.00     0.031 C 
ATOM     41  C   UNL     1       0.157   2.144   7.490  1.00  0.00     0.029 A 
ATOM     42  C   UNL     1      -1.140   2.032   8.151  1.00  0.00     0.049 A 
ATOM     43  H   UNL     1      -2.933   1.377   7.317  1.00  0.00     0.167 HD
ATOM     44  C   UNL     1      -6.726   0.407   5.322  1.00  0.00     0.037 A 
ATOM     45  C   UNL     1      -1.389   2.336   9.440  1.00  0.00     0.037 A 
ATOM     46  C   UNL     1      -7.076   0.646   6.698  1.00  0.00     0.049 A 
ATOM     47  C   UNL     1      -2.793   2.211   9.965  1.00  0.00     0.074 A 
ATOM     48  C   UNL     1      -8.310   0.521   7.311  1.00  0.00     0.029 A 
ATOM     49  N   UNL     1      -6.183   1.058   7.676  1.00  0.00    -0.354 N 
ATOM     50  N   UNL     1      -3.882   1.845   9.335  1.00  0.00    -0.248 NA
ATOM     51  C   UNL     1      -3.003   2.549  11.380  1.00  0.00     0.031 C 
ATOM     52  C   UNL     1      -8.171   0.891   8.654  1.00  0.00     0.029 A 
ATOM     53  C   UNL     1      -6.842   1.206   8.886  1.00  0.00     0.049 A 
ATOM     54  H   UNL     1      -5.223   1.222   7.532  1.00  0.00     0.167 HD
ATOM     55  C   UNL     1      -4.901   1.889  10.275  1.00  0.00     0.074 A 
ATOM     56  C   UNL     1      -4.298   2.304  11.525  1.00  0.00     0.031 C 
ATOM     57  C   UNL     1      -6.219   1.615  10.119  1.00  0.00     0.037 A 
BRANCH  44  58
ATOM     58  C   UNL     1      -7.818   0.015   4.371  1.00  0.00     0.064 A 
ATOM     59  C   UNL     1      -7.924  -1.290   3.866  1.00  0.00     0.173 A 
ATOM     60  C   UNL     1      -8.795   0.947   3.988  1.00  0.00     0.173 A 
ATOM     61  F   UNL     1      -7.008  -2.215   4.191  1.00  0.00    -0.203 F 
ATOM     62  C   UNL     1      -8.954  -1.640   2.997  1.00  0.00     0.198 A 
ATOM     63  C   UNL     1      -9.838   0.587   3.139  1.00  0.00     0.198 A 
ATOM     64  F   UNL     1      -8.742   2.207   4.446  1.00  0.00    -0.203 F 
ATOM     65  F   UNL     1      -9.013  -2.882   2.496  1.00  0.00    -0.200 F 
ATOM     66  C   UNL     1      -9.913  -0.704   2.640  1.00  0.00     0.200 A 
ATOM     67  F   UNL     1     -10.769   1.490   2.803  1.00  0.00    -0.200 F 
ATOM     68  F   UNL     1     -10.908  -1.045   1.808  1.00  0.00    -0.200 F 
ENDBRANCH  44  58
BRANCH  45  69
ATOM     69  C   UNL     1      -0.283   2.802  10.316  1.00  0.00     0.064 A 
ATOM     70  C   UNL     1       0.209   1.990  11.346  1.00  0.00     0.173 A 
ATOM     71  C   UNL     1       0.308   4.062  10.137  1.00  0.00     0.173 A 
ATOM     72  F   UNL     1      -0.342   0.789  11.573  1.00  0.00    -0.203 F 
ATOM     73  C   UNL     1       1.245   2.424  12.171  1.00  0.00     0.198 A 
ATOM     74  C   UNL     1       1.362   4.484  10.945  1.00  0.00     0.198 A 
ATOM     75  F   UNL     1      -0.128   4.877   9.165  1.00  0.00    -0.203 F 
ATOM     76  F   UNL     1       1.671   1.644  13.174  1.00  0.00    -0.200 F 
ATOM     77  C   UNL     1       1.825   3.667  11.965  1.00  0.00     0.200 A 
ATOM     78  F   UNL     1       1.927   5.680  10.736  1.00  0.00    -0.200 F 
ATOM     79  F   UNL     1       2.827   4.080  12.754  1.00  0.00    -0.200 F 
ENDBRANCH  45  69
BRANCH  57  80
ATOM     80  C   UNL     1      -7.088   1.723  11.336  1.00  0.00     0.064 A 
ATOM     81  C   UNL     1      -7.464   2.968  11.860  1.00  0.00     0.173 A 
ATOM     82  C   UNL     1      -7.578   0.567  11.962  1.00  0.00     0.173 A 
ATOM     83  F   UNL     1      -7.007   4.100  11.304  1.00  0.00    -0.203 F 
ATOM     84  C   UNL     1      -8.282   3.052  12.983  1.00  0.00     0.198 A 
ATOM     85  C   UNL     1      -8.416   0.655  13.070  1.00  0.00     0.198 A 
ATOM     86  F   UNL     1      -7.251  -0.646  11.494  1.00  0.00    -0.203 F 
ATOM     87  F   UNL     1      -8.595   4.251  13.494  1.00  0.00    -0.200 F 
ATOM     88  C   UNL     1      -8.761   1.897  13.583  1.00  0.00     0.200 A 
ATOM     89  F   UNL     1      -8.886  -0.461  13.643  1.00  0.00    -0.200 F 
ATOM     90  F   UNL     1      -9.552   1.980  14.662  1.00  0.00    -0.200 F 
ENDBRANCH  57  80
ENDBRANCH  31  32
ENDBRANCH  24  26
ENDBRANCH  23  24
ENDBRANCH  22  23
ENDBRANCH   1  22
TORSDOF 15
