REMARK SMILES O=C(OCCOC(=O)[C@@H]1CSCN1C(=O)c1cccc(Cl)c1)c1ccc(-c2c3nc(c(-c4c(F)c(F)c(F)c(F)c4F)c4ccc([nH]4)c(-c4c(F)c(F)c(F)c(F)c4F)c4nc(c(-c5c(F)c(F)c(F)c(F)c5F)c5ccc2[nH]5)C=C4)C=C3)cc1
REMARK SMILES IDX 4 1 3 2 2 3 1 4 23 5 24 6 85 7 25 8 84 9 26 10 27 11 28 12
REMARK SMILES IDX 78 13 29 14 83 15 77 16 79 17 30 18 82 19 76 20 75 21 31 23
REMARK SMILES IDX 63 24 43 25 62 26 44 27 47 28 61 29 80 30 45 31 46 32 60 34
REMARK SMILES IDX 81 35 48 36 32 37 33 38 41 39 34 40 35 41 39 42 42 43 36 44
REMARK SMILES IDX 37 45 40 46 38 47 64 48 65 49 73 50 66 51 67 52 71 53 74 54
REMARK SMILES IDX 68 55 69 56 72 57 70 58 49 59 50 60 58 61 51 62 52 63 56 64
REMARK SMILES IDX 59 65 53 66 54 67 57 68 55 69 5 70 6 71 7 72 8 73 9 74 10 75
REMARK SMILES IDX 13 76 11 77 12 78 14 79 15 80 16 81 17 82 22 83 18 84 20 85
REMARK SMILES IDX 19 86 21 87
REMARK H PARENT 79 22 47 33
REMARK Flexibility Score: inf
ROOT
ATOM      1  C   UNL     1       3.751   1.860  -3.944  1.00  0.00     0.275 C 
ENDROOT
BRANCH   1   2
ATOM      2  O   UNL     1       4.521   1.166  -2.932  1.00  0.00    -0.458 OA
BRANCH   2   3
ATOM      3  C   UNL     1       4.284   0.879  -1.627  1.00  0.00     0.338 C 
ATOM      4  O   UNL     1       5.244   0.709  -0.879  1.00  0.00    -0.246 OA
BRANCH   3   5
ATOM      5  C   UNL     1       2.935   0.537  -1.075  1.00  0.00     0.060 A 
ATOM      6  C   UNL     1       1.749   1.181  -1.382  1.00  0.00     0.016 A 
ATOM      7  C   UNL     1       2.868  -0.509  -0.124  1.00  0.00     0.016 A 
ATOM      8  C   UNL     1       0.524   0.672  -0.906  1.00  0.00     0.010 A 
ATOM      9  C   UNL     1       1.640  -1.012   0.363  1.00  0.00     0.010 A 
ATOM     10  C   UNL     1       0.438  -0.476  -0.092  1.00  0.00    -0.014 A 
BRANCH  10  11
ATOM     11  C   UNL     1      -0.933  -0.974   0.278  1.00  0.00     0.031 A 
ATOM     12  C   UNL     1      -1.855   0.030   0.912  1.00  0.00     0.074 A 
ATOM     13  C   UNL     1      -1.441  -2.164  -0.123  1.00  0.00     0.049 A 
ATOM     14  N   UNL     1      -3.160   0.101   0.896  1.00  0.00    -0.248 NA
ATOM     15  C   UNL     1      -1.188   1.154   1.591  1.00  0.00     0.031 C 
ATOM     16  C   UNL     1      -0.700  -3.211  -0.825  1.00  0.00     0.029 A 
ATOM     17  N   UNL     1      -2.752  -2.634  -0.133  1.00  0.00    -0.354 N 
ATOM     18  C   UNL     1      -3.465   1.306   1.514  1.00  0.00     0.074 A 
ATOM     19  C   UNL     1      -2.213   1.944   1.861  1.00  0.00     0.031 C 
ATOM     20  C   UNL     1      -1.570  -4.118  -1.316  1.00  0.00     0.029 A 
ATOM     21  C   UNL     1      -2.942  -3.728  -0.967  1.00  0.00     0.049 A 
ATOM     22  H   UNL     1      -3.475  -2.229   0.400  1.00  0.00     0.167 HD
ATOM     23  C   UNL     1      -4.676   1.829   1.808  1.00  0.00     0.037 A 
ATOM     24  C   UNL     1      -4.079  -4.263  -1.483  1.00  0.00     0.037 A 
ATOM     25  C   UNL     1      -5.925   1.162   1.593  1.00  0.00     0.049 A 
ATOM     26  C   UNL     1      -5.423  -3.714  -1.030  1.00  0.00     0.074 A 
ATOM     27  C   UNL     1      -7.190   1.549   1.994  1.00  0.00     0.029 A 
ATOM     28  N   UNL     1      -6.057  -0.059   0.955  1.00  0.00    -0.354 N 
ATOM     29  N   UNL     1      -5.710  -2.576  -0.447  1.00  0.00    -0.248 NA
ATOM     30  C   UNL     1      -6.604  -4.559  -1.292  1.00  0.00     0.031 C 
ATOM     31  C   UNL     1      -8.084   0.530   1.649  1.00  0.00     0.029 A 
ATOM     32  C   UNL     1      -7.382  -0.459   0.978  1.00  0.00     0.049 A 
ATOM     33  H   UNL     1      -5.319  -0.567   0.547  1.00  0.00     0.167 HD
ATOM     34  C   UNL     1      -7.091  -2.582  -0.253  1.00  0.00     0.074 A 
ATOM     35  C   UNL     1      -7.596  -3.794  -0.858  1.00  0.00     0.031 C 
ATOM     36  C   UNL     1      -7.870  -1.684   0.400  1.00  0.00     0.037 A 
BRANCH  23  37
ATOM     37  C   UNL     1      -4.670   3.140   2.525  1.00  0.00     0.064 A 
ATOM     38  C   UNL     1      -4.451   4.348   1.849  1.00  0.00     0.173 A 
ATOM     39  C   UNL     1      -4.816   3.171   3.918  1.00  0.00     0.173 A 
ATOM     40  F   UNL     1      -4.269   4.356   0.520  1.00  0.00    -0.203 F 
ATOM     41  C   UNL     1      -4.354   5.544   2.553  1.00  0.00     0.198 A 
ATOM     42  C   UNL     1      -4.735   4.370   4.616  1.00  0.00     0.198 A 
ATOM     43  F   UNL     1      -5.008   2.032   4.602  1.00  0.00    -0.203 F 
ATOM     44  F   UNL     1      -4.090   6.685   1.900  1.00  0.00    -0.200 F 
ATOM     45  C   UNL     1      -4.496   5.554   3.934  1.00  0.00     0.200 A 
ATOM     46  F   UNL     1      -4.863   4.376   5.949  1.00  0.00    -0.200 F 
ATOM     47  F   UNL     1      -4.383   6.704   4.612  1.00  0.00    -0.200 F 
ENDBRANCH  23  37
BRANCH  24  48
ATOM     48  C   UNL     1      -4.077  -5.343  -2.537  1.00  0.00     0.064 A 
ATOM     49  C   UNL     1      -4.812  -5.187  -3.732  1.00  0.00     0.173 A 
ATOM     50  C   UNL     1      -3.454  -6.585  -2.349  1.00  0.00     0.173 A 
ATOM     51  F   UNL     1      -5.458  -4.037  -3.978  1.00  0.00    -0.203 F 
ATOM     52  C   UNL     1      -4.955  -6.229  -4.654  1.00  0.00     0.198 A 
ATOM     53  C   UNL     1      -3.552  -7.608  -3.297  1.00  0.00     0.198 A 
ATOM     54  F   UNL     1      -2.763  -6.827  -1.226  1.00  0.00    -0.203 F 
ATOM     55  F   UNL     1      -5.739  -6.070  -5.730  1.00  0.00    -0.200 F 
ATOM     56  C   UNL     1      -4.317  -7.437  -4.439  1.00  0.00     0.200 A 
ATOM     57  F   UNL     1      -2.923  -8.773  -3.088  1.00  0.00    -0.200 F 
ATOM     58  F   UNL     1      -4.456  -8.440  -5.318  1.00  0.00    -0.200 F 
ENDBRANCH  24  48
BRANCH  36  59
ATOM     59  C   UNL     1      -9.332  -1.998   0.573  1.00  0.00     0.064 A 
ATOM     60  C   UNL     1      -9.754  -3.031   1.425  1.00  0.00     0.173 A 
ATOM     61  C   UNL     1     -10.321  -1.198  -0.022  1.00  0.00     0.173 A 
ATOM     62  F   UNL     1      -8.852  -3.829   2.015  1.00  0.00    -0.203 F 
ATOM     63  C   UNL     1     -11.107  -3.258   1.666  1.00  0.00     0.198 A 
ATOM     64  C   UNL     1     -11.672  -1.408   0.247  1.00  0.00     0.198 A 
ATOM     65  F   UNL     1      -9.976  -0.189  -0.836  1.00  0.00    -0.203 F 
ATOM     66  F   UNL     1     -11.483  -4.269   2.461  1.00  0.00    -0.200 F 
ATOM     67  C   UNL     1     -12.064  -2.439   1.087  1.00  0.00     0.200 A 
ATOM     68  F   UNL     1     -12.595  -0.602  -0.296  1.00  0.00    -0.200 F 
ATOM     69  F   UNL     1     -13.364  -2.642   1.342  1.00  0.00    -0.200 F 
ENDBRANCH  36  59
ENDBRANCH  10  11
ENDBRANCH   3   5
ENDBRANCH   2   3
ENDBRANCH   1   2
BRANCH   1  70
ATOM     70  C   UNL     1       3.514   0.997  -5.190  1.00  0.00     0.274 C 
BRANCH  70  71
ATOM     71  O   UNL     1       2.647  -0.115  -4.915  1.00  0.00    -0.461 OA
BRANCH  71  72
ATOM     72  C   UNL     1       3.241  -1.272  -4.525  1.00  0.00     0.329 C 
ATOM     73  O   UNL     1       4.465  -1.450  -4.554  1.00  0.00    -0.250 OA
BRANCH  72  74
ATOM     74  C   UNL     1       2.265  -2.255  -3.845  1.00  0.00     0.206 C 
ATOM     75  C   UNL     1       2.864  -3.658  -3.828  1.00  0.00     0.108 C 
ATOM     76  N   UNL     1       0.856  -2.281  -4.310  1.00  0.00    -0.315 N 
ATOM     77  S   UNL     1       1.483  -4.802  -4.079  1.00  0.00    -0.138 SA
ATOM     78  C   UNL     1       0.397  -3.554  -4.807  1.00  0.00     0.191 C 
BRANCH  76  79
ATOM     79  C   UNL     1       0.074  -1.201  -3.992  1.00  0.00     0.255 C 
ATOM     80  O   UNL     1       0.563  -0.244  -3.363  1.00  0.00    -0.269 OA
BRANCH  79  81
ATOM     81  C   UNL     1      -1.329  -0.961  -4.343  1.00  0.00     0.041 A 
ATOM     82  C   UNL     1      -2.317  -1.329  -3.430  1.00  0.00     0.014 A 
ATOM     83  C   UNL     1      -1.564   0.143  -5.165  1.00  0.00     0.034 A 
ATOM     84  C   UNL     1      -3.505  -0.605  -3.294  1.00  0.00     0.002 A 
ATOM     85  C   UNL     1      -2.755   0.864  -5.043  1.00  0.00     0.041 A 
ATOM     86  C   UNL     1      -3.720   0.504  -4.102  1.00  0.00     0.020 A 
ATOM     87  Cl  UNL     1      -2.976   2.289  -5.979  1.00  0.00    -0.084 Cl
ENDBRANCH  79  81
ENDBRANCH  76  79
ENDBRANCH  72  74
ENDBRANCH  71  72
ENDBRANCH  70  71
ENDBRANCH   1  70
TORSDOF 13
