REMARK SMILES Cc1cc(C)cc(Oc2nc3ccccn3c(=O)c2/C=C2\SC(=S)N(CCC(=O)OCCOC(=O)c3ccc(-c4c5nc(c(-c6c(F)c(F)c(F)c(F)c6F)c6ccc([nH]6)c(-c6c(F)c(F)c(F)c(F)c6F)c6nc(c(-c7c(F)c(F)c(F)c(F)c7F)c7ccc4[nH]7)C=C6)C=C5)cc3)C2=O)c1
REMARK SMILES IDX 30 1 28 2 29 3 27 4 26 5 25 6 20 7 21 8 22 9 99 10 23 11
REMARK SMILES IDX 100 12 24 13 19 14 9 15 10 16 11 17 17 18 12 19 16 20 18 21
REMARK SMILES IDX 13 22 15 23 14 24 8 25 7 26 1 27 2 28 3 29 101 30 4 31 5 32
REMARK SMILES IDX 6 33 31 34 32 35 33 36 34 37 35 38 36 39 37 40 98 41 38 42
REMARK SMILES IDX 97 43 39 44 40 45 41 46 91 47 42 48 96 49 90 50 92 51 43 52
REMARK SMILES IDX 95 53 89 54 88 55 44 57 76 58 56 59 75 60 57 61 60 62 74 63
REMARK SMILES IDX 93 64 58 65 59 66 73 68 94 69 61 70 45 71 46 72 54 73 47 74
REMARK SMILES IDX 48 75 52 76 55 77 49 78 50 79 53 80 51 81 77 82 78 83 86 84
REMARK SMILES IDX 79 85 80 86 84 87 87 88 81 89 82 90 85 91 83 92 62 93 63 94
REMARK SMILES IDX 71 95 64 96 65 97 69 98 72 99 66 100 67 101 70 102 68 103
REMARK H PARENT 92 56 60 67
REMARK Flexibility Score: inf
ROOT
ATOM      1  O   UNL     1       0.622   0.412   3.669  1.00  0.00    -0.462 OA
ENDROOT
BRANCH   1   2
ATOM      2  C   UNL     1       0.872   1.703   3.987  1.00  0.00     0.307 C 
ATOM      3  O   UNL     1       0.059   2.487   4.460  1.00  0.00    -0.252 OA
BRANCH   2   4
ATOM      4  C   UNL     1       2.287   2.103   3.643  1.00  0.00     0.144 C 
BRANCH   4   5
ATOM      5  C   UNL     1       3.360   1.198   4.256  1.00  0.00     0.139 C 
BRANCH   5   6
ATOM      6  N   UNL     1       3.678   0.064   3.388  1.00  0.00    -0.292 N 
ATOM      7  C   UNL     1       2.314  -2.986   2.171  1.00  0.00     0.041 C 
ATOM      8  C   UNL     1       3.190  -2.004   2.422  1.00  0.00     0.081 C 
ATOM      9  S   UNL     1       4.492  -1.435   1.458  1.00  0.00    -0.054 SA
ATOM     10  C   UNL     1       3.031  -1.137   3.600  1.00  0.00     0.266 C 
ATOM     11  C   UNL     1       4.563   0.093   2.330  1.00  0.00     0.148 C 
ATOM     12  O   UNL     1       2.399  -1.471   4.587  1.00  0.00    -0.268 OA
ATOM     13  S   UNL     1       5.554   1.347   1.852  1.00  0.00    -0.052 S 
BRANCH   7  14
ATOM     14  C   UNL     1       2.381  -3.854   1.015  1.00  0.00     0.104 A 
ATOM     15  C   UNL     1       1.497  -3.862  -0.003  1.00  0.00     0.234 A 
ATOM     16  N   UNL     1       1.621  -4.678  -1.100  1.00  0.00    -0.194 NA
ATOM     17  C   UNL     1       2.659  -5.449  -1.182  1.00  0.00     0.143 A 
ATOM     18  C   UNL     1       3.525  -4.807   0.950  1.00  0.00     0.269 A 
ATOM     19  C   UNL     1       2.829  -6.309  -2.388  1.00  0.00     0.048 A 
ATOM     20  N   UNL     1       3.644  -5.540  -0.213  1.00  0.00    -0.267 N 
ATOM     21  O   UNL     1       4.286  -4.919   1.915  1.00  0.00    -0.268 OA
ATOM     22  C   UNL     1       3.904  -7.099  -2.500  1.00  0.00     0.005 A 
ATOM     23  C   UNL     1       4.738  -6.382  -0.367  1.00  0.00     0.096 A 
ATOM     24  C   UNL     1       4.896  -7.137  -1.459  1.00  0.00     0.019 A 
BRANCH  15  25
ATOM     25  O   UNL     1       0.305  -3.137   0.053  1.00  0.00    -0.438 OA
BRANCH  25  26
ATOM     26  C   UNL     1       0.271  -1.768  -0.095  1.00  0.00     0.130 A 
ATOM     27  C   UNL     1       2.392   1.329  -0.730  1.00  0.00     0.044 C 
ATOM     28  C   UNL     1       1.216   0.438  -0.460  1.00  0.00    -0.047 A 
ATOM     29  C   UNL     1      -0.041   1.010  -0.220  1.00  0.00     0.007 A 
ATOM     30  C   UNL     1       1.355  -0.958  -0.430  1.00  0.00     0.050 A 
ATOM     31  C   UNL     1      -1.155   0.206   0.035  1.00  0.00    -0.047 A 
ATOM     32  C   UNL     1      -2.503   0.838   0.224  1.00  0.00     0.044 C 
ATOM     33  C   UNL     1      -0.984  -1.182   0.114  1.00  0.00     0.050 A 
ENDBRANCH  25  26
ENDBRANCH  15  25
ENDBRANCH   7  14
ENDBRANCH   5   6
ENDBRANCH   4   5
ENDBRANCH   2   4
ENDBRANCH   1   2
BRANCH   1  34
ATOM     34  C   UNL     1      -0.649  -0.133   4.074  1.00  0.00     0.274 C 
BRANCH  34  35
ATOM     35  C   UNL     1      -0.590  -0.730   5.483  1.00  0.00     0.275 C 
BRANCH  35  36
ATOM     36  O   UNL     1      -0.409   0.317   6.450  1.00  0.00    -0.458 OA
BRANCH  36  37
ATOM     37  C   UNL     1       0.707   0.255   7.207  1.00  0.00     0.338 C 
ATOM     38  O   UNL     1       1.572  -0.598   7.241  1.00  0.00    -0.246 OA
BRANCH  37  39
ATOM     39  C   UNL     1       0.747   1.439   8.065  1.00  0.00     0.060 A 
ATOM     40  C   UNL     1       1.329   2.619   7.596  1.00  0.00     0.016 A 
ATOM     41  C   UNL     1       0.277   1.333   9.373  1.00  0.00     0.016 A 
ATOM     42  C   UNL     1       1.446   3.712   8.448  1.00  0.00     0.010 A 
ATOM     43  C   UNL     1       0.375   2.434  10.218  1.00  0.00     0.010 A 
ATOM     44  C   UNL     1       0.969   3.623   9.763  1.00  0.00    -0.014 A 
BRANCH  44  45
ATOM     45  C   UNL     1       1.107   4.764  10.691  1.00  0.00     0.031 A 
ATOM     46  C   UNL     1       2.126   4.706  11.789  1.00  0.00     0.074 A 
ATOM     47  C   UNL     1       0.292   5.824  10.559  1.00  0.00     0.049 A 
ATOM     48  N   UNL     1       2.310   5.525  12.791  1.00  0.00    -0.248 NA
ATOM     49  C   UNL     1       3.061   3.571  11.756  1.00  0.00     0.031 C 
ATOM     50  C   UNL     1      -0.706   5.994   9.503  1.00  0.00     0.029 A 
ATOM     51  N   UNL     1       0.164   6.952  11.328  1.00  0.00    -0.354 N 
ATOM     52  C   UNL     1       3.371   5.001  13.515  1.00  0.00     0.074 A 
ATOM     53  C   UNL     1       3.780   3.782  12.849  1.00  0.00     0.031 C 
ATOM     54  C   UNL     1      -1.351   7.156   9.694  1.00  0.00     0.029 A 
ATOM     55  C   UNL     1      -0.845   7.783  10.911  1.00  0.00     0.049 A 
ATOM     56  H   UNL     1       0.740   7.146  12.102  1.00  0.00     0.167 HD
ATOM     57  C   UNL     1       3.950   5.499  14.632  1.00  0.00     0.037 A 
ATOM     58  C   UNL     1      -1.324   8.908  11.473  1.00  0.00     0.037 A 
ATOM     59  C   UNL     1       3.529   6.710  15.286  1.00  0.00     0.049 A 
ATOM     60  C   UNL     1      -0.708   9.401  12.753  1.00  0.00     0.074 A 
ATOM     61  C   UNL     1       4.033   7.296  16.433  1.00  0.00     0.029 A 
ATOM     62  N   UNL     1       2.495   7.523  14.842  1.00  0.00    -0.354 N 
ATOM     63  N   UNL     1       0.285   8.894  13.442  1.00  0.00    -0.248 NA
ATOM     64  C   UNL     1      -1.286  10.618  13.338  1.00  0.00     0.031 C 
ATOM     65  C   UNL     1       3.285   8.448  16.700  1.00  0.00     0.029 A 
ATOM     66  C   UNL     1       2.340   8.601  15.698  1.00  0.00     0.049 A 
ATOM     67  H   UNL     1       1.952   7.358  14.038  1.00  0.00     0.167 HD
ATOM     68  C   UNL     1       0.470   9.741  14.525  1.00  0.00     0.074 A 
ATOM     69  C   UNL     1      -0.509  10.801  14.397  1.00  0.00     0.031 C 
ATOM     70  C   UNL     1       1.367   9.649  15.537  1.00  0.00     0.037 A 
BRANCH  57  71
ATOM     71  C   UNL     1       5.088   4.726  15.226  1.00  0.00     0.064 A 
ATOM     72  C   UNL     1       6.356   4.710  14.624  1.00  0.00     0.173 A 
ATOM     73  C   UNL     1       4.922   4.021  16.427  1.00  0.00     0.173 A 
ATOM     74  F   UNL     1       6.561   5.356  13.467  1.00  0.00    -0.203 F 
ATOM     75  C   UNL     1       7.410   4.002  15.195  1.00  0.00     0.198 A 
ATOM     76  C   UNL     1       5.985   3.333  17.007  1.00  0.00     0.198 A 
ATOM     77  F   UNL     1       3.730   4.006  17.043  1.00  0.00    -0.203 F 
ATOM     78  F   UNL     1       8.603   3.972  14.585  1.00  0.00    -0.200 F 
ATOM     79  C   UNL     1       7.226   3.320  16.389  1.00  0.00     0.200 A 
ATOM     80  F   UNL     1       5.807   2.681  18.165  1.00  0.00    -0.200 F 
ATOM     81  F   UNL     1       8.244   2.645  16.941  1.00  0.00    -0.200 F 
ENDBRANCH  57  71
BRANCH  58  82
ATOM     82  C   UNL     1      -2.453   9.633  10.837  1.00  0.00     0.064 A 
ATOM     83  C   UNL     1      -2.256  10.886  10.242  1.00  0.00     0.173 A 
ATOM     84  C   UNL     1      -3.747   9.094  10.814  1.00  0.00     0.173 A 
ATOM     85  F   UNL     1      -1.041  11.453  10.259  1.00  0.00    -0.203 F 
ATOM     86  C   UNL     1      -3.316  11.581   9.662  1.00  0.00     0.198 A 
ATOM     87  C   UNL     1      -4.801   9.777  10.211  1.00  0.00     0.198 A 
ATOM     88  F   UNL     1      -3.987   7.897  11.371  1.00  0.00    -0.203 F 
ATOM     89  F   UNL     1      -3.110  12.797   9.138  1.00  0.00    -0.200 F 
ATOM     90  C   UNL     1      -4.586  11.023   9.642  1.00  0.00     0.200 A 
ATOM     91  F   UNL     1      -6.024   9.230  10.185  1.00  0.00    -0.200 F 
ATOM     92  F   UNL     1      -5.604  11.691   9.083  1.00  0.00    -0.200 F 
ENDBRANCH  58  82
BRANCH  70  93
ATOM     93  C   UNL     1       1.356  10.748  16.556  1.00  0.00     0.064 A 
ATOM     94  C   UNL     1       0.354  10.832  17.533  1.00  0.00     0.173 A 
ATOM     95  C   UNL     1       2.379  11.707  16.573  1.00  0.00     0.173 A 
ATOM     96  F   UNL     1      -0.654   9.947  17.544  1.00  0.00    -0.203 F 
ATOM     97  C   UNL     1       0.367  11.851  18.481  1.00  0.00     0.198 A 
ATOM     98  C   UNL     1       2.401  12.710  17.537  1.00  0.00     0.198 A 
ATOM     99  F   UNL     1       3.361  11.665  15.660  1.00  0.00    -0.203 F 
ATOM    100  F   UNL     1      -0.622  11.938  19.381  1.00  0.00    -0.200 F 
ATOM    101  C   UNL     1       1.393  12.785  18.486  1.00  0.00     0.200 A 
ATOM    102  F   UNL     1       3.397  13.607  17.546  1.00  0.00    -0.200 F 
ATOM    103  F   UNL     1       1.405  13.763  19.401  1.00  0.00    -0.200 F 
ENDBRANCH  70  93
ENDBRANCH  44  45
ENDBRANCH  37  39
ENDBRANCH  36  37
ENDBRANCH  35  36
ENDBRANCH  34  35
ENDBRANCH   1  34
TORSDOF 16
