REMARK SMILES COc1ccc([C@@H]2CC(c3ccc(Cl)cc3)=NN2C2=[NH+]C(=O)[C@@H](CC(=O)OCCOC(=O)c3ccc(-c4c5nc(c(-c6c(F)c(F)c(F)c(F)c6F)c6ccc([nH]6)c(-c6c(F)c(F)c(F)c(F)c6F)c6nc(c(-c7c(F)c(F)c(F)c(F)c7F)c7ccc4[nH]7)C=C6)C=C5)cc3)S2)cc1OC
REMARK SMILES IDX 28 1 27 2 25 3 26 4 24 5 23 6 19 7 20 8 96 9 21 10 22 12
REMARK SMILES IDX 18 13 7 14 8 15 9 16 17 17 6 18 3 19 4 20 98 21 5 22 97 23
REMARK SMILES IDX 2 24 1 25 99 26 100 27 10 28 11 29 16 30 12 31 15 32 13 33
REMARK SMILES IDX 14 34 29 35 30 36 31 37 32 38 33 39 34 40 95 41 35 42 94 43
REMARK SMILES IDX 36 44 37 45 38 46 88 47 39 48 93 49 87 50 89 51 40 52 92 53
REMARK SMILES IDX 86 54 85 55 41 57 73 58 53 59 72 60 54 61 57 62 71 63 90 64
REMARK SMILES IDX 55 65 56 66 70 68 91 69 58 70 42 71 43 72 51 73 44 74 45 75
REMARK SMILES IDX 49 76 52 77 46 78 47 79 50 80 48 81 74 82 75 83 83 84 76 85
REMARK SMILES IDX 77 86 81 87 84 88 78 89 79 90 82 91 80 92 59 93 60 94 68 95
REMARK SMILES IDX 61 96 62 97 66 98 69 99 63 100 64 101 67 102 65 103
REMARK H PARENT 20 11 89 56 57 67
REMARK Flexibility Score: inf
ROOT
ATOM      1  C   UNL     1      -1.624   2.688  -8.448  1.00  0.00     0.274 C 
ENDROOT
BRANCH   1   2
ATOM      2  O   UNL     1      -0.526   2.665  -7.519  1.00  0.00    -0.462 OA
BRANCH   2   3
ATOM      3  C   UNL     1      -0.116   1.459  -7.062  1.00  0.00     0.307 C 
ATOM      4  O   UNL     1      -0.632   0.386  -7.346  1.00  0.00    -0.252 OA
BRANCH   3   5
ATOM      5  C   UNL     1       1.034   1.583  -6.097  1.00  0.00     0.150 C 
BRANCH   5   6
ATOM      6  C   UNL     1       2.157   2.484  -6.596  1.00  0.00     0.184 C 
ATOM      7  C   UNL     1       3.034   4.273  -5.050  1.00  0.00     0.340 C 
ATOM      8  N   UNL     1       3.748   3.206  -4.900  1.00  0.00    -0.202 N 
ATOM      9  S   UNL     1       1.825   4.243  -6.305  1.00  0.00    -0.020 SA
ATOM     10  C   UNL     1       3.412   2.212  -5.788  1.00  0.00     0.322 C 
ATOM     11  H   UNL     1       4.457   3.115  -4.223  1.00  0.00     0.316 HD
ATOM     12  O   UNL     1       4.018   1.149  -5.876  1.00  0.00    -0.246 OA
BRANCH   7  13
ATOM     13  N   UNL     1       3.105   5.416  -4.293  1.00  0.00    -0.120 N 
ATOM     14  C   UNL     1       2.297   5.527  -3.075  1.00  0.00     0.243 C 
ATOM     15  C   UNL     1       3.161   6.358  -2.127  1.00  0.00     0.118 C 
ATOM     16  C   UNL     1       4.292   6.709  -3.045  1.00  0.00     0.096 C 
ATOM     17  N   UNL     1       4.249   6.173  -4.223  1.00  0.00    -0.086 NA
BRANCH  14  18
ATOM     18  C   UNL     1       0.935   6.138  -3.351  1.00  0.00     0.003 A 
ATOM     19  C   UNL     1      -1.633   7.228  -3.774  1.00  0.00     0.160 A 
ATOM     20  C   UNL     1      -0.488   7.908  -4.213  1.00  0.00     0.051 A 
ATOM     21  C   UNL     1      -1.510   5.976  -3.164  1.00  0.00     0.161 A 
ATOM     22  C   UNL     1       0.785   7.371  -3.999  1.00  0.00     0.012 A 
ATOM     23  C   UNL     1      -0.226   5.450  -2.958  1.00  0.00     0.058 A 
BRANCH  19  24
ATOM     24  O   UNL     1      -2.857   7.782  -4.035  1.00  0.00    -0.493 OA
ATOM     25  C   UNL     1      -3.095   8.938  -3.228  1.00  0.00     0.278 C 
ENDBRANCH  19  24
BRANCH  21  26
ATOM     26  O   UNL     1      -2.498   5.139  -2.721  1.00  0.00    -0.493 OA
ATOM     27  C   UNL     1      -3.824   5.640  -2.634  1.00  0.00     0.278 C 
ENDBRANCH  21  26
ENDBRANCH  14  18
BRANCH  16  28
ATOM     28  C   UNL     1       5.390   7.595  -2.622  1.00  0.00     0.000 A 
ATOM     29  C   UNL     1       5.999   8.414  -3.580  1.00  0.00     0.011 A 
ATOM     30  C   UNL     1       5.847   7.595  -1.301  1.00  0.00     0.011 A 
ATOM     31  C   UNL     1       7.056   9.248  -3.213  1.00  0.00     0.021 A 
ATOM     32  C   UNL     1       6.917   8.419  -0.941  1.00  0.00     0.021 A 
ATOM     33  C   UNL     1       7.513   9.244  -1.896  1.00  0.00     0.041 A 
ATOM     34  Cl  UNL     1       8.827  10.258  -1.446  1.00  0.00    -0.084 Cl
ENDBRANCH  16  28
ENDBRANCH   7  13
ENDBRANCH   5   6
ENDBRANCH   3   5
ENDBRANCH   2   3
ENDBRANCH   1   2
BRANCH   1  35
ATOM     35  C   UNL     1      -1.121   2.801  -9.888  1.00  0.00     0.275 C 
BRANCH  35  36
ATOM     36  O   UNL     1      -0.506   1.572 -10.320  1.00  0.00    -0.458 OA
BRANCH  36  37
ATOM     37  C   UNL     1       0.841   1.531 -10.233  1.00  0.00     0.338 C 
ATOM     38  O   UNL     1       1.593   2.431  -9.888  1.00  0.00    -0.246 OA
BRANCH  37  39
ATOM     39  C   UNL     1       1.305   0.164 -10.497  1.00  0.00     0.060 A 
ATOM     40  C   UNL     1       1.867  -0.568  -9.447  1.00  0.00     0.016 A 
ATOM     41  C   UNL     1       1.236  -0.373 -11.783  1.00  0.00     0.016 A 
ATOM     42  C   UNL     1       2.349  -1.854  -9.676  1.00  0.00     0.010 A 
ATOM     43  C   UNL     1       1.717  -1.665 -12.011  1.00  0.00     0.010 A 
ATOM     44  C   UNL     1       2.275  -2.413 -10.959  1.00  0.00    -0.014 A 
BRANCH  44  45
ATOM     45  C   UNL     1       2.775  -3.786 -11.200  1.00  0.00     0.031 A 
ATOM     46  C   UNL     1       4.065  -4.002 -11.934  1.00  0.00     0.074 A 
ATOM     47  C   UNL     1       2.056  -4.838 -10.766  1.00  0.00     0.049 A 
ATOM     48  N   UNL     1       4.618  -5.123 -12.324  1.00  0.00    -0.248 NA
ATOM     49  C   UNL     1       4.833  -2.797 -12.281  1.00  0.00     0.031 C 
ATOM     50  C   UNL     1       0.802  -4.748 -10.018  1.00  0.00     0.029 A 
ATOM     51  N   UNL     1       2.271  -6.186 -10.902  1.00  0.00    -0.354 N 
ATOM     52  C   UNL     1       5.790  -4.760 -12.972  1.00  0.00     0.074 A 
ATOM     53  C   UNL     1       5.860  -3.314 -12.942  1.00  0.00     0.031 C 
ATOM     54  C   UNL     1       0.354  -5.988  -9.767  1.00  0.00     0.029 A 
ATOM     55  C   UNL     1       1.265  -6.955 -10.373  1.00  0.00     0.049 A 
ATOM     56  H   UNL     1       3.069  -6.564 -11.336  1.00  0.00     0.167 HD
ATOM     57  C   UNL     1       6.721  -5.566 -13.537  1.00  0.00     0.037 A 
ATOM     58  C   UNL     1       1.082  -8.289 -10.403  1.00  0.00     0.037 A 
ATOM     59  C   UNL     1       6.652  -7.004 -13.550  1.00  0.00     0.049 A 
ATOM     60  C   UNL     1       2.104  -9.155 -11.087  1.00  0.00     0.074 A 
ATOM     61  C   UNL     1       7.566  -7.908 -14.064  1.00  0.00     0.029 A 
ATOM     62  N   UNL     1       5.604  -7.749 -13.029  1.00  0.00    -0.354 N 
ATOM     63  N   UNL     1       3.219  -8.807 -11.683  1.00  0.00    -0.248 NA
ATOM     64  C   UNL     1       1.840 -10.601 -11.109  1.00  0.00     0.031 C 
ATOM     65  C   UNL     1       7.048  -9.197 -13.897  1.00  0.00     0.029 A 
ATOM     66  C   UNL     1       5.834  -9.100 -13.237  1.00  0.00     0.049 A 
ATOM     67  H   UNL     1       4.813  -7.374 -12.578  1.00  0.00     0.167 HD
ATOM     68  C   UNL     1       3.794  -9.985 -12.137  1.00  0.00     0.074 A 
ATOM     69  C   UNL     1       2.916 -11.062 -11.729  1.00  0.00     0.031 C 
ATOM     70  C   UNL     1       4.945 -10.159 -12.832  1.00  0.00     0.037 A 
BRANCH  57  71
ATOM     71  C   UNL     1       7.890  -4.911 -14.212  1.00  0.00     0.064 A 
ATOM     72  C   UNL     1       8.919  -4.301 -13.480  1.00  0.00     0.173 A 
ATOM     73  C   UNL     1       8.006  -4.941 -15.610  1.00  0.00     0.173 A 
ATOM     74  F   UNL     1       8.850  -4.237 -12.142  1.00  0.00    -0.203 F 
ATOM     75  C   UNL     1      10.012  -3.727 -14.125  1.00  0.00     0.198 A 
ATOM     76  C   UNL     1       9.113  -4.389 -16.250  1.00  0.00     0.198 A 
ATOM     77  F   UNL     1       7.052  -5.518 -16.356  1.00  0.00    -0.203 F 
ATOM     78  F   UNL     1      10.968  -3.119 -13.408  1.00  0.00    -0.200 F 
ATOM     79  C   UNL     1      10.112  -3.779 -15.507  1.00  0.00     0.200 A 
ATOM     80  F   UNL     1       9.214  -4.451 -17.585  1.00  0.00    -0.200 F 
ATOM     81  F   UNL     1      11.171  -3.236 -16.125  1.00  0.00    -0.200 F 
ENDBRANCH  57  71
BRANCH  58  82
ATOM     82  C   UNL     1      -0.133  -8.883  -9.789  1.00  0.00     0.064 A 
ATOM     83  C   UNL     1      -0.049  -9.671  -8.634  1.00  0.00     0.173 A 
ATOM     84  C   UNL     1      -1.403  -8.677 -10.350  1.00  0.00     0.173 A 
ATOM     85  F   UNL     1       1.146  -9.918  -8.078  1.00  0.00    -0.203 F 
ATOM     86  C   UNL     1      -1.187 -10.244  -8.071  1.00  0.00     0.198 A 
ATOM     87  C   UNL     1      -2.543  -9.227  -9.770  1.00  0.00     0.198 A 
ATOM     88  F   UNL     1      -1.536  -7.934 -11.458  1.00  0.00    -0.203 F 
ATOM     89  F   UNL     1      -1.075 -11.031  -6.992  1.00  0.00    -0.200 F 
ATOM     90  C   UNL     1      -2.434 -10.015  -8.635  1.00  0.00     0.200 A 
ATOM     91  F   UNL     1      -3.747  -8.995 -10.312  1.00  0.00    -0.200 F 
ATOM     92  F   UNL     1      -3.529 -10.564  -8.090  1.00  0.00    -0.200 F 
ENDBRANCH  58  82
BRANCH  70  93
ATOM     93  C   UNL     1       5.323 -11.567 -13.185  1.00  0.00     0.064 A 
ATOM     94  C   UNL     1       4.640 -12.281 -14.181  1.00  0.00     0.173 A 
ATOM     95  C   UNL     1       6.399 -12.199 -12.544  1.00  0.00     0.173 A 
ATOM     96  F   UNL     1       3.593 -11.726 -14.810  1.00  0.00    -0.203 F 
ATOM     97  C   UNL     1       5.005 -13.584 -14.505  1.00  0.00     0.198 A 
ATOM     98  C   UNL     1       6.779 -13.493 -12.890  1.00  0.00     0.198 A 
ATOM     99  F   UNL     1       7.088 -11.558 -11.588  1.00  0.00    -0.203 F 
ATOM    100  F   UNL     1       4.309 -14.264 -15.427  1.00  0.00    -0.200 F 
ATOM    101  C   UNL     1       6.078 -14.187 -13.865  1.00  0.00     0.200 A 
ATOM    102  F   UNL     1       7.823 -14.070 -12.278  1.00  0.00    -0.200 F 
ATOM    103  F   UNL     1       6.431 -15.440 -14.182  1.00  0.00    -0.200 F 
ENDBRANCH  70  93
ENDBRANCH  44  45
ENDBRANCH  37  39
ENDBRANCH  36  37
ENDBRANCH  35  36
ENDBRANCH   1  35
TORSDOF 17
