REMARK SMILES C[NH2+][C@@]1(C(=O)OCCOC(=O)c2ccc(-c3c4nc(c(-c5c(F)c(F)c(F)c(F)c5F)c5ccc([nH]5)c(-c5c(F)c(F)c(F)c(F)c5F)c5nc(c(-c6c(F)c(F)c(F)c(F)c6F)c6ccc3[nH]6)C=C5)C=C4)cc2)CC[C@H](Sc2ccc(C)c(C)c2)C1
REMARK SMILES IDX 7 1 6 2 4 3 5 4 3 5 75 6 87 7 76 8 77 9 2 10 1 11 78 14
REMARK SMILES IDX 79 15 80 16 86 17 81 18 84 19 82 20 85 21 83 22 8 23 9 24
REMARK SMILES IDX 10 25 11 26 12 27 13 28 74 29 14 30 73 31 15 32 16 33 17 34
REMARK SMILES IDX 67 35 18 36 72 37 66 38 68 39 19 40 71 41 65 42 64 43 20 45
REMARK SMILES IDX 52 46 32 47 51 48 33 49 36 50 50 51 69 52 34 53 35 54 49 56
REMARK SMILES IDX 70 57 37 58 21 59 22 60 30 61 23 62 24 63 28 64 31 65 25 66
REMARK SMILES IDX 26 67 29 68 27 69 53 70 54 71 62 72 55 73 56 74 60 75 63 76
REMARK SMILES IDX 57 77 58 78 61 79 59 80 38 81 39 82 47 83 40 84 41 85 45 86
REMARK SMILES IDX 48 87 42 88 43 89 46 90 44 91
REMARK H PARENT 2 12 2 13 68 44 36 55
REMARK Flexibility Score: inf
ROOT
ATOM      1  C   UNL     1      -2.806   0.517   1.563  1.00  0.00     0.274 C 
ENDROOT
BRANCH   1   2
ATOM      2  O   UNL     1      -2.463   0.136   0.215  1.00  0.00    -0.457 OA
BRANCH   2   3
ATOM      3  C   UNL     1      -1.469   0.831  -0.392  1.00  0.00     0.368 C 
ATOM      4  O   UNL     1      -0.805   1.714   0.147  1.00  0.00    -0.245 OA
BRANCH   3   5
ATOM      5  C   UNL     1      -1.306   0.470  -1.901  1.00  0.00     0.195 C 
ATOM      6  C   UNL     1      -2.103   1.518  -2.688  1.00  0.00     0.082 C 
ATOM      7  C   UNL     1      -1.958  -0.850  -2.346  1.00  0.00     0.096 C 
ATOM      8  C   UNL     1      -3.537   1.008  -2.594  1.00  0.00     0.022 C 
ATOM      9  C   UNL     1      -3.412  -0.513  -2.740  1.00  0.00     0.059 C 
BRANCH   5  10
ATOM     10  N   UNL     1       0.132   0.592  -2.264  1.00  0.00    -0.335 N 
ATOM     11  C   UNL     1       0.909  -0.617  -2.031  1.00  0.00     0.331 C 
ATOM     12  H   UNL     1       0.193   0.826  -3.255  1.00  0.00     0.347 HD
ATOM     13  H   UNL     1       0.526   1.315  -1.663  1.00  0.00     0.347 HD
ENDBRANCH   5  10
BRANCH   9  14
ATOM     14  S   UNL     1      -4.557  -1.513  -1.722  1.00  0.00    -0.122 SA
BRANCH  14  15
ATOM     15  C   UNL     1      -6.182  -0.917  -2.138  1.00  0.00     0.008 A 
ATOM     16  C   UNL     1      -6.508  -0.231  -3.304  1.00  0.00     0.015 A 
ATOM     17  C   UNL     1      -7.201  -1.189  -1.215  1.00  0.00     0.018 A 
ATOM     18  C   UNL     1      -7.810   0.230  -3.512  1.00  0.00     0.005 A 
ATOM     19  C   UNL     1      -8.522  -0.756  -1.420  1.00  0.00    -0.047 A 
ATOM     20  C   UNL     1      -8.828  -0.026  -2.581  1.00  0.00    -0.048 A 
ATOM     21  C   UNL     1      -9.565  -1.103  -0.393  1.00  0.00     0.044 C 
ATOM     22  C   UNL     1     -10.194   0.542  -2.852  1.00  0.00     0.044 C 
ENDBRANCH  14  15
ENDBRANCH   9  14
ENDBRANCH   3   5
ENDBRANCH   2   3
ENDBRANCH   1   2
BRANCH   1  23
ATOM     23  C   UNL     1      -2.225  -0.483   2.555  1.00  0.00     0.275 C 
BRANCH  23  24
ATOM     24  O   UNL     1      -0.792  -0.400   2.490  1.00  0.00    -0.458 OA
BRANCH  24  25
ATOM     25  C   UNL     1      -0.126  -1.575   2.497  1.00  0.00     0.338 C 
ATOM     26  O   UNL     1      -0.592  -2.687   2.670  1.00  0.00    -0.246 OA
BRANCH  25  27
ATOM     27  C   UNL     1       1.309  -1.327   2.237  1.00  0.00     0.060 A 
ATOM     28  C   UNL     1       1.713  -0.346   1.331  1.00  0.00     0.016 A 
ATOM     29  C   UNL     1       2.263  -2.155   2.828  1.00  0.00     0.016 A 
ATOM     30  C   UNL     1       3.048  -0.253   0.943  1.00  0.00     0.010 A 
ATOM     31  C   UNL     1       3.616  -1.992   2.514  1.00  0.00     0.010 A 
ATOM     32  C   UNL     1       4.023  -1.063   1.540  1.00  0.00    -0.014 A 
BRANCH  32  33
ATOM     33  C   UNL     1       5.450  -0.982   1.114  1.00  0.00     0.031 A 
ATOM     34  C   UNL     1       6.161  -2.215   0.624  1.00  0.00     0.074 A 
ATOM     35  C   UNL     1       6.119   0.188   1.148  1.00  0.00     0.049 A 
ATOM     36  N   UNL     1       7.443  -2.420   0.448  1.00  0.00    -0.248 NA
ATOM     37  C   UNL     1       5.321  -3.381   0.306  1.00  0.00     0.031 C 
ATOM     38  C   UNL     1       5.556   1.480   1.540  1.00  0.00     0.029 A 
ATOM     39  N   UNL     1       7.424   0.480   0.832  1.00  0.00    -0.354 N 
ATOM     40  C   UNL     1       7.567  -3.754   0.086  1.00  0.00     0.074 A 
ATOM     41  C   UNL     1       6.231  -4.308   0.039  1.00  0.00     0.031 C 
ATOM     42  C   UNL     1       6.488   2.432   1.388  1.00  0.00     0.029 A 
ATOM     43  C   UNL     1       7.744   1.807   0.987  1.00  0.00     0.049 A 
ATOM     44  H   UNL     1       8.068  -0.197   0.523  1.00  0.00     0.167 HD
ATOM     45  C   UNL     1       8.698  -4.454  -0.170  1.00  0.00     0.037 A 
ATOM     46  C   UNL     1       8.923   2.445   0.869  1.00  0.00     0.037 A 
ATOM     47  C   UNL     1      10.019  -3.882  -0.207  1.00  0.00     0.049 A 
ATOM     48  C   UNL     1      10.162   1.654   0.562  1.00  0.00     0.074 A 
ATOM     49  C   UNL     1      11.228  -4.509  -0.455  1.00  0.00     0.029 A 
ATOM     50  N   UNL     1      10.298  -2.536  -0.025  1.00  0.00    -0.354 N 
ATOM     51  N   UNL     1      10.288   0.368   0.346  1.00  0.00    -0.248 NA
ATOM     52  C   UNL     1      11.428   2.399   0.521  1.00  0.00     0.031 C 
ATOM     53  C   UNL     1      12.241  -3.545  -0.408  1.00  0.00     0.029 A 
ATOM     54  C   UNL     1      11.658  -2.313  -0.160  1.00  0.00     0.049 A 
ATOM     55  H   UNL     1       9.628  -1.842   0.172  1.00  0.00     0.167 HD
ATOM     56  C   UNL     1      11.643   0.146   0.157  1.00  0.00     0.074 A 
ATOM     57  C   UNL     1      12.298   1.435   0.250  1.00  0.00     0.031 C 
ATOM     58  C   UNL     1      12.291  -1.025  -0.056  1.00  0.00     0.037 A 
BRANCH  45  59
ATOM     59  C   UNL     1       8.568  -5.931  -0.391  1.00  0.00     0.064 A 
ATOM     60  C   UNL     1       8.081  -6.465  -1.591  1.00  0.00     0.173 A 
ATOM     61  C   UNL     1       8.984  -6.826   0.608  1.00  0.00     0.173 A 
ATOM     62  F   UNL     1       7.656  -5.651  -2.568  1.00  0.00    -0.203 F 
ATOM     63  C   UNL     1       8.003  -7.844  -1.779  1.00  0.00     0.198 A 
ATOM     64  C   UNL     1       8.926  -8.202   0.408  1.00  0.00     0.198 A 
ATOM     65  F   UNL     1       9.460  -6.364   1.774  1.00  0.00    -0.203 F 
ATOM     66  F   UNL     1       7.504  -8.335  -2.922  1.00  0.00    -0.200 F 
ATOM     67  C   UNL     1       8.432  -8.710  -0.784  1.00  0.00     0.200 A 
ATOM     68  F   UNL     1       9.350  -9.037   1.367  1.00  0.00    -0.200 F 
ATOM     69  F   UNL     1       8.364 -10.035  -0.971  1.00  0.00    -0.200 F 
ENDBRANCH  45  59
BRANCH  46  70
ATOM     70  C   UNL     1       8.989   3.912   1.093  1.00  0.00     0.064 A 
ATOM     71  C   UNL     1       9.215   4.791   0.026  1.00  0.00     0.173 A 
ATOM     72  C   UNL     1       8.803   4.464   2.369  1.00  0.00     0.173 A 
ATOM     73  F   UNL     1       9.428   4.308  -1.207  1.00  0.00    -0.203 F 
ATOM     74  C   UNL     1       9.248   6.169   0.227  1.00  0.00     0.198 A 
ATOM     75  C   UNL     1       8.808   5.842   2.563  1.00  0.00     0.198 A 
ATOM     76  F   UNL     1       8.587   3.662   3.422  1.00  0.00    -0.203 F 
ATOM     77  F   UNL     1       9.493   6.989  -0.805  1.00  0.00    -0.200 F 
ATOM     78  C   UNL     1       9.034   6.694   1.493  1.00  0.00     0.200 A 
ATOM     79  F   UNL     1       8.588   6.345   3.786  1.00  0.00    -0.200 F 
ATOM     80  F   UNL     1       9.050   8.020   1.682  1.00  0.00    -0.200 F 
ENDBRANCH  46  70
BRANCH  58  81
ATOM     81  C   UNL     1      13.780  -0.961  -0.203  1.00  0.00     0.064 A 
ATOM     82  C   UNL     1      14.612  -0.802   0.914  1.00  0.00     0.173 A 
ATOM     83  C   UNL     1      14.379  -1.082  -1.464  1.00  0.00     0.173 A 
ATOM     84  F   UNL     1      14.081  -0.666   2.139  1.00  0.00    -0.203 F 
ATOM     85  C   UNL     1      15.995  -0.747   0.770  1.00  0.00     0.198 A 
ATOM     86  C   UNL     1      15.763  -1.045  -1.602  1.00  0.00     0.198 A 
ATOM     87  F   UNL     1      13.621  -1.238  -2.560  1.00  0.00    -0.203 F 
ATOM     88  F   UNL     1      16.773  -0.558   1.846  1.00  0.00    -0.200 F 
ATOM     89  C   UNL     1      16.570  -0.873  -0.486  1.00  0.00     0.200 A 
ATOM     90  F   UNL     1      16.318  -1.171  -2.816  1.00  0.00    -0.200 F 
ATOM     91  F   UNL     1      17.901  -0.818  -0.624  1.00  0.00    -0.200 F 
ENDBRANCH  58  81
ENDBRANCH  32  33
ENDBRANCH  25  27
ENDBRANCH  24  25
ENDBRANCH  23  24
ENDBRANCH   1  23
TORSDOF 14
