REMARK SMILES CC[C@H]1CC[C@](Cc2cccnc2)(C(=O)OCCOC(=O)c2ccc(-c3c4nc(c(-c5c(F)c(F)c(F)c(F)c5F)c5ccc([nH]5)c(-c5c(F)c(F)c(F)c(F)c5F)c5nc(c(-c6c(F)c(F)c(F)c(F)c6F)c6ccc3[nH]6)C=C5)C=C4)cc2)C1
REMARK SMILES IDX 17 1 16 2 14 3 15 4 6 5 3 6 4 7 85 8 5 9 2 10 1 11 7 12 8 13
REMARK SMILES IDX 9 14 13 15 10 16 12 17 11 18 18 19 19 20 20 21 21 22 22 23
REMARK SMILES IDX 23 24 84 25 24 26 83 27 25 28 26 29 27 30 77 31 28 32 82 33
REMARK SMILES IDX 76 34 78 35 29 36 81 37 75 38 74 39 30 41 62 42 42 43 61 44
REMARK SMILES IDX 43 45 46 46 60 47 79 48 44 49 45 50 59 52 80 53 47 54 31 55
REMARK SMILES IDX 32 56 40 57 33 58 34 59 38 60 41 61 35 62 36 63 39 64 37 65
REMARK SMILES IDX 63 66 64 67 72 68 65 69 66 70 70 71 73 72 67 73 68 74 71 75
REMARK SMILES IDX 69 76 48 77 49 78 57 79 50 80 51 81 55 82 58 83 52 84 53 85
REMARK SMILES IDX 56 86 54 87
REMARK H PARENT 78 40 46 51
REMARK Flexibility Score: inf
ROOT
ATOM      1  C   UNL     1      -1.545   1.141  -6.672  1.00  0.00     0.274 C 
ENDROOT
BRANCH   1   2
ATOM      2  O   UNL     1      -0.473   1.158  -5.703  1.00  0.00    -0.462 OA
BRANCH   2   3
ATOM      3  C   UNL     1      -0.151   2.374  -5.172  1.00  0.00     0.312 C 
ATOM      4  O   UNL     1      -0.767   3.407  -5.399  1.00  0.00    -0.252 OA
BRANCH   3   5
ATOM      5  C   UNL     1       1.076   2.276  -4.241  1.00  0.00     0.072 C 
ATOM      6  C   UNL     1       0.852   2.531  -1.764  1.00  0.00    -0.010 C 
ATOM      7  C   UNL     1       0.825   3.904  -2.429  1.00  0.00     0.005 C 
ATOM      8  C   UNL     1       0.664   1.545  -2.938  1.00  0.00     0.022 C 
ATOM      9  C   UNL     1       1.482   3.700  -3.787  1.00  0.00     0.019 C 
BRANCH   6  10
ATOM     10  C   UNL     1       2.070   2.189  -0.875  1.00  0.00     0.000 C 
ATOM     11  C   UNL     1       3.242   3.158  -0.859  1.00  0.00     0.004 C 
ENDBRANCH   6  10
BRANCH   5  12
ATOM     12  C   UNL     1       2.195   1.563  -5.050  1.00  0.00     0.056 C 
BRANCH  12  13
ATOM     13  C   UNL     1       3.534   1.398  -4.378  1.00  0.00    -0.029 A 
ATOM     14  C   UNL     1       3.815   0.300  -3.562  1.00  0.00     0.007 A 
ATOM     15  C   UNL     1       4.545   2.340  -4.542  1.00  0.00     0.114 A 
ATOM     16  C   UNL     1       5.040   0.217  -2.907  1.00  0.00     0.020 A 
ATOM     17  N   UNL     1       5.745   2.285  -3.923  1.00  0.00    -0.264 NA
ATOM     18  C   UNL     1       5.960   1.230  -3.110  1.00  0.00     0.111 A 
ENDBRANCH  12  13
ENDBRANCH   5  12
ENDBRANCH   3   5
ENDBRANCH   2   3
ENDBRANCH   1   2
BRANCH   1  19
ATOM     19  C   UNL     1      -2.832   0.619  -6.041  1.00  0.00     0.275 C 
BRANCH  19  20
ATOM     20  O   UNL     1      -3.229   1.526  -5.002  1.00  0.00    -0.458 OA
BRANCH  20  21
ATOM     21  C   UNL     1      -3.792   0.963  -3.913  1.00  0.00     0.338 C 
ATOM     22  O   UNL     1      -4.099  -0.209  -3.755  1.00  0.00    -0.246 OA
BRANCH  21  23
ATOM     23  C   UNL     1      -3.969   1.995  -2.877  1.00  0.00     0.060 A 
ATOM     24  C   UNL     1      -2.903   2.833  -2.548  1.00  0.00     0.016 A 
ATOM     25  C   UNL     1      -5.158   2.061  -2.153  1.00  0.00     0.016 A 
ATOM     26  C   UNL     1      -2.987   3.671  -1.441  1.00  0.00     0.010 A 
ATOM     27  C   UNL     1      -5.272   2.966  -1.092  1.00  0.00     0.010 A 
ATOM     28  C   UNL     1      -4.170   3.745  -0.697  1.00  0.00    -0.014 A 
BRANCH  28  29
ATOM     29  C   UNL     1      -4.205   4.561   0.545  1.00  0.00     0.031 A 
ATOM     30  C   UNL     1      -4.400   3.886   1.875  1.00  0.00     0.074 A 
ATOM     31  C   UNL     1      -4.002   5.892   0.499  1.00  0.00     0.049 A 
ATOM     32  N   UNL     1      -4.566   4.417   3.061  1.00  0.00    -0.248 NA
ATOM     33  C   UNL     1      -4.420   2.415   1.869  1.00  0.00     0.031 C 
ATOM     34  C   UNL     1      -3.748   6.668  -0.715  1.00  0.00     0.029 A 
ATOM     35  N   UNL     1      -3.958   6.824   1.506  1.00  0.00    -0.354 N 
ATOM     36  C   UNL     1      -4.774   3.351   3.926  1.00  0.00     0.074 A 
ATOM     37  C   UNL     1      -4.705   2.142   3.134  1.00  0.00     0.031 C 
ATOM     38  C   UNL     1      -3.537   7.950  -0.379  1.00  0.00     0.029 A 
ATOM     39  C   UNL     1      -3.705   8.098   1.064  1.00  0.00     0.049 A 
ATOM     40  H   UNL     1      -4.095   6.599   2.455  1.00  0.00     0.167 HD
ATOM     41  C   UNL     1      -5.006   3.379   5.260  1.00  0.00     0.037 A 
ATOM     42  C   UNL     1      -3.641   9.261   1.741  1.00  0.00     0.037 A 
ATOM     43  C   UNL     1      -5.009   4.574   6.061  1.00  0.00     0.049 A 
ATOM     44  C   UNL     1      -3.874   9.264   3.225  1.00  0.00     0.074 A 
ATOM     45  C   UNL     1      -5.228   4.704   7.421  1.00  0.00     0.029 A 
ATOM     46  N   UNL     1      -4.758   5.848   5.573  1.00  0.00    -0.354 N 
ATOM     47  N   UNL     1      -4.135   8.258   4.024  1.00  0.00    -0.248 NA
ATOM     48  C   UNL     1      -3.817  10.568   3.901  1.00  0.00     0.031 C 
ATOM     49  C   UNL     1      -5.132   6.061   7.753  1.00  0.00     0.029 A 
ATOM     50  C   UNL     1      -4.821   6.771   6.604  1.00  0.00     0.049 A 
ATOM     51  H   UNL     1      -4.563   6.065   4.632  1.00  0.00     0.167 HD
ATOM     52  C   UNL     1      -4.279   8.805   5.291  1.00  0.00     0.074 A 
ATOM     53  C   UNL     1      -4.044  10.228   5.162  1.00  0.00     0.031 C 
ATOM     54  C   UNL     1      -4.592   8.185   6.455  1.00  0.00     0.037 A 
BRANCH  41  55
ATOM     55  C   UNL     1      -5.324   2.074   5.924  1.00  0.00     0.064 A 
ATOM     56  C   UNL     1      -4.340   1.109   6.179  1.00  0.00     0.173 A 
ATOM     57  C   UNL     1      -6.643   1.788   6.308  1.00  0.00     0.173 A 
ATOM     58  F   UNL     1      -3.069   1.327   5.811  1.00  0.00    -0.203 F 
ATOM     59  C   UNL     1      -4.671  -0.109   6.769  1.00  0.00     0.198 A 
ATOM     60  C   UNL     1      -6.966   0.580   6.919  1.00  0.00     0.198 A 
ATOM     61  F   UNL     1      -7.620   2.680   6.085  1.00  0.00    -0.203 F 
ATOM     62  F   UNL     1      -3.725  -1.039   6.958  1.00  0.00    -0.200 F 
ATOM     63  C   UNL     1      -5.982  -0.370   7.142  1.00  0.00     0.200 A 
ATOM     64  F   UNL     1      -8.232   0.332   7.283  1.00  0.00    -0.200 F 
ATOM     65  F   UNL     1      -6.298  -1.545   7.705  1.00  0.00    -0.200 F 
ENDBRANCH  41  55
BRANCH  42  66
ATOM     66  C   UNL     1      -3.367  10.522   1.006  1.00  0.00     0.064 A 
ATOM     67  C   UNL     1      -2.142  11.187   1.145  1.00  0.00     0.173 A 
ATOM     68  C   UNL     1      -4.319  11.075   0.137  1.00  0.00     0.173 A 
ATOM     69  F   UNL     1      -1.212  10.710   1.985  1.00  0.00    -0.203 F 
ATOM     70  C   UNL     1      -1.880  12.362   0.444  1.00  0.00     0.198 A 
ATOM     71  C   UNL     1      -4.046  12.235  -0.583  1.00  0.00     0.198 A 
ATOM     72  F   UNL     1      -5.507  10.475  -0.027  1.00  0.00    -0.203 F 
ATOM     73  F   UNL     1      -0.713  12.998   0.617  1.00  0.00    -0.200 F 
ATOM     74  C   UNL     1      -2.829  12.880  -0.426  1.00  0.00     0.200 A 
ATOM     75  F   UNL     1      -4.960  12.726  -1.431  1.00  0.00    -0.200 F 
ATOM     76  F   UNL     1      -2.571  14.004  -1.109  1.00  0.00    -0.200 F 
ENDBRANCH  42  66
BRANCH  54  77
ATOM     77  C   UNL     1      -4.697   9.046   7.677  1.00  0.00     0.064 A 
ATOM     78  C   UNL     1      -5.801   9.884   7.885  1.00  0.00     0.173 A 
ATOM     79  C   UNL     1      -3.697   9.015   8.660  1.00  0.00     0.173 A 
ATOM     80  F   UNL     1      -6.775   9.958   6.965  1.00  0.00    -0.203 F 
ATOM     81  C   UNL     1      -5.890  10.680   9.023  1.00  0.00     0.198 A 
ATOM     82  C   UNL     1      -3.799   9.796   9.808  1.00  0.00     0.198 A 
ATOM     83  F   UNL     1      -2.623   8.226   8.508  1.00  0.00    -0.203 F 
ATOM     84  F   UNL     1      -6.934  11.506   9.182  1.00  0.00    -0.200 F 
ATOM     85  C   UNL     1      -4.892  10.632   9.985  1.00  0.00     0.200 A 
ATOM     86  F   UNL     1      -2.838   9.745  10.740  1.00  0.00    -0.200 F 
ATOM     87  F   UNL     1      -4.978  11.400  11.080  1.00  0.00    -0.200 F 
ENDBRANCH  54  77
ENDBRANCH  28  29
ENDBRANCH  21  23
ENDBRANCH  20  21
ENDBRANCH  19  20
ENDBRANCH   1  19
TORSDOF 14
