REMARK SMILES C[C@H](c1cnccn1)[N@@H+]1[C@@H](C(=O)OCCOC(=O)c2ccc(-c3c4nc(c(-c5c(F)c(F)c(F)c(F)c5F)c5ccc([nH]5)c(-c5c(F)c(F)c(F)c(F)c5F)c5nc(c(-c6c(F)c(F)c(F)c(F)c6F)c6ccc3[nH]6)C=C5)C=C4)cc2)CC[C@H]2CCCC[C@H]21
REMARK SMILES IDX 14 1 13 2 11 3 12 4 10 5 9 6 89 7 82 9 84 10 88 11 83 12
REMARK SMILES IDX 85 13 87 14 86 15 2 16 1 17 3 18 4 19 8 20 5 21 7 22 6 23
REMARK SMILES IDX 15 24 16 25 17 26 18 27 19 28 20 29 81 30 21 31 80 32 22 33
REMARK SMILES IDX 23 34 24 35 74 36 25 37 79 38 73 39 75 40 26 41 78 42 72 43
REMARK SMILES IDX 71 44 27 46 59 47 39 48 58 49 40 50 43 51 57 52 76 53 41 54
REMARK SMILES IDX 42 55 56 57 77 58 44 59 28 60 29 61 37 62 30 63 31 64 35 65
REMARK SMILES IDX 38 66 32 67 33 68 36 69 34 70 60 71 61 72 69 73 62 74 63 75
REMARK SMILES IDX 67 76 70 77 64 78 65 79 68 80 66 81 45 82 46 83 54 84 47 85
REMARK SMILES IDX 48 86 52 87 55 88 49 89 50 90 53 91 51 92
REMARK H PARENT 9 8 75 45 43 56
REMARK Flexibility Score: inf
ROOT
ATOM      1  C   UNL     1      -0.858   3.830  -3.973  1.00  0.00     0.274 C 
ENDROOT
BRANCH   1   2
ATOM      2  O   UNL     1      -1.334   3.028  -2.870  1.00  0.00    -0.458 OA
BRANCH   2   3
ATOM      3  C   UNL     1      -0.677   3.210  -1.694  1.00  0.00     0.365 C 
ATOM      4  O   UNL     1       0.234   4.021  -1.547  1.00  0.00    -0.245 OA
BRANCH   3   5
ATOM      5  C   UNL     1      -1.214   2.370  -0.524  1.00  0.00     0.295 C 
ATOM      6  N   UNL     1      -0.815   0.901  -0.484  1.00  0.00    -0.313 N 
ATOM      7  C   UNL     1      -1.504   0.289   0.741  1.00  0.00     0.188 C 
ATOM      8  H   UNL     1      -1.095   0.438  -1.348  1.00  0.00     0.349 HD
ATOM      9  C   UNL     1      -2.735   2.608  -0.496  1.00  0.00     0.078 C 
ATOM     10  C   UNL     1      -3.039   0.541   0.830  1.00  0.00     0.048 C 
ATOM     11  C   UNL     1      -1.386  -1.234   0.965  1.00  0.00     0.065 C 
ATOM     12  C   UNL     1      -3.359   2.025   0.750  1.00  0.00     0.016 C 
ATOM     13  C   UNL     1      -3.867  -0.258  -0.195  1.00  0.00     0.010 C 
ATOM     14  C   UNL     1      -2.004  -2.037  -0.167  1.00  0.00     0.006 C 
ATOM     15  C   UNL     1      -3.475  -1.720  -0.385  1.00  0.00     0.001 C 
BRANCH   6  16
ATOM     16  C   UNL     1       0.703   0.740  -0.350  1.00  0.00     0.233 C 
ATOM     17  C   UNL     1       1.617   1.522  -1.317  1.00  0.00     0.083 C 
BRANCH  16  18
ATOM     18  C   UNL     1       1.232  -0.688  -0.487  1.00  0.00     0.116 A 
ATOM     19  C   UNL     1       1.039  -1.433  -1.648  1.00  0.00     0.141 A 
ATOM     20  N   UNL     1       1.985  -1.175   0.541  1.00  0.00    -0.252 NA
ATOM     21  N   UNL     1       1.535  -2.684  -1.813  1.00  0.00    -0.261 NA
ATOM     22  C   UNL     1       2.470  -2.426   0.379  1.00  0.00     0.131 A 
ATOM     23  C   UNL     1       2.245  -3.164  -0.769  1.00  0.00     0.131 A 
ENDBRANCH  16  18
ENDBRANCH   6  16
ENDBRANCH   3   5
ENDBRANCH   2   3
ENDBRANCH   1   2
BRANCH   1  24
ATOM     24  C   UNL     1      -1.458   5.246  -4.024  1.00  0.00     0.275 C 
BRANCH  24  25
ATOM     25  O   UNL     1      -0.987   6.086  -2.949  1.00  0.00    -0.458 OA
BRANCH  25  26
ATOM     26  C   UNL     1      -1.845   6.225  -1.912  1.00  0.00     0.338 C 
ATOM     27  O   UNL     1      -2.993   5.815  -1.854  1.00  0.00    -0.246 OA
BRANCH  26  28
ATOM     28  C   UNL     1      -1.167   6.800  -0.732  1.00  0.00     0.060 A 
ATOM     29  C   UNL     1      -1.196   6.051   0.449  1.00  0.00     0.016 A 
ATOM     30  C   UNL     1      -0.613   8.081  -0.732  1.00  0.00     0.016 A 
ATOM     31  C   UNL     1      -0.696   6.569   1.635  1.00  0.00     0.010 A 
ATOM     32  C   UNL     1      -0.128   8.617   0.471  1.00  0.00     0.010 A 
ATOM     33  C   UNL     1      -0.194   7.872   1.663  1.00  0.00    -0.014 A 
BRANCH  33  34
ATOM     34  C   UNL     1       0.091   8.477   2.986  1.00  0.00     0.031 A 
ATOM     35  C   UNL     1      -0.954   9.348   3.623  1.00  0.00     0.074 A 
ATOM     36  C   UNL     1       1.210   8.159   3.659  1.00  0.00     0.049 A 
ATOM     37  N   UNL     1      -0.933   9.966   4.776  1.00  0.00    -0.248 NA
ATOM     38  C   UNL     1      -2.197   9.541   2.859  1.00  0.00     0.031 C 
ATOM     39  C   UNL     1       2.257   7.258   3.181  1.00  0.00     0.029 A 
ATOM     40  N   UNL     1       1.643   8.550   4.902  1.00  0.00    -0.354 N 
ATOM     41  C   UNL     1      -2.148  10.630   4.870  1.00  0.00     0.074 A 
ATOM     42  C   UNL     1      -2.879  10.355   3.651  1.00  0.00     0.031 C 
ATOM     43  C   UNL     1       3.214   7.165   4.120  1.00  0.00     0.029 A 
ATOM     44  C   UNL     1       2.861   8.023   5.250  1.00  0.00     0.049 A 
ATOM     45  H   UNL     1       1.128   9.152   5.487  1.00  0.00     0.167 HD
ATOM     46  C   UNL     1      -2.615  11.398   5.883  1.00  0.00     0.037 A 
ATOM     47  C   UNL     1       3.611   8.227   6.350  1.00  0.00     0.037 A 
ATOM     48  C   UNL     1      -1.892  11.663   7.099  1.00  0.00     0.049 A 
ATOM     49  C   UNL     1       3.097   9.136   7.435  1.00  0.00     0.074 A 
ATOM     50  C   UNL     1      -2.272  12.439   8.179  1.00  0.00     0.029 A 
ATOM     51  N   UNL     1      -0.637  11.153   7.394  1.00  0.00    -0.354 N 
ATOM     52  N   UNL     1       1.956   9.778   7.507  1.00  0.00    -0.248 NA
ATOM     53  C   UNL     1       3.977   9.348   8.593  1.00  0.00     0.031 C 
ATOM     54  C   UNL     1      -1.230  12.430   9.113  1.00  0.00     0.029 A 
ATOM     55  C   UNL     1      -0.220  11.611   8.634  1.00  0.00     0.049 A 
ATOM     56  H   UNL     1      -0.118  10.554   6.810  1.00  0.00     0.167 HD
ATOM     57  C   UNL     1       1.972  10.451   8.722  1.00  0.00     0.074 A 
ATOM     58  C   UNL     1       3.228  10.123   9.364  1.00  0.00     0.031 C 
ATOM     59  C   UNL     1       1.033  11.270   9.258  1.00  0.00     0.037 A 
BRANCH  46  60
ATOM     60  C   UNL     1      -3.958  12.038   5.696  1.00  0.00     0.064 A 
ATOM     61  C   UNL     1      -5.146  11.295   5.756  1.00  0.00     0.173 A 
ATOM     62  C   UNL     1      -4.056  13.418   5.463  1.00  0.00     0.173 A 
ATOM     63  F   UNL     1      -5.104   9.970   5.957  1.00  0.00    -0.203 F 
ATOM     64  C   UNL     1      -6.382  11.908   5.566  1.00  0.00     0.198 A 
ATOM     65  C   UNL     1      -5.295  14.031   5.299  1.00  0.00     0.198 A 
ATOM     66  F   UNL     1      -2.949  14.173   5.397  1.00  0.00    -0.203 F 
ATOM     67  F   UNL     1      -7.502  11.172   5.580  1.00  0.00    -0.200 F 
ATOM     68  C   UNL     1      -6.456  13.275   5.343  1.00  0.00     0.200 A 
ATOM     69  F   UNL     1      -5.364  15.353   5.092  1.00  0.00    -0.200 F 
ATOM     70  F   UNL     1      -7.646  13.863   5.160  1.00  0.00    -0.200 F 
ENDBRANCH  46  60
BRANCH  47  71
ATOM     71  C   UNL     1       4.940   7.573   6.475  1.00  0.00     0.064 A 
ATOM     72  C   UNL     1       5.172   6.578   7.434  1.00  0.00     0.173 A 
ATOM     73  C   UNL     1       6.013   7.952   5.655  1.00  0.00     0.173 A 
ATOM     74  F   UNL     1       4.186   6.202   8.262  1.00  0.00    -0.203 F 
ATOM     75  C   UNL     1       6.431   5.998   7.579  1.00  0.00     0.198 A 
ATOM     76  C   UNL     1       7.264   7.352   5.782  1.00  0.00     0.198 A 
ATOM     77  F   UNL     1       5.845   8.905   4.726  1.00  0.00    -0.203 F 
ATOM     78  F   UNL     1       6.639   5.084   8.536  1.00  0.00    -0.200 F 
ATOM     79  C   UNL     1       7.474   6.382   6.749  1.00  0.00     0.200 A 
ATOM     80  F   UNL     1       8.266   7.721   4.973  1.00  0.00    -0.200 F 
ATOM     81  F   UNL     1       8.685   5.825   6.889  1.00  0.00    -0.200 F 
ENDBRANCH  47  71
BRANCH  59  82
ATOM     82  C   UNL     1       1.318  11.842  10.616  1.00  0.00     0.064 A 
ATOM     83  C   UNL     1       2.279  12.847  10.803  1.00  0.00     0.173 A 
ATOM     84  C   UNL     1       0.605  11.397  11.739  1.00  0.00     0.173 A 
ATOM     85  F   UNL     1       2.997  13.296   9.763  1.00  0.00    -0.203 F 
ATOM     86  C   UNL     1       2.536  13.363  12.070  1.00  0.00     0.198 A 
ATOM     87  C   UNL     1       0.845  11.935  13.000  1.00  0.00     0.198 A 
ATOM     88  F   UNL     1      -0.330  10.443  11.612  1.00  0.00    -0.203 F 
ATOM     89  F   UNL     1       3.494  14.286  12.234  1.00  0.00    -0.200 F 
ATOM     90  C   UNL     1       1.816  12.911  13.166  1.00  0.00     0.200 A 
ATOM     91  F   UNL     1       0.140  11.506  14.056  1.00  0.00    -0.200 F 
ATOM     92  F   UNL     1       2.064  13.410  14.385  1.00  0.00    -0.200 F 
ENDBRANCH  59  82
ENDBRANCH  33  34
ENDBRANCH  26  28
ENDBRANCH  25  26
ENDBRANCH  24  25
ENDBRANCH   1  24
TORSDOF 13
