REMARK SMILES O=C(OCCOC(=O)c1ccc(C(F)(F)F)nc1NC[C@@H]1CCOC1)c1ccc(-c2c3nc(c(-c4c(F)c(F)c(F)c(F)c4F)c4ccc([nH]4)c(-c4c(F)c(F)c(F)c(F)c4F)c4nc(c(-c5c(F)c(F)c(F)c(F)c5F)c5ccc2[nH]5)C=C4)C=C3)cc1
REMARK SMILES IDX 5 1 4 2 3 3 2 4 1 5 26 6 27 7 88 8 28 9 87 10 29 11 30 12
REMARK SMILES IDX 31 13 81 14 32 15 86 16 80 17 82 18 33 19 85 20 79 21 78 22
REMARK SMILES IDX 34 24 66 25 46 26 65 27 47 28 50 29 64 30 83 31 48 32 49 33
REMARK SMILES IDX 63 35 84 36 51 37 35 38 36 39 44 40 37 41 38 42 42 43 45 44
REMARK SMILES IDX 39 45 40 46 43 47 41 48 67 49 68 50 76 51 69 52 70 53 74 54
REMARK SMILES IDX 77 55 71 56 72 57 75 58 73 59 52 60 53 61 61 62 54 63 55 64
REMARK SMILES IDX 59 65 62 66 56 67 57 68 60 69 58 70 6 71 7 72 8 73 9 74
REMARK SMILES IDX 10 75 18 76 11 77 17 78 12 79 19 80 20 82 21 83 22 84 25 85
REMARK SMILES IDX 23 86 24 87 13 88 14 89 15 90 16 91
REMARK H PARENT 82 23 50 34 19 81
REMARK Flexibility Score: inf
ROOT
ATOM      1  C   UNL     1       4.125   1.611  -1.647  1.00  0.00     0.275 C 
ENDROOT
BRANCH   1   2
ATOM      2  C   UNL     1       4.341   0.095  -1.672  1.00  0.00     0.275 C 
BRANCH   2   3
ATOM      3  O   UNL     1       3.292  -0.672  -1.054  1.00  0.00    -0.458 OA
BRANCH   3   4
ATOM      4  C   UNL     1       3.261  -1.186   0.200  1.00  0.00     0.338 C 
ATOM      5  O   UNL     1       2.537  -2.148   0.446  1.00  0.00    -0.246 OA
BRANCH   4   6
ATOM      6  C   UNL     1       3.918  -0.493   1.347  1.00  0.00     0.060 A 
ATOM      7  C   UNL     1       5.197   0.065   1.334  1.00  0.00     0.016 A 
ATOM      8  C   UNL     1       3.187  -0.438   2.545  1.00  0.00     0.016 A 
ATOM      9  C   UNL     1       5.699   0.722   2.457  1.00  0.00     0.010 A 
ATOM     10  C   UNL     1       3.667   0.243   3.664  1.00  0.00     0.010 A 
ATOM     11  C   UNL     1       4.942   0.808   3.628  1.00  0.00    -0.014 A 
BRANCH  11  12
ATOM     12  C   UNL     1       5.590   1.305   4.858  1.00  0.00     0.031 A 
ATOM     13  C   UNL     1       6.090   0.294   5.846  1.00  0.00     0.074 A 
ATOM     14  C   UNL     1       5.817   2.618   5.032  1.00  0.00     0.049 A 
ATOM     15  N   UNL     1       6.828   0.472   6.909  1.00  0.00    -0.248 NA
ATOM     16  C   UNL     1       5.742  -1.113   5.582  1.00  0.00     0.031 C 
ATOM     17  C   UNL     1       5.435   3.668   4.091  1.00  0.00     0.029 A 
ATOM     18  N   UNL     1       6.436   3.294   6.050  1.00  0.00    -0.354 N 
ATOM     19  C   UNL     1       7.062  -0.799   7.414  1.00  0.00     0.074 A 
ATOM     20  C   UNL     1       6.330  -1.733   6.590  1.00  0.00     0.031 C 
ATOM     21  C   UNL     1       5.801   4.862   4.586  1.00  0.00     0.029 A 
ATOM     22  C   UNL     1       6.461   4.656   5.871  1.00  0.00     0.049 A 
ATOM     23  H   UNL     1       6.827   2.846   6.835  1.00  0.00     0.167 HD
ATOM     24  C   UNL     1       7.851  -1.156   8.452  1.00  0.00     0.037 A 
ATOM     25  C   UNL     1       6.979   5.619   6.656  1.00  0.00     0.037 A 
ATOM     26  C   UNL     1       8.545  -0.211   9.282  1.00  0.00     0.049 A 
ATOM     27  C   UNL     1       7.743   5.203   7.885  1.00  0.00     0.074 A 
ATOM     28  C   UNL     1       9.360  -0.450  10.371  1.00  0.00     0.029 A 
ATOM     29  N   UNL     1       8.481   1.167   9.117  1.00  0.00    -0.354 N 
ATOM     30  N   UNL     1       8.017   3.995   8.318  1.00  0.00    -0.248 NA
ATOM     31  C   UNL     1       8.300   6.279   8.714  1.00  0.00     0.031 C 
ATOM     32  C   UNL     1       9.745   0.788  10.900  1.00  0.00     0.029 A 
ATOM     33  C   UNL     1       9.217   1.796  10.106  1.00  0.00     0.049 A 
ATOM     34  H   UNL     1       7.985   1.628   8.403  1.00  0.00     0.167 HD
ATOM     35  C   UNL     1       8.817   4.162   9.439  1.00  0.00     0.074 A 
ATOM     36  C   UNL     1       8.985   5.592   9.617  1.00  0.00     0.031 C 
ATOM     37  C   UNL     1       9.372   3.223  10.245  1.00  0.00     0.037 A 
BRANCH  24  38
ATOM     38  C   UNL     1       7.959  -2.623   8.743  1.00  0.00     0.064 A 
ATOM     39  C   UNL     1       8.632  -3.497   7.872  1.00  0.00     0.173 A 
ATOM     40  C   UNL     1       7.341  -3.172   9.874  1.00  0.00     0.173 A 
ATOM     41  F   UNL     1       9.218  -3.025   6.761  1.00  0.00    -0.203 F 
ATOM     42  C   UNL     1       8.645  -4.870   8.103  1.00  0.00     0.198 A 
ATOM     43  C   UNL     1       7.381  -4.543  10.117  1.00  0.00     0.198 A 
ATOM     44  F   UNL     1       6.682  -2.382  10.735  1.00  0.00    -0.203 F 
ATOM     45  F   UNL     1       9.232  -5.691   7.221  1.00  0.00    -0.200 F 
ATOM     46  C   UNL     1       8.021  -5.391   9.226  1.00  0.00     0.200 A 
ATOM     47  F   UNL     1       6.782  -5.045  11.206  1.00  0.00    -0.200 F 
ATOM     48  F   UNL     1       8.022  -6.714   9.441  1.00  0.00    -0.200 F 
ENDBRANCH  24  38
BRANCH  25  49
ATOM     49  C   UNL     1       6.833   7.052   6.284  1.00  0.00     0.064 A 
ATOM     50  C   UNL     1       7.939   7.823   5.902  1.00  0.00     0.173 A 
ATOM     51  C   UNL     1       5.580   7.684   6.317  1.00  0.00     0.173 A 
ATOM     52  F   UNL     1       9.160   7.269   5.864  1.00  0.00    -0.203 F 
ATOM     53  C   UNL     1       7.804   9.176   5.593  1.00  0.00     0.198 A 
ATOM     54  C   UNL     1       5.442   9.031   5.984  1.00  0.00     0.198 A 
ATOM     55  F   UNL     1       4.487   6.990   6.663  1.00  0.00    -0.203 F 
ATOM     56  F   UNL     1       8.885   9.899   5.271  1.00  0.00    -0.200 F 
ATOM     57  C   UNL     1       6.555   9.778   5.632  1.00  0.00     0.200 A 
ATOM     58  F   UNL     1       4.231   9.604   6.007  1.00  0.00    -0.200 F 
ATOM     59  F   UNL     1       6.426  11.078   5.333  1.00  0.00    -0.200 F 
ENDBRANCH  25  49
BRANCH  37  60
ATOM     60  C   UNL     1      10.248   3.713  11.359  1.00  0.00     0.064 A 
ATOM     61  C   UNL     1       9.719   4.361  12.484  1.00  0.00     0.173 A 
ATOM     62  C   UNL     1      11.633   3.490  11.316  1.00  0.00     0.173 A 
ATOM     63  F   UNL     1       8.404   4.611  12.563  1.00  0.00    -0.203 F 
ATOM     64  C   UNL     1      10.549   4.793  13.514  1.00  0.00     0.198 A 
ATOM     65  C   UNL     1      12.455   3.892  12.364  1.00  0.00     0.198 A 
ATOM     66  F   UNL     1      12.187   2.867  10.264  1.00  0.00    -0.203 F 
ATOM     67  F   UNL     1      10.030   5.457  14.555  1.00  0.00    -0.200 F 
ATOM     68  C   UNL     1      11.914   4.551  13.457  1.00  0.00     0.200 A 
ATOM     69  F   UNL     1      13.771   3.643  12.314  1.00  0.00    -0.200 F 
ATOM     70  F   UNL     1      12.710   4.960  14.454  1.00  0.00    -0.200 F 
ENDBRANCH  37  60
ENDBRANCH  11  12
ENDBRANCH   4   6
ENDBRANCH   3   4
ENDBRANCH   2   3
ENDBRANCH   1   2
BRANCH   1  71
ATOM     71  O   UNL     1       3.670   2.121  -0.383  1.00  0.00    -0.458 OA
BRANCH  71  72
ATOM     72  C   UNL     1       2.318   2.179  -0.257  1.00  0.00     0.342 C 
ATOM     73  O   UNL     1       1.497   1.848  -1.098  1.00  0.00    -0.246 OA
BRANCH  72  74
ATOM     74  C   UNL     1       1.945   2.614   1.101  1.00  0.00     0.102 A 
ATOM     75  C   UNL     1       2.528   3.748   1.669  1.00  0.00     0.022 A 
ATOM     76  C   UNL     1       0.981   1.894   1.815  1.00  0.00     0.141 A 
ATOM     77  C   UNL     1       2.155   4.128   2.955  1.00  0.00     0.034 A 
ATOM     78  N   UNL     1       0.648   2.254   3.076  1.00  0.00    -0.226 NA
ATOM     79  C   UNL     1       1.226   3.352   3.647  1.00  0.00     0.146 A 
BRANCH  76  80
ATOM     80  N   UNL     1       0.436   0.736   1.299  1.00  0.00    -0.369 N 
ATOM     81  H   UNL     1       0.674   0.483   0.378  1.00  0.00     0.162 HD
BRANCH  80  82
ATOM     82  C   UNL     1      -0.469  -0.131   2.031  1.00  0.00     0.120 C 
BRANCH  82  83
ATOM     83  C   UNL     1      -1.746  -0.328   1.209  1.00  0.00     0.036 C 
ATOM     84  C   UNL     1      -2.653   0.884   1.265  1.00  0.00     0.036 C 
ATOM     85  C   UNL     1      -2.631  -1.403   1.815  1.00  0.00     0.165 C 
ATOM     86  C   UNL     1      -3.437   0.660   2.541  1.00  0.00     0.160 C 
ATOM     87  O   UNL     1      -3.505  -0.757   2.750  1.00  0.00    -0.381 OA
ENDBRANCH  82  83
ENDBRANCH  80  82
ENDBRANCH  76  80
BRANCH  79  88
ATOM     88  C   UNL     1       0.841   3.717   5.076  1.00  0.00     0.433 C 
ATOM     89  F   UNL     1      -0.467   4.086   5.195  1.00  0.00    -0.165 F 
ATOM     90  F   UNL     1       1.031   2.695   5.958  1.00  0.00    -0.165 F 
ATOM     91  F   UNL     1       1.560   4.767   5.574  1.00  0.00    -0.165 F 
ENDBRANCH  79  88
ENDBRANCH  72  74
ENDBRANCH  71  72
ENDBRANCH   1  71
TORSDOF 15
