REMARK SMILES Cc1ccccc1[C@@H](Cc1ncnn1C(C)C)C(=O)OCCOC(=O)c1ccc(-c2c3nc(c(-c4c(F)c(F)c(F)c(F)c4F)c4ccc([nH]4)c(-c4c(F)c(F)c(F)c(F)c4F)c4nc(c(-c5c(F)c(F)c(F)c(F)c5F)c5ccc2[nH]5)C=C4)C=C3)cc1
REMARK SMILES IDX 21 1 20 2 18 3 19 4 8 5 7 6 1 7 2 8 3 9 4 10 6 11 5 12 9 13
REMARK SMILES IDX 10 14 11 15 14 16 12 17 13 18 15 19 16 20 17 21 22 22 23 23
REMARK SMILES IDX 24 24 25 25 26 26 27 27 88 28 28 29 87 30 29 31 30 32 31 33
REMARK SMILES IDX 81 34 32 35 86 36 80 37 82 38 33 39 85 40 79 41 78 42 34 44
REMARK SMILES IDX 66 45 46 46 65 47 47 48 50 49 64 50 83 51 48 52 49 53 63 55
REMARK SMILES IDX 84 56 51 57 35 58 36 59 44 60 37 61 38 62 42 63 45 64 39 65
REMARK SMILES IDX 40 66 43 67 41 68 67 69 68 70 76 71 69 72 70 73 74 74 77 75
REMARK SMILES IDX 71 76 72 77 75 78 73 79 52 80 53 81 61 82 54 83 55 84 59 85
REMARK SMILES IDX 62 86 56 87 57 88 60 89 58 90
REMARK H PARENT 82 43 50 54
REMARK Flexibility Score: inf
ROOT
ATOM      1  C   UNL     1      -1.690   2.325   3.417  1.00  0.00     0.274 C 
ENDROOT
BRANCH   1   2
ATOM      2  O   UNL     1      -1.228   1.717   2.214  1.00  0.00    -0.462 OA
BRANCH   2   3
ATOM      3  C   UNL     1      -1.407   2.552   1.166  1.00  0.00     0.314 C 
ATOM      4  O   UNL     1      -1.971   3.629   1.315  1.00  0.00    -0.252 OA
BRANCH   3   5
ATOM      5  C   UNL     1      -0.725   2.128  -0.119  1.00  0.00     0.137 C 
BRANCH   5   6
ATOM      6  C   UNL     1      -0.876   0.634  -0.393  1.00  0.00    -0.030 A 
ATOM      7  C   UNL     1       1.668  -0.021  -0.385  1.00  0.00     0.044 C 
ATOM      8  C   UNL     1       0.188  -0.317  -0.348  1.00  0.00    -0.047 A 
ATOM      9  C   UNL     1      -0.126  -1.681  -0.184  1.00  0.00     0.004 A 
ATOM     10  C   UNL     1      -1.446  -2.112  -0.119  1.00  0.00     0.000 A 
ATOM     11  C   UNL     1      -2.195   0.158  -0.438  1.00  0.00     0.005 A 
ATOM     12  C   UNL     1      -2.476  -1.196  -0.277  1.00  0.00     0.000 A 
ENDBRANCH   5   6
BRANCH   5  13
ATOM     13  C   UNL     1      -1.060   3.202  -1.188  1.00  0.00     0.097 C 
BRANCH  13  14
ATOM     14  C   UNL     1      -2.431   3.884  -1.176  1.00  0.00     0.128 A 
ATOM     15  N   UNL     1      -3.471   3.233  -1.665  1.00  0.00    -0.220 NA
ATOM     16  N   UNL     1      -2.906   5.125  -0.669  1.00  0.00    -0.248 N 
ATOM     17  C   UNL     1      -4.504   4.090  -1.513  1.00  0.00     0.246 A 
ATOM     18  N   UNL     1      -4.191   5.290  -1.055  1.00  0.00    -0.159 NA
BRANCH  16  19
ATOM     19  C   UNL     1      -2.453   6.142   0.286  1.00  0.00     0.103 C 
ATOM     20  C   UNL     1      -2.337   7.513  -0.318  1.00  0.00     0.033 C 
ATOM     21  C   UNL     1      -3.410   6.465   1.445  1.00  0.00     0.033 C 
ENDBRANCH  16  19
ENDBRANCH  13  14
ENDBRANCH   5  13
ENDBRANCH   3   5
ENDBRANCH   2   3
ENDBRANCH   1   2
BRANCH   1  22
ATOM     22  C   UNL     1      -0.773   2.009   4.583  1.00  0.00     0.275 C 
BRANCH  22  23
ATOM     23  O   UNL     1       0.564   1.467   4.305  1.00  0.00    -0.458 OA
BRANCH  23  24
ATOM     24  C   UNL     1       1.545   1.649   3.381  1.00  0.00     0.338 C 
ATOM     25  O   UNL     1       2.419   0.784   3.247  1.00  0.00    -0.246 OA
BRANCH  24  26
ATOM     26  C   UNL     1       1.616   2.847   2.495  1.00  0.00     0.060 A 
ATOM     27  C   UNL     1       2.392   2.928   1.309  1.00  0.00     0.016 A 
ATOM     28  C   UNL     1       0.838   3.926   2.786  1.00  0.00     0.016 A 
ATOM     29  C   UNL     1       2.265   4.009   0.362  1.00  0.00     0.010 A 
ATOM     30  C   UNL     1       0.550   4.830   1.772  1.00  0.00     0.010 A 
ATOM     31  C   UNL     1       1.284   4.982   0.549  1.00  0.00    -0.014 A 
BRANCH  31  32
ATOM     32  C   UNL     1       1.089   6.352  -0.141  1.00  0.00     0.031 A 
ATOM     33  C   UNL     1       0.446   6.697  -1.562  1.00  0.00     0.074 A 
ATOM     34  C   UNL     1       1.157   7.247   0.904  1.00  0.00     0.049 A 
ATOM     35  N   UNL     1       0.197   7.917  -1.977  1.00  0.00    -0.248 NA
ATOM     36  C   UNL     1      -0.057   5.787  -2.619  1.00  0.00     0.031 C 
ATOM     37  C   UNL     1       0.368   8.412   1.315  1.00  0.00     0.029 A 
ATOM     38  N   UNL     1       1.967   7.070   2.048  1.00  0.00    -0.354 N 
ATOM     39  C   UNL     1      -0.912   7.893  -2.881  1.00  0.00     0.074 A 
ATOM     40  C   UNL     1      -0.920   6.533  -3.345  1.00  0.00     0.031 C 
ATOM     41  C   UNL     1       0.854   8.913   2.473  1.00  0.00     0.029 A 
ATOM     42  C   UNL     1       2.110   8.262   2.747  1.00  0.00     0.049 A 
ATOM     43  H   UNL     1       2.376   6.216   2.315  1.00  0.00     0.167 HD
ATOM     44  C   UNL     1      -1.825   8.952  -2.909  1.00  0.00     0.037 A 
ATOM     45  C   UNL     1       3.369   8.774   2.648  1.00  0.00     0.037 A 
ATOM     46  C   UNL     1      -1.360  10.015  -1.998  1.00  0.00     0.049 A 
ATOM     47  C   UNL     1       3.389   9.767   1.478  1.00  0.00     0.074 A 
ATOM     48  C   UNL     1      -1.863  10.690  -0.898  1.00  0.00     0.029 A 
ATOM     49  N   UNL     1      -0.035  10.367  -2.062  1.00  0.00    -0.354 N 
ATOM     50  N   UNL     1       2.322  10.286   0.912  1.00  0.00    -0.248 NA
ATOM     51  C   UNL     1       4.609  10.210   0.825  1.00  0.00     0.031 C 
ATOM     52  C   UNL     1      -0.764  11.342  -0.242  1.00  0.00     0.029 A 
ATOM     53  C   UNL     1       0.369  11.157  -1.012  1.00  0.00     0.049 A 
ATOM     54  H   UNL     1       0.566  10.083  -2.788  1.00  0.00     0.167 HD
ATOM     55  C   UNL     1       2.662  11.002  -0.201  1.00  0.00     0.074 A 
ATOM     56  C   UNL     1       4.117  10.930  -0.198  1.00  0.00     0.031 C 
ATOM     57  C   UNL     1       1.758  11.576  -1.066  1.00  0.00     0.037 A 
BRANCH  44  58
ATOM     58  C   UNL     1      -3.311   9.053  -3.436  1.00  0.00     0.064 A 
ATOM     59  C   UNL     1      -3.986  10.313  -3.389  1.00  0.00     0.173 A 
ATOM     60  C   UNL     1      -4.165   7.989  -3.804  1.00  0.00     0.173 A 
ATOM     61  F   UNL     1      -3.315  11.443  -3.123  1.00  0.00    -0.203 F 
ATOM     62  C   UNL     1      -5.368  10.480  -3.604  1.00  0.00     0.198 A 
ATOM     63  C   UNL     1      -5.553   8.166  -4.061  1.00  0.00     0.198 A 
ATOM     64  F   UNL     1      -3.699   6.739  -3.908  1.00  0.00    -0.203 F 
ATOM     65  F   UNL     1      -5.928  11.693  -3.465  1.00  0.00    -0.200 F 
ATOM     66  C   UNL     1      -6.155   9.406  -3.944  1.00  0.00     0.200 A 
ATOM     67  F   UNL     1      -6.315   7.117  -4.413  1.00  0.00    -0.200 F 
ATOM     68  F   UNL     1      -7.469   9.567  -4.166  1.00  0.00    -0.200 F 
ENDBRANCH  44  58
BRANCH  45  69
ATOM     69  C   UNL     1       4.328   7.628   3.003  1.00  0.00     0.064 A 
ATOM     70  C   UNL     1       4.138   7.056   4.295  1.00  0.00     0.173 A 
ATOM     71  C   UNL     1       4.870   6.768   2.027  1.00  0.00     0.173 A 
ATOM     72  F   UNL     1       3.576   7.791   5.270  1.00  0.00    -0.203 F 
ATOM     73  C   UNL     1       4.291   5.685   4.534  1.00  0.00     0.198 A 
ATOM     74  C   UNL     1       5.059   5.397   2.288  1.00  0.00     0.198 A 
ATOM     75  F   UNL     1       5.044   7.197   0.770  1.00  0.00    -0.203 F 
ATOM     76  F   UNL     1       3.877   5.157   5.696  1.00  0.00    -0.200 F 
ATOM     77  C   UNL     1       4.728   4.853   3.522  1.00  0.00     0.200 A 
ATOM     78  F   UNL     1       5.444   4.575   1.299  1.00  0.00    -0.200 F 
ATOM     79  F   UNL     1       4.758   3.524   3.711  1.00  0.00    -0.200 F 
ENDBRANCH  45  69
BRANCH  57  80
ATOM     80  C   UNL     1       2.163  12.488  -2.212  1.00  0.00     0.064 A 
ATOM     81  C   UNL     1       3.304  13.287  -2.129  1.00  0.00     0.173 A 
ATOM     82  C   UNL     1       1.405  12.659  -3.402  1.00  0.00     0.173 A 
ATOM     83  F   UNL     1       3.946  13.449  -0.963  1.00  0.00    -0.203 F 
ATOM     84  C   UNL     1       3.798  13.981  -3.230  1.00  0.00     0.198 A 
ATOM     85  C   UNL     1       1.872  13.389  -4.488  1.00  0.00     0.198 A 
ATOM     86  F   UNL     1       0.176  12.156  -3.570  1.00  0.00    -0.203 F 
ATOM     87  F   UNL     1       4.966  14.625  -3.126  1.00  0.00    -0.200 F 
ATOM     88  C   UNL     1       3.098  14.007  -4.420  1.00  0.00     0.200 A 
ATOM     89  F   UNL     1       1.125  13.479  -5.598  1.00  0.00    -0.200 F 
ATOM     90  F   UNL     1       3.583  14.657  -5.483  1.00  0.00    -0.200 F 
ENDBRANCH  57  80
ENDBRANCH  31  32
ENDBRANCH  24  26
ENDBRANCH  23  24
ENDBRANCH  22  23
ENDBRANCH   1  22
TORSDOF 15
