REMARK SMILES O=C(CCC(=O)N1CCN(S(=O)(=O)c2cccs2)CC1)OCCOC(=O)c1ccc(-c2c3nc(c(-c4c(F)c(F)c(F)c(F)c4F)c4ccc([nH]4)c(-c4c(F)c(F)c(F)c(F)c4F)c4nc(c(-c5c(F)c(F)c(F)c(F)c5F)c5ccc2[nH]5)C=C4)C=C3)cc1
REMARK SMILES IDX 22 1 21 2 2 3 1 4 3 5 4 6 5 7 6 8 7 9 8 10 20 11 9 12 19 13
REMARK SMILES IDX 10 14 11 15 12 16 13 17 14 18 15 19 18 20 16 21 17 22 23 23
REMARK SMILES IDX 24 24 25 25 26 26 27 27 28 28 89 29 29 30 88 31 30 32 31 33
REMARK SMILES IDX 32 34 82 35 33 36 87 37 81 38 83 39 34 40 86 41 80 42 79 43
REMARK SMILES IDX 35 45 67 46 47 47 66 48 48 49 51 50 65 51 84 52 49 53 50 54
REMARK SMILES IDX 64 56 85 57 52 58 36 59 37 60 45 61 38 62 39 63 43 64 46 65
REMARK SMILES IDX 40 66 41 67 44 68 42 69 68 70 69 71 77 72 70 73 71 74 75 75
REMARK SMILES IDX 78 76 72 77 73 78 76 79 74 80 53 81 54 82 62 83 55 84 56 85
REMARK SMILES IDX 60 86 63 87 57 88 58 89 61 90 59 91
REMARK H PARENT 83 44 51 55
REMARK Flexibility Score: inf
ROOT
ATOM      1  C   UNL     1       4.550   1.116  -1.046  1.00  0.00     0.274 C 
ENDROOT
BRANCH   1   2
ATOM      2  O   UNL     1       3.170   0.766  -0.792  1.00  0.00    -0.462 OA
BRANCH   2   3
ATOM      3  C   UNL     1       2.681   0.270   0.365  1.00  0.00     0.306 C 
ATOM      4  O   UNL     1       1.476   0.045   0.472  1.00  0.00    -0.252 OA
BRANCH   3   5
ATOM      5  C   UNL     1       3.619  -0.094   1.482  1.00  0.00     0.132 C 
BRANCH   5   6
ATOM      6  C   UNL     1       3.772  -1.603   1.594  1.00  0.00     0.112 C 
BRANCH   6   7
ATOM      7  C   UNL     1       4.693  -2.191   0.541  1.00  0.00     0.223 C 
ATOM      8  O   UNL     1       5.913  -2.131   0.714  1.00  0.00    -0.275 OA
ATOM      9  N   UNL     1       4.136  -2.798  -0.580  1.00  0.00    -0.340 N 
ATOM     10  C   UNL     1       5.075  -3.453  -1.506  1.00  0.00     0.136 C 
ATOM     11  C   UNL     1       2.822  -2.422  -1.123  1.00  0.00     0.136 C 
ATOM     12  C   UNL     1       4.406  -4.394  -2.522  1.00  0.00     0.124 C 
ATOM     13  C   UNL     1       2.236  -3.363  -2.173  1.00  0.00     0.124 C 
ATOM     14  N   UNL     1       3.237  -3.744  -3.202  1.00  0.00    -0.194 NA
BRANCH  14  15
ATOM     15  S   UNL     1       3.689  -2.573  -4.362  1.00  0.00     0.252 S 
ATOM     16  O   UNL     1       4.340  -1.479  -3.670  1.00  0.00    -0.206 OA
ATOM     17  O   UNL     1       4.368  -3.264  -5.436  1.00  0.00    -0.206 OA
BRANCH  15  18
ATOM     18  C   UNL     1       2.237  -1.807  -5.052  1.00  0.00     0.135 A 
ATOM     19  C   UNL     1       1.554  -0.663  -4.676  1.00  0.00     0.033 A 
ATOM     20  S   UNL     1       1.536  -2.528  -6.433  1.00  0.00    -0.131 S 
ATOM     21  C   UNL     1       0.484  -0.351  -5.561  1.00  0.00     0.013 A 
ATOM     22  C   UNL     1       0.378  -1.274  -6.578  1.00  0.00     0.066 A 
ENDBRANCH  15  18
ENDBRANCH  14  15
ENDBRANCH   6   7
ENDBRANCH   5   6
ENDBRANCH   3   5
ENDBRANCH   2   3
ENDBRANCH   1   2
BRANCH   1  23
ATOM     23  C   UNL     1       4.760   2.616  -0.848  1.00  0.00     0.275 C 
BRANCH  23  24
ATOM     24  O   UNL     1       4.295   3.004   0.455  1.00  0.00    -0.458 OA
BRANCH  24  25
ATOM     25  C   UNL     1       3.006   3.439   0.488  1.00  0.00     0.338 C 
ATOM     26  O   UNL     1       2.292   3.697  -0.458  1.00  0.00    -0.246 OA
BRANCH  25  27
ATOM     27  C   UNL     1       2.522   3.362   1.882  1.00  0.00     0.060 A 
ATOM     28  C   UNL     1       1.222   2.887   2.100  1.00  0.00     0.016 A 
ATOM     29  C   UNL     1       3.328   3.747   2.958  1.00  0.00     0.016 A 
ATOM     30  C   UNL     1       0.704   2.844   3.392  1.00  0.00     0.010 A 
ATOM     31  C   UNL     1       2.805   3.715   4.251  1.00  0.00     0.010 A 
ATOM     32  C   UNL     1       1.478   3.306   4.464  1.00  0.00    -0.014 A 
BRANCH  32  33
ATOM     33  C   UNL     1       0.823   3.595   5.758  1.00  0.00     0.031 A 
ATOM     34  C   UNL     1       0.321   4.994   5.989  1.00  0.00     0.074 A 
ATOM     35  C   UNL     1       0.662   2.643   6.692  1.00  0.00     0.049 A 
ATOM     36  N   UNL     1      -0.273   5.505   7.035  1.00  0.00    -0.248 NA
ATOM     37  C   UNL     1       0.521   5.948   4.884  1.00  0.00     0.031 C 
ATOM     38  C   UNL     1       1.090   1.253   6.566  1.00  0.00     0.029 A 
ATOM     39  N   UNL     1       0.099   2.714   7.941  1.00  0.00    -0.354 N 
ATOM     40  C   UNL     1      -0.531   6.830   6.708  1.00  0.00     0.074 A 
ATOM     41  C   UNL     1       0.016   7.061   5.390  1.00  0.00     0.031 C 
ATOM     42  C   UNL     1       0.790   0.602   7.704  1.00  0.00     0.029 A 
ATOM     43  C   UNL     1       0.165   1.535   8.640  1.00  0.00     0.049 A 
ATOM     44  H   UNL     1      -0.314   3.532   8.301  1.00  0.00     0.167 HD
ATOM     45  C   UNL     1      -1.184   7.766   7.434  1.00  0.00     0.037 A 
ATOM     46  C   UNL     1      -0.226   1.256   9.899  1.00  0.00     0.037 A 
ATOM     47  C   UNL     1      -1.702   7.540   8.755  1.00  0.00     0.049 A 
ATOM     48  C   UNL     1      -0.888   2.338  10.716  1.00  0.00     0.074 A 
ATOM     49  C   UNL     1      -2.361   8.423   9.591  1.00  0.00     0.029 A 
ATOM     50  N   UNL     1      -1.609   6.334   9.436  1.00  0.00    -0.354 N 
ATOM     51  N   UNL     1      -1.158   3.579  10.389  1.00  0.00    -0.248 NA
ATOM     52  C   UNL     1      -1.313   1.974  12.075  1.00  0.00     0.031 C 
ATOM     53  C   UNL     1      -2.631   7.763  10.794  1.00  0.00     0.029 A 
ATOM     54  C   UNL     1      -2.187   6.454  10.689  1.00  0.00     0.049 A 
ATOM     55  H   UNL     1      -1.194   5.515   9.082  1.00  0.00     0.167 HD
ATOM     56  C   UNL     1      -1.809   4.133  11.485  1.00  0.00     0.074 A 
ATOM     57  C   UNL     1      -1.909   3.086  12.480  1.00  0.00     0.031 C 
ATOM     58  C   UNL     1      -2.282   5.392  11.656  1.00  0.00     0.037 A 
BRANCH  45  59
ATOM     59  C   UNL     1      -1.360   9.119   6.810  1.00  0.00     0.064 A 
ATOM     60  C   UNL     1      -2.239   9.318   5.734  1.00  0.00     0.173 A 
ATOM     61  C   UNL     1      -0.652  10.228   7.295  1.00  0.00     0.173 A 
ATOM     62  F   UNL     1      -2.922   8.284   5.220  1.00  0.00    -0.203 F 
ATOM     63  C   UNL     1      -2.385  10.574   5.152  1.00  0.00     0.198 A 
ATOM     64  C   UNL     1      -0.822  11.488   6.727  1.00  0.00     0.198 A 
ATOM     65  F   UNL     1       0.204  10.090   8.318  1.00  0.00    -0.203 F 
ATOM     66  F   UNL     1      -3.194  10.730   4.094  1.00  0.00    -0.200 F 
ATOM     67  C   UNL     1      -1.682  11.659   5.653  1.00  0.00     0.200 A 
ATOM     68  F   UNL     1      -0.148  12.538   7.217  1.00  0.00    -0.200 F 
ATOM     69  F   UNL     1      -1.827  12.868   5.094  1.00  0.00    -0.200 F 
ENDBRANCH  45  59
BRANCH  46  70
ATOM     70  C   UNL     1      -0.001  -0.097  10.471  1.00  0.00     0.064 A 
ATOM     71  C   UNL     1      -1.075  -0.945  10.775  1.00  0.00     0.173 A 
ATOM     72  C   UNL     1       1.292  -0.556  10.762  1.00  0.00     0.173 A 
ATOM     73  F   UNL     1      -2.333  -0.543  10.538  1.00  0.00    -0.203 F 
ATOM     74  C   UNL     1      -0.867  -2.186  11.374  1.00  0.00     0.198 A 
ATOM     75  C   UNL     1       1.501  -1.809  11.335  1.00  0.00     0.198 A 
ATOM     76  F   UNL     1       2.355   0.216  10.492  1.00  0.00    -0.203 F 
ATOM     77  F   UNL     1      -1.916  -2.952  11.707  1.00  0.00    -0.200 F 
ATOM     78  C   UNL     1       0.421  -2.619  11.650  1.00  0.00     0.200 A 
ATOM     79  F   UNL     1       2.748  -2.227  11.589  1.00  0.00    -0.200 F 
ATOM     80  F   UNL     1       0.621  -3.810  12.230  1.00  0.00    -0.200 F 
ENDBRANCH  46  70
BRANCH  58  81
ATOM     81  C   UNL     1      -2.983   5.692  12.950  1.00  0.00     0.064 A 
ATOM     82  C   UNL     1      -2.284   5.795  14.161  1.00  0.00     0.173 A 
ATOM     83  C   UNL     1      -4.369   5.915  12.969  1.00  0.00     0.173 A 
ATOM     84  F   UNL     1      -0.960   5.579  14.196  1.00  0.00    -0.203 F 
ATOM     85  C   UNL     1      -2.951   6.077  15.350  1.00  0.00     0.198 A 
ATOM     86  C   UNL     1      -5.027   6.228  14.154  1.00  0.00     0.198 A 
ATOM     87  F   UNL     1      -5.082   5.839  11.836  1.00  0.00    -0.203 F 
ATOM     88  F   UNL     1      -2.270   6.118  16.504  1.00  0.00    -0.200 F 
ATOM     89  C   UNL     1      -4.320   6.300  15.345  1.00  0.00     0.200 A 
ATOM     90  F   UNL     1      -6.348   6.458  14.145  1.00  0.00    -0.200 F 
ATOM     91  F   UNL     1      -4.959   6.576  16.489  1.00  0.00    -0.200 F 
ENDBRANCH  58  81
ENDBRANCH  32  33
ENDBRANCH  25  27
ENDBRANCH  24  25
ENDBRANCH  23  24
ENDBRANCH   1  23
TORSDOF 15
