REMARK SMILES COc1cc(CNc2ccc(N3CCOCC3)c(C(=O)OCCOC(=O)c3ccc(-c4c5nc(c(-c6c(F)c(F)c(F)c(F)c6F)c6ccc([nH]6)c(-c6c(F)c(F)c(F)c(F)c6F)c6nc(c(-c7c(F)c(F)c(F)c(F)c7F)c7ccc4[nH]7)C=C6)C=C5)cc3)c2)cc(Br)c1OC
REMARK SMILES IDX 22 1 21 2 19 3 20 4 18 5 8 6 9 7 90 8 10 9 11 10 7 11 6 13
REMARK SMILES IDX 5 14 3 15 4 16 94 17 92 18 91 19 93 20 2 21 1 22 95 23 96 24
REMARK SMILES IDX 12 25 13 26 17 27 14 28 16 29 15 30 23 31 24 32 25 33 26 34
REMARK SMILES IDX 27 35 28 36 89 37 29 38 88 39 30 40 31 41 32 42 82 43 33 44
REMARK SMILES IDX 87 45 81 46 83 47 34 48 86 49 80 50 79 51 35 53 67 54 47 55
REMARK SMILES IDX 66 56 48 57 51 58 65 59 84 60 49 61 50 62 64 64 85 65 52 66
REMARK SMILES IDX 36 67 37 68 45 69 38 70 39 71 43 72 46 73 40 74 41 75 44 76
REMARK SMILES IDX 42 77 68 78 69 79 77 80 70 81 71 82 75 83 78 84 72 85 73 86
REMARK SMILES IDX 76 87 74 88 53 89 54 90 62 91 55 92 56 93 60 94 63 95 57 96
REMARK SMILES IDX 58 97 61 98 59 99
REMARK H PARENT 7 12 83 52 51 63
REMARK Flexibility Score: inf
ROOT
ATOM      1  C   UNL     1      10.423  -1.129  -4.330  1.00  0.00     0.275 C 
ENDROOT
BRANCH   1   2
ATOM      2  O   UNL     1       9.155  -0.624  -3.892  1.00  0.00    -0.458 OA
BRANCH   2   3
ATOM      3  C   UNL     1       8.732  -1.045  -2.671  1.00  0.00     0.340 C 
ATOM      4  O   UNL     1       9.213  -1.937  -2.005  1.00  0.00    -0.246 OA
BRANCH   3   5
ATOM      5  C   UNL     1       7.655  -0.117  -2.250  1.00  0.00     0.085 A 
ATOM      6  C   UNL     1       5.499   0.861  -2.833  1.00  0.00     0.035 A 
ATOM      7  C   UNL     1       5.547   1.570  -1.633  1.00  0.00     0.028 A 
ATOM      8  C   UNL     1       6.585   0.049  -3.144  1.00  0.00     0.043 A 
ATOM      9  C   UNL     1       6.606   1.394  -0.728  1.00  0.00     0.029 A 
ATOM     10  C   UNL     1       7.672   0.517  -0.993  1.00  0.00     0.052 A 
BRANCH   6  11
ATOM     11  N   UNL     1       4.361   0.902  -3.614  1.00  0.00    -0.381 N 
ATOM     12  H   UNL     1       3.844   1.739  -3.663  1.00  0.00     0.160 HD
BRANCH  11  13
ATOM     13  C   UNL     1       3.902  -0.255  -4.367  1.00  0.00     0.149 C 
BRANCH  13  14
ATOM     14  C   UNL     1       2.472  -0.575  -4.003  1.00  0.00    -0.024 A 
ATOM     15  C   UNL     1       0.770  -1.039  -2.335  1.00  0.00     0.162 A 
ATOM     16  C   UNL     1       2.089  -0.715  -2.667  1.00  0.00     0.056 A 
ATOM     17  C   UNL     1      -0.203  -1.293  -3.333  1.00  0.00     0.174 A 
ATOM     18  C   UNL     1       0.195  -1.183  -4.676  1.00  0.00     0.064 A 
ATOM     19  C   UNL     1       1.520  -0.823  -4.995  1.00  0.00     0.025 A 
ATOM     20  Br  UNL     1      -0.884  -1.501  -6.213  1.00  0.00    -0.047 Br
BRANCH  15  21
ATOM     21  O   UNL     1       0.392  -1.206  -1.019  1.00  0.00    -0.493 OA
ATOM     22  C   UNL     1       0.855  -0.182  -0.142  1.00  0.00     0.278 C 
ENDBRANCH  15  21
BRANCH  17  23
ATOM     23  O   UNL     1      -1.419  -1.612  -2.796  1.00  0.00    -0.492 OA
ATOM     24  C   UNL     1      -2.557  -1.864  -3.593  1.00  0.00     0.278 C 
ENDBRANCH  17  23
ENDBRANCH  13  14
ENDBRANCH  11  13
ENDBRANCH   6  11
BRANCH  10  25
ATOM     25  N   UNL     1       8.653   0.293  -0.047  1.00  0.00    -0.366 N 
ATOM     26  C   UNL     1      10.065   0.544  -0.350  1.00  0.00     0.145 C 
ATOM     27  C   UNL     1       8.344   0.198   1.381  1.00  0.00     0.145 C 
ATOM     28  C   UNL     1      10.996  -0.389   0.425  1.00  0.00     0.181 C 
ATOM     29  C   UNL     1       9.328  -0.790   2.034  1.00  0.00     0.181 C 
ATOM     30  O   UNL     1      10.694  -0.389   1.831  1.00  0.00    -0.378 OA
ENDBRANCH  10  25
ENDBRANCH   3   5
ENDBRANCH   2   3
ENDBRANCH   1   2
BRANCH   1  31
ATOM     31  C   UNL     1      11.272   0.042  -4.833  1.00  0.00     0.275 C 
BRANCH  31  32
ATOM     32  O   UNL     1      11.454   1.028  -3.793  1.00  0.00    -0.458 OA
BRANCH  32  33
ATOM     33  C   UNL     1      10.650   2.124  -3.858  1.00  0.00     0.338 C 
ATOM     34  O   UNL     1       9.848   2.392  -4.736  1.00  0.00    -0.246 OA
BRANCH  33  35
ATOM     35  C   UNL     1      10.787   2.914  -2.605  1.00  0.00     0.060 A 
ATOM     36  C   UNL     1       9.637   3.492  -2.052  1.00  0.00     0.016 A 
ATOM     37  C   UNL     1      12.008   3.019  -1.924  1.00  0.00     0.016 A 
ATOM     38  C   UNL     1       9.694   4.118  -0.798  1.00  0.00     0.010 A 
ATOM     39  C   UNL     1      12.067   3.657  -0.674  1.00  0.00     0.010 A 
ATOM     40  C   UNL     1      10.907   4.195  -0.090  1.00  0.00    -0.014 A 
BRANCH  40  41
ATOM     41  C   UNL     1      10.977   4.970   1.181  1.00  0.00     0.031 A 
ATOM     42  C   UNL     1      11.152   6.455   1.079  1.00  0.00     0.074 A 
ATOM     43  C   UNL     1      10.892   4.404   2.403  1.00  0.00     0.049 A 
ATOM     44  N   UNL     1      11.132   7.362   2.022  1.00  0.00    -0.248 NA
ATOM     45  C   UNL     1      11.394   6.985  -0.271  1.00  0.00     0.031 C 
ATOM     46  C   UNL     1      10.771   2.978   2.671  1.00  0.00     0.029 A 
ATOM     47  N   UNL     1      10.896   4.970   3.660  1.00  0.00    -0.354 N 
ATOM     48  C   UNL     1      11.334   8.571   1.375  1.00  0.00     0.074 A 
ATOM     49  C   UNL     1      11.516   8.280  -0.031  1.00  0.00     0.031 C 
ATOM     50  C   UNL     1      10.684   2.774   3.997  1.00  0.00     0.029 A 
ATOM     51  C   UNL     1      10.770   4.059   4.685  1.00  0.00     0.049 A 
ATOM     52  H   UNL     1      10.982   5.939   3.811  1.00  0.00     0.167 HD
ATOM     53  C   UNL     1      11.360   9.816   1.902  1.00  0.00     0.037 A 
ATOM     54  C   UNL     1      10.733   4.240   6.022  1.00  0.00     0.037 A 
ATOM     55  C   UNL     1      11.243  10.116   3.301  1.00  0.00     0.049 A 
ATOM     56  C   UNL     1      10.849   5.639   6.585  1.00  0.00     0.074 A 
ATOM     57  C   UNL     1      11.245  11.355   3.917  1.00  0.00     0.029 A 
ATOM     58  N   UNL     1      11.143   9.168   4.307  1.00  0.00    -0.354 N 
ATOM     59  N   UNL     1      10.908   6.787   5.956  1.00  0.00    -0.248 NA
ATOM     60  C   UNL     1      10.894   5.763   8.052  1.00  0.00     0.031 C 
ATOM     61  C   UNL     1      11.215  11.154   5.300  1.00  0.00     0.029 A 
ATOM     62  C   UNL     1      11.124   9.793   5.543  1.00  0.00     0.049 A 
ATOM     63  H   UNL     1      11.093   8.195   4.164  1.00  0.00     0.167 HD
ATOM     64  C   UNL     1      10.953   7.763   6.945  1.00  0.00     0.074 A 
ATOM     65  C   UNL     1      10.899   7.078   8.216  1.00  0.00     0.031 C 
ATOM     66  C   UNL     1      11.037   9.109   6.808  1.00  0.00     0.037 A 
BRANCH  53  67
ATOM     67  C   UNL     1      11.561  10.946   0.942  1.00  0.00     0.064 A 
ATOM     68  C   UNL     1      10.554  11.328   0.043  1.00  0.00     0.173 A 
ATOM     69  C   UNL     1      12.774  11.647   0.916  1.00  0.00     0.173 A 
ATOM     70  F   UNL     1       9.385  10.669   0.018  1.00  0.00    -0.203 F 
ATOM     71  C   UNL     1      10.767  12.356  -0.869  1.00  0.00     0.198 A 
ATOM     72  C   UNL     1      12.972  12.693   0.022  1.00  0.00     0.198 A 
ATOM     73  F   UNL     1      13.768  11.313   1.753  1.00  0.00    -0.203 F 
ATOM     74  F   UNL     1       9.813  12.669  -1.757  1.00  0.00    -0.200 F 
ATOM     75  C   UNL     1      11.973  13.041  -0.875  1.00  0.00     0.200 A 
ATOM     76  F   UNL     1      14.135  13.359   0.020  1.00  0.00    -0.200 F 
ATOM     77  F   UNL     1      12.177  14.030  -1.756  1.00  0.00    -0.200 F 
ENDBRANCH  53  67
BRANCH  54  78
ATOM     78  C   UNL     1      10.584   3.089   6.960  1.00  0.00     0.064 A 
ATOM     79  C   UNL     1       9.457   2.982   7.792  1.00  0.00     0.173 A 
ATOM     80  C   UNL     1      11.605   2.143   7.132  1.00  0.00     0.173 A 
ATOM     81  F   UNL     1       8.465   3.879   7.693  1.00  0.00    -0.203 F 
ATOM     82  C   UNL     1       9.381   2.009   8.787  1.00  0.00     0.198 A 
ATOM     83  C   UNL     1      11.512   1.149   8.106  1.00  0.00     0.198 A 
ATOM     84  F   UNL     1      12.710   2.203   6.376  1.00  0.00    -0.203 F 
ATOM     85  F   UNL     1       8.333   1.989   9.623  1.00  0.00    -0.200 F 
ATOM     86  C   UNL     1      10.409   1.093   8.944  1.00  0.00     0.200 A 
ATOM     87  F   UNL     1      12.507   0.263   8.254  1.00  0.00    -0.200 F 
ATOM     88  F   UNL     1      10.348   0.174   9.918  1.00  0.00    -0.200 F 
ENDBRANCH  54  78
BRANCH  66  89
ATOM     89  C   UNL     1      11.012   9.948   8.055  1.00  0.00     0.064 A 
ATOM     90  C   UNL     1      12.085   9.972   8.958  1.00  0.00     0.173 A 
ATOM     91  C   UNL     1       9.920  10.793   8.314  1.00  0.00     0.173 A 
ATOM     92  F   UNL     1      13.147   9.175   8.767  1.00  0.00    -0.203 F 
ATOM     93  C   UNL     1      12.056  10.794  10.083  1.00  0.00     0.198 A 
ATOM     94  C   UNL     1       9.911  11.639   9.419  1.00  0.00     0.198 A 
ATOM     95  F   UNL     1       8.870  10.816   7.480  1.00  0.00    -0.203 F 
ATOM     96  F   UNL     1      13.074  10.767  10.956  1.00  0.00    -0.200 F 
ATOM     97  C   UNL     1      10.976  11.634  10.307  1.00  0.00     0.200 A 
ATOM     98  F   UNL     1       8.874  12.463   9.622  1.00  0.00    -0.200 F 
ATOM     99  F   UNL     1      10.960  12.437  11.379  1.00  0.00    -0.200 F 
ENDBRANCH  66  89
ENDBRANCH  40  41
ENDBRANCH  33  35
ENDBRANCH  32  33
ENDBRANCH  31  32
ENDBRANCH   1  31
TORSDOF 17
