REMARK SMILES CN(CCCC(=O)OCCOC(=O)c1ccc(-c2c3nc(c(-c4c(F)c(F)c(F)c(F)c4F)c4ccc([nH]4)c(-c4c(F)c(F)c(F)c(F)c4F)c4nc(c(-c5c(F)c(F)c(F)c(F)c5F)c5ccc2[nH]5)C=C4)C=C3)cc1)C(=O)c1c[nH]nc1-c1ccccc1
REMARK SMILES IDX 6 1 7 2 5 3 4 4 3 5 2 6 1 7 77 8 78 9 79 10 80 11 83 12
REMARK SMILES IDX 81 13 82 14 84 16 85 17 89 18 86 19 88 20 87 21 8 22 9 23
REMARK SMILES IDX 10 24 11 25 12 26 13 27 14 28 15 29 76 30 16 31 75 32 17 33
REMARK SMILES IDX 18 34 19 35 69 36 20 37 74 38 68 39 70 40 21 41 73 42 67 43
REMARK SMILES IDX 66 44 22 46 54 47 34 48 53 49 35 50 38 51 52 52 71 53 36 54
REMARK SMILES IDX 37 55 51 57 72 58 39 59 23 60 24 61 32 62 25 63 26 64 30 65
REMARK SMILES IDX 33 66 27 67 28 68 31 69 29 70 55 71 56 72 64 73 57 74 58 75
REMARK SMILES IDX 62 76 65 77 59 78 60 79 63 80 61 81 40 82 41 83 49 84 42 85
REMARK SMILES IDX 43 86 47 87 50 88 44 89 45 90 48 91 46 92
REMARK H PARENT 81 15 70 45 38 56
REMARK Flexibility Score: inf
ROOT
ATOM      1  C   UNL     1      -0.948  -2.755   3.468  1.00  0.00     0.305 C 
ATOM      2  O   UNL     1      -1.234  -3.940   3.581  1.00  0.00    -0.252 OA
ENDROOT
BRANCH   1   3
ATOM      3  C   UNL     1      -1.635  -1.847   2.472  1.00  0.00     0.124 C 
BRANCH   3   4
ATOM      4  C   UNL     1      -0.810  -0.682   1.955  1.00  0.00     0.033 C 
BRANCH   4   5
ATOM      5  C   UNL     1       0.635  -1.019   1.581  1.00  0.00     0.120 C 
BRANCH   5   6
ATOM      6  N   UNL     1       0.843  -1.470   0.207  1.00  0.00    -0.342 N 
ATOM      7  C   UNL     1       1.123  -0.425  -0.762  1.00  0.00     0.147 C 
BRANCH   6   8
ATOM      8  C   UNL     1       1.285  -2.761  -0.130  1.00  0.00     0.257 C 
ATOM      9  O   UNL     1       2.048  -2.951  -1.074  1.00  0.00    -0.269 OA
BRANCH   8  10
ATOM     10  C   UNL     1       0.744  -3.894   0.601  1.00  0.00     0.085 A 
ATOM     11  C   UNL     1      -0.567  -4.331   0.538  1.00  0.00     0.119 A 
ATOM     12  C   UNL     1       1.425  -4.953   1.276  1.00  0.00     0.105 A 
ATOM     13  N   UNL     1      -0.626  -5.484   1.258  1.00  0.00    -0.284 N 
ATOM     14  N   UNL     1       0.566  -5.897   1.696  1.00  0.00    -0.175 NA
ATOM     15  H   UNL     1      -1.466  -5.966   1.439  1.00  0.00     0.189 HD
BRANCH  12  16
ATOM     16  C   UNL     1       2.854  -5.155   1.466  1.00  0.00     0.003 A 
ATOM     17  C   UNL     1       3.418  -6.366   1.038  1.00  0.00     0.010 A 
ATOM     18  C   UNL     1       3.668  -4.189   2.063  1.00  0.00     0.010 A 
ATOM     19  C   UNL     1       4.783  -6.601   1.177  1.00  0.00     0.001 A 
ATOM     20  C   UNL     1       5.037  -4.432   2.212  1.00  0.00     0.001 A 
ATOM     21  C   UNL     1       5.593  -5.632   1.762  1.00  0.00     0.000 A 
ENDBRANCH  12  16
ENDBRANCH   8  10
ENDBRANCH   6   8
ENDBRANCH   5   6
ENDBRANCH   4   5
ENDBRANCH   3   4
ENDBRANCH   1   3
BRANCH   1  22
ATOM     22  O   UNL     1      -0.097  -2.084   4.284  1.00  0.00    -0.462 OA
BRANCH  22  23
ATOM     23  C   UNL     1       0.478  -2.858   5.352  1.00  0.00     0.274 C 
BRANCH  23  24
ATOM     24  C   UNL     1      -0.351  -2.711   6.631  1.00  0.00     0.275 C 
BRANCH  24  25
ATOM     25  O   UNL     1      -1.607  -3.410   6.540  1.00  0.00    -0.458 OA
BRANCH  25  26
ATOM     26  C   UNL     1      -2.635  -2.709   6.012  1.00  0.00     0.338 C 
ATOM     27  O   UNL     1      -2.641  -1.528   5.682  1.00  0.00    -0.246 OA
BRANCH  26  28
ATOM     28  C   UNL     1      -3.751  -3.619   5.723  1.00  0.00     0.060 A 
ATOM     29  C   UNL     1      -4.122  -3.828   4.390  1.00  0.00     0.016 A 
ATOM     30  C   UNL     1      -4.473  -4.206   6.760  1.00  0.00     0.016 A 
ATOM     31  C   UNL     1      -5.205  -4.632   4.077  1.00  0.00     0.010 A 
ATOM     32  C   UNL     1      -5.580  -4.996   6.449  1.00  0.00     0.010 A 
ATOM     33  C   UNL     1      -5.952  -5.199   5.108  1.00  0.00    -0.014 A 
BRANCH  33  34
ATOM     34  C   UNL     1      -7.210  -5.886   4.771  1.00  0.00     0.031 A 
ATOM     35  C   UNL     1      -8.496  -5.138   4.932  1.00  0.00     0.074 A 
ATOM     36  C   UNL     1      -7.184  -7.131   4.267  1.00  0.00     0.049 A 
ATOM     37  N   UNL     1      -9.725  -5.566   4.823  1.00  0.00    -0.248 NA
ATOM     38  C   UNL     1      -8.379  -3.706   5.257  1.00  0.00     0.031 C 
ATOM     39  C   UNL     1      -5.974  -7.893   3.963  1.00  0.00     0.029 A 
ATOM     40  N   UNL     1      -8.209  -7.970   3.922  1.00  0.00    -0.354 N 
ATOM     41  C   UNL     1     -10.527  -4.466   5.091  1.00  0.00     0.074 A 
ATOM     42  C   UNL     1      -9.649  -3.351   5.373  1.00  0.00     0.031 C 
ATOM     43  C   UNL     1      -6.327  -9.098   3.485  1.00  0.00     0.029 A 
ATOM     44  C   UNL     1      -7.783  -9.207   3.509  1.00  0.00     0.049 A 
ATOM     45  H   UNL     1      -9.158  -7.712   3.966  1.00  0.00     0.167 HD
ATOM     46  C   UNL     1     -11.878  -4.405   5.106  1.00  0.00     0.037 A 
ATOM     47  C   UNL     1      -8.499 -10.312   3.229  1.00  0.00     0.037 A 
ATOM     48  C   UNL     1     -12.728  -5.530   4.821  1.00  0.00     0.049 A 
ATOM     49  C   UNL     1      -9.998 -10.248   3.360  1.00  0.00     0.074 A 
ATOM     50  C   UNL     1     -14.108  -5.600   4.839  1.00  0.00     0.029 A 
ATOM     51  N   UNL     1     -12.265  -6.790   4.465  1.00  0.00    -0.354 N 
ATOM     52  N   UNL     1     -10.760  -9.226   3.671  1.00  0.00    -0.248 NA
ATOM     53  C   UNL     1     -10.735 -11.494   3.116  1.00  0.00     0.031 C 
ATOM     54  C   UNL     1     -14.479  -6.915   4.534  1.00  0.00     0.029 A 
ATOM     55  C   UNL     1     -13.332  -7.651   4.277  1.00  0.00     0.049 A 
ATOM     56  H   UNL     1     -11.317  -7.034   4.361  1.00  0.00     0.167 HD
ATOM     57  C   UNL     1     -12.065  -9.697   3.638  1.00  0.00     0.074 A 
ATOM     58  C   UNL     1     -11.991 -11.095   3.263  1.00  0.00     0.031 C 
ATOM     59  C   UNL     1     -13.221  -9.036   3.894  1.00  0.00     0.037 A 
BRANCH  46  60
ATOM     60  C   UNL     1     -12.502  -3.099   5.497  1.00  0.00     0.064 A 
ATOM     61  C   UNL     1     -12.471  -1.979   4.654  1.00  0.00     0.173 A 
ATOM     62  C   UNL     1     -13.131  -2.964   6.744  1.00  0.00     0.173 A 
ATOM     63  F   UNL     1     -11.859  -2.048   3.462  1.00  0.00    -0.203 F 
ATOM     64  C   UNL     1     -13.023  -0.764   5.055  1.00  0.00     0.198 A 
ATOM     65  C   UNL     1     -13.706  -1.756   7.131  1.00  0.00     0.198 A 
ATOM     66  F   UNL     1     -13.184  -4.003   7.591  1.00  0.00    -0.203 F 
ATOM     67  F   UNL     1     -12.933   0.308   4.256  1.00  0.00    -0.200 F 
ATOM     68  C   UNL     1     -13.644  -0.656   6.291  1.00  0.00     0.200 A 
ATOM     69  F   UNL     1     -14.311  -1.655   8.323  1.00  0.00    -0.200 F 
ATOM     70  F   UNL     1     -14.172   0.514   6.677  1.00  0.00    -0.200 F 
ENDBRANCH  46  60
BRANCH  47  71
ATOM     71  C   UNL     1      -7.810 -11.569   2.842  1.00  0.00     0.064 A 
ATOM     72  C   UNL     1      -7.948 -12.101   1.553  1.00  0.00     0.173 A 
ATOM     73  C   UNL     1      -7.007 -12.271   3.754  1.00  0.00     0.173 A 
ATOM     74  F   UNL     1      -8.725 -11.480   0.653  1.00  0.00    -0.203 F 
ATOM     75  C   UNL     1      -7.320 -13.292   1.194  1.00  0.00     0.198 A 
ATOM     76  C   UNL     1      -6.356 -13.447   3.386  1.00  0.00     0.198 A 
ATOM     77  F   UNL     1      -6.845 -11.809   5.002  1.00  0.00    -0.203 F 
ATOM     78  F   UNL     1      -7.503 -13.800  -0.032  1.00  0.00    -0.200 F 
ATOM     79  C   UNL     1      -6.519 -13.960   2.108  1.00  0.00     0.200 A 
ATOM     80  F   UNL     1      -5.575 -14.083   4.269  1.00  0.00    -0.200 F 
ATOM     81  F   UNL     1      -5.912 -15.104   1.762  1.00  0.00    -0.200 F 
ENDBRANCH  47  71
BRANCH  59  82
ATOM     82  C   UNL     1     -14.496  -9.811   3.736  1.00  0.00     0.064 A 
ATOM     83  C   UNL     1     -14.884 -10.786   4.665  1.00  0.00     0.173 A 
ATOM     84  C   UNL     1     -15.356  -9.542   2.661  1.00  0.00     0.173 A 
ATOM     85  F   UNL     1     -14.085 -11.089   5.700  1.00  0.00    -0.203 F 
ATOM     86  C   UNL     1     -16.079 -11.482   4.510  1.00  0.00     0.198 A 
ATOM     87  C   UNL     1     -16.564 -10.219   2.526  1.00  0.00     0.198 A 
ATOM     88  F   UNL     1     -15.031  -8.612   1.750  1.00  0.00    -0.203 F 
ATOM     89  F   UNL     1     -16.410 -12.443   5.384  1.00  0.00    -0.200 F 
ATOM     90  C   UNL     1     -16.921 -11.193   3.446  1.00  0.00     0.200 A 
ATOM     91  F   UNL     1     -17.383  -9.929   1.506  1.00  0.00    -0.200 F 
ATOM     92  F   UNL     1     -18.075 -11.859   3.304  1.00  0.00    -0.200 F 
ENDBRANCH  59  82
ENDBRANCH  33  34
ENDBRANCH  26  28
ENDBRANCH  25  26
ENDBRANCH  24  25
ENDBRANCH  23  24
ENDBRANCH  22  23
ENDBRANCH   1  22
TORSDOF 17
