REMARK SMILES CC(=O)Nc1ccc(/C=N/c2ccccc2C(=O)OCCOC(=O)c2ccc(-c3c4nc(c(-c5c(F)c(F)c(F)c(F)c5F)c5ccc([nH]5)c(-c5c(F)c(F)c(F)c(F)c5F)c5nc(c(-c6c(F)c(F)c(F)c(F)c6F)c6ccc3[nH]6)C=C5)C=C4)cc2)cc1
REMARK SMILES IDX 20 1 19 2 17 3 18 4 16 5 11 6 12 7 13 8 15 9 14 10 10 11
REMARK SMILES IDX 9 12 8 13 5 14 6 15 89 16 7 17 88 18 4 19 1 20 2 21 3 22
REMARK SMILES IDX 21 24 22 25 23 26 24 27 25 28 26 29 87 30 27 31 86 32 28 33
REMARK SMILES IDX 29 34 30 35 80 36 31 37 85 38 79 39 81 40 32 41 84 42 78 43
REMARK SMILES IDX 77 44 33 46 65 47 45 48 64 49 46 50 49 51 63 52 82 53 47 54
REMARK SMILES IDX 48 55 62 57 83 58 50 59 34 60 35 61 43 62 36 63 37 64 41 65
REMARK SMILES IDX 44 66 38 67 39 68 42 69 40 70 66 71 67 72 75 73 68 74 69 75
REMARK SMILES IDX 73 76 76 77 70 78 71 79 74 80 72 81 51 82 52 83 60 84 53 85
REMARK SMILES IDX 54 86 58 87 61 88 55 89 56 90 59 91 57 92
REMARK H PARENT 4 23 81 45 49 56
REMARK Flexibility Score: inf
ROOT
ATOM      1  C   UNL     1       6.822  -0.231   4.696  1.00  0.00     0.275 C 
ENDROOT
BRANCH   1   2
ATOM      2  O   UNL     1       6.235  -0.818   5.875  1.00  0.00    -0.458 OA
BRANCH   2   3
ATOM      3  C   UNL     1       6.558  -2.104   6.148  1.00  0.00     0.340 C 
ATOM      4  O   UNL     1       7.399  -2.774   5.568  1.00  0.00    -0.246 OA
BRANCH   3   5
ATOM      5  C   UNL     1       5.791  -2.635   7.302  1.00  0.00     0.085 A 
ATOM      6  C   UNL     1       4.417  -2.399   7.496  1.00  0.00     0.077 A 
ATOM      7  C   UNL     1       3.798  -2.962   8.622  1.00  0.00     0.029 A 
ATOM      8  C   UNL     1       4.509  -3.756   9.526  1.00  0.00     0.002 A 
ATOM      9  C   UNL     1       6.493  -3.467   8.195  1.00  0.00     0.018 A 
ATOM     10  C   UNL     1       5.859  -4.011   9.312  1.00  0.00     0.001 A 
BRANCH   6  11
ATOM     11  N   UNL     1       3.604  -1.597   6.675  1.00  0.00    -0.255 NA
ATOM     12  C   UNL     1       3.573  -1.851   5.407  1.00  0.00     0.119 C 
BRANCH  12  13
ATOM     13  C   UNL     1       2.843  -0.978   4.476  1.00  0.00    -0.007 A 
ATOM     14  C   UNL     1       1.488   0.669   2.667  1.00  0.00     0.041 A 
ATOM     15  C   UNL     1       1.213   0.743   4.038  1.00  0.00     0.027 A 
ATOM     16  C   UNL     1       2.497  -0.189   2.223  1.00  0.00     0.027 A 
ATOM     17  C   UNL     1       1.883  -0.082   4.943  1.00  0.00     0.012 A 
ATOM     18  C   UNL     1       3.167  -1.024   3.121  1.00  0.00     0.012 A 
BRANCH  14  19
ATOM     19  N   UNL     1       0.740   1.505   1.825  1.00  0.00    -0.326 N 
ATOM     20  C   UNL     1       0.801   0.218  -0.313  1.00  0.00     0.114 C 
ATOM     21  C   UNL     1       0.467   1.446   0.489  1.00  0.00     0.221 C 
ATOM     22  O   UNL     1      -0.111   2.399  -0.039  1.00  0.00    -0.275 OA
ATOM     23  H   UNL     1       0.338   2.279   2.282  1.00  0.00     0.169 HD
ENDBRANCH  14  19
ENDBRANCH  12  13
ENDBRANCH   6  11
ENDBRANCH   3   5
ENDBRANCH   2   3
ENDBRANCH   1   2
BRANCH   1  24
ATOM     24  C   UNL     1       7.711   0.947   5.072  1.00  0.00     0.275 C 
BRANCH  24  25
ATOM     25  O   UNL     1       8.828   0.452   5.827  1.00  0.00    -0.458 OA
BRANCH  25  26
ATOM     26  C   UNL     1       8.878   0.836   7.116  1.00  0.00     0.338 C 
ATOM     27  O   UNL     1       8.184   1.664   7.692  1.00  0.00    -0.246 OA
BRANCH  26  28
ATOM     28  C   UNL     1       9.901   0.039   7.795  1.00  0.00     0.060 A 
ATOM     29  C   UNL     1       9.626  -1.298   8.076  1.00  0.00     0.016 A 
ATOM     30  C   UNL     1      11.077   0.634   8.244  1.00  0.00     0.016 A 
ATOM     31  C   UNL     1      10.499  -2.039   8.865  1.00  0.00     0.010 A 
ATOM     32  C   UNL     1      11.985  -0.129   8.981  1.00  0.00     0.010 A 
ATOM     33  C   UNL     1      11.688  -1.462   9.328  1.00  0.00    -0.014 A 
BRANCH  33  34
ATOM     34  C   UNL     1      12.584  -2.217  10.241  1.00  0.00     0.031 A 
ATOM     35  C   UNL     1      12.822  -1.706  11.634  1.00  0.00     0.074 A 
ATOM     36  C   UNL     1      13.172  -3.359   9.839  1.00  0.00     0.049 A 
ATOM     37  N   UNL     1      13.710  -2.083  12.519  1.00  0.00    -0.248 NA
ATOM     38  C   UNL     1      11.952  -0.609  12.086  1.00  0.00     0.031 C 
ATOM     39  C   UNL     1      12.985  -3.995   8.536  1.00  0.00     0.029 A 
ATOM     40  N   UNL     1      14.052  -4.186  10.492  1.00  0.00    -0.354 N 
ATOM     41  C   UNL     1      13.546  -1.232  13.604  1.00  0.00     0.074 A 
ATOM     42  C   UNL     1      12.474  -0.319  13.269  1.00  0.00     0.031 C 
ATOM     43  C   UNL     1      13.712  -5.122   8.490  1.00  0.00     0.029 A 
ATOM     44  C   UNL     1      14.476  -5.246   9.728  1.00  0.00     0.049 A 
ATOM     45  H   UNL     1      14.351  -4.035  11.418  1.00  0.00     0.167 HD
ATOM     46  C   UNL     1      14.234  -1.213  14.771  1.00  0.00     0.037 A 
ATOM     47  C   UNL     1      15.408  -6.185   9.977  1.00  0.00     0.037 A 
ATOM     48  C   UNL     1      15.262  -2.159  15.118  1.00  0.00     0.049 A 
ATOM     49  C   UNL     1      16.162  -6.145  11.276  1.00  0.00     0.074 A 
ATOM     50  C   UNL     1      16.018  -2.230  16.275  1.00  0.00     0.029 A 
ATOM     51  N   UNL     1      15.665  -3.214  14.312  1.00  0.00    -0.354 N 
ATOM     52  N   UNL     1      16.056  -5.292  12.266  1.00  0.00    -0.248 NA
ATOM     53  C   UNL     1      17.177  -7.186  11.485  1.00  0.00     0.031 C 
ATOM     54  C   UNL     1      16.895  -3.315  16.159  1.00  0.00     0.029 A 
ATOM     55  C   UNL     1      16.660  -3.941  14.945  1.00  0.00     0.049 A 
ATOM     56  H   UNL     1      15.297  -3.417  13.422  1.00  0.00     0.167 HD
ATOM     57  C   UNL     1      16.990  -5.689  13.213  1.00  0.00     0.074 A 
ATOM     58  C   UNL     1      17.634  -6.877  12.691  1.00  0.00     0.031 C 
ATOM     59  C   UNL     1      17.294  -5.115  14.403  1.00  0.00     0.037 A 
BRANCH  46  60
ATOM     60  C   UNL     1      13.921  -0.109  15.737  1.00  0.00     0.064 A 
ATOM     61  C   UNL     1      12.726  -0.079  16.471  1.00  0.00     0.173 A 
ATOM     62  C   UNL     1      14.839   0.934  15.935  1.00  0.00     0.173 A 
ATOM     63  F   UNL     1      11.809  -1.044  16.305  1.00  0.00    -0.203 F 
ATOM     64  C   UNL     1      12.449   0.970  17.345  1.00  0.00     0.198 A 
ATOM     65  C   UNL     1      14.570   1.967  16.830  1.00  0.00     0.198 A 
ATOM     66  F   UNL     1      15.998   0.953  15.261  1.00  0.00    -0.203 F 
ATOM     67  F   UNL     1      11.278   1.004  17.997  1.00  0.00    -0.200 F 
ATOM     68  C   UNL     1      13.372   1.988  17.527  1.00  0.00     0.200 A 
ATOM     69  F   UNL     1      15.469   2.945  17.012  1.00  0.00    -0.200 F 
ATOM     70  F   UNL     1      13.104   2.996  18.369  1.00  0.00    -0.200 F 
ENDBRANCH  46  60
BRANCH  47  71
ATOM     71  C   UNL     1      15.701  -7.212   8.946  1.00  0.00     0.064 A 
ATOM     72  C   UNL     1      15.323  -8.548   9.129  1.00  0.00     0.173 A 
ATOM     73  C   UNL     1      16.334  -6.870   7.742  1.00  0.00     0.173 A 
ATOM     74  F   UNL     1      14.739  -8.928  10.274  1.00  0.00    -0.203 F 
ATOM     75  C   UNL     1      15.565  -9.504   8.143  1.00  0.00     0.198 A 
ATOM     76  C   UNL     1      16.551  -7.819   6.747  1.00  0.00     0.198 A 
ATOM     77  F   UNL     1      16.716  -5.603   7.520  1.00  0.00    -0.203 F 
ATOM     78  F   UNL     1      15.218 -10.781   8.352  1.00  0.00    -0.200 F 
ATOM     79  C   UNL     1      16.169  -9.136   6.949  1.00  0.00     0.200 A 
ATOM     80  F   UNL     1      17.120  -7.456   5.589  1.00  0.00    -0.200 F 
ATOM     81  F   UNL     1      16.384 -10.052   5.995  1.00  0.00    -0.200 F 
ENDBRANCH  47  71
BRANCH  59  82
ATOM     82  C   UNL     1      18.364  -5.773  15.221  1.00  0.00     0.064 A 
ATOM     83  C   UNL     1      19.719  -5.655  14.880  1.00  0.00     0.173 A 
ATOM     84  C   UNL     1      18.033  -6.502  16.372  1.00  0.00     0.173 A 
ATOM     85  F   UNL     1      20.082  -4.981  13.779  1.00  0.00    -0.203 F 
ATOM     86  C   UNL     1      20.704  -6.263  15.653  1.00  0.00     0.198 A 
ATOM     87  C   UNL     1      19.022  -7.090  17.155  1.00  0.00     0.198 A 
ATOM     88  F   UNL     1      16.750  -6.639  16.741  1.00  0.00    -0.203 F 
ATOM     89  F   UNL     1      21.991  -6.173  15.287  1.00  0.00    -0.200 F 
ATOM     90  C   UNL     1      20.356  -6.975  16.792  1.00  0.00     0.200 A 
ATOM     91  F   UNL     1      18.686  -7.771  18.259  1.00  0.00    -0.200 F 
ATOM     92  F   UNL     1      21.306  -7.559  17.535  1.00  0.00    -0.200 F 
ENDBRANCH  59  82
ENDBRANCH  33  34
ENDBRANCH  26  28
ENDBRANCH  25  26
ENDBRANCH  24  25
ENDBRANCH   1  24
TORSDOF 14
