REMARK SMILES O=C(OCCOC(=O)[C@H]1CCCN1S(=O)(=O)c1ccccc1Cl)c1ccc(-c2c3nc(c(-c4c(F)c(F)c(F)c(F)c4F)c4ccc([nH]4)c(-c4c(F)c(F)c(F)c(F)c4F)c4nc(c(-c5c(F)c(F)c(F)c(F)c5F)c5ccc2[nH]5)C=C4)C=C3)cc1
REMARK SMILES IDX 4 1 3 2 2 3 1 4 24 5 25 6 86 7 26 8 85 9 27 10 28 11 29 12
REMARK SMILES IDX 79 13 30 14 84 15 78 16 80 17 31 18 83 19 77 20 76 21 32 23
REMARK SMILES IDX 64 24 44 25 63 26 45 27 48 28 62 29 81 30 46 31 47 32 61 34
REMARK SMILES IDX 82 35 49 36 33 37 34 38 42 39 35 40 36 41 40 42 43 43 37 44
REMARK SMILES IDX 38 45 41 46 39 47 65 48 66 49 74 50 67 51 68 52 72 53 75 54
REMARK SMILES IDX 69 55 70 56 73 57 71 58 50 59 51 60 59 61 52 62 53 63 57 64
REMARK SMILES IDX 60 65 54 66 55 67 58 68 56 69 5 70 6 71 7 72 8 73 9 74 10 75
REMARK SMILES IDX 13 76 11 77 12 78 14 79 15 80 16 81 17 82 18 83 22 84 19 85
REMARK SMILES IDX 21 86 23 87 20 88
REMARK H PARENT 80 22 48 33
REMARK Flexibility Score: inf
ROOT
ATOM      1  C   UNL     1      -1.779   1.563   2.374  1.00  0.00     0.275 C 
ENDROOT
BRANCH   1   2
ATOM      2  O   UNL     1      -1.092   1.520   1.113  1.00  0.00    -0.458 OA
BRANCH   2   3
ATOM      3  C   UNL     1       0.117   2.007   0.754  1.00  0.00     0.338 C 
ATOM      4  O   UNL     1       0.542   1.721  -0.365  1.00  0.00    -0.246 OA
BRANCH   3   5
ATOM      5  C   UNL     1       1.034   2.791   1.654  1.00  0.00     0.060 A 
ATOM      6  C   UNL     1       0.708   3.425   2.859  1.00  0.00     0.016 A 
ATOM      7  C   UNL     1       2.374   2.858   1.239  1.00  0.00     0.016 A 
ATOM      8  C   UNL     1       1.693   4.012   3.671  1.00  0.00     0.010 A 
ATOM      9  C   UNL     1       3.357   3.436   2.046  1.00  0.00     0.010 A 
ATOM     10  C   UNL     1       3.030   3.999   3.282  1.00  0.00    -0.014 A 
BRANCH  10  11
ATOM     11  C   UNL     1       4.080   4.678   4.078  1.00  0.00     0.031 A 
ATOM     12  C   UNL     1       4.643   5.960   3.546  1.00  0.00     0.074 A 
ATOM     13  C   UNL     1       4.543   4.155   5.232  1.00  0.00     0.049 A 
ATOM     14  N   UNL     1       5.526   6.757   4.085  1.00  0.00    -0.248 NA
ATOM     15  C   UNL     1       4.123   6.425   2.248  1.00  0.00     0.031 C 
ATOM     16  C   UNL     1       4.039   2.949   5.877  1.00  0.00     0.029 A 
ATOM     17  N   UNL     1       5.561   4.554   6.061  1.00  0.00    -0.354 N 
ATOM     18  C   UNL     1       5.605   7.846   3.233  1.00  0.00     0.074 A 
ATOM     19  C   UNL     1       4.789   7.554   2.078  1.00  0.00     0.031 C 
ATOM     20  C   UNL     1       4.807   2.637   6.932  1.00  0.00     0.029 A 
ATOM     21  C   UNL     1       5.822   3.668   7.083  1.00  0.00     0.049 A 
ATOM     22  H   UNL     1       6.060   5.394   5.936  1.00  0.00     0.167 HD
ATOM     23  C   UNL     1       6.242   9.020   3.438  1.00  0.00     0.037 A 
ATOM     24  C   UNL     1       6.755   3.704   8.052  1.00  0.00     0.037 A 
ATOM     25  C   UNL     1       7.088   9.273   4.569  1.00  0.00     0.049 A 
ATOM     26  C   UNL     1       7.576   4.957   8.179  1.00  0.00     0.074 A 
ATOM     27  C   UNL     1       7.807  10.412   4.876  1.00  0.00     0.029 A 
ATOM     28  N   UNL     1       7.345   8.348   5.574  1.00  0.00    -0.354 N 
ATOM     29  N   UNL     1       7.558   6.032   7.428  1.00  0.00    -0.248 NA
ATOM     30  C   UNL     1       8.488   5.038   9.326  1.00  0.00     0.031 C 
ATOM     31  C   UNL     1       8.540  10.157   6.040  1.00  0.00     0.029 A 
ATOM     32  C   UNL     1       8.233   8.881   6.491  1.00  0.00     0.049 A 
ATOM     33  H   UNL     1       6.953   7.446   5.625  1.00  0.00     0.167 HD
ATOM     34  C   UNL     1       8.403   6.941   8.043  1.00  0.00     0.074 A 
ATOM     35  C   UNL     1       8.916   6.289   9.233  1.00  0.00     0.031 C 
ATOM     36  C   UNL     1       8.717   8.206   7.670  1.00  0.00     0.037 A 
BRANCH  23  37
ATOM     37  C   UNL     1       6.008  10.092   2.418  1.00  0.00     0.064 A 
ATOM     38  C   UNL     1       4.746  10.699   2.285  1.00  0.00     0.173 A 
ATOM     39  C   UNL     1       7.022  10.487   1.538  1.00  0.00     0.173 A 
ATOM     40  F   UNL     1       3.733  10.335   3.087  1.00  0.00    -0.203 F 
ATOM     41  C   UNL     1       4.500  11.630   1.281  1.00  0.00     0.198 A 
ATOM     42  C   UNL     1       6.780  11.441   0.553  1.00  0.00     0.198 A 
ATOM     43  F   UNL     1       8.240   9.933   1.617  1.00  0.00    -0.203 F 
ATOM     44  F   UNL     1       3.270  12.140   1.129  1.00  0.00    -0.200 F 
ATOM     45  C   UNL     1       5.518  12.003   0.418  1.00  0.00     0.200 A 
ATOM     46  F   UNL     1       7.764  11.804  -0.281  1.00  0.00    -0.200 F 
ATOM     47  F   UNL     1       5.279  12.891  -0.557  1.00  0.00    -0.200 F 
ENDBRANCH  23  37
BRANCH  24  48
ATOM     48  C   UNL     1       6.902   2.579   9.017  1.00  0.00     0.064 A 
ATOM     49  C   UNL     1       6.548   2.722  10.366  1.00  0.00     0.173 A 
ATOM     50  C   UNL     1       7.438   1.345   8.617  1.00  0.00     0.173 A 
ATOM     51  F   UNL     1       6.035   3.881  10.804  1.00  0.00    -0.203 F 
ATOM     52  C   UNL     1       6.766   1.695  11.285  1.00  0.00     0.198 A 
ATOM     53  C   UNL     1       7.632   0.309   9.532  1.00  0.00     0.198 A 
ATOM     54  F   UNL     1       7.783   1.146   7.337  1.00  0.00    -0.203 F 
ATOM     55  F   UNL     1       6.473   1.885  12.579  1.00  0.00    -0.200 F 
ATOM     56  C   UNL     1       7.309   0.490  10.868  1.00  0.00     0.200 A 
ATOM     57  F   UNL     1       8.145  -0.860   9.123  1.00  0.00    -0.200 F 
ATOM     58  F   UNL     1       7.529  -0.491  11.754  1.00  0.00    -0.200 F 
ENDBRANCH  24  48
BRANCH  36  59
ATOM     59  C   UNL     1       9.623   8.976   8.582  1.00  0.00     0.064 A 
ATOM     60  C   UNL     1      10.979   8.649   8.722  1.00  0.00     0.173 A 
ATOM     61  C   UNL     1       9.131  10.080   9.296  1.00  0.00     0.173 A 
ATOM     62  F   UNL     1      11.490   7.592   8.073  1.00  0.00    -0.203 F 
ATOM     63  C   UNL     1      11.804   9.381   9.570  1.00  0.00     0.198 A 
ATOM     64  C   UNL     1       9.969  10.833  10.111  1.00  0.00     0.198 A 
ATOM     65  F   UNL     1       7.842  10.436   9.190  1.00  0.00    -0.203 F 
ATOM     66  F   UNL     1      13.082   9.015   9.735  1.00  0.00    -0.200 F 
ATOM     67  C   UNL     1      11.301  10.477  10.255  1.00  0.00     0.200 A 
ATOM     68  F   UNL     1       9.486  11.902  10.759  1.00  0.00    -0.200 F 
ATOM     69  F   UNL     1      12.101  11.187  11.062  1.00  0.00    -0.200 F 
ENDBRANCH  36  59
ENDBRANCH  10  11
ENDBRANCH   3   5
ENDBRANCH   2   3
ENDBRANCH   1   2
BRANCH   1  70
ATOM     70  C   UNL     1      -1.226   0.592   3.419  1.00  0.00     0.274 C 
BRANCH  70  71
ATOM     71  O   UNL     1       0.209   0.529   3.385  1.00  0.00    -0.461 OA
BRANCH  71  72
ATOM     72  C   UNL     1       0.804  -0.623   2.940  1.00  0.00     0.324 C 
ATOM     73  O   UNL     1       0.186  -1.629   2.621  1.00  0.00    -0.250 OA
BRANCH  72  74
ATOM     74  C   UNL     1       2.338  -0.447   2.842  1.00  0.00     0.183 C 
ATOM     75  C   UNL     1       2.866   0.398   3.986  1.00  0.00     0.034 C 
ATOM     76  N   UNL     1       3.081  -1.737   3.011  1.00  0.00    -0.184 NA
ATOM     77  C   UNL     1       3.039  -0.578   5.136  1.00  0.00     0.019 C 
ATOM     78  C   UNL     1       3.115  -1.962   4.496  1.00  0.00     0.103 C 
BRANCH  76  79
ATOM     79  S   UNL     1       4.659  -1.859   2.329  1.00  0.00     0.245 S 
ATOM     80  O   UNL     1       5.479  -0.844   2.948  1.00  0.00    -0.207 OA
ATOM     81  O   UNL     1       5.050  -3.251   2.462  1.00  0.00    -0.207 OA
BRANCH  79  82
ATOM     82  C   UNL     1       4.463  -1.534   0.596  1.00  0.00     0.101 A 
ATOM     83  C   UNL     1       4.122  -2.621  -0.224  1.00  0.00     0.023 A 
ATOM     84  C   UNL     1       4.714  -0.293   0.007  1.00  0.00     0.061 A 
ATOM     85  C   UNL     1       3.952  -2.448  -1.599  1.00  0.00     0.002 A 
ATOM     86  C   UNL     1       4.467  -0.110  -1.362  1.00  0.00     0.022 A 
ATOM     87  Cl  UNL     1       5.397   1.062   0.813  1.00  0.00    -0.083 Cl
ATOM     88  C   UNL     1       4.086  -1.184  -2.162  1.00  0.00     0.002 A 
ENDBRANCH  79  82
ENDBRANCH  76  79
ENDBRANCH  72  74
ENDBRANCH  71  72
ENDBRANCH  70  71
ENDBRANCH   1  70
TORSDOF 13
