REMARK SMILES CC1(C)CC[N@H+](CCOc2ccc(C(=O)OCCOC(=O)c3ccc(-c4c5nc(c(-c6c(F)c(F)c(F)c(F)c6F)c6ccc([nH]6)c(-c6c(F)c(F)c(F)c(F)c6F)c6nc(c(-c7c(F)c(F)c(F)c(F)c7F)c7ccc4[nH]7)C=C6)C=C5)cc3)cc2)C1
REMARK SMILES IDX 17 1 16 2 14 3 15 4 13 5 10 6 11 7 86 8 12 9 85 10 9 11 8 12
REMARK SMILES IDX 7 13 6 14 1 15 2 16 3 17 4 18 87 19 5 20 18 22 19 23 20 24
REMARK SMILES IDX 21 25 22 26 23 27 84 28 24 29 83 30 25 31 26 32 27 33 77 34
REMARK SMILES IDX 28 35 82 36 76 37 78 38 29 39 81 40 75 41 74 42 30 44 62 45
REMARK SMILES IDX 42 46 61 47 43 48 46 49 60 50 79 51 44 52 45 53 59 55 80 56
REMARK SMILES IDX 47 57 31 58 32 59 40 60 33 61 34 62 38 63 41 64 35 65 36 66
REMARK SMILES IDX 39 67 37 68 63 69 64 70 72 71 65 72 66 73 70 74 73 75 67 76
REMARK SMILES IDX 68 77 71 78 69 79 48 80 49 81 57 82 50 83 51 84 55 85 58 86
REMARK SMILES IDX 52 87 53 88 56 89 54 90
REMARK H PARENT 6 21 78 43 46 54
REMARK Flexibility Score: inf
ROOT
ATOM      1  C   UNL     1      -1.586  -3.796  -2.896  1.00  0.00     0.275 C 
ENDROOT
BRANCH   1   2
ATOM      2  O   UNL     1      -0.473  -3.643  -1.994  1.00  0.00    -0.458 OA
BRANCH   2   3
ATOM      3  C   UNL     1      -0.814  -3.381  -0.710  1.00  0.00     0.338 C 
ATOM      4  O   UNL     1      -1.953  -3.216  -0.292  1.00  0.00    -0.246 OA
BRANCH   3   5
ATOM      5  C   UNL     1       0.373  -3.225   0.175  1.00  0.00     0.060 A 
ATOM      6  C   UNL     1       2.201  -1.781   1.632  1.00  0.00     0.119 A 
ATOM      7  C   UNL     1       1.053  -2.237   2.275  1.00  0.00     0.047 A 
ATOM      8  C   UNL     1       2.586  -2.311   0.401  1.00  0.00     0.047 A 
ATOM      9  C   UNL     1       0.121  -2.954   1.532  1.00  0.00     0.019 A 
ATOM     10  C   UNL     1       1.655  -3.030  -0.350  1.00  0.00     0.019 A 
BRANCH   6  11
ATOM     11  O   UNL     1       2.894  -0.691   2.088  1.00  0.00    -0.488 OA
BRANCH  11  12
ATOM     12  C   UNL     1       2.055   0.491   2.189  1.00  0.00     0.290 C 
BRANCH  12  13
ATOM     13  C   UNL     1       2.336   1.540   1.077  1.00  0.00     0.304 C 
BRANCH  13  14
ATOM     14  N   UNL     1       1.411   1.730  -0.064  1.00  0.00    -0.332 N 
ATOM     15  C   UNL     1      -1.574   1.586  -1.652  1.00  0.00     0.017 C 
ATOM     16  C   UNL     1      -0.940   1.130  -0.330  1.00  0.00     0.019 C 
ATOM     17  C   UNL     1      -2.052   0.747   0.655  1.00  0.00     0.017 C 
ATOM     18  C   UNL     1      -0.023  -0.048  -0.611  1.00  0.00     0.073 C 
ATOM     19  C   UNL     1       0.041   2.159   0.278  1.00  0.00     0.268 C 
ATOM     20  C   UNL     1       1.308   0.583  -0.957  1.00  0.00     0.263 C 
ATOM     21  H   UNL     1       1.875   2.501  -0.544  1.00  0.00     0.348 HD
ENDBRANCH  13  14
ENDBRANCH  12  13
ENDBRANCH  11  12
ENDBRANCH   6  11
ENDBRANCH   3   5
ENDBRANCH   2   3
ENDBRANCH   1   2
BRANCH   1  22
ATOM     22  C   UNL     1      -1.830  -5.275  -3.184  1.00  0.00     0.275 C 
BRANCH  22  23
ATOM     23  O   UNL     1      -2.015  -5.985  -1.945  1.00  0.00    -0.458 OA
BRANCH  23  24
ATOM     24  C   UNL     1      -0.984  -6.779  -1.574  1.00  0.00     0.338 C 
ATOM     25  O   UNL     1       0.003  -7.069  -2.230  1.00  0.00    -0.246 OA
BRANCH  24  26
ATOM     26  C   UNL     1      -1.163  -7.231  -0.182  1.00  0.00     0.060 A 
ATOM     27  C   UNL     1      -1.394  -6.301   0.828  1.00  0.00     0.016 A 
ATOM     28  C   UNL     1      -0.931  -8.563   0.149  1.00  0.00     0.016 A 
ATOM     29  C   UNL     1      -1.258  -6.656   2.163  1.00  0.00     0.010 A 
ATOM     30  C   UNL     1      -0.938  -8.949   1.493  1.00  0.00     0.010 A 
ATOM     31  C   UNL     1      -1.056  -7.992   2.518  1.00  0.00    -0.014 A 
BRANCH  31  32
ATOM     32  C   UNL     1      -0.919  -8.378   3.949  1.00  0.00     0.031 A 
ATOM     33  C   UNL     1       0.301  -9.133   4.400  1.00  0.00     0.074 A 
ATOM     34  C   UNL     1      -1.869  -8.049   4.848  1.00  0.00     0.049 A 
ATOM     35  N   UNL     1       0.505  -9.793   5.511  1.00  0.00    -0.248 NA
ATOM     36  C   UNL     1       1.437  -9.168   3.465  1.00  0.00     0.031 C 
ATOM     37  C   UNL     1      -3.068  -7.255   4.573  1.00  0.00     0.029 A 
ATOM     38  N   UNL     1      -1.972  -8.342   6.187  1.00  0.00    -0.354 N 
ATOM     39  C   UNL     1       1.753 -10.387   5.373  1.00  0.00     0.074 A 
ATOM     40  C   UNL     1       2.265 -10.003   4.075  1.00  0.00     0.031 C 
ATOM     41  C   UNL     1      -3.760  -7.088   5.709  1.00  0.00     0.029 A 
ATOM     42  C   UNL     1      -3.119  -7.858   6.767  1.00  0.00     0.049 A 
ATOM     43  H   UNL     1      -1.289  -8.850   6.682  1.00  0.00     0.167 HD
ATOM     44  C   UNL     1       2.403 -11.188   6.251  1.00  0.00     0.037 A 
ATOM     45  C   UNL     1      -3.634  -8.061   7.994  1.00  0.00     0.037 A 
ATOM     46  C   UNL     1       1.913 -11.501   7.568  1.00  0.00     0.049 A 
ATOM     47  C   UNL     1      -2.908  -8.972   8.943  1.00  0.00     0.074 A 
ATOM     48  C   UNL     1       2.491 -12.298   8.540  1.00  0.00     0.029 A 
ATOM     49  N   UNL     1       0.734 -11.004   8.107  1.00  0.00    -0.354 N 
ATOM     50  N   UNL     1      -1.778  -9.612   8.772  1.00  0.00    -0.248 NA
ATOM     51  C   UNL     1      -3.544  -9.210  10.245  1.00  0.00     0.031 C 
ATOM     52  C   UNL     1       1.647 -12.308   9.656  1.00  0.00     0.029 A 
ATOM     53  C   UNL     1       0.566 -11.481   9.397  1.00  0.00     0.049 A 
ATOM     54  H   UNL     1       0.110 -10.402   7.642  1.00  0.00     0.167 HD
ATOM     55  C   UNL     1      -1.558 -10.317   9.946  1.00  0.00     0.074 A 
ATOM     56  C   UNL     1      -2.664 -10.009  10.830  1.00  0.00     0.031 C 
ATOM     57  C   UNL     1      -0.537 -11.150  10.262  1.00  0.00     0.037 A 
BRANCH  44  58
ATOM     58  C   UNL     1       3.690 -11.818   5.802  1.00  0.00     0.064 A 
ATOM     59  C   UNL     1       4.870 -11.078   5.645  1.00  0.00     0.173 A 
ATOM     60  C   UNL     1       3.744 -13.199   5.552  1.00  0.00     0.173 A 
ATOM     61  F   UNL     1       4.870  -9.753   5.855  1.00  0.00    -0.203 F 
ATOM     62  C   UNL     1       6.050 -11.692   5.230  1.00  0.00     0.198 A 
ATOM     63  C   UNL     1       4.932 -13.814   5.167  1.00  0.00     0.198 A 
ATOM     64  F   UNL     1       2.644 -13.955   5.690  1.00  0.00    -0.203 F 
ATOM     65  F   UNL     1       7.155 -10.957   5.040  1.00  0.00    -0.200 F 
ATOM     66  C   UNL     1       6.082 -13.060   4.999  1.00  0.00     0.200 A 
ATOM     67  F   UNL     1       4.962 -15.138   4.957  1.00  0.00    -0.200 F 
ATOM     68  F   UNL     1       7.220 -13.649   4.607  1.00  0.00    -0.200 F 
ENDBRANCH  44  58
BRANCH  45  69
ATOM     69  C   UNL     1      -4.929  -7.434   8.369  1.00  0.00     0.064 A 
ATOM     70  C   UNL     1      -4.989  -6.437   9.352  1.00  0.00     0.173 A 
ATOM     71  C   UNL     1      -6.130  -7.807   7.746  1.00  0.00     0.173 A 
ATOM     72  F   UNL     1      -3.873  -6.063   9.995  1.00  0.00    -0.203 F 
ATOM     73  C   UNL     1      -6.201  -5.844   9.703  1.00  0.00     0.198 A 
ATOM     74  C   UNL     1      -7.335  -7.190   8.073  1.00  0.00     0.198 A 
ATOM     75  F   UNL     1      -6.129  -8.757   6.799  1.00  0.00    -0.203 F 
ATOM     76  F   UNL     1      -6.236  -4.922  10.675  1.00  0.00    -0.200 F 
ATOM     77  C   UNL     1      -7.371  -6.214   9.057  1.00  0.00     0.200 A 
ATOM     78  F   UNL     1      -8.459  -7.539   7.433  1.00  0.00    -0.200 F 
ATOM     79  F   UNL     1      -8.533  -5.634   9.386  1.00  0.00    -0.200 F 
ENDBRANCH  45  69
BRANCH  57  80
ATOM     80  C   UNL     1      -0.549 -11.749  11.637  1.00  0.00     0.064 A 
ATOM     81  C   UNL     1      -1.444 -12.770  11.987  1.00  0.00     0.173 A 
ATOM     82  C   UNL     1       0.366 -11.310  12.606  1.00  0.00     0.173 A 
ATOM     83  F   UNL     1      -2.349 -13.209  11.099  1.00  0.00    -0.203 F 
ATOM     84  C   UNL     1      -1.439 -13.313  13.268  1.00  0.00     0.198 A 
ATOM     85  C   UNL     1       0.386 -11.875  13.877  1.00  0.00     0.198 A 
ATOM     86  F   UNL     1       1.244 -10.338  12.316  1.00  0.00    -0.203 F 
ATOM     87  F   UNL     1      -2.334 -14.254  13.598  1.00  0.00    -0.200 F 
ATOM     88  C   UNL     1      -0.521 -12.870  14.209  1.00  0.00     0.200 A 
ATOM     89  F   UNL     1       1.280 -11.453  14.782  1.00  0.00    -0.200 F 
ATOM     90  F   UNL     1      -0.516 -13.397  15.442  1.00  0.00    -0.200 F 
ENDBRANCH  57  80
ENDBRANCH  31  32
ENDBRANCH  24  26
ENDBRANCH  23  24
ENDBRANCH  22  23
ENDBRANCH   1  22
TORSDOF 15
