REMARK SMILES CC(=O)[C@@H]1CCCC[N@H+]1CC(C)(C)C(=O)OCCOC(=O)c1ccc(-c2c3nc(c(-c4c(F)c(F)c(F)c(F)c4F)c4ccc([nH]4)c(-c4c(F)c(F)c(F)c(F)c4F)c4nc(c(-c5c(F)c(F)c(F)c(F)c5F)c5ccc2[nH]5)C=C4)C=C3)cc1
REMARK SMILES IDX 17 1 16 2 14 3 15 4 11 5 12 6 13 7 10 8 9 9 4 10 5 11 6 12
REMARK SMILES IDX 8 13 7 15 2 16 1 17 3 18 18 19 19 20 20 21 21 22 22 23 23 24
REMARK SMILES IDX 84 25 24 26 83 27 25 28 26 29 27 30 77 31 28 32 82 33 76 34
REMARK SMILES IDX 78 35 29 36 81 37 75 38 74 39 30 41 62 42 42 43 61 44 43 45
REMARK SMILES IDX 46 46 60 47 79 48 44 49 45 50 59 52 80 53 47 54 31 55 32 56
REMARK SMILES IDX 40 57 33 58 34 59 38 60 41 61 35 62 36 63 39 64 37 65 63 66
REMARK SMILES IDX 64 67 72 68 65 69 66 70 70 71 73 72 67 73 68 74 71 75 69 76
REMARK SMILES IDX 48 77 49 78 57 79 50 80 51 81 55 82 58 83 52 84 53 85 56 86
REMARK SMILES IDX 54 87
REMARK H PARENT 9 14 78 40 46 51
REMARK Flexibility Score: inf
ROOT
ATOM      1  C   UNL     1       5.069   5.666   3.524  1.00  0.00     0.274 C 
ENDROOT
BRANCH   1   2
ATOM      2  O   UNL     1       4.899   4.831   2.352  1.00  0.00    -0.461 OA
BRANCH   2   3
ATOM      3  C   UNL     1       3.598   4.528   2.100  1.00  0.00     0.317 C 
ATOM      4  O   UNL     1       2.704   5.065   2.737  1.00  0.00    -0.251 OA
BRANCH   3   5
ATOM      5  C   UNL     1       3.372   3.497   0.990  1.00  0.00     0.111 C 
ATOM      6  C   UNL     1       4.058   2.171   1.334  1.00  0.00     0.029 C 
ATOM      7  C   UNL     1       4.036   4.077  -0.285  1.00  0.00     0.029 C 
BRANCH   5   8
ATOM      8  C   UNL     1       1.845   3.238   0.656  1.00  0.00     0.281 C 
BRANCH   8   9
ATOM      9  N   UNL     1       0.794   2.770   1.593  1.00  0.00    -0.325 N 
ATOM     10  C   UNL     1       0.603   1.318   1.704  1.00  0.00     0.251 C 
ATOM     11  C   UNL     1      -0.542   0.919   2.658  1.00  0.00     0.074 C 
ATOM     12  C   UNL     1      -0.465   1.629   4.001  1.00  0.00     0.012 C 
ATOM     13  C   UNL     1       0.698   3.491   2.857  1.00  0.00     0.262 C 
ATOM     14  H   UNL     1      -0.041   3.061   1.085  1.00  0.00     0.348 HD
ATOM     15  C   UNL     1      -0.475   3.121   3.751  1.00  0.00     0.062 C 
BRANCH  10  16
ATOM     16  C   UNL     1       0.227   0.732   0.330  1.00  0.00     0.186 C 
ATOM     17  C   UNL     1       0.941  -0.530  -0.065  1.00  0.00     0.094 C 
ATOM     18  O   UNL     1      -0.622   1.230  -0.412  1.00  0.00    -0.293 OA
ENDBRANCH  10  16
ENDBRANCH   8   9
ENDBRANCH   5   8
ENDBRANCH   3   5
ENDBRANCH   2   3
ENDBRANCH   1   2
BRANCH   1  19
ATOM     19  C   UNL     1       4.802   7.176   3.312  1.00  0.00     0.275 C 
BRANCH  19  20
ATOM     20  O   UNL     1       3.409   7.532   3.110  1.00  0.00    -0.458 OA
BRANCH  20  21
ATOM     21  C   UNL     1       3.044   7.785   1.825  1.00  0.00     0.338 C 
ATOM     22  O   UNL     1       3.796   7.834   0.863  1.00  0.00    -0.246 OA
BRANCH  21  23
ATOM     23  C   UNL     1       1.567   7.783   1.648  1.00  0.00     0.060 A 
ATOM     24  C   UNL     1       1.050   6.788   0.814  1.00  0.00     0.016 A 
ATOM     25  C   UNL     1       0.698   8.745   2.158  1.00  0.00     0.016 A 
ATOM     26  C   UNL     1      -0.315   6.679   0.543  1.00  0.00     0.010 A 
ATOM     27  C   UNL     1      -0.677   8.683   1.832  1.00  0.00     0.010 A 
ATOM     28  C   UNL     1      -1.196   7.645   1.028  1.00  0.00    -0.014 A 
BRANCH  28  29
ATOM     29  C   UNL     1      -2.614   7.635   0.564  1.00  0.00     0.031 A 
ATOM     30  C   UNL     1      -3.009   8.505  -0.599  1.00  0.00     0.074 A 
ATOM     31  C   UNL     1      -3.537   6.818   1.109  1.00  0.00     0.049 A 
ATOM     32  N   UNL     1      -4.196   8.749  -1.095  1.00  0.00    -0.248 NA
ATOM     33  C   UNL     1      -1.911   9.185  -1.305  1.00  0.00     0.031 C 
ATOM     34  C   UNL     1      -3.278   5.826   2.149  1.00  0.00     0.029 A 
ATOM     35  N   UNL     1      -4.887   6.696   0.862  1.00  0.00    -0.354 N 
ATOM     36  C   UNL     1      -3.992   9.632  -2.147  1.00  0.00     0.074 A 
ATOM     37  C   UNL     1      -2.568   9.875  -2.226  1.00  0.00     0.031 C 
ATOM     38  C   UNL     1      -4.433   5.216   2.471  1.00  0.00     0.029 A 
ATOM     39  C   UNL     1      -5.525   5.811   1.700  1.00  0.00     0.049 A 
ATOM     40  H   UNL     1      -5.352   7.196   0.153  1.00  0.00     0.167 HD
ATOM     41  C   UNL     1      -4.913  10.198  -2.964  1.00  0.00     0.037 A 
ATOM     42  C   UNL     1      -6.839   5.547   1.859  1.00  0.00     0.037 A 
ATOM     43  C   UNL     1      -6.328   9.939  -2.907  1.00  0.00     0.049 A 
ATOM     44  C   UNL     1      -7.853   6.276   1.005  1.00  0.00     0.074 A 
ATOM     45  C   UNL     1      -7.332  10.467  -3.701  1.00  0.00     0.029 A 
ATOM     46  N   UNL     1      -6.940   9.082  -2.006  1.00  0.00    -0.354 N 
ATOM     47  N   UNL     1      -7.659   7.130   0.030  1.00  0.00    -0.248 NA
ATOM     48  C   UNL     1      -9.275   6.010   1.282  1.00  0.00     0.031 C 
ATOM     49  C   UNL     1      -8.558   9.985  -3.236  1.00  0.00     0.029 A 
ATOM     50  C   UNL     1      -8.313   9.098  -2.201  1.00  0.00     0.049 A 
ATOM     51  H   UNL     1      -6.471   8.543  -1.330  1.00  0.00     0.167 HD
ATOM     52  C   UNL     1      -8.922   7.468  -0.444  1.00  0.00     0.074 A 
ATOM     53  C   UNL     1      -9.878   6.717   0.338  1.00  0.00     0.031 C 
ATOM     54  C   UNL     1      -9.259   8.327  -1.437  1.00  0.00     0.037 A 
BRANCH  41  55
ATOM     55  C   UNL     1      -4.437  11.214  -3.960  1.00  0.00     0.064 A 
ATOM     56  C   UNL     1      -3.738  10.854  -5.120  1.00  0.00     0.173 A 
ATOM     57  C   UNL     1      -4.760  12.569  -3.779  1.00  0.00     0.173 A 
ATOM     58  F   UNL     1      -3.395   9.575  -5.334  1.00  0.00    -0.203 F 
ATOM     59  C   UNL     1      -3.371  11.816  -6.059  1.00  0.00     0.198 A 
ATOM     60  C   UNL     1      -4.417  13.522  -4.732  1.00  0.00     0.198 A 
ATOM     61  F   UNL     1      -5.433  12.963  -2.688  1.00  0.00    -0.203 F 
ATOM     62  F   UNL     1      -2.677  11.457  -7.148  1.00  0.00    -0.200 F 
ATOM     63  C   UNL     1      -3.720  13.146  -5.870  1.00  0.00     0.200 A 
ATOM     64  F   UNL     1      -4.770  14.803  -4.554  1.00  0.00    -0.200 F 
ATOM     65  F   UNL     1      -3.383  14.066  -6.784  1.00  0.00    -0.200 F 
ENDBRANCH  41  55
BRANCH  42  66
ATOM     66  C   UNL     1      -7.309   4.609   2.921  1.00  0.00     0.064 A 
ATOM     67  C   UNL     1      -8.034   3.449   2.607  1.00  0.00     0.173 A 
ATOM     68  C   UNL     1      -7.133   4.911   4.281  1.00  0.00     0.173 A 
ATOM     69  F   UNL     1      -8.267   3.131   1.325  1.00  0.00    -0.203 F 
ATOM     70  C   UNL     1      -8.599   2.656   3.606  1.00  0.00     0.198 A 
ATOM     71  C   UNL     1      -7.664   4.095   5.279  1.00  0.00     0.198 A 
ATOM     72  F   UNL     1      -6.463   6.014   4.646  1.00  0.00    -0.203 F 
ATOM     73  F   UNL     1      -9.362   1.605   3.274  1.00  0.00    -0.200 F 
ATOM     74  C   UNL     1      -8.411   2.978   4.941  1.00  0.00     0.200 A 
ATOM     75  F   UNL     1      -7.473   4.407   6.569  1.00  0.00    -0.200 F 
ATOM     76  F   UNL     1      -8.969   2.227   5.900  1.00  0.00    -0.200 F 
ENDBRANCH  42  66
BRANCH  54  77
ATOM     77  C   UNL     1     -10.716   8.461  -1.786  1.00  0.00     0.064 A 
ATOM     78  C   UNL     1     -11.630   9.090  -0.928  1.00  0.00     0.173 A 
ATOM     79  C   UNL     1     -11.193   7.997  -3.022  1.00  0.00     0.173 A 
ATOM     80  F   UNL     1     -11.232   9.542   0.271  1.00  0.00    -0.203 F 
ATOM     81  C   UNL     1     -12.971   9.223  -1.283  1.00  0.00     0.198 A 
ATOM     82  C   UNL     1     -12.525   8.164  -3.389  1.00  0.00     0.198 A 
ATOM     83  F   UNL     1     -10.360   7.396  -3.886  1.00  0.00    -0.203 F 
ATOM     84  F   UNL     1     -13.836   9.783  -0.425  1.00  0.00    -0.200 F 
ATOM     85  C   UNL     1     -13.415   8.769  -2.515  1.00  0.00     0.200 A 
ATOM     86  F   UNL     1     -12.947   7.742  -4.589  1.00  0.00    -0.200 F 
ATOM     87  F   UNL     1     -14.703   8.911  -2.860  1.00  0.00    -0.200 F 
ENDBRANCH  54  77
ENDBRANCH  28  29
ENDBRANCH  21  23
ENDBRANCH  20  21
ENDBRANCH  19  20
ENDBRANCH   1  19
TORSDOF 14
