REMARK SMILES Cc1oc2cc3c(cc2c1C)[C@H](C)[C@@H](CC(=O)N[C@H](CC1=c2ccccc2=NC1)C(=O)OCCOC(=O)c1ccc(-c2c4nc(c(-c5c(F)c(F)c(F)c(F)c5F)c5ccc([nH]5)c(-c5c(F)c(F)c(F)c(F)c5F)c5nc(c(-c6c(F)c(F)c(F)c(F)c6F)c6ccc2[nH]6)C=C5)C=C4)cc1)C(=O)O3
REMARK SMILES IDX 33 1 32 2 30 3 31 4 19 5 18 6 16 7 17 8 15 10 14 11 1 12
REMARK SMILES IDX 2 13 3 14 10 15 4 16 9 17 11 18 5 19 8 20 6 21 7 22 103 23
REMARK SMILES IDX 12 24 101 25 13 26 102 27 20 28 21 29 22 30 29 31 23 32
REMARK SMILES IDX 27 33 28 34 24 35 26 36 25 37 34 38 35 39 36 40 37 41 38 42
REMARK SMILES IDX 39 43 100 44 40 45 99 46 41 47 42 48 43 49 93 50 44 51 98 52
REMARK SMILES IDX 92 53 94 54 45 55 97 56 91 57 90 58 46 60 78 61 58 62 77 63
REMARK SMILES IDX 59 64 62 65 76 66 95 67 60 68 61 69 75 71 96 72 63 73 47 74
REMARK SMILES IDX 48 75 56 76 49 77 50 78 54 79 57 80 51 81 52 82 55 83 53 84
REMARK SMILES IDX 79 85 80 86 88 87 81 88 82 89 86 90 89 91 83 92 84 93 87 94
REMARK SMILES IDX 85 95 64 96 65 97 73 98 66 99 67 100 71 101 74 102 68 103
REMARK SMILES IDX 69 104 72 105 70 106
REMARK H PARENT 18 9 94 59 62 70
REMARK Flexibility Score: inf
ROOT
ATOM      1  C   UNL     1       0.363  -0.850  12.708  1.00  0.00     0.274 C 
ENDROOT
BRANCH   1   2
ATOM      2  O   UNL     1      -0.707  -1.476  11.979  1.00  0.00    -0.461 OA
BRANCH   2   3
ATOM      3  C   UNL     1      -1.433  -0.829  11.054  1.00  0.00     0.329 C 
ATOM      4  O   UNL     1      -1.433   0.396  10.948  1.00  0.00    -0.250 OA
BRANCH   3   5
ATOM      5  C   UNL     1      -2.120  -1.822  10.020  1.00  0.00     0.196 C 
BRANCH   5   6
ATOM      6  N   UNL     1      -2.764  -0.879   9.061  1.00  0.00    -0.342 N 
ATOM      7  C   UNL     1      -2.143  -0.265   8.002  1.00  0.00     0.221 C 
ATOM      8  O   UNL     1      -2.502   0.861   7.657  1.00  0.00    -0.275 OA
ATOM      9  H   UNL     1      -3.718  -0.680   9.200  1.00  0.00     0.164 HD
BRANCH   7  10
ATOM     10  C   UNL     1      -1.103  -1.024   7.202  1.00  0.00     0.116 C 
BRANCH  10  11
ATOM     11  C   UNL     1       0.343  -0.547   7.353  1.00  0.00     0.116 C 
ATOM     12  C   UNL     1       8.749  -4.361   9.098  1.00  0.00     0.088 C 
ATOM     13  C   UNL     1       7.410  -3.881   8.696  1.00  0.00     0.105 A 
ATOM     14  O   UNL     1       6.641  -2.397   9.607  1.00  0.00    -0.461 OA
ATOM     15  C   UNL     1       6.212  -4.343   7.441  1.00  0.00    -0.002 A 
ATOM     16  C   UNL     1       4.946  -1.947   8.897  1.00  0.00     0.138 A 
ATOM     17  C   UNL     1       4.672  -3.077   7.516  1.00  0.00     0.024 A 
ATOM     18  C   UNL     1       6.568  -5.542   6.609  1.00  0.00     0.049 C 
ATOM     19  C   UNL     1       4.040  -0.999   9.282  1.00  0.00     0.095 A 
ATOM     20  C   UNL     1       3.465  -2.816   6.811  1.00  0.00     0.020 A 
ATOM     21  C   UNL     1       2.954  -0.901   8.415  1.00  0.00     0.138 A 
ATOM     22  C   UNL     1       2.659  -1.718   7.246  1.00  0.00    -0.001 A 
ATOM     23  O   UNL     1       2.037   0.081   8.807  1.00  0.00    -0.426 OA
ATOM     24  C   UNL     1       1.311  -1.455   6.535  1.00  0.00     0.035 C 
ATOM     25  C   UNL     1       0.891  -0.652   8.740  1.00  0.00     0.315 C 
ATOM     26  C   UNL     1       1.511  -0.868   5.147  1.00  0.00     0.014 C 
ATOM     27  O   UNL     1       0.596  -1.509   9.554  1.00  0.00    -0.251 OA
ENDBRANCH  10  11
ENDBRANCH   7  10
ENDBRANCH   5   6
BRANCH   5  28
ATOM     28  C   UNL     1      -3.110  -2.957  10.490  1.00  0.00     0.070 C 
BRANCH  28  29
ATOM     29  C   UNL     1      -2.593  -4.247  11.220  1.00  0.00    -0.037 C 
ATOM     30  C   UNL     1      -2.182  -5.385  10.603  1.00  0.00     0.001 A 
ATOM     31  C   UNL     1      -1.513  -3.963  12.205  1.00  0.00     0.174 C 
ATOM     32  C   UNL     1      -1.977  -6.692  11.301  1.00  0.00     0.010 A 
ATOM     33  C   UNL     1      -0.777  -4.881  10.421  1.00  0.00     0.065 A 
ATOM     34  N   UNL     1      -0.335  -4.034  11.308  1.00  0.00    -0.280 NA
ATOM     35  C   UNL     1      -0.838  -7.393  11.075  1.00  0.00     0.001 A 
ATOM     36  C   UNL     1       0.043  -5.723   9.540  1.00  0.00     0.028 A 
ATOM     37  C   UNL     1       0.078  -6.982  10.011  1.00  0.00     0.002 A 
ENDBRANCH  28  29
ENDBRANCH   5  28
ENDBRANCH   3   5
ENDBRANCH   2   3
ENDBRANCH   1   2
BRANCH   1  38
ATOM     38  C   UNL     1       1.271  -1.973  13.255  1.00  0.00     0.275 C 
BRANCH  38  39
ATOM     39  O   UNL     1       2.132  -2.525  12.232  1.00  0.00    -0.458 OA
BRANCH  39  40
ATOM     40  C   UNL     1       2.485  -3.835  12.386  1.00  0.00     0.338 C 
ATOM     41  O   UNL     1       2.158  -4.601  13.276  1.00  0.00    -0.246 OA
BRANCH  40  42
ATOM     42  C   UNL     1       3.532  -4.153  11.393  1.00  0.00     0.060 A 
ATOM     43  C   UNL     1       4.859  -4.115  11.747  1.00  0.00     0.016 A 
ATOM     44  C   UNL     1       3.238  -4.519  10.101  1.00  0.00     0.016 A 
ATOM     45  C   UNL     1       5.820  -3.974  10.723  1.00  0.00     0.010 A 
ATOM     46  C   UNL     1       4.247  -4.599   9.118  1.00  0.00     0.010 A 
ATOM     47  C   UNL     1       5.515  -3.784   9.219  1.00  0.00    -0.014 A 
BRANCH  47  48
ATOM     48  C   UNL     1       6.500  -2.410   7.796  1.00  0.00     0.031 A 
ATOM     49  C   UNL     1       6.142  -2.065   6.053  1.00  0.00     0.074 A 
ATOM     50  C   UNL     1       7.416  -1.296   7.909  1.00  0.00     0.049 A 
ATOM     51  N   UNL     1       5.810  -0.895   5.522  1.00  0.00    -0.248 NA
ATOM     52  C   UNL     1       6.034  -3.114   4.989  1.00  0.00     0.031 C 
ATOM     53  C   UNL     1       6.795   0.021   8.306  1.00  0.00     0.029 A 
ATOM     54  N   UNL     1       8.662  -1.204   8.617  1.00  0.00    -0.354 N 
ATOM     55  C   UNL     1       5.421  -1.108   4.186  1.00  0.00     0.074 A 
ATOM     56  C   UNL     1       5.622  -2.485   3.898  1.00  0.00     0.031 C 
ATOM     57  C   UNL     1       7.593   0.700   9.143  1.00  0.00     0.029 A 
ATOM     58  C   UNL     1       8.914   0.112   9.069  1.00  0.00     0.049 A 
ATOM     59  H   UNL     1       9.267  -1.965   8.771  1.00  0.00     0.167 HD
ATOM     60  C   UNL     1       4.857  -0.233   3.308  1.00  0.00     0.037 A 
ATOM     61  C   UNL     1       9.979   0.831   8.585  1.00  0.00     0.037 A 
ATOM     62  C   UNL     1       4.656   1.088   3.779  1.00  0.00     0.049 A 
ATOM     63  C   UNL     1       9.392   1.583   7.391  1.00  0.00     0.074 A 
ATOM     64  C   UNL     1       3.611   1.941   4.032  1.00  0.00     0.029 A 
ATOM     65  N   UNL     1       5.778   1.794   4.110  1.00  0.00    -0.354 N 
ATOM     66  N   UNL     1       8.558   2.601   7.412  1.00  0.00    -0.248 NA
ATOM     67  C   UNL     1       9.404   0.856   6.123  1.00  0.00     0.031 C 
ATOM     68  C   UNL     1       4.131   2.882   4.975  1.00  0.00     0.029 A 
ATOM     69  C   UNL     1       5.487   2.603   5.169  1.00  0.00     0.049 A 
ATOM     70  H   UNL     1       6.650   1.730   3.659  1.00  0.00     0.167 HD
ATOM     71  C   UNL     1       7.725   2.427   6.292  1.00  0.00     0.074 A 
ATOM     72  C   UNL     1       8.352   1.381   5.511  1.00  0.00     0.031 C 
ATOM     73  C   UNL     1       6.474   2.973   6.165  1.00  0.00     0.037 A 
BRANCH  60  74
ATOM     74  C   UNL     1       4.614  -0.606   1.887  1.00  0.00     0.064 A 
ATOM     75  C   UNL     1       5.558  -0.215   0.927  1.00  0.00     0.173 A 
ATOM     76  C   UNL     1       3.521  -1.366   1.448  1.00  0.00     0.173 A 
ATOM     77  F   UNL     1       6.648   0.472   1.306  1.00  0.00    -0.203 F 
ATOM     78  C   UNL     1       5.412  -0.555  -0.416  1.00  0.00     0.198 A 
ATOM     79  C   UNL     1       3.377  -1.708   0.101  1.00  0.00     0.198 A 
ATOM     80  F   UNL     1       2.612  -1.821   2.320  1.00  0.00    -0.203 F 
ATOM     81  F   UNL     1       6.343  -0.180  -1.304  1.00  0.00    -0.200 F 
ATOM     82  C   UNL     1       4.320  -1.299  -0.830  1.00  0.00     0.200 A 
ATOM     83  F   UNL     1       2.336  -2.458  -0.292  1.00  0.00    -0.200 F 
ATOM     84  F   UNL     1       4.188  -1.641  -2.119  1.00  0.00    -0.200 F 
ENDBRANCH  60  74
BRANCH  61  85
ATOM     85  C   UNL     1      11.286   0.092   8.604  1.00  0.00     0.064 A 
ATOM     86  C   UNL     1      11.673  -0.552   9.801  1.00  0.00     0.173 A 
ATOM     87  C   UNL     1      12.134  -0.102   7.507  1.00  0.00     0.173 A 
ATOM     88  F   UNL     1      10.995  -0.328  10.939  1.00  0.00    -0.203 F 
ATOM     89  C   UNL     1      12.729  -1.462   9.845  1.00  0.00     0.198 A 
ATOM     90  C   UNL     1      13.168  -1.043   7.539  1.00  0.00     0.198 A 
ATOM     91  F   UNL     1      11.983   0.596   6.375  1.00  0.00    -0.203 F 
ATOM     92  F   UNL     1      13.020  -2.096  10.989  1.00  0.00    -0.200 F 
ATOM     93  C   UNL     1      13.447  -1.742   8.699  1.00  0.00     0.200 A 
ATOM     94  F   UNL     1      13.873  -1.291   6.426  1.00  0.00    -0.200 F 
ATOM     95  F   UNL     1      14.406  -2.678   8.711  1.00  0.00    -0.200 F 
ENDBRANCH  61  85
BRANCH  73  96
ATOM     96  C   UNL     1       6.039   3.959   7.197  1.00  0.00     0.064 A 
ATOM     97  C   UNL     1       6.565   5.252   7.149  1.00  0.00     0.173 A 
ATOM     98  C   UNL     1       4.967   3.710   8.075  1.00  0.00     0.173 A 
ATOM     99  F   UNL     1       7.552   5.545   6.289  1.00  0.00    -0.203 F 
ATOM    100  C   UNL     1       6.020   6.271   7.922  1.00  0.00     0.198 A 
ATOM    101  C   UNL     1       4.415   4.738   8.837  1.00  0.00     0.198 A 
ATOM    102  F   UNL     1       4.400   2.495   8.141  1.00  0.00    -0.203 F 
ATOM    103  F   UNL     1       6.510   7.514   7.820  1.00  0.00    -0.200 F 
ATOM    104  C   UNL     1       4.938   6.019   8.752  1.00  0.00     0.200 A 
ATOM    105  F   UNL     1       3.346   4.504   9.613  1.00  0.00    -0.200 F 
ATOM    106  F   UNL     1       4.378   7.021   9.445  1.00  0.00    -0.200 F 
ENDBRANCH  73  96
ENDBRANCH  47  48
ENDBRANCH  40  42
ENDBRANCH  39  40
ENDBRANCH  38  39
ENDBRANCH   1  38
TORSDOF 16
