REMARK SMILES C[C@H]1N=N[C@H](S/C(=C/c2ccc(-c3cccc(Cl)c3)o2)C(=O)OCCOC(=O)c2ccc(-c3c4nc(c(-c5c(F)c(F)c(F)c(F)c5F)c5ccc([nH]5)c(-c5c(F)c(F)c(F)c(F)c5F)c5nc(c(-c6c(F)c(F)c(F)c(F)c6F)c6ccc3[nH]6)C=C5)C=C4)cc2)[NH2+]1
REMARK SMILES IDX 24 1 23 2 21 3 22 4 7 5 8 6 6 7 5 8 1 9 2 10 3 11 92 12 4 13
REMARK SMILES IDX 9 16 10 17 20 18 11 19 12 20 13 21 14 22 19 23 15 24 17 25
REMARK SMILES IDX 16 26 18 27 25 28 26 29 27 30 28 31 29 32 30 33 91 34 31 35
REMARK SMILES IDX 90 36 32 37 33 38 34 39 84 40 35 41 89 42 83 43 85 44 36 45
REMARK SMILES IDX 88 46 82 47 81 48 37 50 69 51 49 52 68 53 50 54 53 55 67 56
REMARK SMILES IDX 86 57 51 58 52 59 66 61 87 62 54 63 38 64 39 65 47 66 40 67
REMARK SMILES IDX 41 68 45 69 48 70 42 71 43 72 46 73 44 74 70 75 71 76 79 77
REMARK SMILES IDX 72 78 73 79 77 80 80 81 74 82 75 83 78 84 76 85 55 86 56 87
REMARK SMILES IDX 64 88 57 89 58 90 62 91 65 92 59 93 60 94 63 95 61 96
REMARK H PARENT 92 14 92 15 85 49 53 60
REMARK Flexibility Score: inf
ROOT
ATOM      1  C   UNL     1      -6.616   4.272   1.561  1.00  0.00     0.275 C 
ENDROOT
BRANCH   1   2
ATOM      2  O   UNL     1      -5.510   3.681   0.850  1.00  0.00    -0.458 OA
BRANCH   2   3
ATOM      3  C   UNL     1      -4.694   4.535   0.175  1.00  0.00     0.345 C 
ATOM      4  O   UNL     1      -4.753   5.755   0.204  1.00  0.00    -0.246 OA
BRANCH   3   5
ATOM      5  C   UNL     1      -3.695   3.764  -0.636  1.00  0.00     0.104 C 
ATOM      6  C   UNL     1      -4.091   2.846  -1.537  1.00  0.00     0.070 C 
BRANCH   5   7
ATOM      7  S   UNL     1      -2.049   4.279  -0.374  1.00  0.00    -0.028 SA
BRANCH   7   8
ATOM      8  C   UNL     1      -0.967   3.022  -1.115  1.00  0.00     0.393 C 
ATOM      9  C   UNL     1       0.771   0.230   0.093  1.00  0.00     0.106 C 
ATOM     10  C   UNL     1       0.165   1.621   0.244  1.00  0.00     0.324 C 
ATOM     11  N   UNL     1       1.095   2.598  -0.337  1.00  0.00    -0.126 NA
ATOM     12  N   UNL     1      -1.120   1.728  -0.450  1.00  0.00    -0.293 N 
ATOM     13  N   UNL     1       0.470   3.373  -1.097  1.00  0.00    -0.115 NA
ATOM     14  H   UNL     1      -1.901   1.734   0.206  1.00  0.00     0.350 HD
ATOM     15  H   UNL     1      -1.326   0.953  -1.079  1.00  0.00     0.350 HD
ENDBRANCH   7   8
ENDBRANCH   5   7
BRANCH   6  16
ATOM     16  C   UNL     1      -5.450   2.620  -1.905  1.00  0.00     0.128 A 
ATOM     17  C   UNL     1      -6.464   3.535  -2.173  1.00  0.00     0.051 A 
ATOM     18  O   UNL     1      -5.958   1.361  -2.141  1.00  0.00    -0.457 OA
ATOM     19  C   UNL     1      -7.613   2.813  -2.560  1.00  0.00     0.051 A 
ATOM     20  C   UNL     1      -7.258   1.485  -2.531  1.00  0.00     0.134 A 
BRANCH  20  21
ATOM     21  C   UNL     1      -7.959   0.259  -2.869  1.00  0.00     0.019 A 
ATOM     22  C   UNL     1      -8.783   0.221  -4.005  1.00  0.00     0.012 A 
ATOM     23  C   UNL     1      -7.851  -0.884  -2.068  1.00  0.00     0.032 A 
ATOM     24  C   UNL     1      -9.487  -0.938  -4.337  1.00  0.00     0.002 A 
ATOM     25  C   UNL     1      -8.567  -2.035  -2.397  1.00  0.00     0.041 A 
ATOM     26  C   UNL     1      -9.383  -2.067  -3.528  1.00  0.00     0.020 A 
ATOM     27  Cl  UNL     1      -8.457  -3.429  -1.393  1.00  0.00    -0.084 Cl
ENDBRANCH  20  21
ENDBRANCH   6  16
ENDBRANCH   3   5
ENDBRANCH   2   3
ENDBRANCH   1   2
BRANCH   1  28
ATOM     28  C   UNL     1      -6.791   3.591   2.917  1.00  0.00     0.275 C 
BRANCH  28  29
ATOM     29  O   UNL     1      -5.652   3.893   3.743  1.00  0.00    -0.458 OA
BRANCH  29  30
ATOM     30  C   UNL     1      -4.720   2.918   3.811  1.00  0.00     0.338 C 
ATOM     31  O   UNL     1      -4.801   1.766   3.415  1.00  0.00    -0.246 OA
BRANCH  30  32
ATOM     32  C   UNL     1      -3.470   3.517   4.287  1.00  0.00     0.060 A 
ATOM     33  C   UNL     1      -2.486   3.779   3.334  1.00  0.00     0.016 A 
ATOM     34  C   UNL     1      -3.242   3.765   5.639  1.00  0.00     0.016 A 
ATOM     35  C   UNL     1      -1.252   4.287   3.726  1.00  0.00     0.010 A 
ATOM     36  C   UNL     1      -2.002   4.277   6.034  1.00  0.00     0.010 A 
ATOM     37  C   UNL     1      -0.994   4.525   5.082  1.00  0.00    -0.014 A 
BRANCH  37  38
ATOM     38  C   UNL     1       0.364   4.942   5.505  1.00  0.00     0.031 A 
ATOM     39  C   UNL     1       1.267   3.947   6.176  1.00  0.00     0.074 A 
ATOM     40  C   UNL     1       0.804   6.188   5.252  1.00  0.00     0.049 A 
ATOM     41  N   UNL     1       2.458   4.120   6.690  1.00  0.00    -0.248 NA
ATOM     42  C   UNL     1       0.759   2.570   6.283  1.00  0.00     0.031 C 
ATOM     43  C   UNL     1       0.043   7.226   4.559  1.00  0.00     0.029 A 
ATOM     44  N   UNL     1       2.004   6.787   5.543  1.00  0.00    -0.354 N 
ATOM     45  C   UNL     1       2.829   2.886   7.207  1.00  0.00     0.074 A 
ATOM     46  C   UNL     1       1.734   1.973   6.953  1.00  0.00     0.031 C 
ATOM     47  C   UNL     1       0.800   8.332   4.465  1.00  0.00     0.029 A 
ATOM     48  C   UNL     1       2.080   8.093   5.128  1.00  0.00     0.049 A 
ATOM     49  H   UNL     1       2.740   6.323   6.004  1.00  0.00     0.167 HD
ATOM     50  C   UNL     1       3.980   2.546   7.834  1.00  0.00     0.037 A 
ATOM     51  C   UNL     1       3.064   8.998   5.285  1.00  0.00     0.037 A 
ATOM     52  C   UNL     1       5.079   3.447   8.061  1.00  0.00     0.049 A 
ATOM     53  C   UNL     1       4.321   8.603   6.013  1.00  0.00     0.074 A 
ATOM     54  C   UNL     1       6.286   3.197   8.691  1.00  0.00     0.029 A 
ATOM     55  N   UNL     1       5.107   4.772   7.654  1.00  0.00    -0.354 N 
ATOM     56  N   UNL     1       4.648   7.445   6.532  1.00  0.00    -0.248 NA
ATOM     57  C   UNL     1       5.341   9.647   6.185  1.00  0.00     0.031 C 
ATOM     58  C   UNL     1       7.034   4.381   8.689  1.00  0.00     0.029 A 
ATOM     59  C   UNL     1       6.307   5.357   8.027  1.00  0.00     0.049 A 
ATOM     60  H   UNL     1       4.382   5.230   7.171  1.00  0.00     0.167 HD
ATOM     61  C   UNL     1       5.910   7.615   7.081  1.00  0.00     0.074 A 
ATOM     62  C   UNL     1       6.302   8.984   6.814  1.00  0.00     0.031 C 
ATOM     63  C   UNL     1       6.676   6.721   7.754  1.00  0.00     0.037 A 
BRANCH  50  64
ATOM     64  C   UNL     1       4.094   1.143   8.349  1.00  0.00     0.064 A 
ATOM     65  C   UNL     1       4.309   0.057   7.489  1.00  0.00     0.173 A 
ATOM     66  C   UNL     1       4.008   0.887   9.725  1.00  0.00     0.173 A 
ATOM     67  F   UNL     1       4.378   0.249   6.163  1.00  0.00    -0.203 F 
ATOM     68  C   UNL     1       4.413  -1.239   7.987  1.00  0.00     0.198 A 
ATOM     69  C   UNL     1       4.137  -0.407  10.222  1.00  0.00     0.198 A 
ATOM     70  F   UNL     1       3.805   1.893  10.589  1.00  0.00    -0.203 F 
ATOM     71  F   UNL     1       4.577  -2.269   7.144  1.00  0.00    -0.200 F 
ATOM     72  C   UNL     1       4.333  -1.470   9.353  1.00  0.00     0.200 A 
ATOM     73  F   UNL     1       4.067  -0.627  11.542  1.00  0.00    -0.200 F 
ATOM     74  F   UNL     1       4.437  -2.717   9.831  1.00  0.00    -0.200 F 
ENDBRANCH  50  64
BRANCH  51  75
ATOM     75  C   UNL     1       2.895  10.374   4.754  1.00  0.00     0.064 A 
ATOM     76  C   UNL     1       3.645  10.822   3.658  1.00  0.00     0.173 A 
ATOM     77  C   UNL     1       1.985  11.270   5.334  1.00  0.00     0.173 A 
ATOM     78  F   UNL     1       4.549  10.011   3.090  1.00  0.00    -0.203 F 
ATOM     79  C   UNL     1       3.498  12.119   3.169  1.00  0.00     0.198 A 
ATOM     80  C   UNL     1       1.821  12.558   4.829  1.00  0.00     0.198 A 
ATOM     81  F   UNL     1       1.249  10.891   6.389  1.00  0.00    -0.203 F 
ATOM     82  F   UNL     1       4.257  12.536   2.147  1.00  0.00    -0.200 F 
ATOM     83  C   UNL     1       2.582  12.983   3.750  1.00  0.00     0.200 A 
ATOM     84  F   UNL     1       0.931  13.387   5.389  1.00  0.00    -0.200 F 
ATOM     85  F   UNL     1       2.440  14.229   3.278  1.00  0.00    -0.200 F 
ENDBRANCH  51  75
BRANCH  63  86
ATOM     86  C   UNL     1       8.015   7.194   8.232  1.00  0.00     0.064 A 
ATOM     87  C   UNL     1       8.136   8.053   9.335  1.00  0.00     0.173 A 
ATOM     88  C   UNL     1       9.191   6.766   7.597  1.00  0.00     0.173 A 
ATOM     89  F   UNL     1       7.039   8.501   9.964  1.00  0.00    -0.203 F 
ATOM     90  C   UNL     1       9.385   8.484   9.770  1.00  0.00     0.198 A 
ATOM     91  C   UNL     1      10.439   7.182   8.050  1.00  0.00     0.198 A 
ATOM     92  F   UNL     1       9.127   5.941   6.542  1.00  0.00    -0.203 F 
ATOM     93  F   UNL     1       9.476   9.338  10.799  1.00  0.00    -0.200 F 
ATOM     94  C   UNL     1      10.536   8.045   9.131  1.00  0.00     0.200 A 
ATOM     95  F   UNL     1      11.550   6.751   7.437  1.00  0.00    -0.200 F 
ATOM     96  F   UNL     1      11.738   8.462   9.552  1.00  0.00    -0.200 F 
ENDBRANCH  63  86
ENDBRANCH  37  38
ENDBRANCH  30  32
ENDBRANCH  29  30
ENDBRANCH  28  29
ENDBRANCH   1  28
TORSDOF 15
