REMARK SMILES CCC([NH3+])(CC)C(=O)N1CCC[N@@H+](CC(=O)OCCOC(=O)c2ccc(-c3c4nc(c(-c5c(F)c(F)c(F)c(F)c5F)c5ccc([nH]5)c(-c5c(F)c(F)c(F)c(F)c5F)c5nc(c(-c6c(F)c(F)c(F)c(F)c6F)c6ccc3[nH]6)C=C5)C=C4)cc2)CC1
REMARK SMILES IDX 15 1 16 2 14 3 13 4 86 6 87 7 9 8 7 9 8 10 3 11 2 12 1 13
REMARK SMILES IDX 4 14 5 18 6 19 10 20 12 22 11 23 17 25 18 26 19 27 20 28
REMARK SMILES IDX 21 29 22 30 23 31 24 32 85 33 25 34 84 35 26 36 27 37 28 38
REMARK SMILES IDX 78 39 29 40 83 41 77 42 79 43 30 44 82 45 76 46 75 47 31 49
REMARK SMILES IDX 63 50 43 51 62 52 44 53 47 54 61 55 80 56 45 57 46 58 60 60
REMARK SMILES IDX 81 61 48 62 32 63 33 64 41 65 34 66 35 67 39 68 42 69 36 70
REMARK SMILES IDX 37 71 40 72 38 73 64 74 65 75 73 76 66 77 67 78 71 79 74 80
REMARK SMILES IDX 68 81 69 82 72 83 70 84 49 85 50 86 58 87 51 88 52 89 56 90
REMARK SMILES IDX 59 91 53 92 54 93 57 94 55 95
REMARK H PARENT 13 5 4 15 4 16 4 17 79 48 47 59
REMARK Flexibility Score: 90.00
ROOT
ATOM      1  C   UNL     1       4.204   3.886   5.162  1.00  0.00     0.361 C 
ATOM      2  O   UNL     1       4.025   4.686   6.074  1.00  0.00    -0.245 OA
ENDROOT
BRANCH   1   3
ATOM      3  C   UNL     1       5.536   3.163   4.941  1.00  0.00     0.386 C 
BRANCH   3   4
ATOM      4  N   UNL     1       5.322   1.794   4.497  1.00  0.00    -0.324 N 
ATOM      5  H   UNL     1       4.328   1.916   4.303  1.00  0.00     0.348 HD
BRANCH   4   6
ATOM      6  C   UNL     1       5.740   1.401   3.163  1.00  0.00     0.284 C 
BRANCH   6   7
ATOM      7  C   UNL     1       4.537   1.042   2.266  1.00  0.00     0.181 C 
BRANCH   7   8
ATOM      8  N   UNL     1       3.557   0.046   2.740  1.00  0.00    -0.331 N 
BRANCH   8   9
ATOM      9  C   UNL     1       2.750  -0.532   1.753  1.00  0.00     0.284 C 
ATOM     10  O   UNL     1       3.276  -0.927   0.706  1.00  0.00    -0.268 OA
BRANCH   9  11
ATOM     11  C   UNL     1       1.161  -0.370   1.847  1.00  0.00     0.173 C 
BRANCH  11  12
ATOM     12  C   UNL     1       0.480  -1.054   0.619  1.00  0.00     0.075 C 
ATOM     13  C   UNL     1       0.605  -0.348  -0.728  1.00  0.00     0.011 C 
ENDBRANCH  11  12
BRANCH  11  14
ATOM     14  N   UNL     1       0.886   1.099   1.822  1.00  0.00    -0.345 N 
ATOM     15  H   UNL     1      -0.119   1.258   1.880  1.00  0.00     0.345 HD
ATOM     16  H   UNL     1       1.244   1.498   0.954  1.00  0.00     0.345 HD
ATOM     17  H   UNL     1       1.347   1.544   2.616  1.00  0.00     0.345 HD
ENDBRANCH  11  14
BRANCH  11  18
ATOM     18  C   UNL     1       0.460  -0.911   3.114  1.00  0.00     0.075 C 
ATOM     19  C   UNL     1       0.665  -2.398   3.381  1.00  0.00     0.011 C 
ENDBRANCH  11  18
ENDBRANCH   9  11
ENDBRANCH   8   9
BRANCH   8  20
ATOM     20  C   UNL     1       3.312  -0.116   4.172  1.00  0.00     0.126 CG0
ATOM     21  G   UNL     1       4.552  -0.481   4.989  1.00  0.00     0.000 G0
ENDBRANCH   8  20
ENDBRANCH   7   8
ENDBRANCH   6   7
ENDBRANCH   4   6
BRANCH   4  22
ATOM     22  C   UNL     1       5.290   0.754   5.498  1.00  0.00     0.264 C 
BRANCH  22  23
ATOM     23  C   UNL     1       4.552  -0.481   4.989  1.00  0.00     0.083 CG0
ATOM     24  G   UNL     1       3.312  -0.116   4.172  1.00  0.00     0.000 G0
ENDBRANCH  22  23
ENDBRANCH   4  22
ENDBRANCH   3   4
ENDBRANCH   1   3
BRANCH   1  25
ATOM     25  O   UNL     1       3.283   3.580   4.201  1.00  0.00    -0.458 OA
BRANCH  25  26
ATOM     26  C   UNL     1       2.001   4.226   4.309  1.00  0.00     0.274 C 
BRANCH  26  27
ATOM     27  C   UNL     1       1.001   3.342   5.048  1.00  0.00     0.275 C 
BRANCH  27  28
ATOM     28  O   UNL     1       1.480   3.075   6.376  1.00  0.00    -0.458 OA
BRANCH  28  29
ATOM     29  C   UNL     1       1.411   1.788   6.768  1.00  0.00     0.338 C 
ATOM     30  O   UNL     1       0.961   0.836   6.144  1.00  0.00    -0.246 OA
BRANCH  29  31
ATOM     31  C   UNL     1       1.882   1.647   8.146  1.00  0.00     0.060 A 
ATOM     32  C   UNL     1       3.099   2.183   8.576  1.00  0.00     0.016 A 
ATOM     33  C   UNL     1       1.067   0.919   9.016  1.00  0.00     0.016 A 
ATOM     34  C   UNL     1       3.498   1.996   9.898  1.00  0.00     0.010 A 
ATOM     35  C   UNL     1       1.438   0.777  10.345  1.00  0.00     0.010 A 
ATOM     36  C   UNL     1       2.647   1.327  10.793  1.00  0.00    -0.014 A 
BRANCH  36  37
ATOM     37  C   UNL     1       2.905   1.349  12.246  1.00  0.00     0.031 A 
ATOM     38  C   UNL     1       3.283   0.103  12.979  1.00  0.00     0.074 A 
ATOM     39  C   UNL     1       2.651   2.503  12.891  1.00  0.00     0.049 A 
ATOM     40  N   UNL     1       3.403  -0.089  14.267  1.00  0.00    -0.248 NA
ATOM     41  C   UNL     1       3.541  -1.092  12.162  1.00  0.00     0.031 C 
ATOM     42  C   UNL     1       2.226   3.747  12.242  1.00  0.00     0.029 A 
ATOM     43  N   UNL     1       2.681   2.815  14.222  1.00  0.00    -0.354 N 
ATOM     44  C   UNL     1       3.736  -1.427  14.419  1.00  0.00     0.074 A 
ATOM     45  C   UNL     1       3.786  -2.006  13.093  1.00  0.00     0.031 C 
ATOM     46  C   UNL     1       2.035   4.688  13.175  1.00  0.00     0.029 A 
ATOM     47  C   UNL     1       2.283   4.103  14.486  1.00  0.00     0.049 A 
ATOM     48  H   UNL     1       2.959   2.181  14.921  1.00  0.00     0.167 HD
ATOM     49  C   UNL     1       3.972  -2.099  15.572  1.00  0.00     0.037 A 
ATOM     50  C   UNL     1       2.114   4.732  15.661  1.00  0.00     0.037 A 
ATOM     51  C   UNL     1       3.898  -1.492  16.877  1.00  0.00     0.049 A 
ATOM     52  C   UNL     1       2.405   3.970  16.918  1.00  0.00     0.074 A 
ATOM     53  C   UNL     1       4.140  -2.061  18.115  1.00  0.00     0.029 A 
ATOM     54  N   UNL     1       3.544  -0.168  17.109  1.00  0.00    -0.354 N 
ATOM     55  N   UNL     1       2.763   2.715  17.053  1.00  0.00    -0.248 NA
ATOM     56  C   UNL     1       2.274   4.703  18.181  1.00  0.00     0.031 C 
ATOM     57  C   UNL     1       3.899  -1.091  19.096  1.00  0.00     0.029 A 
ATOM     58  C   UNL     1       3.546   0.095  18.469  1.00  0.00     0.049 A 
ATOM     59  H   UNL     1       3.324   0.488  16.408  1.00  0.00     0.167 HD
ATOM     60  C   UNL     1       2.908   2.505  18.414  1.00  0.00     0.074 A 
ATOM     61  C   UNL     1       2.621   3.772  19.060  1.00  0.00     0.031 C 
ATOM     62  C   UNL     1       3.241   1.368  19.073  1.00  0.00     0.037 A 
BRANCH  49  63
ATOM     63  C   UNL     1       4.308  -3.559  15.473  1.00  0.00     0.064 A 
ATOM     64  C   UNL     1       5.548  -3.997  14.984  1.00  0.00     0.173 A 
ATOM     65  C   UNL     1       3.393  -4.533  15.901  1.00  0.00     0.173 A 
ATOM     66  F   UNL     1       6.454  -3.109  14.550  1.00  0.00    -0.203 F 
ATOM     67  C   UNL     1       5.851  -5.355  14.909  1.00  0.00     0.198 A 
ATOM     68  C   UNL     1       3.708  -5.889  15.845  1.00  0.00     0.198 A 
ATOM     69  F   UNL     1       2.193  -4.170  16.379  1.00  0.00    -0.203 F 
ATOM     70  F   UNL     1       7.027  -5.751  14.402  1.00  0.00    -0.200 F 
ATOM     71  C   UNL     1       4.933  -6.300  15.344  1.00  0.00     0.200 A 
ATOM     72  F   UNL     1       2.822  -6.800  16.273  1.00  0.00    -0.200 F 
ATOM     73  F   UNL     1       5.228  -7.605  15.273  1.00  0.00    -0.200 F 
ENDBRANCH  49  63
BRANCH  50  74
ATOM     74  C   UNL     1       1.677   6.149  15.671  1.00  0.00     0.064 A 
ATOM     75  C   UNL     1       2.579   7.173  15.989  1.00  0.00     0.173 A 
ATOM     76  C   UNL     1       0.380   6.517  15.282  1.00  0.00     0.173 A 
ATOM     77  F   UNL     1       3.826   6.870  16.375  1.00  0.00    -0.203 F 
ATOM     78  C   UNL     1       2.200   8.512  15.918  1.00  0.00     0.198 A 
ATOM     79  C   UNL     1       0.010   7.856  15.187  1.00  0.00     0.198 A 
ATOM     80  F   UNL     1      -0.514   5.574  14.952  1.00  0.00    -0.203 F 
ATOM     81  F   UNL     1       3.076   9.472  16.243  1.00  0.00    -0.200 F 
ATOM     82  C   UNL     1       0.919   8.853  15.507  1.00  0.00     0.200 A 
ATOM     83  F   UNL     1      -1.221   8.182  14.768  1.00  0.00    -0.200 F 
ATOM     84  F   UNL     1       0.563  10.142  15.417  1.00  0.00    -0.200 F 
ENDBRANCH  50  74
BRANCH  62  85
ATOM     85  C   UNL     1       3.311   1.463  20.565  1.00  0.00     0.064 A 
ATOM     86  C   UNL     1       2.147   1.520  21.345  1.00  0.00     0.173 A 
ATOM     87  C   UNL     1       4.550   1.484  21.218  1.00  0.00     0.173 A 
ATOM     88  F   UNL     1       0.940   1.523  20.758  1.00  0.00    -0.203 F 
ATOM     89  C   UNL     1       2.224   1.621  22.730  1.00  0.00     0.198 A 
ATOM     90  C   UNL     1       4.622   1.561  22.605  1.00  0.00     0.198 A 
ATOM     91  F   UNL     1       5.689   1.430  20.511  1.00  0.00    -0.203 F 
ATOM     92  F   UNL     1       1.101   1.722  23.455  1.00  0.00    -0.200 F 
ATOM     93  C   UNL     1       3.460   1.636  23.359  1.00  0.00     0.200 A 
ATOM     94  F   UNL     1       5.817   1.569  23.212  1.00  0.00    -0.200 F 
ATOM     95  F   UNL     1       3.532   1.735  24.693  1.00  0.00    -0.200 F 
ENDBRANCH  62  85
ENDBRANCH  36  37
ENDBRANCH  29  31
ENDBRANCH  28  29
ENDBRANCH  27  28
ENDBRANCH  26  27
ENDBRANCH  25  26
ENDBRANCH   1  25
TORSDOF 17
