REMARK SMILES C=CC[N@@H+](CC(=O)OCCOC(=O)c1ccc(-c2c3nc(c(-c4c(F)c(F)c(F)c(F)c4F)c4ccc([nH]4)c(-c4c(F)c(F)c(F)c(F)c4F)c4nc(c(-c5c(F)c(F)c(F)c(F)c5F)c5ccc2[nH]5)C=C4)C=C3)cc1)[C@@H]1CCC[C@H](C(C)(C)C)CC1
REMARK SMILES IDX 6 1 7 2 5 3 4 4 3 6 2 7 1 8 77 9 78 10 87 12 86 13 81 14
REMARK SMILES IDX 80 15 79 16 82 18 83 19 84 20 85 21 8 22 9 23 10 24 11 25
REMARK SMILES IDX 12 26 13 27 14 28 15 29 76 30 16 31 75 32 17 33 18 34 19 35
REMARK SMILES IDX 69 36 20 37 74 38 68 39 70 40 21 41 73 42 67 43 66 44 22 46
REMARK SMILES IDX 54 47 34 48 53 49 35 50 38 51 52 52 71 53 36 54 37 55 51 57
REMARK SMILES IDX 72 58 39 59 23 60 24 61 32 62 25 63 26 64 30 65 33 66 27 67
REMARK SMILES IDX 28 68 31 69 29 70 55 71 56 72 64 73 57 74 58 75 62 76 65 77
REMARK SMILES IDX 59 78 60 79 63 80 61 81 40 82 41 83 49 84 42 85 43 86 47 87
REMARK SMILES IDX 50 88 44 89 45 90 48 91 46 92
REMARK H PARENT 4 5 70 45 38 56
REMARK Flexibility Score: 80.00
ROOT
ATOM      1  C   UNL     1      -3.742  -0.573   0.883  1.00  0.00     0.361 C 
ATOM      2  O   UNL     1      -4.924  -0.815   1.116  1.00  0.00    -0.245 OA
ENDROOT
BRANCH   1   3
ATOM      3  C   UNL     1      -2.703  -0.497   2.005  1.00  0.00     0.387 C 
BRANCH   3   4
ATOM      4  N   UNL     1      -1.262  -0.658   1.655  1.00  0.00    -0.320 N 
ATOM      5  H   UNL     1      -0.738  -0.616   2.530  1.00  0.00     0.349 HD
BRANCH   4   6
ATOM      6  C   UNL     1      -0.823   0.467   0.808  1.00  0.00     0.291 C 
BRANCH   6   7
ATOM      7  C   UNL     1       0.536   0.992   1.166  1.00  0.00     0.025 C 
ATOM      8  C   UNL     1       1.463   1.316   0.253  1.00  0.00     0.010 C 
ENDBRANCH   6   7
ENDBRANCH   4   6
BRANCH   4   9
ATOM      9  C   UNL     1      -0.876  -2.005   1.142  1.00  0.00     0.184 C 
BRANCH   9  10
ATOM     10  C   UNL     1      -1.508  -3.151   1.969  1.00  0.00     0.065 CG0
ATOM     11  G   UNL     1      -0.914  -4.537   1.706  1.00  0.00     0.000 G0
ENDBRANCH   9  10
BRANCH   9  12
ATOM     12  C   UNL     1       0.651  -2.231   1.074  1.00  0.00     0.065 C 
BRANCH  12  13
ATOM     13  C   UNL     1       1.305  -2.558   2.426  1.00  0.00     0.010 C 
BRANCH  13  14
ATOM     14  C   UNL     1       1.523  -4.080   2.634  1.00  0.00    -0.005 C 
BRANCH  14  15
ATOM     15  C   UNL     1       0.204  -4.898   2.688  1.00  0.00     0.004 C 
BRANCH  15  16
ATOM     16  C   UNL     1      -0.914  -4.537   1.706  1.00  0.00     0.006 CG0
ATOM     17  G   UNL     1      -1.508  -3.151   1.969  1.00  0.00     0.000 G0
ENDBRANCH  15  16
ENDBRANCH  14  15
BRANCH  14  18
ATOM     18  C   UNL     1       2.475  -4.415   3.860  1.00  0.00    -0.035 C 
ATOM     19  C   UNL     1       2.860  -5.913   3.838  1.00  0.00     0.011 C 
ATOM     20  C   UNL     1       3.793  -3.612   3.780  1.00  0.00     0.011 C 
ATOM     21  C   UNL     1       1.823  -4.106   5.223  1.00  0.00     0.011 C 
ENDBRANCH  14  18
ENDBRANCH  13  14
ENDBRANCH  12  13
ENDBRANCH   9  12
ENDBRANCH   4   9
ENDBRANCH   3   4
ENDBRANCH   1   3
BRANCH   1  22
ATOM     22  O   UNL     1      -3.261  -0.261  -0.348  1.00  0.00    -0.458 OA
BRANCH  22  23
ATOM     23  C   UNL     1      -4.213  -0.194  -1.430  1.00  0.00     0.274 C 
BRANCH  23  24
ATOM     24  C   UNL     1      -4.154  -1.466  -2.267  1.00  0.00     0.275 C 
BRANCH  24  25
ATOM     25  O   UNL     1      -4.596  -2.570  -1.462  1.00  0.00    -0.458 OA
BRANCH  25  26
ATOM     26  C   UNL     1      -3.836  -3.685  -1.529  1.00  0.00     0.338 C 
ATOM     27  O   UNL     1      -2.871  -3.880  -2.247  1.00  0.00    -0.246 OA
BRANCH  26  28
ATOM     28  C   UNL     1      -4.331  -4.689  -0.567  1.00  0.00     0.060 A 
ATOM     29  C   UNL     1      -4.682  -4.323   0.734  1.00  0.00     0.016 A 
ATOM     30  C   UNL     1      -4.311  -6.035  -0.932  1.00  0.00     0.016 A 
ATOM     31  C   UNL     1      -4.884  -5.306   1.702  1.00  0.00     0.010 A 
ATOM     32  C   UNL     1      -4.617  -7.015   0.014  1.00  0.00     0.010 A 
ATOM     33  C   UNL     1      -4.852  -6.665   1.355  1.00  0.00    -0.014 A 
BRANCH  33  34
ATOM     34  C   UNL     1      -5.005  -7.723   2.389  1.00  0.00     0.031 A 
ATOM     35  C   UNL     1      -3.900  -8.724   2.615  1.00  0.00     0.074 A 
ATOM     36  C   UNL     1      -6.128  -7.797   3.127  1.00  0.00     0.049 A 
ATOM     37  N   UNL     1      -3.907  -9.822   3.330  1.00  0.00    -0.248 NA
ATOM     38  C   UNL     1      -2.622  -8.465   1.933  1.00  0.00     0.031 C 
ATOM     39  C   UNL     1      -7.262  -6.876   3.042  1.00  0.00     0.029 A 
ATOM     40  N   UNL     1      -6.502  -8.695   4.096  1.00  0.00    -0.354 N 
ATOM     41  C   UNL     1      -2.662 -10.407   3.140  1.00  0.00     0.074 A 
ATOM     42  C   UNL     1      -1.921  -9.546   2.243  1.00  0.00     0.031 C 
ATOM     43  C   UNL     1      -8.191  -7.238   3.940  1.00  0.00     0.029 A 
ATOM     44  C   UNL     1      -7.753  -8.457   4.610  1.00  0.00     0.049 A 
ATOM     45  H   UNL     1      -5.929  -9.438   4.394  1.00  0.00     0.167 HD
ATOM     46  C   UNL     1      -2.181 -11.561   3.664  1.00  0.00     0.037 A 
ATOM     47  C   UNL     1      -8.483  -9.161   5.494  1.00  0.00     0.037 A 
ATOM     48  C   UNL     1      -2.896 -12.392   4.597  1.00  0.00     0.049 A 
ATOM     49  C   UNL     1      -7.930 -10.438   6.059  1.00  0.00     0.074 A 
ATOM     50  C   UNL     1      -2.488 -13.573   5.193  1.00  0.00     0.029 A 
ATOM     51  N   UNL     1      -4.164 -12.116   5.085  1.00  0.00    -0.354 N 
ATOM     52  N   UNL     1      -6.776 -11.012   5.827  1.00  0.00    -0.248 NA
ATOM     53  C   UNL     1      -8.790 -11.172   6.997  1.00  0.00     0.031 C 
ATOM     54  C   UNL     1      -3.520 -14.024   6.024  1.00  0.00     0.029 A 
ATOM     55  C   UNL     1      -4.556 -13.106   5.971  1.00  0.00     0.049 A 
ATOM     56  H   UNL     1      -4.706 -11.332   4.838  1.00  0.00     0.167 HD
ATOM     57  C   UNL     1      -6.768 -12.171   6.588  1.00  0.00     0.074 A 
ATOM     58  C   UNL     1      -8.023 -12.206   7.311  1.00  0.00     0.031 C 
ATOM     59  C   UNL     1      -5.811 -13.126   6.676  1.00  0.00     0.037 A 
BRANCH  46  60
ATOM     60  C   UNL     1      -0.822 -12.012   3.217  1.00  0.00     0.064 A 
ATOM     61  C   UNL     1       0.351 -11.396   3.677  1.00  0.00     0.173 A 
ATOM     62  C   UNL     1      -0.693 -13.105   2.346  1.00  0.00     0.173 A 
ATOM     63  F   UNL     1       0.279 -10.338   4.498  1.00  0.00    -0.203 F 
ATOM     64  C   UNL     1       1.603 -11.847   3.267  1.00  0.00     0.198 A 
ATOM     65  C   UNL     1       0.561 -13.567   1.956  1.00  0.00     0.198 A 
ATOM     66  F   UNL     1      -1.784 -13.730   1.880  1.00  0.00    -0.203 F 
ATOM     67  F   UNL     1       2.710 -11.221   3.690  1.00  0.00    -0.200 F 
ATOM     68  C   UNL     1       1.708 -12.935   2.413  1.00  0.00     0.200 A 
ATOM     69  F   UNL     1       0.660 -14.624   1.139  1.00  0.00    -0.200 F 
ATOM     70  F   UNL     1       2.914 -13.372   2.026  1.00  0.00    -0.200 F 
ENDBRANCH  46  60
BRANCH  47  71
ATOM     71  C   UNL     1      -9.835  -8.681   5.875  1.00  0.00     0.064 A 
ATOM     72  C   UNL     1     -10.077  -8.156   7.151  1.00  0.00     0.173 A 
ATOM     73  C   UNL     1     -10.904  -8.722   4.969  1.00  0.00     0.173 A 
ATOM     74  F   UNL     1      -9.090  -8.122   8.059  1.00  0.00    -0.203 F 
ATOM     75  C   UNL     1     -11.341  -7.694   7.509  1.00  0.00     0.198 A 
ATOM     76  C   UNL     1     -12.161  -8.236   5.319  1.00  0.00     0.198 A 
ATOM     77  F   UNL     1     -10.721  -9.216   3.736  1.00  0.00    -0.203 F 
ATOM     78  F   UNL     1     -11.556  -7.227   8.746  1.00  0.00    -0.200 F 
ATOM     79  C   UNL     1     -12.380  -7.727   6.590  1.00  0.00     0.200 A 
ATOM     80  F   UNL     1     -13.159  -8.258   4.424  1.00  0.00    -0.200 F 
ATOM     81  F   UNL     1     -13.593  -7.272   6.931  1.00  0.00    -0.200 F 
ENDBRANCH  47  71
BRANCH  59  82
ATOM     82  C   UNL     1      -6.085 -14.277   7.595  1.00  0.00     0.064 A 
ATOM     83  C   UNL     1      -6.988 -15.291   7.245  1.00  0.00     0.173 A 
ATOM     84  C   UNL     1      -5.433 -14.370   8.833  1.00  0.00     0.173 A 
ATOM     85  F   UNL     1      -7.648 -15.234   6.078  1.00  0.00    -0.203 F 
ATOM     86  C   UNL     1      -7.248 -16.346   8.115  1.00  0.00     0.198 A 
ATOM     87  C   UNL     1      -5.679 -15.438   9.691  1.00  0.00     0.198 A 
ATOM     88  F   UNL     1      -4.559 -13.425   9.210  1.00  0.00    -0.203 F 
ATOM     89  F   UNL     1      -8.149 -17.281   7.781  1.00  0.00    -0.200 F 
ATOM     90  C   UNL     1      -6.591 -16.421   9.334  1.00  0.00     0.200 A 
ATOM     91  F   UNL     1      -5.041 -15.513  10.867  1.00  0.00    -0.200 F 
ATOM     92  F   UNL     1      -6.847 -17.434  10.173  1.00  0.00    -0.200 F 
ENDBRANCH  59  82
ENDBRANCH  33  34
ENDBRANCH  26  28
ENDBRANCH  25  26
ENDBRANCH  24  25
ENDBRANCH  23  24
ENDBRANCH  22  23
ENDBRANCH   1  22
TORSDOF 16
