REMARK SMILES CC[C@@H](NC(=O)[C@H](C)C[NH2+]C)C(=O)OCCOC(=O)c1ccc(-c2c3nc(c(-c4c(F)c(F)c(F)c(F)c4F)c4ccc([nH]4)c(-c4c(F)c(F)c(F)c(F)c4F)c4nc(c(-c5c(F)c(F)c(F)c(F)c5F)c5ccc2[nH]5)C=C4)C=C3)cc1
REMARK SMILES IDX 15 1 14 2 12 3 13 4 3 5 2 6 1 7 4 8 5 9 6 11 7 12 8 13 9 14
REMARK SMILES IDX 10 15 11 16 16 19 17 20 18 21 19 22 20 23 21 24 82 25 22 26
REMARK SMILES IDX 81 27 23 28 24 29 25 30 75 31 26 32 80 33 74 34 76 35 27 36
REMARK SMILES IDX 79 37 73 38 72 39 28 41 60 42 40 43 59 44 41 45 44 46 58 47
REMARK SMILES IDX 77 48 42 49 43 50 57 52 78 53 45 54 29 55 30 56 38 57 31 58
REMARK SMILES IDX 32 59 36 60 39 61 33 62 34 63 37 64 35 65 61 66 62 67 70 68
REMARK SMILES IDX 63 69 64 70 68 71 71 72 65 73 66 74 69 75 67 76 46 77 47 78
REMARK SMILES IDX 55 79 48 80 49 81 53 82 56 83 50 84 51 85 54 86 52 87
REMARK H PARENT 4 10 10 17 10 18 76 40 44 51
REMARK Flexibility Score: inf
ROOT
ATOM      1  C   UNL     1       0.760   2.118   4.193  1.00  0.00     0.274 C 
ENDROOT
BRANCH   1   2
ATOM      2  O   UNL     1       0.112   1.320   3.178  1.00  0.00    -0.461 OA
BRANCH   2   3
ATOM      3  C   UNL     1      -1.124   0.818   3.454  1.00  0.00     0.328 C 
ATOM      4  O   UNL     1      -1.771   1.083   4.461  1.00  0.00    -0.250 OA
BRANCH   3   5
ATOM      5  C   UNL     1      -1.584  -0.221   2.403  1.00  0.00     0.192 C 
BRANCH   5   6
ATOM      6  C   UNL     1      -0.840  -0.185   1.055  1.00  0.00     0.033 C 
ATOM      7  C   UNL     1      -1.667  -0.762  -0.092  1.00  0.00     0.007 C 
ENDBRANCH   5   6
BRANCH   5   8
ATOM      8  N   UNL     1      -1.794  -1.598   2.893  1.00  0.00    -0.342 N 
ATOM      9  C   UNL     1      -1.031  -2.427   3.669  1.00  0.00     0.229 C 
ATOM     10  H   UNL     1      -2.647  -1.997   2.606  1.00  0.00     0.164 HD
ATOM     11  O   UNL     1      -1.250  -3.637   3.593  1.00  0.00    -0.275 OA
BRANCH   9  12
ATOM     12  C   UNL     1      -0.022  -1.847   4.654  1.00  0.00     0.130 C 
ATOM     13  C   UNL     1       1.247  -1.384   3.954  1.00  0.00     0.024 C 
BRANCH  12  14
ATOM     14  C   UNL     1       0.314  -2.849   5.783  1.00  0.00     0.273 C 
BRANCH  14  15
ATOM     15  N   UNL     1       0.962  -2.210   6.941  1.00  0.00    -0.348 N 
ATOM     16  C   UNL     1       2.413  -2.297   6.931  1.00  0.00     0.330 C 
ATOM     17  H   UNL     1       0.620  -2.663   7.789  1.00  0.00     0.346 HD
ATOM     18  H   UNL     1       0.726  -1.219   6.901  1.00  0.00     0.346 HD
ENDBRANCH  14  15
ENDBRANCH  12  14
ENDBRANCH   9  12
ENDBRANCH   5   8
ENDBRANCH   3   5
ENDBRANCH   2   3
ENDBRANCH   1   2
BRANCH   1  19
ATOM     19  C   UNL     1       1.016   3.547   3.717  1.00  0.00     0.275 C 
BRANCH  19  20
ATOM     20  O   UNL     1      -0.229   4.229   3.535  1.00  0.00    -0.458 OA
BRANCH  20  21
ATOM     21  C   UNL     1      -0.788   4.038   2.322  1.00  0.00     0.338 C 
ATOM     22  O   UNL     1      -0.284   3.523   1.335  1.00  0.00    -0.246 OA
BRANCH  21  23
ATOM     23  C   UNL     1      -2.216   4.346   2.423  1.00  0.00     0.060 A 
ATOM     24  C   UNL     1      -3.116   3.396   1.926  1.00  0.00     0.016 A 
ATOM     25  C   UNL     1      -2.660   5.551   2.970  1.00  0.00     0.016 A 
ATOM     26  C   UNL     1      -4.476   3.659   1.944  1.00  0.00     0.010 A 
ATOM     27  C   UNL     1      -4.022   5.824   2.972  1.00  0.00     0.010 A 
ATOM     28  C   UNL     1      -4.924   4.893   2.428  1.00  0.00    -0.014 A 
BRANCH  28  29
ATOM     29  C   UNL     1      -6.317   5.303   2.182  1.00  0.00     0.031 A 
ATOM     30  C   UNL     1      -6.583   6.199   1.012  1.00  0.00     0.074 A 
ATOM     31  C   UNL     1      -7.299   4.883   2.993  1.00  0.00     0.049 A 
ATOM     32  N   UNL     1      -7.680   6.820   0.672  1.00  0.00    -0.248 NA
ATOM     33  C   UNL     1      -5.448   6.438   0.103  1.00  0.00     0.031 C 
ATOM     34  C   UNL     1      -7.131   3.963   4.117  1.00  0.00     0.029 A 
ATOM     35  N   UNL     1      -8.631   5.197   3.005  1.00  0.00    -0.354 N 
ATOM     36  C   UNL     1      -7.363   7.537  -0.473  1.00  0.00     0.074 A 
ATOM     37  C   UNL     1      -5.968   7.294  -0.762  1.00  0.00     0.031 C 
ATOM     38  C   UNL     1      -8.316   3.807   4.730  1.00  0.00     0.029 A 
ATOM     39  C   UNL     1      -9.306   4.651   4.067  1.00  0.00     0.049 A 
ATOM     40  H   UNL     1      -9.062   5.757   2.320  1.00  0.00     0.167 HD
ATOM     41  C   UNL     1      -8.174   8.328  -1.212  1.00  0.00     0.037 A 
ATOM     42  C   UNL     1     -10.573   4.855   4.471  1.00  0.00     0.037 A 
ATOM     43  C   UNL     1      -9.558   8.555  -0.894  1.00  0.00     0.049 A 
ATOM     44  C   UNL     1     -11.440   5.790   3.669  1.00  0.00     0.074 A 
ATOM     45  C   UNL     1     -10.482   9.340  -1.557  1.00  0.00     0.029 A 
ATOM     46  N   UNL     1     -10.213   7.988   0.192  1.00  0.00    -0.354 N 
ATOM     47  N   UNL     1     -11.139   6.479   2.592  1.00  0.00    -0.248 NA
ATOM     48  C   UNL     1     -12.819   5.978   4.135  1.00  0.00     0.031 C 
ATOM     49  C   UNL     1     -11.686   9.282  -0.847  1.00  0.00     0.029 A 
ATOM     50  C   UNL     1     -11.528   8.418   0.227  1.00  0.00     0.049 A 
ATOM     51  H   UNL     1      -9.803   7.371   0.840  1.00  0.00     0.167 HD
ATOM     52  C   UNL     1     -12.294   7.162   2.239  1.00  0.00     0.074 A 
ATOM     53  C   UNL     1     -13.306   6.792   3.209  1.00  0.00     0.031 C 
ATOM     54  C   UNL     1     -12.506   8.019   1.208  1.00  0.00     0.037 A 
BRANCH  41  55
ATOM     55  C   UNL     1      -7.571   9.024  -2.396  1.00  0.00     0.064 A 
ATOM     56  C   UNL     1      -7.180   8.323  -3.547  1.00  0.00     0.173 A 
ATOM     57  C   UNL     1      -7.380  10.414  -2.380  1.00  0.00     0.173 A 
ATOM     58  F   UNL     1      -7.317   6.989  -3.604  1.00  0.00    -0.203 F 
ATOM     59  C   UNL     1      -6.597   8.983  -4.626  1.00  0.00     0.198 A 
ATOM     60  C   UNL     1      -6.824  11.075  -3.473  1.00  0.00     0.198 A 
ATOM     61  F   UNL     1      -7.730  11.133  -1.303  1.00  0.00    -0.203 F 
ATOM     62  F   UNL     1      -6.183   8.285  -5.693  1.00  0.00    -0.200 F 
ATOM     63  C   UNL     1      -6.426  10.359  -4.591  1.00  0.00     0.200 A 
ATOM     64  F   UNL     1      -6.666  12.406  -3.440  1.00  0.00    -0.200 F 
ATOM     65  F   UNL     1      -5.867  10.993  -5.631  1.00  0.00    -0.200 F 
ENDBRANCH  41  55
BRANCH  42  66
ATOM     66  C   UNL     1     -11.079   4.186   5.697  1.00  0.00     0.064 A 
ATOM     67  C   UNL     1     -12.062   3.191   5.625  1.00  0.00     0.173 A 
ATOM     68  C   UNL     1     -10.585   4.522   6.967  1.00  0.00     0.173 A 
ATOM     69  F   UNL     1     -12.582   2.848   4.436  1.00  0.00    -0.203 F 
ATOM     70  C   UNL     1     -12.544   2.569   6.775  1.00  0.00     0.198 A 
ATOM     71  C   UNL     1     -11.046   3.879   8.114  1.00  0.00     0.198 A 
ATOM     72  F   UNL     1      -9.641   5.467   7.092  1.00  0.00    -0.203 F 
ATOM     73  F   UNL     1     -13.515   1.651   6.681  1.00  0.00    -0.200 F 
ATOM     74  C   UNL     1     -12.030   2.909   8.018  1.00  0.00     0.200 A 
ATOM     75  F   UNL     1     -10.536   4.202   9.311  1.00  0.00    -0.200 F 
ATOM     76  F   UNL     1     -12.490   2.306   9.123  1.00  0.00    -0.200 F 
ENDBRANCH  42  66
BRANCH  54  77
ATOM     77  C   UNL     1     -13.890   8.577   1.061  1.00  0.00     0.064 A 
ATOM     78  C   UNL     1     -14.389   9.549   1.939  1.00  0.00     0.173 A 
ATOM     79  C   UNL     1     -14.708   8.163  -0.002  1.00  0.00     0.173 A 
ATOM     80  F   UNL     1     -13.648   9.965   2.977  1.00  0.00    -0.203 F 
ATOM     81  C   UNL     1     -15.669  10.069   1.773  1.00  0.00     0.198 A 
ATOM     82  C   UNL     1     -15.975   8.709  -0.182  1.00  0.00     0.198 A 
ATOM     83  F   UNL     1     -14.271   7.242  -0.873  1.00  0.00    -0.203 F 
ATOM     84  F   UNL     1     -16.145  10.963   2.651  1.00  0.00    -0.200 F 
ATOM     85  C   UNL     1     -16.457   9.655   0.710  1.00  0.00     0.200 A 
ATOM     86  F   UNL     1     -16.729   8.319  -1.219  1.00  0.00    -0.200 F 
ATOM     87  F   UNL     1     -17.686  10.164   0.547  1.00  0.00    -0.200 F 
ENDBRANCH  54  77
ENDBRANCH  28  29
ENDBRANCH  21  23
ENDBRANCH  20  21
ENDBRANCH  19  20
ENDBRANCH   1  19
TORSDOF 16
