REMARK SMILES COc1cc(/C=C/C(=O)OCCOC(=O)c2ccc(-c3c4nc(c(-c5c(F)c(F)c(F)c(F)c5F)c5ccc([nH]5)c(-c5c(F)c(F)c(F)c(F)c5F)c5nc(c(-c6c(F)c(F)c(F)c(F)c6F)c6ccc3[nH]6)C=C5)C=C4)cc2)cc(OC)c1O
REMARK SMILES IDX 11 1 10 2 8 3 9 4 7 5 6 6 5 7 3 8 4 9 83 10 80 11 79 12 2 13
REMARK SMILES IDX 1 14 84 15 81 17 82 18 12 19 13 20 14 21 15 22 16 23 17 24
REMARK SMILES IDX 78 25 18 26 77 27 19 28 20 29 21 30 71 31 22 32 76 33 70 34
REMARK SMILES IDX 72 35 23 36 75 37 69 38 68 39 24 41 56 42 36 43 55 44 37 45
REMARK SMILES IDX 40 46 54 47 73 48 38 49 39 50 53 52 74 53 41 54 25 55 26 56
REMARK SMILES IDX 34 57 27 58 28 59 32 60 35 61 29 62 30 63 33 64 31 65 57 66
REMARK SMILES IDX 58 67 66 68 59 69 60 70 64 71 67 72 61 73 62 74 65 75 63 76
REMARK SMILES IDX 42 77 43 78 51 79 44 80 45 81 49 82 52 83 46 84 47 85 50 86
REMARK SMILES IDX 48 87
REMARK H PARENT 84 16 72 40 40 51
REMARK Flexibility Score: inf
ROOT
ATOM      1  C   UNL     1      -2.009   1.020  -9.562  1.00  0.00     0.275 C 
ENDROOT
BRANCH   1   2
ATOM      2  O   UNL     1      -1.605   0.410  -8.322  1.00  0.00    -0.459 OA
BRANCH   2   3
ATOM      3  C   UNL     1      -0.519   0.958  -7.729  1.00  0.00     0.330 C 
ATOM      4  O   UNL     1       0.166   1.868  -8.175  1.00  0.00    -0.247 OA
BRANCH   3   5
ATOM      5  C   UNL     1      -0.234   0.380  -6.401  1.00  0.00     0.094 C 
ATOM      6  C   UNL     1      -0.980  -0.527  -5.750  1.00  0.00     0.016 C 
BRANCH   6   7
ATOM      7  C   UNL     1      -0.641  -0.976  -4.389  1.00  0.00    -0.018 A 
ATOM      8  C   UNL     1       0.141  -0.498  -2.120  1.00  0.00     0.165 A 
ATOM      9  C   UNL     1      -0.216  -0.074  -3.408  1.00  0.00     0.058 A 
ATOM     10  C   UNL     1       0.058  -1.863  -1.806  1.00  0.00     0.200 A 
ATOM     11  C   UNL     1      -0.420  -2.780  -2.757  1.00  0.00     0.165 A 
ATOM     12  C   UNL     1      -0.765  -2.322  -4.041  1.00  0.00     0.058 A 
BRANCH   8  13
ATOM     13  O   UNL     1       0.581   0.534  -1.336  1.00  0.00    -0.493 OA
ATOM     14  C   UNL     1       0.688   0.349   0.067  1.00  0.00     0.278 C 
ENDBRANCH   8  13
BRANCH  10  15
ATOM     15  O   UNL     1       0.511  -2.316  -0.599  1.00  0.00    -0.502 OA
ATOM     16  H   UNL     1       0.831  -1.709   0.039  1.00  0.00     0.293 HD
ENDBRANCH  10  15
BRANCH  11  17
ATOM     17  O   UNL     1      -0.558  -4.138  -2.631  1.00  0.00    -0.493 OA
ATOM     18  C   UNL     1      -0.386  -4.727  -1.349  1.00  0.00     0.278 C 
ENDBRANCH  11  17
ENDBRANCH   6   7
ENDBRANCH   3   5
ENDBRANCH   2   3
ENDBRANCH   1   2
BRANCH   1  19
ATOM     19  C   UNL     1      -3.192   1.973  -9.366  1.00  0.00     0.275 C 
BRANCH  19  20
ATOM     20  O   UNL     1      -2.845   3.106  -8.546  1.00  0.00    -0.458 OA
BRANCH  20  21
ATOM     21  C   UNL     1      -3.066   2.936  -7.223  1.00  0.00     0.338 C 
ATOM     22  O   UNL     1      -3.552   1.950  -6.681  1.00  0.00    -0.246 OA
BRANCH  21  23
ATOM     23  C   UNL     1      -2.542   4.075  -6.450  1.00  0.00     0.060 A 
ATOM     24  C   UNL     1      -1.796   3.788  -5.303  1.00  0.00     0.016 A 
ATOM     25  C   UNL     1      -2.854   5.399  -6.775  1.00  0.00     0.016 A 
ATOM     26  C   UNL     1      -1.387   4.817  -4.459  1.00  0.00     0.010 A 
ATOM     27  C   UNL     1      -2.444   6.434  -5.924  1.00  0.00     0.010 A 
ATOM     28  C   UNL     1      -1.732   6.145  -4.747  1.00  0.00    -0.014 A 
BRANCH  28  29
ATOM     29  C   UNL     1      -1.415   7.199  -3.751  1.00  0.00     0.031 A 
ATOM     30  C   UNL     1      -2.483   7.688  -2.815  1.00  0.00     0.074 A 
ATOM     31  C   UNL     1      -0.157   7.662  -3.636  1.00  0.00     0.049 A 
ATOM     32  N   UNL     1      -2.393   8.538  -1.822  1.00  0.00    -0.248 NA
ATOM     33  C   UNL     1      -3.835   7.147  -3.021  1.00  0.00     0.031 C 
ATOM     34  C   UNL     1       0.969   7.256  -4.474  1.00  0.00     0.029 A 
ATOM     35  N   UNL     1       0.384   8.565  -2.756  1.00  0.00    -0.354 N 
ATOM     36  C   UNL     1      -3.669   8.631  -1.285  1.00  0.00     0.074 A 
ATOM     37  C   UNL     1      -4.526   7.779  -2.082  1.00  0.00     0.031 C 
ATOM     38  C   UNL     1       2.074   7.898  -4.058  1.00  0.00     0.029 A 
ATOM     39  C   UNL     1       1.729   8.770  -2.937  1.00  0.00     0.049 A 
ATOM     40  H   UNL     1      -0.142   9.022  -2.061  1.00  0.00     0.167 HD
ATOM     41  C   UNL     1      -4.087   9.351  -0.216  1.00  0.00     0.037 A 
ATOM     42  C   UNL     1       2.584   9.568  -2.271  1.00  0.00     0.037 A 
ATOM     43  C   UNL     1      -3.238  10.197   0.582  1.00  0.00     0.049 A 
ATOM     44  C   UNL     1       2.088  10.376  -1.102  1.00  0.00     0.074 A 
ATOM     45  C   UNL     1      -3.570  10.955   1.692  1.00  0.00     0.029 A 
ATOM     46  N   UNL     1      -1.885  10.397   0.352  1.00  0.00    -0.354 N 
ATOM     47  N   UNL     1       0.887  10.430  -0.581  1.00  0.00    -0.248 NA
ATOM     48  C   UNL     1       3.075  11.227  -0.421  1.00  0.00     0.031 C 
ATOM     49  C   UNL     1      -2.425  11.642   2.112  1.00  0.00     0.029 A 
ATOM     50  C   UNL     1      -1.371  11.280   1.290  1.00  0.00     0.049 A 
ATOM     51  H   UNL     1      -1.367   9.975  -0.370  1.00  0.00     0.167 HD
ATOM     52  C   UNL     1       0.977  11.300   0.498  1.00  0.00     0.074 A 
ATOM     53  C   UNL     1       2.356  11.735   0.569  1.00  0.00     0.031 C 
ATOM     54  C   UNL     1       0.004  11.702   1.351  1.00  0.00     0.037 A 
BRANCH  41  55
ATOM     55  C   UNL     1      -5.540   9.264   0.146  1.00  0.00     0.064 A 
ATOM     56  C   UNL     1      -6.079   8.118   0.749  1.00  0.00     0.173 A 
ATOM     57  C   UNL     1      -6.397  10.351  -0.084  1.00  0.00     0.173 A 
ATOM     58  F   UNL     1      -5.303   7.048   0.979  1.00  0.00    -0.203 F 
ATOM     59  C   UNL     1      -7.428   8.055   1.088  1.00  0.00     0.198 A 
ATOM     60  C   UNL     1      -7.740  10.293   0.278  1.00  0.00     0.198 A 
ATOM     61  F   UNL     1      -5.929  11.472  -0.654  1.00  0.00    -0.203 F 
ATOM     62  F   UNL     1      -7.931   6.936   1.626  1.00  0.00    -0.200 F 
ATOM     63  C   UNL     1      -8.256   9.144   0.857  1.00  0.00     0.200 A 
ATOM     64  F   UNL     1      -8.537  11.350   0.063  1.00  0.00    -0.200 F 
ATOM     65  F   UNL     1      -9.553   9.083   1.187  1.00  0.00    -0.200 F 
ENDBRANCH  41  55
BRANCH  42  66
ATOM     66  C   UNL     1       4.010   9.630  -2.683  1.00  0.00     0.064 A 
ATOM     67  C   UNL     1       5.019   9.083  -1.880  1.00  0.00     0.173 A 
ATOM     68  C   UNL     1       4.391  10.253  -3.880  1.00  0.00     0.173 A 
ATOM     69  F   UNL     1       4.705   8.501  -0.713  1.00  0.00    -0.203 F 
ATOM     70  C   UNL     1       6.359   9.172  -2.250  1.00  0.00     0.198 A 
ATOM     71  C   UNL     1       5.728  10.319  -4.262  1.00  0.00     0.198 A 
ATOM     72  F   UNL     1       3.461  10.795  -4.681  1.00  0.00    -0.203 F 
ATOM     73  F   UNL     1       7.309   8.680  -1.443  1.00  0.00    -0.200 F 
ATOM     74  C   UNL     1       6.712   9.785  -3.443  1.00  0.00     0.200 A 
ATOM     75  F   UNL     1       6.065  10.906  -5.418  1.00  0.00    -0.200 F 
ATOM     76  F   UNL     1       8.001   9.870  -3.799  1.00  0.00    -0.200 F 
ENDBRANCH  42  66
BRANCH  54  77
ATOM     77  C   UNL     1       0.405  12.642   2.451  1.00  0.00     0.064 A 
ATOM     78  C   UNL     1       0.713  13.986   2.193  1.00  0.00     0.173 A 
ATOM     79  C   UNL     1       0.467  12.197   3.780  1.00  0.00     0.173 A 
ATOM     80  F   UNL     1       0.683  14.456   0.937  1.00  0.00    -0.203 F 
ATOM     81  C   UNL     1       1.098  14.842   3.222  1.00  0.00     0.198 A 
ATOM     82  C   UNL     1       0.827  13.062   4.809  1.00  0.00     0.198 A 
ATOM     83  F   UNL     1       0.176  10.922   4.080  1.00  0.00    -0.203 F 
ATOM     84  F   UNL     1       1.438  16.108   2.945  1.00  0.00    -0.200 F 
ATOM     85  C   UNL     1       1.151  14.381   4.529  1.00  0.00     0.200 A 
ATOM     86  F   UNL     1       0.868  12.617   6.073  1.00  0.00    -0.200 F 
ATOM     87  F   UNL     1       1.524  15.205   5.517  1.00  0.00    -0.200 F 
ENDBRANCH  54  77
ENDBRANCH  28  29
ENDBRANCH  21  23
ENDBRANCH  20  21
ENDBRANCH  19  20
ENDBRANCH   1  19
TORSDOF 15
