REMARK SMILES O=C(OCCOC(=O)c1ccc(-c2c3nc(c(-c4c(F)c(F)c(F)c(F)c4F)c4ccc([nH]4)c(-c4c(F)c(F)c(F)c(F)c4F)c4nc(c(-c5c(F)c(F)c(F)c(F)c5F)c5ccc2[nH]5)C=C4)C=C3)cc1)c1ccc(/[NH+]=C2/N=C[NH+]=C3N=NC=C32)cc1
REMARK SMILES IDX 5 1 4 2 3 3 2 4 1 5 72 6 73 7 87 8 74 9 86 10 75 11 76 12
REMARK SMILES IDX 77 13 78 15 85 16 79 17 81 18 84 19 80 20 82 21 83 22 6 24
REMARK SMILES IDX 7 25 8 26 9 27 10 28 71 29 11 30 70 31 12 32 13 33 14 34
REMARK SMILES IDX 64 35 15 36 69 37 63 38 65 39 16 40 68 41 62 42 61 43 17 45
REMARK SMILES IDX 49 46 29 47 48 48 30 49 33 50 47 51 66 52 31 53 32 54 46 56
REMARK SMILES IDX 67 57 34 58 18 59 19 60 27 61 20 62 21 63 25 64 28 65 22 66
REMARK SMILES IDX 23 67 26 68 24 69 50 70 51 71 59 72 52 73 53 74 57 75 60 76
REMARK SMILES IDX 54 77 55 78 58 79 56 80 35 81 36 82 44 83 37 84 38 85 42 86
REMARK SMILES IDX 45 87 39 88 40 89 43 90 41 91
REMARK H PARENT 76 14 80 23 65 44 33 55
REMARK Flexibility Score: inf
ROOT
ATOM      1  C   UNL     1       4.125   2.007   1.115  1.00  0.00     0.275 C 
ENDROOT
BRANCH   1   2
ATOM      2  C   UNL     1       4.320   1.615  -0.349  1.00  0.00     0.275 C 
BRANCH   2   3
ATOM      3  O   UNL     1       3.220   0.893  -0.931  1.00  0.00    -0.458 OA
BRANCH   3   4
ATOM      4  C   UNL     1       2.929  -0.426  -0.907  1.00  0.00     0.338 C 
ATOM      5  O   UNL     1       1.958  -0.836  -1.543  1.00  0.00    -0.246 OA
BRANCH   4   6
ATOM      6  C   UNL     1       3.650  -1.425  -0.064  1.00  0.00     0.060 A 
ATOM      7  C   UNL     1       5.018  -1.456   0.207  1.00  0.00     0.020 A 
ATOM      8  C   UNL     1       2.854  -2.447   0.474  1.00  0.00     0.020 A 
ATOM      9  C   UNL     1       5.566  -2.471   1.011  1.00  0.00     0.052 A 
ATOM     10  C   UNL     1       3.405  -3.431   1.299  1.00  0.00     0.052 A 
ATOM     11  C   UNL     1       4.774  -3.493   1.533  1.00  0.00     0.124 A 
BRANCH  11  12
ATOM     12  N   UNL     1       5.378  -4.471   2.329  1.00  0.00    -0.244 N 
ATOM     13  C   UNL     1       5.117  -5.732   2.255  1.00  0.00     0.305 C 
ATOM     14  H   UNL     1       6.046  -4.177   2.990  1.00  0.00     0.311 HD
ATOM     15  N   UNL     1       5.775  -6.521   3.166  1.00  0.00    -0.069 NA
ATOM     16  C   UNL     1       4.213  -6.485   1.397  1.00  0.00     0.159 C 
ATOM     17  C   UNL     1       5.453  -7.758   3.380  1.00  0.00     0.372 C 
ATOM     18  C   UNL     1       3.904  -7.838   1.782  1.00  0.00     0.302 C 
ATOM     19  C   UNL     1       3.499  -6.403   0.283  1.00  0.00     0.177 C 
ATOM     20  N   UNL     1       4.469  -8.468   2.744  1.00  0.00    -0.245 N 
ATOM     21  N   UNL     1       2.942  -8.358   0.949  1.00  0.00     0.010 NA
ATOM     22  N   UNL     1       2.732  -7.509   0.040  1.00  0.00    -0.081 NA
ATOM     23  H   UNL     1       4.217  -9.383   3.005  1.00  0.00     0.266 HD
ENDBRANCH  11  12
ENDBRANCH   4   6
ENDBRANCH   3   4
ENDBRANCH   2   3
ENDBRANCH   1   2
BRANCH   1  24
ATOM     24  O   UNL     1       3.724   0.902   1.940  1.00  0.00    -0.458 OA
BRANCH  24  25
ATOM     25  C   UNL     1       2.392   0.856   2.217  1.00  0.00     0.338 C 
ATOM     26  O   UNL     1       1.558   1.666   1.870  1.00  0.00    -0.246 OA
BRANCH  25  27
ATOM     27  C   UNL     1       2.040  -0.397   2.936  1.00  0.00     0.060 A 
ATOM     28  C   UNL     1       0.758  -0.922   2.725  1.00  0.00     0.016 A 
ATOM     29  C   UNL     1       2.925  -1.059   3.793  1.00  0.00     0.016 A 
ATOM     30  C   UNL     1       0.343  -2.077   3.397  1.00  0.00     0.010 A 
ATOM     31  C   UNL     1       2.512  -2.226   4.457  1.00  0.00     0.010 A 
ATOM     32  C   UNL     1       1.203  -2.722   4.296  1.00  0.00    -0.014 A 
BRANCH  32  33
ATOM     33  C   UNL     1       0.663  -3.784   5.191  1.00  0.00     0.031 A 
ATOM     34  C   UNL     1       0.334  -3.425   6.617  1.00  0.00     0.074 A 
ATOM     35  C   UNL     1       0.399  -5.033   4.759  1.00  0.00     0.049 A 
ATOM     36  N   UNL     1      -0.269  -4.137   7.537  1.00  0.00    -0.248 NA
ATOM     37  C   UNL     1       0.724  -2.078   7.062  1.00  0.00     0.031 C 
ATOM     38  C   UNL     1       0.619  -5.533   3.406  1.00  0.00     0.029 A 
ATOM     39  N   UNL     1      -0.125  -6.115   5.428  1.00  0.00    -0.354 N 
ATOM     40  C   UNL     1      -0.353  -3.317   8.653  1.00  0.00     0.074 A 
ATOM     41  C   UNL     1       0.324  -2.082   8.323  1.00  0.00     0.031 C 
ATOM     42  C   UNL     1       0.267  -6.829   3.349  1.00  0.00     0.029 A 
ATOM     43  C   UNL     1      -0.235  -7.247   4.657  1.00  0.00     0.049 A 
ATOM     44  H   UNL     1      -0.397  -6.082   6.374  1.00  0.00     0.167 HD
ATOM     45  C   UNL     1      -0.970  -3.547   9.837  1.00  0.00     0.037 A 
ATOM     46  C   UNL     1      -0.710  -8.472   4.957  1.00  0.00     0.037 A 
ATOM     47  C   UNL     1      -1.640  -4.771  10.189  1.00  0.00     0.049 A 
ATOM     48  C   UNL     1      -1.319  -8.735   6.312  1.00  0.00     0.074 A 
ATOM     49  C   UNL     1      -2.323  -5.074  11.354  1.00  0.00     0.029 A 
ATOM     50  N   UNL     1      -1.694  -5.901   9.389  1.00  0.00    -0.354 N 
ATOM     51  N   UNL     1      -1.487  -7.916   7.320  1.00  0.00    -0.248 NA
ATOM     52  C   UNL     1      -1.840 -10.090   6.551  1.00  0.00     0.031 C 
ATOM     53  C   UNL     1      -2.738  -6.408  11.285  1.00  0.00     0.029 A 
ATOM     54  C   UNL     1      -2.371  -6.915  10.049  1.00  0.00     0.049 A 
ATOM     55  H   UNL     1      -1.308  -5.973   8.486  1.00  0.00     0.167 HD
ATOM     56  C   UNL     1      -2.186  -8.635   8.285  1.00  0.00     0.074 A 
ATOM     57  C   UNL     1      -2.407  -9.958   7.742  1.00  0.00     0.031 C 
ATOM     58  C   UNL     1      -2.616  -8.225   9.504  1.00  0.00     0.037 A 
BRANCH  45  59
ATOM     59  C   UNL     1      -0.942  -2.440  10.848  1.00  0.00     0.064 A 
ATOM     60  C   UNL     1      -1.675  -1.257  10.662  1.00  0.00     0.173 A 
ATOM     61  C   UNL     1      -0.190  -2.570  12.024  1.00  0.00     0.173 A 
ATOM     62  F   UNL     1      -2.398  -1.079   9.546  1.00  0.00    -0.203 F 
ATOM     63  C   UNL     1      -1.629  -0.232  11.601  1.00  0.00     0.198 A 
ATOM     64  C   UNL     1      -0.172  -1.555  12.977  1.00  0.00     0.198 A 
ATOM     65  F   UNL     1       0.525  -3.682  12.251  1.00  0.00    -0.203 F 
ATOM     66  F   UNL     1      -2.291   0.911  11.376  1.00  0.00    -0.200 F 
ATOM     67  C   UNL     1      -0.883  -0.384  12.761  1.00  0.00     0.200 A 
ATOM     68  F   UNL     1       0.538  -1.708  14.102  1.00  0.00    -0.200 F 
ATOM     69  F   UNL     1      -0.842   0.603  13.666  1.00  0.00    -0.200 F 
ENDBRANCH  45  59
BRANCH  46  70
ATOM     70  C   UNL     1      -0.683  -9.553   3.935  1.00  0.00     0.064 A 
ATOM     71  C   UNL     1      -1.867 -10.040   3.363  1.00  0.00     0.173 A 
ATOM     72  C   UNL     1       0.523 -10.161   3.558  1.00  0.00     0.173 A 
ATOM     73  F   UNL     1      -3.048  -9.511   3.716  1.00  0.00    -0.203 F 
ATOM     74  C   UNL     1      -1.849 -11.116   2.478  1.00  0.00     0.198 A 
ATOM     75  C   UNL     1       0.542 -11.219   2.651  1.00  0.00     0.198 A 
ATOM     76  F   UNL     1       1.680  -9.736   4.085  1.00  0.00    -0.203 F 
ATOM     77  F   UNL     1      -3.001 -11.604   1.997  1.00  0.00    -0.200 F 
ATOM     78  C   UNL     1      -0.645 -11.703   2.121  1.00  0.00     0.200 A 
ATOM     79  F   UNL     1       1.707 -11.787   2.310  1.00  0.00    -0.200 F 
ATOM     80  F   UNL     1      -0.630 -12.748   1.282  1.00  0.00    -0.200 F 
ENDBRANCH  46  70
BRANCH  58  81
ATOM     81  C   UNL     1      -3.438  -9.187  10.318  1.00  0.00     0.064 A 
ATOM     82  C   UNL     1      -2.890 -10.350  10.880  1.00  0.00     0.173 A 
ATOM     83  C   UNL     1      -4.794  -8.918  10.569  1.00  0.00     0.173 A 
ATOM     84  F   UNL     1      -1.603 -10.662  10.666  1.00  0.00    -0.203 F 
ATOM     85  C   UNL     1      -3.676 -11.225  11.629  1.00  0.00     0.198 A 
ATOM     86  C   UNL     1      -5.567  -9.776  11.347  1.00  0.00     0.198 A 
ATOM     87  F   UNL     1      -5.370  -7.816  10.066  1.00  0.00    -0.203 F 
ATOM     88  F   UNL     1      -3.144 -12.358  12.105  1.00  0.00    -0.200 F 
ATOM     89  C   UNL     1      -5.011 -10.934  11.867  1.00  0.00     0.200 A 
ATOM     90  F   UNL     1      -6.852  -9.482  11.591  1.00  0.00    -0.200 F 
ATOM     91  F   UNL     1      -5.763 -11.773  12.592  1.00  0.00    -0.200 F 
ENDBRANCH  58  81
ENDBRANCH  32  33
ENDBRANCH  25  27
ENDBRANCH  24  25
ENDBRANCH   1  24
TORSDOF 12
