REMARK SMILES O=C(OCCOC(=O)[C@H](c1c[nH]c2cc(F)ccc12)[NH+]1CC[NH+](CC(=O)N2CCOCC2)CC1)c1ccc(-c2c3nc(c(-c4c(F)c(F)c(F)c(F)c4F)c4ccc([nH]4)c(-c4c(F)c(F)c(F)c(F)c4F)c4nc(c(-c5c(F)c(F)c(F)c(F)c5F)c5ccc2[nH]5)C=C4)C=C3)cc1
REMARK SMILES IDX 5 1 4 2 3 3 2 4 1 5 35 6 36 7 97 8 37 9 96 10 38 11 39 12
REMARK SMILES IDX 40 13 90 14 41 15 95 16 89 17 91 18 42 19 94 20 88 21 87 22
REMARK SMILES IDX 43 24 75 25 55 26 74 27 56 28 59 29 73 30 92 31 57 32 58 33
REMARK SMILES IDX 72 35 93 36 60 37 44 38 45 39 53 40 46 41 47 42 51 43 54 44
REMARK SMILES IDX 48 45 49 46 52 47 50 48 76 49 77 50 85 51 78 52 79 53 83 54
REMARK SMILES IDX 86 55 80 56 81 57 84 58 82 59 61 60 62 61 70 62 63 63 64 64
REMARK SMILES IDX 68 65 71 66 65 67 66 68 69 69 67 70 6 71 7 72 8 73 9 74
REMARK SMILES IDX 20 75 21 76 34 77 22 79 33 80 23 81 24 83 25 84 26 85 27 86
REMARK SMILES IDX 28 87 32 88 29 89 31 90 30 91 10 92 11 93 19 94 12 95 13 96
REMARK SMILES IDX 18 97 14 99 17 100 15 101 16 102
REMARK H PARENT 91 23 59 34 20 78 23 82 12 98
REMARK Flexibility Score: inf
ROOT
ATOM      1  C   UNL     1       5.108   4.288  -2.151  1.00  0.00     0.274 C 
ENDROOT
BRANCH   1   2
ATOM      2  C   UNL     1       5.437   4.962  -0.816  1.00  0.00     0.275 C 
BRANCH   2   3
ATOM      3  O   UNL     1       4.255   4.955  -0.005  1.00  0.00    -0.458 OA
BRANCH   3   4
ATOM      4  C   UNL     1       4.051   3.775   0.628  1.00  0.00     0.338 C 
ATOM      5  O   UNL     1       4.893   3.126   1.224  1.00  0.00    -0.246 OA
BRANCH   4   6
ATOM      6  C   UNL     1       2.677   3.302   0.321  1.00  0.00     0.060 A 
ATOM      7  C   UNL     1       1.795   4.025  -0.498  1.00  0.00     0.016 A 
ATOM      8  C   UNL     1       2.302   2.048   0.794  1.00  0.00     0.016 A 
ATOM      9  C   UNL     1       0.524   3.528  -0.787  1.00  0.00     0.010 A 
ATOM     10  C   UNL     1       1.049   1.534   0.471  1.00  0.00     0.010 A 
ATOM     11  C   UNL     1       0.129   2.292  -0.271  1.00  0.00    -0.014 A 
BRANCH  11  12
ATOM     12  C   UNL     1      -1.310   1.934  -0.227  1.00  0.00     0.031 A 
ATOM     13  C   UNL     1      -1.961   1.899   1.132  1.00  0.00     0.074 A 
ATOM     14  C   UNL     1      -2.030   1.685  -1.335  1.00  0.00     0.049 A 
ATOM     15  N   UNL     1      -3.165   1.528   1.478  1.00  0.00    -0.248 NA
ATOM     16  C   UNL     1      -1.106   2.274   2.272  1.00  0.00     0.031 C 
ATOM     17  C   UNL     1      -1.518   1.666  -2.704  1.00  0.00     0.029 A 
ATOM     18  N   UNL     1      -3.369   1.418  -1.476  1.00  0.00    -0.354 N 
ATOM     19  C   UNL     1      -3.167   1.549   2.867  1.00  0.00     0.074 A 
ATOM     20  C   UNL     1      -1.829   1.869   3.298  1.00  0.00     0.031 C 
ATOM     21  C   UNL     1      -2.540   1.443  -3.551  1.00  0.00     0.029 A 
ATOM     22  C   UNL     1      -3.774   1.288  -2.782  1.00  0.00     0.049 A 
ATOM     23  H   UNL     1      -3.983   1.327  -0.712  1.00  0.00     0.167 HD
ATOM     24  C   UNL     1      -4.205   1.386   3.718  1.00  0.00     0.037 A 
ATOM     25  C   UNL     1      -5.010   1.090  -3.285  1.00  0.00     0.037 A 
ATOM     26  C   UNL     1      -5.556   1.212   3.278  1.00  0.00     0.049 A 
ATOM     27  C   UNL     1      -6.178   1.008  -2.331  1.00  0.00     0.074 A 
ATOM     28  C   UNL     1      -6.707   1.110   4.032  1.00  0.00     0.029 A 
ATOM     29  N   UNL     1      -5.932   1.159   1.944  1.00  0.00    -0.354 N 
ATOM     30  N   UNL     1      -6.181   1.063  -1.019  1.00  0.00    -0.248 NA
ATOM     31  C   UNL     1      -7.515   0.853  -2.923  1.00  0.00     0.031 C 
ATOM     32  C   UNL     1      -7.785   0.983   3.150  1.00  0.00     0.029 A 
ATOM     33  C   UNL     1      -7.304   1.035   1.849  1.00  0.00     0.049 A 
ATOM     34  H   UNL     1      -5.314   1.202   1.179  1.00  0.00     0.167 HD
ATOM     35  C   UNL     1      -7.513   0.978  -0.632  1.00  0.00     0.074 A 
ATOM     36  C   UNL     1      -8.293   0.875  -1.848  1.00  0.00     0.031 C 
ATOM     37  C   UNL     1      -8.045   0.979   0.615  1.00  0.00     0.037 A 
BRANCH  24  38
ATOM     38  C   UNL     1      -3.884   1.409   5.184  1.00  0.00     0.064 A 
ATOM     39  C   UNL     1      -3.427   2.573   5.824  1.00  0.00     0.173 A 
ATOM     40  C   UNL     1      -3.930   0.224   5.931  1.00  0.00     0.173 A 
ATOM     41  F   UNL     1      -3.340   3.727   5.145  1.00  0.00    -0.203 F 
ATOM     42  C   UNL     1      -2.950   2.530   7.131  1.00  0.00     0.198 A 
ATOM     43  C   UNL     1      -3.492   0.195   7.253  1.00  0.00     0.198 A 
ATOM     44  F   UNL     1      -4.365  -0.914   5.371  1.00  0.00    -0.203 F 
ATOM     45  F   UNL     1      -2.410   3.627   7.680  1.00  0.00    -0.200 F 
ATOM     46  C   UNL     1      -2.981   1.342   7.843  1.00  0.00     0.200 A 
ATOM     47  F   UNL     1      -3.531  -0.952   7.945  1.00  0.00    -0.200 F 
ATOM     48  F   UNL     1      -2.495   1.296   9.091  1.00  0.00    -0.200 F 
ENDBRANCH  24  38
BRANCH  25  49
ATOM     49  C   UNL     1      -5.214   1.010  -4.756  1.00  0.00     0.064 A 
ATOM     50  C   UNL     1      -5.851   2.045  -5.456  1.00  0.00     0.173 A 
ATOM     51  C   UNL     1      -4.780  -0.101  -5.494  1.00  0.00     0.173 A 
ATOM     52  F   UNL     1      -6.303   3.120  -4.793  1.00  0.00    -0.203 F 
ATOM     53  C   UNL     1      -6.063   1.965  -6.832  1.00  0.00     0.198 A 
ATOM     54  C   UNL     1      -4.972  -0.171  -6.874  1.00  0.00     0.198 A 
ATOM     55  F   UNL     1      -4.162  -1.117  -4.875  1.00  0.00    -0.203 F 
ATOM     56  F   UNL     1      -6.711   2.951  -7.467  1.00  0.00    -0.200 F 
ATOM     57  C   UNL     1      -5.619   0.859  -7.540  1.00  0.00     0.200 A 
ATOM     58  F   UNL     1      -4.535  -1.238  -7.556  1.00  0.00    -0.200 F 
ATOM     59  F   UNL     1      -5.822   0.782  -8.863  1.00  0.00    -0.200 F 
ENDBRANCH  25  49
BRANCH  37  60
ATOM     60  C   UNL     1      -9.535   0.913   0.742  1.00  0.00     0.064 A 
ATOM     61  C   UNL     1     -10.225  -0.297   0.591  1.00  0.00     0.173 A 
ATOM     62  C   UNL     1     -10.256   2.041   1.161  1.00  0.00     0.173 A 
ATOM     63  F   UNL     1      -9.574  -1.399   0.186  1.00  0.00    -0.203 F 
ATOM     64  C   UNL     1     -11.587  -0.377   0.862  1.00  0.00     0.198 A 
ATOM     65  C   UNL     1     -11.613   1.952   1.451  1.00  0.00     0.198 A 
ATOM     66  F   UNL     1      -9.632   3.217   1.329  1.00  0.00    -0.203 F 
ATOM     67  F   UNL     1     -12.231  -1.542   0.708  1.00  0.00    -0.200 F 
ATOM     68  C   UNL     1     -12.276   0.743   1.304  1.00  0.00     0.200 A 
ATOM     69  F   UNL     1     -12.274   3.030   1.895  1.00  0.00    -0.200 F 
ATOM     70  F   UNL     1     -13.581   0.655   1.596  1.00  0.00    -0.200 F 
ENDBRANCH  37  60
ENDBRANCH  11  12
ENDBRANCH   4   6
ENDBRANCH   3   4
ENDBRANCH   2   3
ENDBRANCH   1   2
BRANCH   1  71
ATOM     71  O   UNL     1       4.812   2.886  -1.952  1.00  0.00    -0.457 OA
BRANCH  71  72
ATOM     72  C   UNL     1       4.095   2.321  -2.961  1.00  0.00     0.370 C 
ATOM     73  O   UNL     1       3.805   2.943  -3.984  1.00  0.00    -0.245 OA
BRANCH  72  74
ATOM     74  C   UNL     1       3.632   0.866  -2.720  1.00  0.00     0.328 C 
BRANCH  74  75
ATOM     75  N   UNL     1       3.921   0.038  -3.909  1.00  0.00    -0.310 N 
ATOM     76  C   UNL     1       5.281  -0.017  -4.455  1.00  0.00     0.325 C 
ATOM     77  C   UNL     1       3.275  -1.261  -3.946  1.00  0.00     0.325 C 
ATOM     78  H   UNL     1       3.450   0.648  -4.577  1.00  0.00     0.349 HD
ATOM     79  C   UNL     1       6.104  -1.325  -4.239  1.00  0.00     0.325 C 
ATOM     80  C   UNL     1       4.137  -2.409  -3.382  1.00  0.00     0.325 C 
ATOM     81  N   UNL     1       5.376  -2.598  -4.117  1.00  0.00    -0.318 N 
ATOM     82  H   UNL     1       5.993  -3.192  -3.563  1.00  0.00     0.348 HD
BRANCH  81  83
ATOM     83  C   UNL     1       5.267  -3.446  -5.311  1.00  0.00     0.364 C 
BRANCH  83  84
ATOM     84  C   UNL     1       4.428  -2.923  -6.483  1.00  0.00     0.277 C 
ATOM     85  O   UNL     1       4.922  -2.112  -7.273  1.00  0.00    -0.268 OA
ATOM     86  N   UNL     1       3.146  -3.450  -6.689  1.00  0.00    -0.333 N 
ATOM     87  C   UNL     1       2.237  -3.911  -5.629  1.00  0.00     0.148 C 
ATOM     88  C   UNL     1       2.477  -3.124  -7.949  1.00  0.00     0.148 C 
ATOM     89  C   UNL     1       1.126  -4.851  -6.099  1.00  0.00     0.181 C 
ATOM     90  C   UNL     1       1.461  -4.204  -8.329  1.00  0.00     0.181 C 
ATOM     91  O   UNL     1       0.490  -4.371  -7.287  1.00  0.00    -0.378 OA
ENDBRANCH  83  84
ENDBRANCH  81  83
ENDBRANCH  74  75
BRANCH  74  92
ATOM     92  C   UNL     1       3.960   0.144  -1.427  1.00  0.00     0.046 A 
ATOM     93  C   UNL     1       5.148   0.111  -0.721  1.00  0.00     0.094 A 
ATOM     94  C   UNL     1       3.066  -0.778  -0.736  1.00  0.00     0.009 A 
ATOM     95  N   UNL     1       5.024  -0.776   0.320  1.00  0.00    -0.361 N 
ATOM     96  C   UNL     1       3.779  -1.360   0.314  1.00  0.00     0.049 A 
ATOM     97  C   UNL     1       1.730  -1.215  -0.947  1.00  0.00     0.014 A 
ATOM     98  H   UNL     1       5.730  -0.968   0.979  1.00  0.00     0.166 HD
ATOM     99  C   UNL     1       3.237  -2.360   1.136  1.00  0.00     0.065 A 
ATOM    100  C   UNL     1       1.174  -2.212  -0.138  1.00  0.00     0.040 A 
ATOM    101  C   UNL     1       1.929  -2.772   0.879  1.00  0.00     0.125 A 
ATOM    102  F   UNL     1       1.386  -3.733   1.638  1.00  0.00    -0.207 F 
ENDBRANCH  74  92
ENDBRANCH  72  74
ENDBRANCH  71  72
ENDBRANCH   1  71
TORSDOF 15
