REMARK SMILES CN1N[C@H](C(=O)N[C@@H](CC2=c3ccccc3=NC2)C(=O)OCCOC(=O)c2ccc(-c3c4nc(c(-c5c(F)c(F)c(F)c(F)c5F)c5ccc([nH]5)c(-c5c(F)c(F)c(F)c(F)c5F)c5nc(c(-c6c(F)c(F)c(F)c(F)c6F)c6ccc3[nH]6)C=C5)C=C4)cc2)c2ccccc2C1=O
REMARK SMILES IDX 22 1 21 2 19 3 20 4 8 5 7 6 5 7 6 8 4 10 1 11 2 12 3 13
REMARK SMILES IDX 96 14 95 16 97 17 90 18 94 19 91 20 93 21 92 22 9 23 10 24
REMARK SMILES IDX 11 25 18 26 12 27 16 28 17 29 13 30 15 31 14 32 23 33 24 34
REMARK SMILES IDX 25 35 26 36 27 37 28 38 89 39 29 40 88 41 30 42 31 43 32 44
REMARK SMILES IDX 82 45 33 46 87 47 81 48 83 49 34 50 86 51 80 52 79 53 35 55
REMARK SMILES IDX 67 56 47 57 66 58 48 59 51 60 65 61 84 62 49 63 50 64 64 66
REMARK SMILES IDX 85 67 52 68 36 69 37 70 45 71 38 72 39 73 43 74 46 75 40 76
REMARK SMILES IDX 41 77 44 78 42 79 68 80 69 81 77 82 70 83 71 84 75 85 78 86
REMARK SMILES IDX 72 87 73 88 76 89 74 90 53 91 54 92 62 93 55 94 56 95 60 96
REMARK SMILES IDX 63 97 57 98 58 99 61 100 59 101
REMARK H PARENT 7 9 3 15 83 54 51 65
REMARK Flexibility Score: inf
ROOT
ATOM      1  C   UNL     1      -2.000   2.106  -8.365  1.00  0.00     0.274 C 
ENDROOT
BRANCH   1   2
ATOM      2  O   UNL     1      -1.840   2.476  -6.980  1.00  0.00    -0.461 OA
BRANCH   2   3
ATOM      3  C   UNL     1      -2.003   1.459  -6.093  1.00  0.00     0.329 C 
ATOM      4  O   UNL     1      -2.212   0.292  -6.413  1.00  0.00    -0.250 OA
BRANCH   3   5
ATOM      5  C   UNL     1      -1.968   1.902  -4.623  1.00  0.00     0.196 C 
BRANCH   5   6
ATOM      6  N   UNL     1      -1.566   3.288  -4.343  1.00  0.00    -0.341 N 
ATOM      7  C   UNL     1      -0.910   3.853  -3.290  1.00  0.00     0.244 C 
ATOM      8  O   UNL     1      -1.035   5.074  -3.140  1.00  0.00    -0.273 OA
ATOM      9  H   UNL     1      -1.819   3.928  -5.047  1.00  0.00     0.164 HD
BRANCH   7  10
ATOM     10  C   UNL     1       0.082   3.066  -2.407  1.00  0.00     0.195 C 
ATOM     11  C   UNL     1      -0.060   0.398   0.112  1.00  0.00     0.169 C 
ATOM     12  N   UNL     1       0.338   1.042  -1.127  1.00  0.00    -0.276 N 
ATOM     13  N   UNL     1      -0.589   1.906  -1.783  1.00  0.00    -0.215 NA
ATOM     14  C   UNL     1       1.504   0.625  -1.776  1.00  0.00     0.268 C 
ATOM     15  H   UNL     1      -1.264   2.245  -1.097  1.00  0.00     0.149 HD
ATOM     16  C   UNL     1       1.999   1.504  -2.867  1.00  0.00     0.046 A 
ATOM     17  O   UNL     1       2.136  -0.379  -1.460  1.00  0.00    -0.268 OA
ATOM     18  C   UNL     1       1.328   2.691  -3.176  1.00  0.00    -0.007 A 
ATOM     19  C   UNL     1       3.186   1.172  -3.529  1.00  0.00     0.014 A 
ATOM     20  C   UNL     1       1.891   3.554  -4.133  1.00  0.00     0.007 A 
ATOM     21  C   UNL     1       3.704   2.013  -4.513  1.00  0.00     0.001 A 
ATOM     22  C   UNL     1       3.061   3.208  -4.808  1.00  0.00     0.000 A 
ENDBRANCH   7  10
ENDBRANCH   5   6
BRANCH   5  23
ATOM     23  C   UNL     1      -3.364   1.544  -4.024  1.00  0.00     0.070 C 
BRANCH  23  24
ATOM     24  C   UNL     1      -4.420   2.614  -3.898  1.00  0.00    -0.037 C 
ATOM     25  C   UNL     1      -4.581   3.793  -4.501  1.00  0.00     0.001 A 
ATOM     26  C   UNL     1      -5.397   2.518  -2.756  1.00  0.00     0.174 C 
ATOM     27  C   UNL     1      -4.109   4.454  -5.676  1.00  0.00     0.010 A 
ATOM     28  C   UNL     1      -5.164   4.569  -3.384  1.00  0.00     0.065 A 
ATOM     29  N   UNL     1      -5.689   3.917  -2.392  1.00  0.00    -0.280 NA
ATOM     30  C   UNL     1      -4.011   5.793  -5.679  1.00  0.00     0.001 A 
ATOM     31  C   UNL     1      -4.934   6.031  -3.420  1.00  0.00     0.028 A 
ATOM     32  C   UNL     1      -4.334   6.568  -4.496  1.00  0.00     0.002 A 
ENDBRANCH  23  24
ENDBRANCH   5  23
ENDBRANCH   3   5
ENDBRANCH   2   3
ENDBRANCH   1   2
BRANCH   1  33
ATOM     33  C   UNL     1      -0.666   1.836  -9.062  1.00  0.00     0.275 C 
BRANCH  33  34
ATOM     34  O   UNL     1       0.025   0.706  -8.495  1.00  0.00    -0.458 OA
BRANCH  34  35
ATOM     35  C   UNL     1       0.928   1.025  -7.549  1.00  0.00     0.338 C 
ATOM     36  O   UNL     1       1.204   2.162  -7.155  1.00  0.00    -0.246 OA
BRANCH  35  37
ATOM     37  C   UNL     1       1.533  -0.171  -6.958  1.00  0.00     0.060 A 
ATOM     38  C   UNL     1       2.666  -0.749  -7.534  1.00  0.00     0.016 A 
ATOM     39  C   UNL     1       1.090  -0.590  -5.704  1.00  0.00     0.016 A 
ATOM     40  C   UNL     1       3.375  -1.731  -6.828  1.00  0.00     0.010 A 
ATOM     41  C   UNL     1       1.824  -1.532  -4.986  1.00  0.00     0.010 A 
ATOM     42  C   UNL     1       2.986  -2.102  -5.527  1.00  0.00    -0.014 A 
BRANCH  42  43
ATOM     43  C   UNL     1       3.828  -2.998  -4.684  1.00  0.00     0.031 A 
ATOM     44  C   UNL     1       3.295  -4.307  -4.170  1.00  0.00     0.074 A 
ATOM     45  C   UNL     1       5.041  -2.582  -4.265  1.00  0.00     0.049 A 
ATOM     46  N   UNL     1       3.914  -5.232  -3.478  1.00  0.00    -0.248 NA
ATOM     47  C   UNL     1       1.885  -4.617  -4.453  1.00  0.00     0.031 C 
ATOM     48  C   UNL     1       5.651  -1.291  -4.581  1.00  0.00     0.029 A 
ATOM     49  N   UNL     1       5.963  -3.184  -3.442  1.00  0.00    -0.354 N 
ATOM     50  C   UNL     1       2.984  -6.241  -3.278  1.00  0.00     0.074 A 
ATOM     51  C   UNL     1       1.728  -5.771  -3.821  1.00  0.00     0.031 C 
ATOM     52  C   UNL     1       6.812  -1.172  -3.919  1.00  0.00     0.029 A 
ATOM     53  C   UNL     1       7.058  -2.401  -3.172  1.00  0.00     0.049 A 
ATOM     54  H   UNL     1       5.848  -4.092  -3.080  1.00  0.00     0.167 HD
ATOM     55  C   UNL     1       3.175  -7.476  -2.757  1.00  0.00     0.037 A 
ATOM     56  C   UNL     1       8.157  -2.651  -2.436  1.00  0.00     0.037 A 
ATOM     57  C   UNL     1       4.423  -7.947  -2.222  1.00  0.00     0.049 A 
ATOM     58  C   UNL     1       8.363  -4.023  -1.861  1.00  0.00     0.074 A 
ATOM     59  C   UNL     1       4.756  -9.217  -1.786  1.00  0.00     0.029 A 
ATOM     60  N   UNL     1       5.543  -7.151  -2.035  1.00  0.00    -0.354 N 
ATOM     61  N   UNL     1       7.552  -5.051  -1.874  1.00  0.00    -0.248 NA
ATOM     62  C   UNL     1       9.664  -4.292  -1.232  1.00  0.00     0.031 C 
ATOM     63  C   UNL     1       6.074  -9.185  -1.314  1.00  0.00     0.029 A 
ATOM     64  C   UNL     1       6.567  -7.901  -1.482  1.00  0.00     0.049 A 
ATOM     65  H   UNL     1       5.602  -6.195  -2.263  1.00  0.00     0.167 HD
ATOM     66  C   UNL     1       8.264  -6.104  -1.319  1.00  0.00     0.074 A 
ATOM     67  C   UNL     1       9.566  -5.586  -0.955  1.00  0.00     0.031 C 
ATOM     68  C   UNL     1       7.873  -7.390  -1.155  1.00  0.00     0.037 A 
BRANCH  55  69
ATOM     69  C   UNL     1       2.021  -8.430  -2.827  1.00  0.00     0.064 A 
ATOM     70  C   UNL     1       1.593  -8.941  -4.064  1.00  0.00     0.173 A 
ATOM     71  C   UNL     1       1.356  -8.863  -1.673  1.00  0.00     0.173 A 
ATOM     72  F   UNL     1       2.197  -8.556  -5.199  1.00  0.00    -0.203 F 
ATOM     73  C   UNL     1       0.518  -9.819  -4.146  1.00  0.00     0.198 A 
ATOM     74  C   UNL     1       0.296  -9.764  -1.756  1.00  0.00     0.198 A 
ATOM     75  F   UNL     1       1.733  -8.418  -0.465  1.00  0.00    -0.203 F 
ATOM     76  F   UNL     1       0.097 -10.251  -5.343  1.00  0.00    -0.200 F 
ATOM     77  C   UNL     1      -0.128 -10.233  -2.991  1.00  0.00     0.200 A 
ATOM     78  F   UNL     1      -0.321 -10.176  -0.640  1.00  0.00    -0.200 F 
ATOM     79  F   UNL     1      -1.164 -11.079  -3.071  1.00  0.00    -0.200 F 
ENDBRANCH  55  69
BRANCH  56  80
ATOM     80  C   UNL     1       9.212  -1.614  -2.325  1.00  0.00     0.064 A 
ATOM     81  C   UNL     1      10.350  -1.669  -3.140  1.00  0.00     0.173 A 
ATOM     82  C   UNL     1       9.093  -0.541  -1.432  1.00  0.00     0.173 A 
ATOM     83  F   UNL     1      10.508  -2.686  -4.000  1.00  0.00    -0.203 F 
ATOM     84  C   UNL     1      11.341  -0.694  -3.057  1.00  0.00     0.198 A 
ATOM     85  C   UNL     1      10.079   0.441  -1.359  1.00  0.00     0.198 A 
ATOM     86  F   UNL     1       8.018  -0.445  -0.637  1.00  0.00    -0.203 F 
ATOM     87  F   UNL     1      12.431  -0.782  -3.831  1.00  0.00    -0.200 F 
ATOM     88  C   UNL     1      11.203   0.362  -2.169  1.00  0.00     0.200 A 
ATOM     89  F   UNL     1       9.943   1.464  -0.504  1.00  0.00    -0.200 F 
ATOM     90  F   UNL     1      12.156   1.301  -2.091  1.00  0.00    -0.200 F 
ENDBRANCH  56  80
BRANCH  68  91
ATOM     91  C   UNL     1       8.878  -8.363  -0.620  1.00  0.00     0.064 A 
ATOM     92  C   UNL     1       9.213  -8.402   0.740  1.00  0.00     0.173 A 
ATOM     93  C   UNL     1       9.446  -9.325  -1.470  1.00  0.00     0.173 A 
ATOM     94  F   UNL     1       8.708  -7.492   1.586  1.00  0.00    -0.203 F 
ATOM     95  C   UNL     1      10.083  -9.372   1.231  1.00  0.00     0.198 A 
ATOM     96  C   UNL     1      10.298 -10.305  -0.972  1.00  0.00     0.198 A 
ATOM     97  F   UNL     1       9.153  -9.327  -2.779  1.00  0.00    -0.203 F 
ATOM     98  F   UNL     1      10.406  -9.382   2.532  1.00  0.00    -0.200 F 
ATOM     99  C   UNL     1      10.615 -10.328   0.378  1.00  0.00     0.200 A 
ATOM    100  F   UNL     1      10.803 -11.234  -1.795  1.00  0.00    -0.200 F 
ATOM    101  F   UNL     1      11.436 -11.273   0.858  1.00  0.00    -0.200 F 
ENDBRANCH  68  91
ENDBRANCH  42  43
ENDBRANCH  35  37
ENDBRANCH  34  35
ENDBRANCH  33  34
ENDBRANCH   1  33
TORSDOF 15
