REMARK SMILES COc1cccc(C(=O)NNC(=O)[C@H]2CC(C)=C(C)C[C@@H]2C(=O)OCCOC(=O)c2ccc(-c3c4nc(c(-c5c(F)c(F)c(F)c(F)c5F)c5ccc([nH]5)c(-c5c(F)c(F)c(F)c(F)c5F)c5nc(c(-c6c(F)c(F)c(F)c(F)c6F)c6ccc3[nH]6)C=C5)C=C4)cc2)c1
REMARK SMILES IDX 25 1 24 2 22 3 23 4 21 5 14 6 15 7 16 8 20 9 17 10 18 11
REMARK SMILES IDX 19 12 12 13 11 14 13 16 10 17 8 18 9 19 7 21 3 22 4 23 93 24
REMARK SMILES IDX 5 25 6 26 2 27 1 28 26 29 27 30 28 31 29 32 30 33 31 34
REMARK SMILES IDX 92 35 32 36 91 37 33 38 34 39 35 40 85 41 36 42 90 43 84 44
REMARK SMILES IDX 86 45 37 46 89 47 83 48 82 49 38 51 70 52 50 53 69 54 51 55
REMARK SMILES IDX 54 56 68 57 87 58 52 59 53 60 67 62 88 63 55 64 39 65 40 66
REMARK SMILES IDX 48 67 41 68 42 69 46 70 49 71 43 72 44 73 47 74 45 75 71 76
REMARK SMILES IDX 72 77 80 78 73 79 74 80 78 81 81 82 75 83 76 84 79 85 77 86
REMARK SMILES IDX 56 87 57 88 65 89 58 90 59 91 63 92 66 93 60 94 61 95 64 96
REMARK SMILES IDX 62 97
REMARK H PARENT 11 15 10 20 86 50 54 61
REMARK Flexibility Score: inf
ROOT
ATOM      1  C   UNL     1       9.804   2.084   0.412  1.00  0.00     0.274 C 
ENDROOT
BRANCH   1   2
ATOM      2  O   UNL     1       8.828   1.484  -0.462  1.00  0.00    -0.462 OA
BRANCH   2   3
ATOM      3  C   UNL     1       8.734   0.125  -0.447  1.00  0.00     0.310 C 
ATOM      4  O   UNL     1       9.437  -0.621   0.221  1.00  0.00    -0.252 OA
BRANCH   3   5
ATOM      5  C   UNL     1       7.589  -0.336  -1.341  1.00  0.00     0.116 C 
ATOM      6  C   UNL     1       6.732  -1.360  -0.563  1.00  0.00     0.099 C 
ATOM      7  C   UNL     1       6.799  -2.812  -1.048  1.00  0.00     0.045 C 
ATOM      8  C   UNL     1       7.886  -3.181  -2.021  1.00  0.00    -0.074 C 
ATOM      9  C   UNL     1       8.142  -0.798  -2.689  1.00  0.00     0.046 C 
ATOM     10  C   UNL     1       8.178  -4.661  -2.074  1.00  0.00     0.039 C 
ATOM     11  C   UNL     1       8.493  -2.259  -2.791  1.00  0.00    -0.073 C 
ATOM     12  C   UNL     1       9.507  -2.619  -3.845  1.00  0.00     0.039 C 
BRANCH   6  13
ATOM     13  C   UNL     1       5.298  -0.849  -0.366  1.00  0.00     0.242 C 
ATOM     14  N   UNL     1       4.552  -1.380   0.662  1.00  0.00    -0.267 N 
ATOM     15  H   UNL     1       3.857  -0.818   1.073  1.00  0.00     0.191 HD
ATOM     16  O   UNL     1       4.813   0.070  -1.025  1.00  0.00    -0.273 OA
BRANCH  14  17
ATOM     17  N   UNL     1       4.728  -2.662   1.147  1.00  0.00    -0.263 N 
ATOM     18  C   UNL     1       3.744  -3.583   1.443  1.00  0.00     0.269 C 
ATOM     19  O   UNL     1       4.098  -4.708   1.797  1.00  0.00    -0.267 OA
ATOM     20  H   UNL     1       5.657  -2.950   1.299  1.00  0.00     0.191 HD
BRANCH  18  21
ATOM     21  C   UNL     1       2.299  -3.233   1.444  1.00  0.00     0.045 A 
ATOM     22  C   UNL     1       0.389  -1.905   0.762  1.00  0.00     0.119 A 
ATOM     23  C   UNL     1      -0.401  -2.571   1.699  1.00  0.00     0.046 A 
ATOM     24  C   UNL     1       1.721  -2.285   0.591  1.00  0.00     0.060 A 
ATOM     25  C   UNL     1       0.143  -3.579   2.494  1.00  0.00     0.005 A 
ATOM     26  C   UNL     1       1.493  -3.896   2.381  1.00  0.00     0.014 A 
BRANCH  22  27
ATOM     27  O   UNL     1      -0.245  -0.912   0.068  1.00  0.00    -0.497 OA
ATOM     28  C   UNL     1       0.594   0.070  -0.534  1.00  0.00     0.278 C 
ENDBRANCH  22  27
ENDBRANCH  18  21
ENDBRANCH  14  17
ENDBRANCH   6  13
ENDBRANCH   3   5
ENDBRANCH   2   3
ENDBRANCH   1   2
BRANCH   1  29
ATOM     29  C   UNL     1       9.115   2.704   1.626  1.00  0.00     0.275 C 
BRANCH  29  30
ATOM     30  O   UNL     1       8.617   1.664   2.491  1.00  0.00    -0.458 OA
BRANCH  30  31
ATOM     31  C   UNL     1       7.282   1.644   2.674  1.00  0.00     0.338 C 
ATOM     32  O   UNL     1       6.450   2.408   2.195  1.00  0.00    -0.246 OA
BRANCH  31  33
ATOM     33  C   UNL     1       6.886   0.524   3.541  1.00  0.00     0.060 A 
ATOM     34  C   UNL     1       7.179  -0.781   3.162  1.00  0.00     0.016 A 
ATOM     35  C   UNL     1       6.040   0.759   4.625  1.00  0.00     0.016 A 
ATOM     36  C   UNL     1       6.477  -1.836   3.748  1.00  0.00     0.010 A 
ATOM     37  C   UNL     1       5.437  -0.317   5.289  1.00  0.00     0.010 A 
ATOM     38  C   UNL     1       5.565  -1.628   4.801  1.00  0.00    -0.014 A 
BRANCH  38  39
ATOM     39  C   UNL     1       4.690  -2.744   5.304  1.00  0.00     0.031 A 
ATOM     40  C   UNL     1       3.189  -2.552   5.448  1.00  0.00     0.074 A 
ATOM     41  C   UNL     1       5.197  -3.962   5.594  1.00  0.00     0.049 A 
ATOM     42  N   UNL     1       2.303  -3.332   6.024  1.00  0.00    -0.248 NA
ATOM     43  C   UNL     1       2.607  -1.315   4.901  1.00  0.00     0.031 C 
ATOM     44  C   UNL     1       6.608  -4.339   5.510  1.00  0.00     0.029 A 
ATOM     45  N   UNL     1       4.574  -5.126   5.982  1.00  0.00    -0.354 N 
ATOM     46  C   UNL     1       1.106  -2.624   6.023  1.00  0.00     0.074 A 
ATOM     47  C   UNL     1       1.359  -1.372   5.347  1.00  0.00     0.031 C 
ATOM     48  C   UNL     1       6.728  -5.657   5.721  1.00  0.00     0.029 A 
ATOM     49  C   UNL     1       5.421  -6.205   6.069  1.00  0.00     0.049 A 
ATOM     50  H   UNL     1       3.611  -5.181   6.180  1.00  0.00     0.167 HD
ATOM     51  C   UNL     1      -0.096  -2.982   6.538  1.00  0.00     0.037 A 
ATOM     52  C   UNL     1       5.192  -7.487   6.416  1.00  0.00     0.037 A 
ATOM     53  C   UNL     1      -0.413  -4.291   7.043  1.00  0.00     0.049 A 
ATOM     54  C   UNL     1       3.816  -7.904   6.852  1.00  0.00     0.074 A 
ATOM     55  C   UNL     1      -1.629  -4.764   7.508  1.00  0.00     0.029 A 
ATOM     56  N   UNL     1       0.476  -5.351   7.100  1.00  0.00    -0.354 N 
ATOM     57  N   UNL     1       2.721  -7.190   6.932  1.00  0.00    -0.248 NA
ATOM     58  C   UNL     1       3.655  -9.301   7.285  1.00  0.00     0.031 C 
ATOM     59  C   UNL     1      -1.476  -6.114   7.844  1.00  0.00     0.029 A 
ATOM     60  C   UNL     1      -0.168  -6.482   7.578  1.00  0.00     0.049 A 
ATOM     61  H   UNL     1       1.425  -5.308   6.839  1.00  0.00     0.167 HD
ATOM     62  C   UNL     1       1.748  -8.042   7.432  1.00  0.00     0.074 A 
ATOM     63  C   UNL     1       2.369  -9.338   7.604  1.00  0.00     0.031 C 
ATOM     64  C   UNL     1       0.458  -7.766   7.743  1.00  0.00     0.037 A 
BRANCH  51  65
ATOM     65  C   UNL     1      -1.166  -1.934   6.609  1.00  0.00     0.064 A 
ATOM     66  C   UNL     1      -1.984  -1.624   5.517  1.00  0.00     0.173 A 
ATOM     67  C   UNL     1      -1.413  -1.271   7.821  1.00  0.00     0.173 A 
ATOM     68  F   UNL     1      -1.810  -2.249   4.347  1.00  0.00    -0.203 F 
ATOM     69  C   UNL     1      -2.988  -0.664   5.619  1.00  0.00     0.198 A 
ATOM     70  C   UNL     1      -2.434  -0.329   7.929  1.00  0.00     0.198 A 
ATOM     71  F   UNL     1      -0.674  -1.548   8.905  1.00  0.00    -0.203 F 
ATOM     72  F   UNL     1      -3.735  -0.363   4.548  1.00  0.00    -0.200 F 
ATOM     73  C   UNL     1      -3.215  -0.020   6.825  1.00  0.00     0.200 A 
ATOM     74  F   UNL     1      -2.664   0.279   9.101  1.00  0.00    -0.200 F 
ATOM     75  F   UNL     1      -4.187   0.897   6.925  1.00  0.00    -0.200 F 
ENDBRANCH  51  65
BRANCH  52  76
ATOM     76  C   UNL     1       6.309  -8.467   6.392  1.00  0.00     0.064 A 
ATOM     77  C   UNL     1       6.343  -9.497   5.441  1.00  0.00     0.173 A 
ATOM     78  C   UNL     1       7.372  -8.386   7.303  1.00  0.00     0.173 A 
ATOM     79  F   UNL     1       5.332  -9.639   4.571  1.00  0.00    -0.203 F 
ATOM     80  C   UNL     1       7.398 -10.406   5.402  1.00  0.00     0.198 A 
ATOM     81  C   UNL     1       8.442  -9.275   7.243  1.00  0.00     0.198 A 
ATOM     82  F   UNL     1       7.385  -7.422   8.235  1.00  0.00    -0.203 F 
ATOM     83  F   UNL     1       7.389 -11.403   4.506  1.00  0.00    -0.200 F 
ATOM     84  C   UNL     1       8.452 -10.287   6.296  1.00  0.00     0.200 A 
ATOM     85  F   UNL     1       9.465  -9.148   8.099  1.00  0.00    -0.200 F 
ATOM     86  F   UNL     1       9.475 -11.152   6.248  1.00  0.00    -0.200 F 
ENDBRANCH  52  76
BRANCH  64  87
ATOM     87  C   UNL     1      -0.364  -8.889   8.297  1.00  0.00     0.064 A 
ATOM     88  C   UNL     1      -0.212  -9.312   9.626  1.00  0.00     0.173 A 
ATOM     89  C   UNL     1      -1.322  -9.534   7.503  1.00  0.00     0.173 A 
ATOM     90  F   UNL     1       0.704  -8.732  10.417  1.00  0.00    -0.203 F 
ATOM     91  C   UNL     1      -0.976 -10.358  10.134  1.00  0.00     0.198 A 
ATOM     92  C   UNL     1      -2.097 -10.569   8.020  1.00  0.00     0.198 A 
ATOM     93  F   UNL     1      -1.505  -9.162   6.228  1.00  0.00    -0.203 F 
ATOM     94  F   UNL     1      -0.788 -10.772  11.395  1.00  0.00    -0.200 F 
ATOM     95  C   UNL     1      -1.920 -10.983   9.332  1.00  0.00     0.200 A 
ATOM     96  F   UNL     1      -3.012 -11.169   7.247  1.00  0.00    -0.200 F 
ATOM     97  F   UNL     1      -2.653 -11.992   9.822  1.00  0.00    -0.200 F 
ENDBRANCH  64  87
ENDBRANCH  38  39
ENDBRANCH  31  33
ENDBRANCH  30  31
ENDBRANCH  29  30
ENDBRANCH   1  29
TORSDOF 15
