REMARK SMILES C[NH2+][C@@]1(C(=O)OCCOC(=O)c2ccc(-c3c4nc(c(-c5c(F)c(F)c(F)c(F)c5F)c5ccc([nH]5)c(-c5c(F)c(F)c(F)c(F)c5F)c5nc(c(-c6c(F)c(F)c(F)c(F)c6F)c6ccc3[nH]6)C=C5)C=C4)cc2)CCC[C@H]([N@H+](C)C2CC[NH+](C)CC2)C1
REMARK SMILES IDX 7 1 6 2 4 3 5 4 3 5 75 6 88 7 76 8 78 9 77 10 2 11 1 12
REMARK SMILES IDX 79 15 80 16 81 18 82 19 87 20 83 21 86 22 84 23 85 24 8 26
REMARK SMILES IDX 9 27 10 28 11 29 12 30 13 31 74 32 14 33 73 34 15 35 16 36
REMARK SMILES IDX 17 37 67 38 18 39 72 40 66 41 68 42 19 43 71 44 65 45 64 46
REMARK SMILES IDX 20 48 52 49 32 50 51 51 33 52 36 53 50 54 69 55 34 56 35 57
REMARK SMILES IDX 49 59 70 60 37 61 21 62 22 63 30 64 23 65 24 66 28 67 31 68
REMARK SMILES IDX 25 69 26 70 29 71 27 72 53 73 54 74 62 75 55 76 56 77 60 78
REMARK SMILES IDX 63 79 57 80 58 81 61 82 59 83 38 84 39 85 47 86 40 87 41 88
REMARK SMILES IDX 45 89 48 90 42 91 43 92 46 93 44 94
REMARK H PARENT 2 13 2 14 79 17 84 25 68 47 36 58
REMARK Flexibility Score: inf
ROOT
ATOM      1  C   UNL     1      -1.931  -0.555  -4.566  1.00  0.00     0.274 C 
ENDROOT
BRANCH   1   2
ATOM      2  O   UNL     1      -1.640  -0.079  -3.239  1.00  0.00    -0.457 OA
BRANCH   2   3
ATOM      3  C   UNL     1      -1.527  -1.064  -2.295  1.00  0.00     0.368 C 
ATOM      4  O   UNL     1      -1.592  -2.260  -2.566  1.00  0.00    -0.245 OA
BRANCH   3   5
ATOM      5  C   UNL     1      -1.145  -0.487  -0.883  1.00  0.00     0.199 C 
ATOM      6  C   UNL     1      -1.415  -1.574   0.182  1.00  0.00     0.081 C 
ATOM      7  C   UNL     1      -1.948   0.793  -0.540  1.00  0.00     0.146 C 
ATOM      8  C   UNL     1      -2.905  -1.803   0.421  1.00  0.00     0.013 C 
ATOM      9  C   UNL     1      -3.486   0.587  -0.358  1.00  0.00     0.190 C 
ATOM     10  C   UNL     1      -3.634  -0.496   0.731  1.00  0.00     0.065 C 
BRANCH   5  11
ATOM     11  N   UNL     1       0.312  -0.141  -0.978  1.00  0.00    -0.334 N 
ATOM     12  C   UNL     1       1.032   0.069   0.267  1.00  0.00     0.331 C 
ATOM     13  H   UNL     1       0.775  -0.903  -1.474  1.00  0.00     0.347 HD
ATOM     14  H   UNL     1       0.336   0.763  -1.449  1.00  0.00     0.347 HD
ENDBRANCH   5  11
BRANCH   9  15
ATOM     15  N   UNL     1      -4.192   0.440  -1.673  1.00  0.00    -0.332 N 
ATOM     16  C   UNL     1      -4.169   1.778  -2.329  1.00  0.00     0.333 C 
ATOM     17  H   UNL     1      -3.691  -0.293  -2.175  1.00  0.00     0.348 HD
BRANCH  15  18
ATOM     18  C   UNL     1      -5.620  -0.048  -1.636  1.00  0.00     0.195 C 
ATOM     19  C   UNL     1      -5.820  -1.553  -1.351  1.00  0.00     0.126 C 
ATOM     20  C   UNL     1      -6.396   0.140  -2.978  1.00  0.00     0.126 C 
ATOM     21  C   UNL     1      -5.231  -2.426  -2.455  1.00  0.00     0.268 C 
ATOM     22  C   UNL     1      -5.838  -0.749  -4.099  1.00  0.00     0.268 C 
ATOM     23  N   UNL     1      -5.885  -2.173  -3.745  1.00  0.00    -0.337 N 
ATOM     24  C   UNL     1      -5.262  -3.005  -4.777  1.00  0.00     0.332 C 
ATOM     25  H   UNL     1      -6.871  -2.423  -3.672  1.00  0.00     0.347 HD
ENDBRANCH  15  18
ENDBRANCH   9  15
ENDBRANCH   3   5
ENDBRANCH   2   3
ENDBRANCH   1   2
BRANCH   1  26
ATOM     26  C   UNL     1      -2.115   0.626  -5.522  1.00  0.00     0.275 C 
BRANCH  26  27
ATOM     27  O   UNL     1      -0.815   1.115  -5.886  1.00  0.00    -0.458 OA
BRANCH  27  28
ATOM     28  C   UNL     1      -0.279   1.971  -4.988  1.00  0.00     0.338 C 
ATOM     29  O   UNL     1      -0.847   2.687  -4.185  1.00  0.00    -0.246 OA
BRANCH  28  30
ATOM     30  C   UNL     1       1.149   1.653  -4.927  1.00  0.00     0.060 A 
ATOM     31  C   UNL     1       1.539   0.682  -4.003  1.00  0.00     0.016 A 
ATOM     32  C   UNL     1       2.085   2.312  -5.711  1.00  0.00     0.016 A 
ATOM     33  C   UNL     1       2.879   0.441  -3.761  1.00  0.00     0.010 A 
ATOM     34  C   UNL     1       3.434   2.007  -5.528  1.00  0.00     0.010 A 
ATOM     35  C   UNL     1       3.841   1.103  -4.523  1.00  0.00    -0.014 A 
BRANCH  35  36
ATOM     36  C   UNL     1       5.278   0.939  -4.213  1.00  0.00     0.031 A 
ATOM     37  C   UNL     1       6.054   2.143  -3.772  1.00  0.00     0.074 A 
ATOM     38  C   UNL     1       5.876  -0.261  -4.318  1.00  0.00     0.049 A 
ATOM     39  N   UNL     1       7.345   2.331  -3.734  1.00  0.00    -0.248 NA
ATOM     40  C   UNL     1       5.260   3.305  -3.338  1.00  0.00     0.031 C 
ATOM     41  C   UNL     1       5.207  -1.522  -4.642  1.00  0.00     0.029 A 
ATOM     42  N   UNL     1       7.194  -0.611  -4.172  1.00  0.00    -0.354 N 
ATOM     43  C   UNL     1       7.517   3.655  -3.352  1.00  0.00     0.074 A 
ATOM     44  C   UNL     1       6.200   4.220  -3.156  1.00  0.00     0.031 C 
ATOM     45  C   UNL     1       6.116  -2.508  -4.667  1.00  0.00     0.029 A 
ATOM     46  C   UNL     1       7.439  -1.933  -4.450  1.00  0.00     0.049 A 
ATOM     47  H   UNL     1       7.894   0.023  -3.895  1.00  0.00     0.167 HD
ATOM     48  C   UNL     1       8.678   4.331  -3.198  1.00  0.00     0.037 A 
ATOM     49  C   UNL     1       8.607  -2.589  -4.576  1.00  0.00     0.037 A 
ATOM     50  C   UNL     1       9.975   3.724  -3.340  1.00  0.00     0.049 A 
ATOM     51  C   UNL     1       9.886  -1.817  -4.412  1.00  0.00     0.074 A 
ATOM     52  C   UNL     1      11.224   4.303  -3.212  1.00  0.00     0.029 A 
ATOM     53  N   UNL     1      10.182   2.379  -3.619  1.00  0.00    -0.354 N 
ATOM     54  N   UNL     1      10.055  -0.542  -4.152  1.00  0.00    -0.248 NA
ATOM     55  C   UNL     1      11.137  -2.567  -4.580  1.00  0.00     0.031 C 
ATOM     56  C   UNL     1      12.187   3.313  -3.437  1.00  0.00     0.029 A 
ATOM     57  C   UNL     1      11.538   2.109  -3.666  1.00  0.00     0.049 A 
ATOM     58  H   UNL     1       9.468   1.716  -3.762  1.00  0.00     0.167 HD
ATOM     59  C   UNL     1      11.426  -0.337  -4.117  1.00  0.00     0.074 A 
ATOM     60  C   UNL     1      12.044  -1.625  -4.363  1.00  0.00     0.031 C 
ATOM     61  C   UNL     1      12.115   0.812  -3.909  1.00  0.00     0.037 A 
BRANCH  48  62
ATOM     62  C   UNL     1       8.592   5.800  -2.910  1.00  0.00     0.064 A 
ATOM     63  C   UNL     1       8.166   6.295  -1.670  1.00  0.00     0.173 A 
ATOM     64  C   UNL     1       8.945   6.731  -3.901  1.00  0.00     0.173 A 
ATOM     65  F   UNL     1       7.794   5.449  -0.698  1.00  0.00    -0.203 F 
ATOM     66  C   UNL     1       8.071   7.666  -1.439  1.00  0.00     0.198 A 
ATOM     67  C   UNL     1       8.876   8.100  -3.658  1.00  0.00     0.198 A 
ATOM     68  F   UNL     1       9.356   6.311  -5.107  1.00  0.00    -0.203 F 
ATOM     69  F   UNL     1       7.611   8.116  -0.264  1.00  0.00    -0.200 F 
ATOM     70  C   UNL     1       8.432   8.566  -2.431  1.00  0.00     0.200 A 
ATOM     71  F   UNL     1       9.232   8.968  -4.615  1.00  0.00    -0.200 F 
ATOM     72  F   UNL     1       8.341   9.884  -2.206  1.00  0.00    -0.200 F 
ENDBRANCH  48  62
BRANCH  49  73
ATOM     73  C   UNL     1       8.609  -4.033  -4.925  1.00  0.00     0.064 A 
ATOM     74  C   UNL     1       9.010  -4.998  -3.993  1.00  0.00     0.173 A 
ATOM     75  C   UNL     1       8.184  -4.480  -6.185  1.00  0.00     0.173 A 
ATOM     76  F   UNL     1       9.448  -4.619  -2.783  1.00  0.00    -0.203 F 
ATOM     77  C   UNL     1       8.990  -6.356  -4.309  1.00  0.00     0.198 A 
ATOM     78  C   UNL     1       8.136  -5.838  -6.490  1.00  0.00     0.198 A 
ATOM     79  F   UNL     1       7.790  -3.596  -7.114  1.00  0.00    -0.203 F 
ATOM     80  F   UNL     1       9.409  -7.257  -3.410  1.00  0.00    -0.200 F 
ATOM     81  C   UNL     1       8.544  -6.775  -5.553  1.00  0.00     0.200 A 
ATOM     82  F   UNL     1       7.691  -6.239  -7.689  1.00  0.00    -0.200 F 
ATOM     83  F   UNL     1       8.511  -8.081  -5.851  1.00  0.00    -0.200 F 
ENDBRANCH  49  73
BRANCH  61  84
ATOM     84  C   UNL     1      13.609   0.712  -3.910  1.00  0.00     0.064 A 
ATOM     85  C   UNL     1      14.332   0.574  -5.103  1.00  0.00     0.173 A 
ATOM     86  C   UNL     1      14.324   0.793  -2.706  1.00  0.00     0.173 A 
ATOM     87  F   UNL     1      13.687   0.477  -6.275  1.00  0.00    -0.203 F 
ATOM     88  C   UNL     1      15.721   0.498  -5.088  1.00  0.00     0.198 A 
ATOM     89  C   UNL     1      15.714   0.740  -2.698  1.00  0.00     0.198 A 
ATOM     90  F   UNL     1      13.674   0.931  -1.541  1.00  0.00    -0.203 F 
ATOM     91  F   UNL     1      16.392   0.325  -6.235  1.00  0.00    -0.200 F 
ATOM     92  C   UNL     1      16.410   0.587  -3.888  1.00  0.00     0.200 A 
ATOM     93  F   UNL     1      16.380   0.835  -1.539  1.00  0.00    -0.200 F 
ATOM     94  F   UNL     1      17.748   0.517  -3.876  1.00  0.00    -0.200 F 
ENDBRANCH  61  84
ENDBRANCH  35  36
ENDBRANCH  28  30
ENDBRANCH  27  28
ENDBRANCH  26  27
ENDBRANCH   1  26
TORSDOF 14
