REMARK SMILES O=C(OCCOC(=O)[C@@H](CCOC(F)(F)F)Cc1ccccc1Cl)c1ccc(-c2c3nc(c(-c4c(F)c(F)c(F)c(F)c4F)c4ccc([nH]4)c(-c4c(F)c(F)c(F)c(F)c4F)c4nc(c(-c5c(F)c(F)c(F)c(F)c5F)c5ccc2[nH]5)C=C4)C=C3)cc1
REMARK SMILES IDX 5 1 4 2 3 3 2 4 1 5 25 6 26 7 87 8 27 9 86 10 28 11 29 12
REMARK SMILES IDX 30 13 80 14 31 15 85 16 79 17 81 18 32 19 84 20 78 21 77 22
REMARK SMILES IDX 33 24 65 25 45 26 64 27 46 28 49 29 63 30 82 31 47 32 48 33
REMARK SMILES IDX 62 35 83 36 50 37 34 38 35 39 43 40 36 41 37 42 41 43 44 44
REMARK SMILES IDX 38 45 39 46 42 47 40 48 66 49 67 50 75 51 68 52 69 53 73 54
REMARK SMILES IDX 76 55 70 56 71 57 74 58 72 59 51 60 52 61 60 62 53 63 54 64
REMARK SMILES IDX 58 65 61 66 55 67 56 68 59 69 57 70 6 71 7 72 8 73 9 74
REMARK SMILES IDX 10 75 11 76 12 77 13 78 14 79 15 80 16 81 17 82 18 83 19 84
REMARK SMILES IDX 23 85 20 86 22 87 24 88 21 89
REMARK H PARENT 81 23 49 34
REMARK Flexibility Score: inf
ROOT
ATOM      1  C   UNL     1       3.656   0.703   2.406  1.00  0.00     0.274 C 
ENDROOT
BRANCH   1   2
ATOM      2  C   UNL     1       4.211   1.450   1.182  1.00  0.00     0.275 C 
BRANCH   2   3
ATOM      3  O   UNL     1       3.181   1.739   0.246  1.00  0.00    -0.458 OA
BRANCH   3   4
ATOM      4  C   UNL     1       2.937   1.004  -0.847  1.00  0.00     0.338 C 
ATOM      5  O   UNL     1       2.127   1.396  -1.684  1.00  0.00    -0.246 OA
BRANCH   4   6
ATOM      6  C   UNL     1       3.536  -0.342  -1.079  1.00  0.00     0.060 A 
ATOM      7  C   UNL     1       4.292  -1.513   0.104  1.00  0.00     0.016 A 
ATOM      8  C   UNL     1       3.080  -0.940  -2.703  1.00  0.00     0.016 A 
ATOM      9  C   UNL     1       4.443  -3.269  -0.344  1.00  0.00     0.010 A 
ATOM     10  C   UNL     1       3.262  -2.651  -3.130  1.00  0.00     0.010 A 
ATOM     11  C   UNL     1       4.007  -3.812  -2.022  1.00  0.00    -0.014 A 
BRANCH  11  12
ATOM     12  C   UNL     1       4.689  -5.027  -2.584  1.00  0.00     0.031 A 
ATOM     13  C   UNL     1       5.627  -4.934  -3.788  1.00  0.00     0.074 A 
ATOM     14  C   UNL     1       4.709  -6.105  -1.784  1.00  0.00     0.049 A 
ATOM     15  N   UNL     1       6.480  -5.827  -4.237  1.00  0.00    -0.248 NA
ATOM     16  C   UNL     1       5.663  -3.692  -4.582  1.00  0.00     0.031 C 
ATOM     17  C   UNL     1       3.898  -6.247  -0.578  1.00  0.00     0.029 A 
ATOM     18  N   UNL     1       5.491  -7.225  -1.790  1.00  0.00    -0.354 N 
ATOM     19  C   UNL     1       7.109  -5.251  -5.341  1.00  0.00     0.074 A 
ATOM     20  C   UNL     1       6.600  -3.921  -5.484  1.00  0.00     0.031 C 
ATOM     21  C   UNL     1       4.345  -7.287   0.132  1.00  0.00     0.029 A 
ATOM     22  C   UNL     1       5.313  -8.011  -0.677  1.00  0.00     0.049 A 
ATOM     23  H   UNL     1       6.117  -7.446  -2.517  1.00  0.00     0.167 HD
ATOM     24  C   UNL     1       7.995  -5.801  -6.202  1.00  0.00     0.037 A 
ATOM     25  C   UNL     1       5.806  -9.228  -0.386  1.00  0.00     0.037 A 
ATOM     26  C   UNL     1       8.453  -7.152  -6.079  1.00  0.00     0.049 A 
ATOM     27  C   UNL     1       6.690  -9.863  -1.419  1.00  0.00     0.074 A 
ATOM     28  C   UNL     1       9.251  -7.879  -6.939  1.00  0.00     0.029 A 
ATOM     29  N   UNL     1       8.117  -7.987  -5.024  1.00  0.00    -0.354 N 
ATOM     30  N   UNL     1       7.195  -9.337  -2.511  1.00  0.00    -0.248 NA
ATOM     31  C   UNL     1       7.018 -11.276  -1.222  1.00  0.00     0.031 C 
ATOM     32  C   UNL     1       9.322  -9.185  -6.449  1.00  0.00     0.029 A 
ATOM     33  C   UNL     1       8.649  -9.243  -5.237  1.00  0.00     0.049 A 
ATOM     34  H   UNL     1       7.581  -7.724  -4.241  1.00  0.00     0.167 HD
ATOM     35  C   UNL     1       7.875 -10.361  -3.147  1.00  0.00     0.074 A 
ATOM     36  C   UNL     1       7.770 -11.522  -2.284  1.00  0.00     0.031 C 
ATOM     37  C   UNL     1       8.505 -10.363  -4.347  1.00  0.00     0.037 A 
BRANCH  24  38
ATOM     38  C   UNL     1       8.389  -5.014  -7.424  1.00  0.00     0.064 A 
ATOM     39  C   UNL     1       9.284  -3.935  -7.388  1.00  0.00     0.173 A 
ATOM     40  C   UNL     1       7.865  -5.383  -8.675  1.00  0.00     0.173 A 
ATOM     41  F   UNL     1       9.787  -3.512  -6.219  1.00  0.00    -0.203 F 
ATOM     42  C   UNL     1       9.640  -3.259  -8.557  1.00  0.00     0.198 A 
ATOM     43  C   UNL     1       8.243  -4.724  -9.842  1.00  0.00     0.198 A 
ATOM     44  F   UNL     1       6.988  -6.394  -8.767  1.00  0.00    -0.203 F 
ATOM     45  F   UNL     1      10.472  -2.209  -8.497  1.00  0.00    -0.200 F 
ATOM     46  C   UNL     1       9.130  -3.662  -9.783  1.00  0.00     0.200 A 
ATOM     47  F   UNL     1       7.747  -5.120 -11.023  1.00  0.00    -0.200 F 
ATOM     48  F   UNL     1       9.485  -3.022 -10.905  1.00  0.00    -0.200 F 
ENDBRANCH  24  38
BRANCH  25  49
ATOM     49  C   UNL     1       5.323  -9.970   0.814  1.00  0.00     0.064 A 
ATOM     50  C   UNL     1       6.200 -10.473   1.784  1.00  0.00     0.173 A 
ATOM     51  C   UNL     1       3.950 -10.219   1.001  1.00  0.00     0.173 A 
ATOM     52  F   UNL     1       7.523 -10.303   1.647  1.00  0.00    -0.203 F 
ATOM     53  C   UNL     1       5.725 -11.197   2.879  1.00  0.00     0.198 A 
ATOM     54  C   UNL     1       3.473 -10.883   2.126  1.00  0.00     0.198 A 
ATOM     55  F   UNL     1       3.057  -9.798   0.092  1.00  0.00    -0.203 F 
ATOM     56  F   UNL     1       6.590 -11.729   3.753  1.00  0.00    -0.200 F 
ATOM     57  C   UNL     1       4.362 -11.387   3.057  1.00  0.00     0.200 A 
ATOM     58  F   UNL     1       2.153 -11.038   2.299  1.00  0.00    -0.200 F 
ATOM     59  F   UNL     1       3.907 -12.070   4.116  1.00  0.00    -0.200 F 
ENDBRANCH  25  49
BRANCH  37  60
ATOM     60  C   UNL     1       9.136 -11.651  -4.767  1.00  0.00     0.064 A 
ATOM     61  C   UNL     1       8.363 -12.757  -5.144  1.00  0.00     0.173 A 
ATOM     62  C   UNL     1      10.532 -11.764  -4.818  1.00  0.00     0.173 A 
ATOM     63  F   UNL     1       7.023 -12.694  -5.099  1.00  0.00    -0.203 F 
ATOM     64  C   UNL     1       8.969 -13.950  -5.517  1.00  0.00     0.198 A 
ATOM     65  C   UNL     1      11.134 -12.944  -5.233  1.00  0.00     0.198 A 
ATOM     66  F   UNL     1      11.309 -10.723  -4.481  1.00  0.00    -0.203 F 
ATOM     67  F   UNL     1       8.215 -15.020  -5.806  1.00  0.00    -0.200 F 
ATOM     68  C   UNL     1      10.353 -14.040  -5.568  1.00  0.00     0.200 A 
ATOM     69  F   UNL     1      12.469 -13.022  -5.304  1.00  0.00    -0.200 F 
ATOM     70  F   UNL     1      10.936 -15.190  -5.931  1.00  0.00    -0.200 F 
ENDBRANCH  37  60
ENDBRANCH  11  12
ENDBRANCH   4   6
ENDBRANCH   3   4
ENDBRANCH   2   3
ENDBRANCH   1   2
BRANCH   1  71
ATOM     71  O   UNL     1       3.166  -0.634   2.121  1.00  0.00    -0.462 OA
BRANCH  71  72
ATOM     72  C   UNL     1       2.015  -0.835   1.419  1.00  0.00     0.309 C 
ATOM     73  O   UNL     1       1.119  -0.007   1.352  1.00  0.00    -0.252 OA
BRANCH  72  74
ATOM     74  C   UNL     1       2.012  -2.192   0.639  1.00  0.00     0.106 C 
BRANCH  74  75
ATOM     75  C   UNL     1       2.803  -2.299  -1.039  1.00  0.00     0.044 C 
BRANCH  75  76
ATOM     76  C   UNL     1       4.815  -1.870  -1.792  1.00  0.00     0.171 C 
BRANCH  76  77
ATOM     77  O   UNL     1       6.135  -2.761  -1.833  1.00  0.00    -0.292 OA
BRANCH  77  78
ATOM     78  C   UNL     1       7.045  -2.908  -0.735  1.00  0.00     0.522 C 
ATOM     79  F   UNL     1       6.852  -1.999   0.241  1.00  0.00    -0.144 F 
ATOM     80  F   UNL     1       6.937  -4.149  -0.200  1.00  0.00    -0.144 F 
ATOM     81  F   UNL     1       8.312  -2.784  -1.178  1.00  0.00    -0.144 F 
ENDBRANCH  77  78
ENDBRANCH  76  77
ENDBRANCH  75  76
ENDBRANCH  74  75
BRANCH  74  82
ATOM     82  C   UNL     1       2.084  -3.524   1.457  1.00  0.00     0.052 C 
BRANCH  82  83
ATOM     83  C   UNL     1       1.631  -3.757   2.892  1.00  0.00    -0.028 A 
ATOM     84  C   UNL     1       1.684  -2.764   3.879  1.00  0.00     0.005 A 
ATOM     85  C   UNL     1       1.331  -5.068   3.339  1.00  0.00     0.044 A 
ATOM     86  C   UNL     1       1.440  -3.041   5.229  1.00  0.00     0.000 A 
ATOM     87  C   UNL     1       1.079  -5.345   4.690  1.00  0.00     0.021 A 
ATOM     88  Cl  UNL     1       1.315  -6.434   2.273  1.00  0.00    -0.084 Cl
ATOM     89  C   UNL     1       1.135  -4.330   5.636  1.00  0.00     0.002 A 
ENDBRANCH  82  83
ENDBRANCH  74  82
ENDBRANCH  72  74
ENDBRANCH  71  72
ENDBRANCH   1  71
TORSDOF 17
