REMARK SMILES C#CCN(CC(=O)OCCOC(=O)c1ccc(-c2c3nc(c(-c4c(F)c(F)c(F)c(F)c4F)c4ccc([nH]4)c(-c4c(F)c(F)c(F)c(F)c4F)c4nc(c(-c5c(F)c(F)c(F)c(F)c5F)c5ccc2[nH]5)C=C4)C=C3)cc1)C(=O)c1c[nH]c(=O)[nH]1
REMARK SMILES IDX 9 1 8 2 6 3 7 4 5 5 4 6 3 7 2 8 1 9 77 10 78 11 79 12 80 13
REMARK SMILES IDX 84 14 81 15 82 16 83 19 10 20 11 21 12 22 13 23 14 24 15 25
REMARK SMILES IDX 76 26 16 27 75 28 17 29 18 30 19 31 69 32 20 33 74 34 68 35
REMARK SMILES IDX 70 36 21 37 73 38 67 39 66 40 22 42 54 43 34 44 53 45 35 46
REMARK SMILES IDX 38 47 52 48 71 49 36 50 37 51 51 53 72 54 39 55 23 56 24 57
REMARK SMILES IDX 32 58 25 59 26 60 30 61 33 62 27 63 28 64 31 65 29 66 55 67
REMARK SMILES IDX 56 68 64 69 57 70 58 71 62 72 65 73 59 74 60 75 63 76 61 77
REMARK SMILES IDX 40 78 41 79 49 80 42 81 43 82 47 83 50 84 44 85 45 86 48 87
REMARK SMILES IDX 46 88
REMARK H PARENT 84 17 81 18 70 41 38 52
REMARK Flexibility Score: inf
ROOT
ATOM      1  C   UNL     1      -6.570  -0.958   1.671  1.00  0.00     0.274 C 
ENDROOT
BRANCH   1   2
ATOM      2  O   UNL     1      -5.141  -0.903   1.415  1.00  0.00    -0.461 OA
BRANCH   2   3
ATOM      3  C   UNL     1      -4.438  -0.007   2.160  1.00  0.00     0.325 C 
ATOM      4  O   UNL     1      -4.962   0.832   2.890  1.00  0.00    -0.250 OA
BRANCH   3   5
ATOM      5  C   UNL     1      -2.919  -0.271   2.213  1.00  0.00     0.243 C 
BRANCH   5   6
ATOM      6  N   UNL     1      -2.248  -0.879   1.071  1.00  0.00    -0.315 N 
BRANCH   6   7
ATOM      7  C   UNL     1      -1.767   0.044   0.069  1.00  0.00     0.210 C 
BRANCH   7   8
ATOM      8  C   UNL     1      -0.247   0.044   0.069  1.00  0.00    -0.085 C 
ATOM      9  C   UNL     1       1.057   0.044   0.069  1.00  0.00     0.006 C 
ENDBRANCH   7   8
ENDBRANCH   6   7
BRANCH   6  10
ATOM     10  C   UNL     1      -2.046  -2.227   0.819  1.00  0.00     0.273 C 
ATOM     11  O   UNL     1      -1.690  -2.643  -0.286  1.00  0.00    -0.267 OA
BRANCH  10  12
ATOM     12  C   UNL     1      -2.211  -3.223   1.896  1.00  0.00     0.125 A 
ATOM     13  C   UNL     1      -2.999  -4.304   1.799  1.00  0.00     0.119 A 
ATOM     14  N   UNL     1      -1.552  -3.256   3.104  1.00  0.00    -0.302 N 
ATOM     15  N   UNL     1      -2.894  -5.023   2.965  1.00  0.00    -0.312 N 
ATOM     16  C   UNL     1      -1.983  -4.386   3.815  1.00  0.00     0.323 A 
ATOM     17  H   UNL     1      -0.891  -2.598   3.417  1.00  0.00     0.172 HD
ATOM     18  H   UNL     1      -3.382  -5.853   3.170  1.00  0.00     0.171 HD
ATOM     19  O   UNL     1      -1.640  -4.745   4.927  1.00  0.00    -0.248 OA
ENDBRANCH  10  12
ENDBRANCH   6  10
ENDBRANCH   5   6
ENDBRANCH   3   5
ENDBRANCH   2   3
ENDBRANCH   1   2
BRANCH   1  20
ATOM     20  C   UNL     1      -6.966  -2.077   2.657  1.00  0.00     0.275 C 
BRANCH  20  21
ATOM     21  O   UNL     1      -6.530  -1.823   4.018  1.00  0.00    -0.458 OA
BRANCH  21  22
ATOM     22  C   UNL     1      -5.257  -2.216   4.201  1.00  0.00     0.338 C 
ATOM     23  O   UNL     1      -4.552  -2.684   3.325  1.00  0.00    -0.246 OA
BRANCH  22  24
ATOM     24  C   UNL     1      -4.635  -1.996   5.502  1.00  0.00     0.060 A 
ATOM     25  C   UNL     1      -3.732  -0.935   5.603  1.00  0.00     0.016 A 
ATOM     26  C   UNL     1      -4.582  -3.060   6.404  1.00  0.00     0.016 A 
ATOM     27  C   UNL     1      -2.730  -0.965   6.565  1.00  0.00     0.010 A 
ATOM     28  C   UNL     1      -3.638  -3.040   7.434  1.00  0.00     0.010 A 
ATOM     29  C   UNL     1      -2.705  -1.995   7.518  1.00  0.00    -0.014 A 
BRANCH  29  30
ATOM     30  C   UNL     1      -1.837  -1.852   8.710  1.00  0.00     0.031 A 
ATOM     31  C   UNL     1      -0.685  -2.768   8.989  1.00  0.00     0.074 A 
ATOM     32  C   UNL     1      -2.155  -0.862   9.565  1.00  0.00     0.049 A 
ATOM     33  N   UNL     1       0.076  -2.830  10.054  1.00  0.00    -0.248 NA
ATOM     34  C   UNL     1      -0.335  -3.739   7.946  1.00  0.00     0.031 C 
ATOM     35  C   UNL     1      -3.250   0.095   9.367  1.00  0.00     0.029 A 
ATOM     36  N   UNL     1      -1.608  -0.495  10.763  1.00  0.00    -0.354 N 
ATOM     37  C   UNL     1       0.983  -3.856   9.816  1.00  0.00     0.074 A 
ATOM     38  C   UNL     1       0.675  -4.393   8.507  1.00  0.00     0.031 C 
ATOM     39  C   UNL     1      -3.283   0.947  10.397  1.00  0.00     0.029 A 
ATOM     40  C   UNL     1      -2.275   0.542  11.364  1.00  0.00     0.049 A 
ATOM     41  H   UNL     1      -0.817  -0.931  11.155  1.00  0.00     0.167 HD
ATOM     42  C   UNL     1       1.971  -4.303  10.630  1.00  0.00     0.037 A 
ATOM     43  C   UNL     1      -2.130   1.078  12.587  1.00  0.00     0.037 A 
ATOM     44  C   UNL     1       2.248  -3.755  11.936  1.00  0.00     0.049 A 
ATOM     45  C   UNL     1      -1.075   0.520  13.489  1.00  0.00     0.074 A 
ATOM     46  C   UNL     1       3.226  -4.126  12.843  1.00  0.00     0.029 A 
ATOM     47  N   UNL     1       1.534  -2.719  12.524  1.00  0.00    -0.354 N 
ATOM     48  N   UNL     1      -0.228  -0.453  13.260  1.00  0.00    -0.248 NA
ATOM     49  C   UNL     1      -0.960   1.128  14.817  1.00  0.00     0.031 C 
ATOM     50  C   UNL     1       3.074  -3.347  13.996  1.00  0.00     0.029 A 
ATOM     51  C   UNL     1       2.034  -2.454  13.790  1.00  0.00     0.049 A 
ATOM     52  H   UNL     1       0.782  -2.242  12.104  1.00  0.00     0.167 HD
ATOM     53  C   UNL     1       0.535  -0.568  14.410  1.00  0.00     0.074 A 
ATOM     54  C   UNL     1       0.059   0.450  15.327  1.00  0.00     0.031 C 
ATOM     55  C   UNL     1       1.537  -1.438  14.684  1.00  0.00     0.037 A 
BRANCH  42  56
ATOM     56  C   UNL     1       2.808  -5.458  10.155  1.00  0.00     0.064 A 
ATOM     57  C   UNL     1       3.765  -5.312   9.140  1.00  0.00     0.173 A 
ATOM     58  C   UNL     1       2.697  -6.716  10.771  1.00  0.00     0.173 A 
ATOM     59  F   UNL     1       3.913  -4.133   8.517  1.00  0.00    -0.203 F 
ATOM     60  C   UNL     1       4.566  -6.383   8.747  1.00  0.00     0.198 A 
ATOM     61  C   UNL     1       3.515  -7.778  10.392  1.00  0.00     0.198 A 
ATOM     62  F   UNL     1       1.808  -6.910  11.756  1.00  0.00    -0.203 F 
ATOM     63  F   UNL     1       5.455  -6.227   7.756  1.00  0.00    -0.200 F 
ATOM     64  C   UNL     1       4.445  -7.613   9.377  1.00  0.00     0.200 A 
ATOM     65  F   UNL     1       3.409  -8.960  11.015  1.00  0.00    -0.200 F 
ATOM     66  F   UNL     1       5.226  -8.638   9.008  1.00  0.00    -0.200 F 
ENDBRANCH  42  56
BRANCH  43  67
ATOM     67  C   UNL     1      -3.033   2.176  13.009  1.00  0.00     0.064 A 
ATOM     68  C   UNL     1      -2.553   3.483  13.159  1.00  0.00     0.173 A 
ATOM     69  C   UNL     1      -4.404   1.954  13.210  1.00  0.00     0.173 A 
ATOM     70  F   UNL     1      -1.248   3.740  12.986  1.00  0.00    -0.203 F 
ATOM     71  C   UNL     1      -3.409   4.526  13.501  1.00  0.00     0.198 A 
ATOM     72  C   UNL     1      -5.265   3.003  13.521  1.00  0.00     0.198 A 
ATOM     73  F   UNL     1      -4.915   0.722  13.062  1.00  0.00    -0.203 F 
ATOM     74  F   UNL     1      -2.921   5.763  13.665  1.00  0.00    -0.200 F 
ATOM     75  C   UNL     1      -4.766   4.287  13.672  1.00  0.00     0.200 A 
ATOM     76  F   UNL     1      -6.577   2.772  13.659  1.00  0.00    -0.200 F 
ATOM     77  F   UNL     1      -5.591   5.295  13.982  1.00  0.00    -0.200 F 
ENDBRANCH  43  67
BRANCH  55  78
ATOM     78  C   UNL     1       2.195  -1.295  16.022  1.00  0.00     0.064 A 
ATOM     79  C   UNL     1       1.548  -1.688  17.203  1.00  0.00     0.173 A 
ATOM     80  C   UNL     1       3.486  -0.757  16.122  1.00  0.00     0.173 A 
ATOM     81  F   UNL     1       0.303  -2.185  17.157  1.00  0.00    -0.203 F 
ATOM     82  C   UNL     1       2.160  -1.518  18.441  1.00  0.00     0.198 A 
ATOM     83  C   UNL     1       4.106  -0.615  17.359  1.00  0.00     0.198 A 
ATOM     84  F   UNL     1       4.144  -0.367  15.020  1.00  0.00    -0.203 F 
ATOM     85  F   UNL     1       1.503  -1.845  19.561  1.00  0.00    -0.200 F 
ATOM     86  C   UNL     1       3.440  -0.987  18.517  1.00  0.00     0.200 A 
ATOM     87  F   UNL     1       5.345  -0.109  17.432  1.00  0.00    -0.200 F 
ATOM     88  F   UNL     1       4.026  -0.821  19.711  1.00  0.00    -0.200 F 
ENDBRANCH  55  78
ENDBRANCH  29  30
ENDBRANCH  22  24
ENDBRANCH  21  22
ENDBRANCH  20  21
ENDBRANCH   1  20
TORSDOF 16
