REMARK SMILES O=C(OCCOC(=O)c1ccc2c(c1)[C@@H]1C=CC[C@@H]1[C@H](c1ccncc1)N2)c1ccc(-c2c3nc(c(-c4c(F)c(F)c(F)c(F)c4F)c4ccc([nH]4)c(-c4c(F)c(F)c(F)c(F)c4F)c4nc(c(-c5c(F)c(F)c(F)c(F)c5F)c5ccc2[nH]5)C=C4)C=C3)cc1
REMARK SMILES IDX 4 1 3 2 2 3 1 4 28 5 29 6 90 7 30 8 89 9 31 10 32 11 33 12
REMARK SMILES IDX 83 13 34 14 88 15 82 16 84 17 35 18 87 19 81 20 80 21 36 23
REMARK SMILES IDX 68 24 48 25 67 26 49 27 52 28 66 29 85 30 50 31 51 32 65 34
REMARK SMILES IDX 86 35 53 36 37 37 38 38 46 39 39 40 40 41 44 42 47 43 41 44
REMARK SMILES IDX 42 45 45 46 43 47 69 48 70 49 78 50 71 51 72 52 76 53 79 54
REMARK SMILES IDX 73 55 74 56 77 57 75 58 54 59 55 60 63 61 56 62 57 63 61 64
REMARK SMILES IDX 64 65 58 66 59 67 62 68 60 69 5 70 6 71 7 72 8 73 9 74 10 75
REMARK SMILES IDX 14 76 11 77 13 78 12 79 15 80 27 81 16 82 19 83 20 84 17 86
REMARK SMILES IDX 18 87 21 88 22 89 26 90 23 91 25 92 24 93
REMARK H PARENT 84 22 52 33 27 85
REMARK Flexibility Score: inf
ROOT
ATOM      1  C   UNL     1       3.879   1.165   0.871  1.00  0.00     0.275 C 
ENDROOT
BRANCH   1   2
ATOM      2  O   UNL     1       2.895   0.851  -0.132  1.00  0.00    -0.458 OA
BRANCH   2   3
ATOM      3  C   UNL     1       2.861  -0.180  -1.009  1.00  0.00     0.338 C 
ATOM      4  O   UNL     1       1.982  -0.212  -1.869  1.00  0.00    -0.246 OA
BRANCH   3   5
ATOM      5  C   UNL     1       3.763  -1.363  -0.887  1.00  0.00     0.060 A 
ATOM      6  C   UNL     1       5.093  -1.321  -0.465  1.00  0.00     0.016 A 
ATOM      7  C   UNL     1       3.215  -2.611  -1.225  1.00  0.00     0.016 A 
ATOM      8  C   UNL     1       5.831  -2.492  -0.278  1.00  0.00     0.010 A 
ATOM      9  C   UNL     1       3.945  -3.788  -1.032  1.00  0.00     0.010 A 
ATOM     10  C   UNL     1       5.269  -3.734  -0.561  1.00  0.00    -0.014 A 
BRANCH  10  11
ATOM     11  C   UNL     1       6.134  -4.939  -0.617  1.00  0.00     0.031 A 
ATOM     12  C   UNL     1       6.385  -5.518  -1.980  1.00  0.00     0.074 A 
ATOM     13  C   UNL     1       6.703  -5.488   0.480  1.00  0.00     0.049 A 
ATOM     14  N   UNL     1       6.896  -6.671  -2.311  1.00  0.00    -0.248 NA
ATOM     15  C   UNL     1       6.047  -4.657  -3.133  1.00  0.00     0.031 C 
ATOM     16  C   UNL     1       6.639  -4.956   1.843  1.00  0.00     0.029 A 
ATOM     17  N   UNL     1       7.309  -6.722   0.645  1.00  0.00    -0.354 N 
ATOM     18  C   UNL     1       7.039  -6.625  -3.691  1.00  0.00     0.074 A 
ATOM     19  C   UNL     1       6.422  -5.407  -4.156  1.00  0.00     0.031 C 
ATOM     20  C   UNL     1       6.966  -5.933   2.714  1.00  0.00     0.029 A 
ATOM     21  C   UNL     1       7.231  -7.152   1.963  1.00  0.00     0.049 A 
ATOM     22  H   UNL     1       7.740  -7.230  -0.080  1.00  0.00     0.167 HD
ATOM     23  C   UNL     1       7.724  -7.484  -4.477  1.00  0.00     0.037 A 
ATOM     24  C   UNL     1       7.176  -8.415   2.443  1.00  0.00     0.037 A 
ATOM     25  C   UNL     1       8.297  -8.700  -3.978  1.00  0.00     0.049 A 
ATOM     26  C   UNL     1       7.503  -9.537   1.502  1.00  0.00     0.074 A 
ATOM     27  C   UNL     1       9.093  -9.625  -4.624  1.00  0.00     0.029 A 
ATOM     28  N   UNL     1       8.095  -9.169  -2.688  1.00  0.00    -0.354 N 
ATOM     29  N   UNL     1       7.703  -9.499   0.209  1.00  0.00    -0.248 NA
ATOM     30  C   UNL     1       7.680 -10.864   2.105  1.00  0.00     0.031 C 
ATOM     31  C   UNL     1       9.324 -10.685  -3.739  1.00  0.00     0.029 A 
ATOM     32  C   UNL     1       8.722 -10.389  -2.526  1.00  0.00     0.049 A 
ATOM     33  H   UNL     1       7.579  -8.702  -1.992  1.00  0.00     0.167 HD
ATOM     34  C   UNL     1       8.168 -10.758  -0.134  1.00  0.00     0.074 A 
ATOM     35  C   UNL     1       8.109 -11.567   1.067  1.00  0.00     0.031 C 
ATOM     36  C   UNL     1       8.690 -11.168  -1.315  1.00  0.00     0.037 A 
BRANCH  23  37
ATOM     37  C   UNL     1       7.937  -7.098  -5.909  1.00  0.00     0.064 A 
ATOM     38  C   UNL     1       8.748  -6.001  -6.247  1.00  0.00     0.173 A 
ATOM     39  C   UNL     1       7.363  -7.834  -6.952  1.00  0.00     0.173 A 
ATOM     40  F   UNL     1       9.314  -5.255  -5.286  1.00  0.00    -0.203 F 
ATOM     41  C   UNL     1       8.954  -5.641  -7.576  1.00  0.00     0.198 A 
ATOM     42  C   UNL     1       7.594  -7.487  -8.282  1.00  0.00     0.198 A 
ATOM     43  F   UNL     1       6.581  -8.890  -6.685  1.00  0.00    -0.203 F 
ATOM     44  F   UNL     1       9.695  -4.564  -7.870  1.00  0.00    -0.200 F 
ATOM     45  C   UNL     1       8.383  -6.389  -8.592  1.00  0.00     0.200 A 
ATOM     46  F   UNL     1       7.048  -8.216  -9.266  1.00  0.00    -0.200 F 
ATOM     47  F   UNL     1       8.587  -6.048  -9.872  1.00  0.00    -0.200 F 
ENDBRANCH  23  37
BRANCH  24  48
ATOM     48  C   UNL     1       6.704  -8.746   3.820  1.00  0.00     0.064 A 
ATOM     49  C   UNL     1       7.587  -8.871   4.896  1.00  0.00     0.173 A 
ATOM     50  C   UNL     1       5.364  -9.107   4.050  1.00  0.00     0.173 A 
ATOM     51  F   UNL     1       8.895  -8.647   4.714  1.00  0.00    -0.203 F 
ATOM     52  C   UNL     1       7.143  -9.318   6.146  1.00  0.00     0.198 A 
ATOM     53  C   UNL     1       4.909  -9.499   5.308  1.00  0.00     0.198 A 
ATOM     54  F   UNL     1       4.502  -9.191   3.032  1.00  0.00    -0.203 F 
ATOM     55  F   UNL     1       8.025  -9.508   7.137  1.00  0.00    -0.200 F 
ATOM     56  C   UNL     1       5.803  -9.613   6.356  1.00  0.00     0.200 A 
ATOM     57  F   UNL     1       3.618  -9.817   5.484  1.00  0.00    -0.200 F 
ATOM     58  F   UNL     1       5.384 -10.053   7.550  1.00  0.00    -0.200 F 
ENDBRANCH  24  48
BRANCH  36  59
ATOM     59  C   UNL     1       9.419 -12.473  -1.314  1.00  0.00     0.064 A 
ATOM     60  C   UNL     1       8.766 -13.708  -1.250  1.00  0.00     0.173 A 
ATOM     61  C   UNL     1      10.821 -12.466  -1.400  1.00  0.00     0.173 A 
ATOM     62  F   UNL     1       7.431 -13.761  -1.132  1.00  0.00    -0.203 F 
ATOM     63  C   UNL     1       9.494 -14.894  -1.256  1.00  0.00     0.198 A 
ATOM     64  C   UNL     1      11.542 -13.652  -1.446  1.00  0.00     0.198 A 
ATOM     65  F   UNL     1      11.491 -11.304  -1.455  1.00  0.00    -0.203 F 
ATOM     66  F   UNL     1       8.858 -16.067  -1.136  1.00  0.00    -0.200 F 
ATOM     67  C   UNL     1      10.878 -14.865  -1.365  1.00  0.00     0.200 A 
ATOM     68  F   UNL     1      12.876 -13.619  -1.565  1.00  0.00    -0.200 F 
ATOM     69  F   UNL     1      11.574 -16.010  -1.383  1.00  0.00    -0.200 F 
ENDBRANCH  36  59
ENDBRANCH  10  11
ENDBRANCH   3   5
ENDBRANCH   2   3
ENDBRANCH   1   2
BRANCH   1  70
ATOM     70  C   UNL     1       3.806   0.354   2.173  1.00  0.00     0.275 C 
BRANCH  70  71
ATOM     71  O   UNL     1       3.355  -1.006   2.019  1.00  0.00    -0.458 OA
BRANCH  71  72
ATOM     72  C   UNL     1       2.014  -1.178   2.155  1.00  0.00     0.338 C 
ATOM     73  O   UNL     1       1.207  -0.305   2.447  1.00  0.00    -0.246 OA
BRANCH  72  74
ATOM     74  C   UNL     1       1.594  -2.548   1.775  1.00  0.00     0.060 A 
ATOM     75  C   UNL     1       0.587  -2.684   0.817  1.00  0.00     0.018 A 
ATOM     76  C   UNL     1       2.132  -3.695   2.358  1.00  0.00     0.022 A 
ATOM     77  C   UNL     1       0.129  -3.955   0.435  1.00  0.00     0.027 A 
ATOM     78  C   UNL     1       1.642  -4.979   1.993  1.00  0.00    -0.017 A 
ATOM     79  C   UNL     1       0.616  -5.118   1.040  1.00  0.00     0.038 A 
ATOM     80  C   UNL     1       2.240  -6.214   2.616  1.00  0.00     0.049 C 
ATOM     81  N   UNL     1       0.116  -6.369   0.672  1.00  0.00    -0.378 N 
ATOM     82  C   UNL     1       3.692  -6.325   2.300  1.00  0.00    -0.023 C 
ATOM     83  C   UNL     1       1.753  -7.544   2.035  1.00  0.00     0.031 C 
ATOM     84  C   UNL     1       0.303  -7.506   1.575  1.00  0.00     0.114 C 
ATOM     85  H   UNL     1      -0.356  -6.485  -0.184  1.00  0.00     0.161 HD
ATOM     86  C   UNL     1       3.936  -7.207   1.326  1.00  0.00    -0.030 C 
ATOM     87  C   UNL     1       2.717  -7.914   0.896  1.00  0.00     0.034 C 
BRANCH  84  88
ATOM     88  C   UNL     1      -0.022  -8.880   0.982  1.00  0.00    -0.022 A 
ATOM     89  C   UNL     1       0.101 -10.012   1.815  1.00  0.00     0.026 A 
ATOM     90  C   UNL     1      -0.263  -9.111  -0.375  1.00  0.00     0.026 A 
ATOM     91  C   UNL     1       0.044 -11.282   1.263  1.00  0.00     0.111 A 
ATOM     92  C   UNL     1      -0.336 -10.424  -0.828  1.00  0.00     0.111 A 
ATOM     93  N   UNL     1      -0.178 -11.512  -0.043  1.00  0.00    -0.265 NA
ENDBRANCH  84  88
ENDBRANCH  72  74
ENDBRANCH  71  72
ENDBRANCH  70  71
ENDBRANCH   1  70
TORSDOF 12
