REMARK SMILES Cc1ccc([C@H](C)NC(=O)CC2(C(=O)OCCOC(=O)c3ccc(-c4c5nc(c(-c6c(F)c(F)c(F)c(F)c6F)c6ccc([nH]6)c(-c6c(F)c(F)c(F)c(F)c6F)c6nc(c(-c7c(F)c(F)c(F)c(F)c7F)c7ccc4[nH]7)C=C6)C=C5)cc3)CCCC2)o1
REMARK SMILES IDX 16 1 15 2 13 3 14 4 12 5 84 6 87 7 85 8 86 9 11 10 9 11 8 12
REMARK SMILES IDX 10 14 6 15 7 16 5 17 1 18 2 19 3 20 88 21 4 22 17 23 18 24
REMARK SMILES IDX 19 25 20 26 21 27 22 28 83 29 23 30 82 31 24 32 25 33 26 34
REMARK SMILES IDX 76 35 27 36 81 37 75 38 77 39 28 40 80 41 74 42 73 43 29 45
REMARK SMILES IDX 61 46 41 47 60 48 42 49 45 50 59 51 78 52 43 53 44 54 58 56
REMARK SMILES IDX 79 57 46 58 30 59 31 60 39 61 32 62 33 63 37 64 40 65 34 66
REMARK SMILES IDX 35 67 38 68 36 69 62 70 63 71 71 72 64 73 65 74 69 75 72 76
REMARK SMILES IDX 66 77 67 78 70 79 68 80 47 81 48 82 56 83 49 84 50 85 54 86
REMARK SMILES IDX 57 87 51 88 52 89 55 90 53 91
REMARK H PARENT 8 13 77 44 45 55
REMARK Flexibility Score: inf
ROOT
ATOM      1  C   UNL     1      -1.159  -0.597   0.455  1.00  0.00     0.274 C 
ENDROOT
BRANCH   1   2
ATOM      2  O   UNL     1      -2.143  -0.952  -0.636  1.00  0.00    -0.462 OA
BRANCH   2   3
ATOM      3  C   UNL     1      -3.498  -1.203  -0.355  1.00  0.00     0.312 C 
ATOM      4  O   UNL     1      -3.910  -1.351   0.792  1.00  0.00    -0.252 OA
BRANCH   3   5
ATOM      5  C   UNL     1      -4.507  -1.095  -1.628  1.00  0.00     0.077 C 
ATOM      6  C   UNL     1      -5.431  -2.345  -1.630  1.00  0.00     0.019 C 
ATOM      7  C   UNL     1      -3.768  -1.270  -2.962  1.00  0.00     0.019 C 
ATOM      8  C   UNL     1      -4.610  -3.463  -2.221  1.00  0.00     0.001 C 
ATOM      9  C   UNL     1      -3.638  -2.782  -3.175  1.00  0.00     0.001 C 
BRANCH   5  10
ATOM     10  C   UNL     1      -5.585   0.081  -1.652  1.00  0.00     0.118 C 
BRANCH  10  11
ATOM     11  C   UNL     1      -5.298   1.561  -1.960  1.00  0.00     0.221 C 
ATOM     12  N   UNL     1      -5.135   2.401  -0.859  1.00  0.00    -0.346 N 
ATOM     13  H   UNL     1      -5.542   3.295  -0.801  1.00  0.00     0.164 HD
ATOM     14  O   UNL     1      -5.180   1.998  -3.100  1.00  0.00    -0.275 OA
BRANCH  12  15
ATOM     15  C   UNL     1      -4.325   1.845   0.175  1.00  0.00     0.145 C 
ATOM     16  C   UNL     1      -3.045   1.528  -0.568  1.00  0.00     0.039 C 
BRANCH  15  17
ATOM     17  C   UNL     1      -4.013   2.537   1.482  1.00  0.00     0.126 A 
ATOM     18  C   UNL     1      -2.765   5.573   2.936  1.00  0.00     0.087 C 
ATOM     19  C   UNL     1      -3.205   4.176   2.715  1.00  0.00     0.101 A 
ATOM     20  C   UNL     1      -2.898   3.013   3.385  1.00  0.00     0.045 A 
ATOM     21  O   UNL     1      -3.962   3.900   1.600  1.00  0.00    -0.464 OA
ATOM     22  C   UNL     1      -3.441   1.965   2.614  1.00  0.00     0.048 A 
ENDBRANCH  15  17
ENDBRANCH  12  15
ENDBRANCH  10  11
ENDBRANCH   5  10
ENDBRANCH   3   5
ENDBRANCH   2   3
ENDBRANCH   1   2
BRANCH   1  23
ATOM     23  C   UNL     1      -0.076   0.634   0.159  1.00  0.00     0.275 C 
BRANCH  23  24
ATOM     24  O   UNL     1      -0.546   2.071   0.172  1.00  0.00    -0.458 OA
BRANCH  24  25
ATOM     25  C   UNL     1       0.170   3.131  -0.387  1.00  0.00     0.338 C 
ATOM     26  O   UNL     1       1.326   3.034  -0.754  1.00  0.00    -0.246 OA
BRANCH  25  27
ATOM     27  C   UNL     1      -0.659   4.434  -0.631  1.00  0.00     0.060 A 
ATOM     28  C   UNL     1      -2.019   4.387  -0.466  1.00  0.00     0.016 A 
ATOM     29  C   UNL     1      -0.234   5.673  -1.117  1.00  0.00     0.016 A 
ATOM     30  C   UNL     1      -2.959   5.316  -0.931  1.00  0.00     0.010 A 
ATOM     31  C   UNL     1      -1.181   6.737  -1.436  1.00  0.00     0.010 A 
ATOM     32  C   UNL     1      -2.586   6.562  -1.369  1.00  0.00    -0.014 A 
BRANCH  32  33
ATOM     33  C   UNL     1      -3.680   7.543  -1.772  1.00  0.00     0.031 A 
ATOM     34  C   UNL     1      -3.596   8.219  -3.115  1.00  0.00     0.074 A 
ATOM     35  C   UNL     1      -4.846   7.747  -1.093  1.00  0.00     0.049 A 
ATOM     36  N   UNL     1      -4.155   9.323  -3.541  1.00  0.00    -0.248 NA
ATOM     37  C   UNL     1      -2.791   7.525  -4.130  1.00  0.00     0.031 C 
ATOM     38  C   UNL     1      -5.318   7.008   0.083  1.00  0.00     0.029 A 
ATOM     39  N   UNL     1      -5.884   8.644  -1.314  1.00  0.00    -0.354 N 
ATOM     40  C   UNL     1      -3.670   9.521  -4.828  1.00  0.00     0.074 A 
ATOM     41  C   UNL     1      -2.832   8.382  -5.140  1.00  0.00     0.031 C 
ATOM     42  C   UNL     1      -6.531   7.449   0.452  1.00  0.00     0.029 A 
ATOM     43  C   UNL     1      -6.870   8.617  -0.344  1.00  0.00     0.049 A 
ATOM     44  H   UNL     1      -5.916   9.246  -2.092  1.00  0.00     0.167 HD
ATOM     45  C   UNL     1      -3.874  10.585  -5.644  1.00  0.00     0.037 A 
ATOM     46  C   UNL     1      -7.870   9.479  -0.048  1.00  0.00     0.037 A 
ATOM     47  C   UNL     1      -4.789  11.659  -5.349  1.00  0.00     0.049 A 
ATOM     48  C   UNL     1      -7.999  10.739  -0.868  1.00  0.00     0.074 A 
ATOM     49  C   UNL     1      -5.009  12.835  -6.046  1.00  0.00     0.029 A 
ATOM     50  N   UNL     1      -5.670  11.662  -4.278  1.00  0.00    -0.354 N 
ATOM     51  N   UNL     1      -7.347  11.089  -1.949  1.00  0.00    -0.248 NA
ATOM     52  C   UNL     1      -8.963  11.748  -0.400  1.00  0.00     0.031 C 
ATOM     53  C   UNL     1      -5.989  13.570  -5.368  1.00  0.00     0.029 A 
ATOM     54  C   UNL     1      -6.423  12.825  -4.284  1.00  0.00     0.049 A 
ATOM     55  H   UNL     1      -5.749  10.943  -3.610  1.00  0.00     0.167 HD
ATOM     56  C   UNL     1      -7.826  12.345  -2.297  1.00  0.00     0.074 A 
ATOM     57  C   UNL     1      -8.843  12.689  -1.326  1.00  0.00     0.031 C 
ATOM     58  C   UNL     1      -7.447  13.146  -3.322  1.00  0.00     0.037 A 
BRANCH  45  59
ATOM     59  C   UNL     1      -2.986  10.706  -6.849  1.00  0.00     0.064 A 
ATOM     60  C   UNL     1      -3.109   9.890  -7.981  1.00  0.00     0.173 A 
ATOM     61  C   UNL     1      -1.962  11.669  -6.846  1.00  0.00     0.173 A 
ATOM     62  F   UNL     1      -4.057   8.941  -8.031  1.00  0.00    -0.203 F 
ATOM     63  C   UNL     1      -2.217  10.006  -9.047  1.00  0.00     0.198 A 
ATOM     64  C   UNL     1      -1.093  11.804  -7.925  1.00  0.00     0.198 A 
ATOM     65  F   UNL     1      -1.799  12.480  -5.790  1.00  0.00    -0.203 F 
ATOM     66  F   UNL     1      -2.311   9.171 -10.091  1.00  0.00    -0.200 F 
ATOM     67  C   UNL     1      -1.213  10.964  -9.020  1.00  0.00     0.200 A 
ATOM     68  F   UNL     1      -0.134  12.739  -7.898  1.00  0.00    -0.200 F 
ATOM     69  F   UNL     1      -0.353  11.069 -10.042  1.00  0.00    -0.200 F 
ENDBRANCH  45  59
BRANCH  46  70
ATOM     70  C   UNL     1      -8.732   9.286   1.166  1.00  0.00     0.064 A 
ATOM     71  C   UNL     1     -10.130   9.176   1.075  1.00  0.00     0.173 A 
ATOM     72  C   UNL     1      -8.180   9.287   2.460  1.00  0.00     0.173 A 
ATOM     73  F   UNL     1     -10.728   9.224  -0.125  1.00  0.00    -0.203 F 
ATOM     74  C   UNL     1     -10.931   9.083   2.217  1.00  0.00     0.198 A 
ATOM     75  C   UNL     1      -8.976   9.152   3.598  1.00  0.00     0.198 A 
ATOM     76  F   UNL     1      -6.856   9.425   2.627  1.00  0.00    -0.203 F 
ATOM     77  F   UNL     1     -12.265   9.046   2.098  1.00  0.00    -0.200 F 
ATOM     78  C   UNL     1     -10.352   9.060   3.477  1.00  0.00     0.200 A 
ATOM     79  F   UNL     1      -8.408   9.126   4.811  1.00  0.00    -0.200 F 
ATOM     80  F   UNL     1     -11.120   8.970   4.572  1.00  0.00    -0.200 F 
ENDBRANCH  46  70
BRANCH  58  81
ATOM     81  C   UNL     1      -8.169  14.451  -3.482  1.00  0.00     0.064 A 
ATOM     82  C   UNL     1      -7.962  15.524  -2.603  1.00  0.00     0.173 A 
ATOM     83  C   UNL     1      -9.047  14.644  -4.560  1.00  0.00     0.173 A 
ATOM     84  F   UNL     1      -7.147  15.385  -1.546  1.00  0.00    -0.203 F 
ATOM     85  C   UNL     1      -8.624  16.736  -2.786  1.00  0.00     0.198 A 
ATOM     86  C   UNL     1      -9.682  15.866  -4.758  1.00  0.00     0.198 A 
ATOM     87  F   UNL     1      -9.276  13.649  -5.431  1.00  0.00    -0.203 F 
ATOM     88  F   UNL     1      -8.446  17.734  -1.910  1.00  0.00    -0.200 F 
ATOM     89  C   UNL     1      -9.475  16.909  -3.868  1.00  0.00     0.200 A 
ATOM     90  F   UNL     1     -10.493  16.034  -5.811  1.00  0.00    -0.200 F 
ATOM     91  F   UNL     1     -10.102  18.079  -4.049  1.00  0.00    -0.200 F 
ENDBRANCH  58  81
ENDBRANCH  32  33
ENDBRANCH  25  27
ENDBRANCH  24  25
ENDBRANCH  23  24
ENDBRANCH   1  23
TORSDOF 15
