REMARK SMILES COc1cccc([C@@H]2[NH2+][C@@](C)(C(=O)OCCOC(=O)c3ccc(-c4c5nc(c(-c6c(F)c(F)c(F)c(F)c6F)c6ccc([nH]6)c(-c6c(F)c(F)c(F)c(F)c6F)c6nc(c(-c7c(F)c(F)c(F)c(F)c7F)c7ccc4[nH]7)C=C6)C=C5)cc3)[C@@H]3C(=O)N(C)C(=O)[C@@H]32)c1O
REMARK SMILES IDX 15 1 14 2 12 3 13 4 10 5 8 6 9 7 90 8 83 11 88 12 11 13
REMARK SMILES IDX 84 14 86 15 89 16 85 17 87 18 7 19 3 20 4 21 91 22 5 23 6 24
REMARK SMILES IDX 2 25 1 26 92 27 16 29 17 30 18 31 19 32 20 33 21 34 82 35
REMARK SMILES IDX 22 36 81 37 23 38 24 39 25 40 75 41 26 42 80 43 74 44 76 45
REMARK SMILES IDX 27 46 79 47 73 48 72 49 28 51 60 52 40 53 59 54 41 55 44 56
REMARK SMILES IDX 58 57 77 58 42 59 43 60 57 62 78 63 45 64 29 65 30 66 38 67
REMARK SMILES IDX 31 68 32 69 36 70 39 71 33 72 34 73 37 74 35 75 61 76 62 77
REMARK SMILES IDX 70 78 63 79 64 80 68 81 71 82 65 83 66 84 69 85 67 86 46 87
REMARK SMILES IDX 47 88 55 89 48 90 49 91 53 92 56 93 50 94 51 95 54 96 52 97
REMARK H PARENT 9 9 9 10 92 28 76 50 44 61
REMARK Flexibility Score: inf
ROOT
ATOM      1  C   UNL     1      -6.804  -3.734  -3.597  1.00  0.00     0.274 C 
ENDROOT
BRANCH   1   2
ATOM      2  O   UNL     1      -5.731  -3.012  -2.959  1.00  0.00    -0.457 OA
BRANCH   2   3
ATOM      3  C   UNL     1      -4.527  -3.643  -2.924  1.00  0.00     0.368 C 
ATOM      4  O   UNL     1      -4.318  -4.746  -3.424  1.00  0.00    -0.245 OA
BRANCH   3   5
ATOM      5  C   UNL     1      -3.417  -2.858  -2.170  1.00  0.00     0.204 C 
ATOM      6  C   UNL     1      -3.096  -0.569  -2.887  1.00  0.00     0.232 C 
ATOM      7  N   UNL     1      -3.795  -1.438  -1.913  1.00  0.00    -0.325 N 
ATOM      8  C   UNL     1      -2.286  -1.476  -3.803  1.00  0.00     0.161 C 
ATOM      9  H   UNL     1      -4.804  -1.329  -2.018  1.00  0.00     0.347 HD
ATOM     10  H   UNL     1      -3.528  -1.177  -0.964  1.00  0.00     0.347 HD
ATOM     11  C   UNL     1      -2.208  -2.816  -3.095  1.00  0.00     0.170 C 
ATOM     12  C   UNL     1      -0.843  -1.143  -4.054  1.00  0.00     0.239 C 
ATOM     13  C   UNL     1      -3.228  -3.610  -0.851  1.00  0.00     0.093 C 
ATOM     14  C   UNL     1      -0.809  -2.849  -2.540  1.00  0.00     0.240 C 
ATOM     15  N   UNL     1      -0.072  -1.932  -3.246  1.00  0.00    -0.285 N 
ATOM     16  O   UNL     1      -0.451  -0.325  -4.872  1.00  0.00    -0.274 OA
ATOM     17  O   UNL     1      -0.384  -3.653  -1.728  1.00  0.00    -0.274 OA
ATOM     18  C   UNL     1       1.367  -1.851  -3.205  1.00  0.00     0.156 C 
BRANCH   6  19
ATOM     19  C   UNL     1      -2.321   0.581  -2.273  1.00  0.00     0.056 A 
ATOM     20  C   UNL     1      -0.661   1.498  -0.736  1.00  0.00     0.161 A 
ATOM     21  C   UNL     1      -0.734   2.738  -1.362  1.00  0.00     0.050 A 
ATOM     22  C   UNL     1      -1.483   0.448  -1.160  1.00  0.00     0.166 A 
ATOM     23  C   UNL     1      -1.596   2.910  -2.444  1.00  0.00     0.005 A 
ATOM     24  C   UNL     1      -2.369   1.839  -2.904  1.00  0.00     0.014 A 
BRANCH  20  25
ATOM     25  O   UNL     1       0.187   1.361   0.331  1.00  0.00    -0.493 OA
ATOM     26  C   UNL     1       1.256   0.446   0.062  1.00  0.00     0.278 C 
ENDBRANCH  20  25
BRANCH  22  27
ATOM     27  O   UNL     1      -1.481  -0.728  -0.462  1.00  0.00    -0.504 OA
ATOM     28  H   UNL     1      -0.924  -0.829   0.285  1.00  0.00     0.293 HD
ENDBRANCH  22  27
ENDBRANCH   6  19
ENDBRANCH   3   5
ENDBRANCH   2   3
ENDBRANCH   1   2
BRANCH   1  29
ATOM     29  C   UNL     1      -7.075  -3.184  -4.995  1.00  0.00     0.275 C 
BRANCH  29  30
ATOM     30  O   UNL     1      -5.909  -3.362  -5.819  1.00  0.00    -0.458 OA
BRANCH  30  31
ATOM     31  C   UNL     1      -5.475  -2.262  -6.472  1.00  0.00     0.338 C 
ATOM     32  O   UNL     1      -6.002  -1.159  -6.491  1.00  0.00    -0.246 OA
BRANCH  31  33
ATOM     33  C   UNL     1      -4.190  -2.531  -7.152  1.00  0.00     0.060 A 
ATOM     34  C   UNL     1      -3.218  -3.326  -6.547  1.00  0.00     0.016 A 
ATOM     35  C   UNL     1      -3.879  -1.836  -8.321  1.00  0.00     0.016 A 
ATOM     36  C   UNL     1      -1.901  -3.286  -7.010  1.00  0.00     0.010 A 
ATOM     37  C   UNL     1      -2.592  -1.921  -8.865  1.00  0.00     0.010 A 
ATOM     38  C   UNL     1      -1.565  -2.602  -8.189  1.00  0.00    -0.014 A 
BRANCH  38  39
ATOM     39  C   UNL     1      -0.160  -2.571  -8.709  1.00  0.00     0.031 A 
ATOM     40  C   UNL     1       0.483  -1.261  -9.106  1.00  0.00     0.074 A 
ATOM     41  C   UNL     1       0.555  -3.706  -8.857  1.00  0.00     0.049 A 
ATOM     42  N   UNL     1       1.535  -1.046  -9.858  1.00  0.00    -0.248 NA
ATOM     43  C   UNL     1      -0.159  -0.032  -8.616  1.00  0.00     0.031 C 
ATOM     44  C   UNL     1       0.112  -5.049  -8.484  1.00  0.00     0.029 A 
ATOM     45  N   UNL     1       1.816  -3.910  -9.369  1.00  0.00    -0.354 N 
ATOM     46  C   UNL     1       1.624   0.335 -10.006  1.00  0.00     0.074 A 
ATOM     47  C   UNL     1       0.527   0.908  -9.254  1.00  0.00     0.031 C 
ATOM     48  C   UNL     1       1.097  -5.925  -8.724  1.00  0.00     0.029 A 
ATOM     49  C   UNL     1       2.192  -5.231  -9.389  1.00  0.00     0.049 A 
ATOM     50  H   UNL     1       2.393  -3.179  -9.689  1.00  0.00     0.167 HD
ATOM     51  C   UNL     1       2.533   1.053 -10.710  1.00  0.00     0.037 A 
ATOM     52  C   UNL     1       3.261  -5.840  -9.937  1.00  0.00     0.037 A 
ATOM     53  C   UNL     1       3.685   0.488 -11.368  1.00  0.00     0.049 A 
ATOM     54  C   UNL     1       4.259  -5.027 -10.708  1.00  0.00     0.074 A 
ATOM     55  C   UNL     1       4.681   1.138 -12.079  1.00  0.00     0.029 A 
ATOM     56  N   UNL     1       4.014  -0.859 -11.365  1.00  0.00    -0.354 N 
ATOM     57  N   UNL     1       4.276  -3.737 -10.934  1.00  0.00    -0.248 NA
ATOM     58  C   UNL     1       5.371  -5.762 -11.327  1.00  0.00     0.031 C 
ATOM     59  C   UNL     1       5.599   0.182 -12.527  1.00  0.00     0.029 A 
ATOM     60  C   UNL     1       5.196  -1.059 -12.063  1.00  0.00     0.049 A 
ATOM     61  H   UNL     1       3.487  -1.568 -10.932  1.00  0.00     0.167 HD
ATOM     62  C   UNL     1       5.397  -3.504 -11.717  1.00  0.00     0.074 A 
ATOM     63  C   UNL     1       6.051  -4.782 -11.906  1.00  0.00     0.031 C 
ATOM     64  C   UNL     1       5.838  -2.335 -12.241  1.00  0.00     0.037 A 
BRANCH  51  65
ATOM     65  C   UNL     1       2.315   2.534 -10.840  1.00  0.00     0.064 A 
ATOM     66  C   UNL     1       2.525   3.420  -9.774  1.00  0.00     0.173 A 
ATOM     67  C   UNL     1       1.950   3.081 -12.082  1.00  0.00     0.173 A 
ATOM     68  F   UNL     1       2.872   2.952  -8.566  1.00  0.00    -0.203 F 
ATOM     69  C   UNL     1       2.355   4.794  -9.940  1.00  0.00     0.198 A 
ATOM     70  C   UNL     1       1.810   4.455 -12.252  1.00  0.00     0.198 A 
ATOM     71  F   UNL     1       1.750   2.280 -13.141  1.00  0.00    -0.203 F 
ATOM     72  F   UNL     1       2.525   5.619  -8.898  1.00  0.00    -0.200 F 
ATOM     73  C   UNL     1       2.006   5.311 -11.179  1.00  0.00     0.200 A 
ATOM     74  F   UNL     1       1.491   4.953 -13.455  1.00  0.00    -0.200 F 
ATOM     75  F   UNL     1       1.857   6.633 -11.339  1.00  0.00    -0.200 F 
ENDBRANCH  51  65
BRANCH  52  76
ATOM     76  C   UNL     1       3.401  -7.315  -9.825  1.00  0.00     0.064 A 
ATOM     77  C   UNL     1       4.409  -7.884  -9.036  1.00  0.00     0.173 A 
ATOM     78  C   UNL     1       2.516  -8.184 -10.482  1.00  0.00     0.173 A 
ATOM     79  F   UNL     1       5.295  -7.095  -8.411  1.00  0.00    -0.203 F 
ATOM     80  C   UNL     1       4.527  -9.266  -8.909  1.00  0.00     0.198 A 
ATOM     81  C   UNL     1       2.615  -9.564 -10.328  1.00  0.00     0.198 A 
ATOM     82  F   UNL     1       1.534  -7.689 -11.250  1.00  0.00    -0.203 F 
ATOM     83  F   UNL     1       5.521  -9.787  -8.176  1.00  0.00    -0.200 F 
ATOM     84  C   UNL     1       3.623 -10.105  -9.545  1.00  0.00     0.200 A 
ATOM     85  F   UNL     1       1.727 -10.368 -10.929  1.00  0.00    -0.200 F 
ATOM     86  F   UNL     1       3.727 -11.433  -9.408  1.00  0.00    -0.200 F 
ENDBRANCH  52  76
BRANCH  64  87
ATOM     87  C   UNL     1       7.104  -2.383 -13.042  1.00  0.00     0.064 A 
ATOM     88  C   UNL     1       7.133  -2.923 -14.336  1.00  0.00     0.173 A 
ATOM     89  C   UNL     1       8.299  -1.872 -12.514  1.00  0.00     0.173 A 
ATOM     90  F   UNL     1       6.019  -3.442 -14.875  1.00  0.00    -0.203 F 
ATOM     91  C   UNL     1       8.319  -2.970 -15.064  1.00  0.00     0.198 A 
ATOM     92  C   UNL     1       9.477  -1.899 -13.254  1.00  0.00     0.198 A 
ATOM     93  F   UNL     1       8.321  -1.344 -11.281  1.00  0.00    -0.203 F 
ATOM     94  F   UNL     1       8.334  -3.533 -16.280  1.00  0.00    -0.200 F 
ATOM     95  C   UNL     1       9.488  -2.454 -14.524  1.00  0.00     0.200 A 
ATOM     96  F   UNL     1      10.605  -1.394 -12.734  1.00  0.00    -0.200 F 
ATOM     97  F   UNL     1      10.629  -2.503 -15.226  1.00  0.00    -0.200 F 
ENDBRANCH  64  87
ENDBRANCH  38  39
ENDBRANCH  31  33
ENDBRANCH  30  31
ENDBRANCH  29  30
ENDBRANCH   1  29
TORSDOF 14
