REMARK SMILES Cc1[nH]cnc1C[NH+]1CCC(Oc2cccc(F)c2)(C(=O)OCCOC(=O)c2ccc(-c3c4nc(c(-c5c(F)c(F)c(F)c(F)c5F)c5ccc([nH]5)c(-c5c(F)c(F)c(F)c(F)c5F)c5nc(c(-c6c(F)c(F)c(F)c(F)c6F)c6ccc3[nH]6)C=C5)C=C4)cc2)CC1
REMARK SMILES IDX 23 1 22 2 20 3 21 4 11 5 8 6 9 7 92 8 10 10 91 11 7 12 6 13
REMARK SMILES IDX 1 14 2 15 3 16 4 17 5 19 12 20 13 21 14 22 19 23 15 24 17 25
REMARK SMILES IDX 16 26 18 27 24 28 25 29 26 30 27 31 28 32 29 33 90 34 30 35
REMARK SMILES IDX 89 36 31 37 32 38 33 39 83 40 34 41 88 42 82 43 84 44 35 45
REMARK SMILES IDX 87 46 81 47 80 48 36 50 68 51 48 52 67 53 49 54 52 55 66 56
REMARK SMILES IDX 85 57 50 58 51 59 65 61 86 62 53 63 37 64 38 65 46 66 39 67
REMARK SMILES IDX 40 68 44 69 47 70 41 71 42 72 45 73 43 74 69 75 70 76 78 77
REMARK SMILES IDX 71 78 72 79 76 80 79 81 73 82 74 83 77 84 75 85 54 86 55 87
REMARK SMILES IDX 63 88 56 89 57 90 61 91 64 92 58 93 59 94 62 95 60 96
REMARK H PARENT 8 9 3 18 84 49 52 60
REMARK Flexibility Score: inf
ROOT
ATOM      1  C   UNL     1      -2.364  -0.488   5.456  1.00  0.00     0.274 C 
ENDROOT
BRANCH   1   2
ATOM      2  O   UNL     1      -1.506  -1.467   4.834  1.00  0.00    -0.459 OA
BRANCH   2   3
ATOM      3  C   UNL     1      -2.143  -2.543   4.290  1.00  0.00     0.351 C 
ATOM      4  O   UNL     1      -3.366  -2.636   4.204  1.00  0.00    -0.247 OA
BRANCH   3   5
ATOM      5  C   UNL     1      -1.192  -3.689   3.905  1.00  0.00     0.216 C 
ATOM      6  N   UNL     1       0.355  -3.332   1.464  1.00  0.00    -0.330 N 
ATOM      7  C   UNL     1       0.744  -2.569   2.651  1.00  0.00     0.267 C 
ATOM      8  C   UNL     1      -1.098  -3.418   1.367  1.00  0.00     0.267 C 
ATOM      9  H   UNL     1       0.728  -4.272   1.592  1.00  0.00     0.348 HD
ATOM     10  C   UNL     1       0.301  -3.323   3.905  1.00  0.00     0.122 C 
ATOM     11  C   UNL     1      -1.627  -4.255   2.532  1.00  0.00     0.122 C 
BRANCH   6  12
ATOM     12  C   UNL     1       0.979  -2.868   0.211  1.00  0.00     0.321 C 
BRANCH  12  13
ATOM     13  C   UNL     1       0.793  -1.410  -0.090  1.00  0.00     0.115 A 
ATOM     14  C   UNL     1       3.083  -0.305   0.565  1.00  0.00     0.066 C 
ATOM     15  C   UNL     1       1.691  -0.366   0.072  1.00  0.00     0.040 A 
ATOM     16  N   UNL     1       1.015   0.751  -0.343  1.00  0.00    -0.348 N 
ATOM     17  C   UNL     1      -0.201   0.350  -0.808  1.00  0.00     0.197 A 
ATOM     18  H   UNL     1       1.347   1.677  -0.311  1.00  0.00     0.167 HD
ATOM     19  N   UNL     1      -0.372  -0.944  -0.665  1.00  0.00    -0.236 NA
ENDBRANCH  12  13
ENDBRANCH   6  12
BRANCH   5  20
ATOM     20  O   UNL     1      -1.450  -4.532   5.073  1.00  0.00    -0.475 OA
BRANCH  20  21
ATOM     21  C   UNL     1      -1.524  -5.874   4.862  1.00  0.00     0.123 A 
ATOM     22  C   UNL     1      -0.377  -6.654   4.998  1.00  0.00     0.047 A 
ATOM     23  C   UNL     1      -2.761  -6.464   4.617  1.00  0.00     0.085 A 
ATOM     24  C   UNL     1      -0.454  -8.036   4.827  1.00  0.00     0.007 A 
ATOM     25  C   UNL     1      -2.825  -7.841   4.446  1.00  0.00     0.126 A 
ATOM     26  C   UNL     1      -1.683  -8.631   4.541  1.00  0.00     0.039 A 
ATOM     27  F   UNL     1      -4.005  -8.420   4.186  1.00  0.00    -0.207 F 
ENDBRANCH  20  21
ENDBRANCH   5  20
ENDBRANCH   3   5
ENDBRANCH   2   3
ENDBRANCH   1   2
BRANCH   1  28
ATOM     28  C   UNL     1      -2.639   0.683   4.519  1.00  0.00     0.275 C 
BRANCH  28  29
ATOM     29  O   UNL     1      -3.288   0.206   3.330  1.00  0.00    -0.458 OA
BRANCH  29  30
ATOM     30  C   UNL     1      -2.780   0.657   2.164  1.00  0.00     0.338 C 
ATOM     31  O   UNL     1      -1.897   1.496   2.027  1.00  0.00    -0.246 OA
BRANCH  30  32
ATOM     32  C   UNL     1      -3.445   0.003   1.016  1.00  0.00     0.060 A 
ATOM     33  C   UNL     1      -3.843  -1.335   1.059  1.00  0.00     0.016 A 
ATOM     34  C   UNL     1      -3.551   0.720  -0.178  1.00  0.00     0.016 A 
ATOM     35  C   UNL     1      -4.215  -1.991  -0.115  1.00  0.00     0.010 A 
ATOM     36  C   UNL     1      -3.993   0.083  -1.338  1.00  0.00     0.010 A 
ATOM     37  C   UNL     1      -4.294  -1.286  -1.324  1.00  0.00    -0.014 A 
BRANCH  37  38
ATOM     38  C   UNL     1      -4.753  -1.943  -2.570  1.00  0.00     0.031 A 
ATOM     39  C   UNL     1      -3.840  -2.085  -3.752  1.00  0.00     0.074 A 
ATOM     40  C   UNL     1      -6.030  -2.358  -2.650  1.00  0.00     0.049 A 
ATOM     41  N   UNL     1      -4.137  -2.387  -4.992  1.00  0.00    -0.248 NA
ATOM     42  C   UNL     1      -2.408  -1.859  -3.515  1.00  0.00     0.031 C 
ATOM     43  C   UNL     1      -6.996  -2.326  -1.552  1.00  0.00     0.029 A 
ATOM     44  N   UNL     1      -6.740  -2.866  -3.708  1.00  0.00    -0.354 N 
ATOM     45  C   UNL     1      -2.934  -2.365  -5.686  1.00  0.00     0.074 A 
ATOM     46  C   UNL     1      -1.901  -2.018  -4.732  1.00  0.00     0.031 C 
ATOM     47  C   UNL     1      -8.174  -2.788  -1.992  1.00  0.00     0.029 A 
ATOM     48  C   UNL     1      -8.066  -3.065  -3.420  1.00  0.00     0.049 A 
ATOM     49  H   UNL     1      -6.339  -3.066  -4.585  1.00  0.00     0.167 HD
ATOM     50  C   UNL     1      -2.724  -2.616  -7.000  1.00  0.00     0.037 A 
ATOM     51  C   UNL     1      -9.100  -3.372  -4.224  1.00  0.00     0.037 A 
ATOM     52  C   UNL     1      -3.758  -2.989  -7.932  1.00  0.00     0.049 A 
ATOM     53  C   UNL     1      -8.862  -3.544  -5.692  1.00  0.00     0.074 A 
ATOM     54  C   UNL     1      -3.641  -3.286  -9.279  1.00  0.00     0.029 A 
ATOM     55  N   UNL     1      -5.100  -3.122  -7.609  1.00  0.00    -0.354 N 
ATOM     56  N   UNL     1      -7.737  -3.456  -6.357  1.00  0.00    -0.248 NA
ATOM     57  C   UNL     1     -10.036  -3.833  -6.524  1.00  0.00     0.031 C 
ATOM     58  C   UNL     1      -4.917  -3.564  -9.780  1.00  0.00     0.029 A 
ATOM     59  C   UNL     1      -5.824  -3.475  -8.736  1.00  0.00     0.049 A 
ATOM     60  H   UNL     1      -5.481  -2.986  -6.712  1.00  0.00     0.167 HD
ATOM     61  C   UNL     1      -8.063  -3.680  -7.685  1.00  0.00     0.074 A 
ATOM     62  C   UNL     1      -9.492  -3.918  -7.731  1.00  0.00     0.031 C 
ATOM     63  C   UNL     1      -7.248  -3.686  -8.767  1.00  0.00     0.037 A 
BRANCH  50  64
ATOM     64  C   UNL     1      -1.329  -2.487  -7.534  1.00  0.00     0.064 A 
ATOM     65  C   UNL     1      -0.985  -1.399  -8.352  1.00  0.00     0.173 A 
ATOM     66  C   UNL     1      -0.370  -3.489  -7.333  1.00  0.00     0.173 A 
ATOM     67  F   UNL     1      -1.871  -0.419  -8.582  1.00  0.00    -0.203 F 
ATOM     68  C   UNL     1       0.263  -1.331  -8.966  1.00  0.00     0.198 A 
ATOM     69  C   UNL     1       0.884  -3.409  -7.935  1.00  0.00     0.198 A 
ATOM     70  F   UNL     1      -0.651  -4.547  -6.558  1.00  0.00    -0.203 F 
ATOM     71  F   UNL     1       0.558  -0.301  -9.771  1.00  0.00    -0.200 F 
ATOM     72  C   UNL     1       1.196  -2.336  -8.759  1.00  0.00     0.200 A 
ATOM     73  F   UNL     1       1.790  -4.375  -7.728  1.00  0.00    -0.200 F 
ATOM     74  F   UNL     1       2.394  -2.273  -9.357  1.00  0.00    -0.200 F 
ENDBRANCH  50  64
BRANCH  51  75
ATOM     75  C   UNL     1     -10.454  -3.471  -3.630  1.00  0.00     0.064 A 
ATOM     76  C   UNL     1     -11.127  -2.326  -3.176  1.00  0.00     0.173 A 
ATOM     77  C   UNL     1     -11.050  -4.717  -3.411  1.00  0.00     0.173 A 
ATOM     78  F   UNL     1     -10.588  -1.112  -3.360  1.00  0.00    -0.203 F 
ATOM     79  C   UNL     1     -12.331  -2.431  -2.485  1.00  0.00     0.198 A 
ATOM     80  C   UNL     1     -12.267  -4.818  -2.740  1.00  0.00     0.198 A 
ATOM     81  F   UNL     1     -10.449  -5.833  -3.846  1.00  0.00    -0.203 F 
ATOM     82  F   UNL     1     -12.927  -1.328  -2.012  1.00  0.00    -0.200 F 
ATOM     83  C   UNL     1     -12.898  -3.677  -2.265  1.00  0.00     0.200 A 
ATOM     84  F   UNL     1     -12.822  -6.021  -2.542  1.00  0.00    -0.200 F 
ATOM     85  F   UNL     1     -14.052  -3.778  -1.591  1.00  0.00    -0.200 F 
ENDBRANCH  51  75
BRANCH  63  86
ATOM     86  C   UNL     1      -7.883  -3.961 -10.094  1.00  0.00     0.064 A 
ATOM     87  C   UNL     1      -7.740  -5.214 -10.707  1.00  0.00     0.173 A 
ATOM     88  C   UNL     1      -8.595  -2.966 -10.777  1.00  0.00     0.173 A 
ATOM     89  F   UNL     1      -7.062  -6.194 -10.091  1.00  0.00    -0.203 F 
ATOM     90  C   UNL     1      -8.285  -5.460 -11.963  1.00  0.00     0.198 A 
ATOM     91  C   UNL     1      -9.155  -3.221 -12.026  1.00  0.00     0.198 A 
ATOM     92  F   UNL     1      -8.769  -1.758 -10.221  1.00  0.00    -0.203 F 
ATOM     93  F   UNL     1      -8.124  -6.659 -12.540  1.00  0.00    -0.200 F 
ATOM     94  C   UNL     1      -8.994  -4.465 -12.620  1.00  0.00     0.200 A 
ATOM     95  F   UNL     1      -9.857  -2.266 -12.651  1.00  0.00    -0.200 F 
ATOM     96  F   UNL     1      -9.530  -4.707 -13.824  1.00  0.00    -0.200 F 
ENDBRANCH  63  86
ENDBRANCH  37  38
ENDBRANCH  30  32
ENDBRANCH  29  30
ENDBRANCH  28  29
ENDBRANCH   1  28
TORSDOF 15
