REMARK SMILES CC(C)C[C@H](CNC(=O)[C@H]1CCCCC[C@H]1[NH3+])CC(=O)OCCOC(=O)c1ccc(-c2c3nc(c(-c4c(F)c(F)c(F)c(F)c4F)c4ccc([nH]4)c(-c4c(F)c(F)c(F)c(F)c4F)c4nc(c(-c5c(F)c(F)c(F)c(F)c5F)c5ccc2[nH]5)C=C4)C=C3)cc1
REMARK SMILES IDX 19 1 20 2 18 3 5 4 4 5 2 6 1 7 3 8 6 9 7 10 8 11 9 13 10 14
REMARK SMILES IDX 11 15 12 16 13 17 16 19 15 20 14 21 17 23 21 27 22 28 23 29
REMARK SMILES IDX 24 30 25 31 26 32 27 33 28 34 89 35 29 36 88 37 30 38 31 39
REMARK SMILES IDX 32 40 82 41 33 42 87 43 81 44 83 45 34 46 86 47 80 48 79 49
REMARK SMILES IDX 35 51 67 52 47 53 66 54 48 55 51 56 65 57 84 58 49 59 50 60
REMARK SMILES IDX 64 62 85 63 52 64 36 65 37 66 45 67 38 68 39 69 43 70 46 71
REMARK SMILES IDX 40 72 41 73 44 74 42 75 68 76 69 77 77 78 70 79 71 80 75 81
REMARK SMILES IDX 78 82 72 83 73 84 76 85 74 86 53 87 54 88 62 89 55 90 56 91
REMARK SMILES IDX 60 92 63 93 57 94 58 95 61 96 59 97
REMARK H PARENT 7 12 17 24 17 25 17 26 83 50 51 61
REMARK Flexibility Score: 90.00
ROOT
ATOM      1  C   UNL     1       2.119   8.451  -2.854  1.00  0.00     0.306 C 
ATOM      2  O   UNL     1       2.438   9.563  -3.256  1.00  0.00    -0.252 OA
ENDROOT
BRANCH   1   3
ATOM      3  C   UNL     1       2.926   7.200  -3.177  1.00  0.00     0.128 C 
BRANCH   3   4
ATOM      4  C   UNL     1       3.323   6.334  -1.962  1.00  0.00     0.019 C 
BRANCH   4   5
ATOM      5  C   UNL     1       4.571   5.421  -2.217  1.00  0.00     0.009 C 
BRANCH   5   6
ATOM      6  C   UNL     1       5.834   5.998  -2.890  1.00  0.00    -0.017 C 
ATOM      7  C   UNL     1       6.529   7.054  -2.045  1.00  0.00     0.007 C 
ATOM      8  C   UNL     1       6.831   4.865  -3.170  1.00  0.00     0.007 C 
ENDBRANCH   5   6
ENDBRANCH   4   5
BRANCH   4   9
ATOM      9  C   UNL     1       2.106   5.481  -1.482  1.00  0.00     0.120 C 
BRANCH   9  10
ATOM     10  N   UNL     1       1.980   4.250  -2.231  1.00  0.00    -0.355 N 
ATOM     11  C   UNL     1       1.842   2.955  -1.869  1.00  0.00     0.229 C 
ATOM     12  H   UNL     1       1.998   4.383  -3.207  1.00  0.00     0.163 HD
ATOM     13  O   UNL     1       1.719   2.188  -2.831  1.00  0.00    -0.275 OA
BRANCH  11  14
ATOM     14  C   UNL     1       1.737   2.469  -0.407  1.00  0.00     0.136 C 
BRANCH  14  15
ATOM     15  C   UNL     1       1.220   0.998  -0.400  1.00  0.00     0.020 C 
BRANCH  15  16
ATOM     16  C   UNL     1       2.139  -0.062  -1.030  1.00  0.00     0.001 C 
BRANCH  16  17
ATOM     17  C   UNL     1       3.291  -0.599  -0.188  1.00  0.00     0.000 CG0
ATOM     18  G   UNL     1       4.249   0.381   0.481  1.00  0.00     0.000 G0
ENDBRANCH  16  17
ENDBRANCH  15  16
ENDBRANCH  14  15
BRANCH  14  19
ATOM     19  C   UNL     1       2.959   2.551   0.538  1.00  0.00     0.193 C 
BRANCH  19  20
ATOM     20  C   UNL     1       4.209   1.833   0.016  1.00  0.00     0.066 C 
BRANCH  20  21
ATOM     21  C   UNL     1       4.249   0.381   0.481  1.00  0.00     0.006 CG0
ATOM     22  G   UNL     1       3.291  -0.599  -0.188  1.00  0.00     0.000 G0
ENDBRANCH  20  21
ENDBRANCH  19  20
BRANCH  19  23
ATOM     23  N   UNL     1       3.308   3.896   1.001  1.00  0.00    -0.354 N 
ATOM     24  H   UNL     1       3.654   4.447   0.215  1.00  0.00     0.344 HD
ATOM     25  H   UNL     1       4.032   3.832   1.716  1.00  0.00     0.344 HD
ATOM     26  H   UNL     1       2.480   4.345   1.393  1.00  0.00     0.344 HD
ENDBRANCH  19  23
ENDBRANCH  14  19
ENDBRANCH  11  14
ENDBRANCH   9  10
ENDBRANCH   4   9
ENDBRANCH   3   4
ENDBRANCH   1   3
BRANCH   1  27
ATOM     27  O   UNL     1       1.003   8.184  -2.134  1.00  0.00    -0.462 OA
BRANCH  27  28
ATOM     28  C   UNL     1       0.102   9.277  -1.857  1.00  0.00     0.274 C 
BRANCH  28  29
ATOM     29  C   UNL     1       0.215   9.755  -0.407  1.00  0.00     0.275 C 
BRANCH  29  30
ATOM     30  O   UNL     1       1.436  10.488  -0.198  1.00  0.00    -0.458 OA
BRANCH  30  31
ATOM     31  C   UNL     1       2.454   9.752   0.296  1.00  0.00     0.338 C 
ATOM     32  O   UNL     1       2.427   8.581   0.637  1.00  0.00    -0.246 OA
BRANCH  31  33
ATOM     33  C   UNL     1       3.708  10.513   0.212  1.00  0.00     0.060 A 
ATOM     34  C   UNL     1       4.662  10.043  -0.685  1.00  0.00     0.016 A 
ATOM     35  C   UNL     1       4.008  11.571   1.067  1.00  0.00     0.016 A 
ATOM     36  C   UNL     1       5.950  10.564  -0.683  1.00  0.00     0.010 A 
ATOM     37  C   UNL     1       5.295  12.129   1.039  1.00  0.00     0.010 A 
ATOM     38  C   UNL     1       6.288  11.603   0.191  1.00  0.00    -0.014 A 
BRANCH  38  39
ATOM     39  C   UNL     1       7.699  12.064   0.251  1.00  0.00     0.031 A 
ATOM     40  C   UNL     1       8.531  11.787   1.474  1.00  0.00     0.074 A 
ATOM     41  C   UNL     1       8.262  12.666  -0.814  1.00  0.00     0.049 A 
ATOM     42  N   UNL     1       9.763  12.145   1.740  1.00  0.00    -0.248 NA
ATOM     43  C   UNL     1       7.892  11.003   2.542  1.00  0.00     0.031 C 
ATOM     44  C   UNL     1       7.586  12.945  -2.081  1.00  0.00     0.029 A 
ATOM     45  N   UNL     1       9.537  13.137  -1.006  1.00  0.00    -0.354 N 
ATOM     46  C   UNL     1      10.032  11.662   3.014  1.00  0.00     0.074 A 
ATOM     47  C   UNL     1       8.833  10.995   3.475  1.00  0.00     0.031 C 
ATOM     48  C   UNL     1       8.457  13.520  -2.925  1.00  0.00     0.029 A 
ATOM     49  C   UNL     1       9.736  13.696  -2.244  1.00  0.00     0.049 A 
ATOM     50  H   UNL     1      10.242  13.081  -0.320  1.00  0.00     0.167 HD
ATOM     51  C   UNL     1      11.176  11.763   3.733  1.00  0.00     0.037 A 
ATOM     52  C   UNL     1      10.820  14.301  -2.765  1.00  0.00     0.037 A 
ATOM     53  C   UNL     1      12.383  12.392   3.264  1.00  0.00     0.049 A 
ATOM     54  C   UNL     1      12.070  14.421  -1.936  1.00  0.00     0.074 A 
ATOM     55  C   UNL     1      13.594  12.538   3.919  1.00  0.00     0.029 A 
ATOM     56  N   UNL     1      12.535  12.971   2.013  1.00  0.00    -0.354 N 
ATOM     57  N   UNL     1      12.303  13.987  -0.722  1.00  0.00    -0.248 NA
ATOM     58  C   UNL     1      13.207  15.120  -2.553  1.00  0.00     0.031 C 
ATOM     59  C   UNL     1      14.469  13.233   3.077  1.00  0.00     0.029 A 
ATOM     60  C   UNL     1      13.816  13.484   1.881  1.00  0.00     0.049 A 
ATOM     61  H   UNL     1      11.836  13.012   1.320  1.00  0.00     0.167 HD
ATOM     62  C   UNL     1      13.613  14.345  -0.434  1.00  0.00     0.074 A 
ATOM     63  C   UNL     1      14.132  15.013  -1.609  1.00  0.00     0.031 C 
ATOM     64  C   UNL     1      14.320  14.142   0.704  1.00  0.00     0.037 A 
BRANCH  51  65
ATOM     65  C   UNL     1      11.169  11.202   5.124  1.00  0.00     0.064 A 
ATOM     66  C   UNL     1      11.198   9.821   5.365  1.00  0.00     0.173 A 
ATOM     67  C   UNL     1      11.165  12.063   6.232  1.00  0.00     0.173 A 
ATOM     68  F   UNL     1      11.187   8.956   4.340  1.00  0.00    -0.203 F 
ATOM     69  C   UNL     1      11.200   9.322   6.666  1.00  0.00     0.198 A 
ATOM     70  C   UNL     1      11.192  11.561   7.531  1.00  0.00     0.198 A 
ATOM     71  F   UNL     1      11.141  13.392   6.055  1.00  0.00    -0.203 F 
ATOM     72  F   UNL     1      11.184   7.998   6.874  1.00  0.00    -0.200 F 
ATOM     73  C   UNL     1      11.203  10.191   7.746  1.00  0.00     0.200 A 
ATOM     74  F   UNL     1      11.205  12.403   8.573  1.00  0.00    -0.200 F 
ATOM     75  F   UNL     1      11.209   9.709   8.997  1.00  0.00    -0.200 F 
ENDBRANCH  51  65
BRANCH  52  76
ATOM     76  C   UNL     1      10.767  14.857  -4.141  1.00  0.00     0.064 A 
ATOM     77  C   UNL     1      11.500  14.275  -5.184  1.00  0.00     0.173 A 
ATOM     78  C   UNL     1       9.989  15.986  -4.438  1.00  0.00     0.173 A 
ATOM     79  F   UNL     1      12.279  13.210  -4.942  1.00  0.00    -0.203 F 
ATOM     80  C   UNL     1      11.468  14.809  -6.470  1.00  0.00     0.198 A 
ATOM     81  C   UNL     1       9.937  16.503  -5.730  1.00  0.00     0.198 A 
ATOM     82  F   UNL     1       9.273  16.580  -3.474  1.00  0.00    -0.203 F 
ATOM     83  F   UNL     1      12.211  14.260  -7.440  1.00  0.00    -0.200 F 
ATOM     84  C   UNL     1      10.681  15.918  -6.744  1.00  0.00     0.200 A 
ATOM     85  F   UNL     1       9.168  17.568  -5.992  1.00  0.00    -0.200 F 
ATOM     86  F   UNL     1      10.648  16.430  -7.982  1.00  0.00    -0.200 F 
ENDBRANCH  52  76
BRANCH  64  87
ATOM     87  C   UNL     1      15.741  14.625   0.720  1.00  0.00     0.064 A 
ATOM     88  C   UNL     1      16.051  15.990   0.805  1.00  0.00     0.173 A 
ATOM     89  C   UNL     1      16.803  13.710   0.667  1.00  0.00     0.173 A 
ATOM     90  F   UNL     1      15.069  16.904   0.841  1.00  0.00    -0.203 F 
ATOM     91  C   UNL     1      17.374  16.423   0.808  1.00  0.00     0.198 A 
ATOM     92  C   UNL     1      18.124  14.145   0.697  1.00  0.00     0.198 A 
ATOM     93  F   UNL     1      16.558  12.393   0.590  1.00  0.00    -0.203 F 
ATOM     94  F   UNL     1      17.647  17.735   0.841  1.00  0.00    -0.200 F 
ATOM     95  C   UNL     1      18.409  15.501   0.759  1.00  0.00     0.200 A 
ATOM     96  F   UNL     1      19.124  13.253   0.658  1.00  0.00    -0.200 F 
ATOM     97  F   UNL     1      19.682  15.920   0.761  1.00  0.00    -0.200 F 
ENDBRANCH  64  87
ENDBRANCH  38  39
ENDBRANCH  31  33
ENDBRANCH  30  31
ENDBRANCH  29  30
ENDBRANCH  28  29
ENDBRANCH  27  28
ENDBRANCH   1  27
TORSDOF 18
