REMARK SMILES COc1ccc(-c2c(C(=O)OCCOC(=O)c3ccc(-c4c5nc(c(-c6c(F)c(F)c(F)c(F)c6F)c6ccc([nH]6)c(-c6c(F)c(F)c(F)c(F)c6F)c6nc(c(-c7c(F)c(F)c(F)c(F)c7F)c7ccc4[nH]7)C=C6)C=C5)cc3)nnn2-c2ccc3c(c2)OCCO3)cc1
REMARK SMILES IDX 12 1 11 2 9 3 10 4 8 5 7 6 82 7 80 8 81 9 6 10 3 11 4 12
REMARK SMILES IDX 94 13 5 14 93 15 2 16 1 17 83 18 84 19 88 20 85 21 87 22
REMARK SMILES IDX 86 23 89 24 92 25 90 26 91 27 13 28 14 29 15 30 16 31 17 32
REMARK SMILES IDX 18 33 79 34 19 35 78 36 20 37 21 38 22 39 72 40 23 41 77 42
REMARK SMILES IDX 71 43 73 44 24 45 76 46 70 47 69 48 25 50 57 51 37 52 56 53
REMARK SMILES IDX 38 54 41 55 55 56 74 57 39 58 40 59 54 61 75 62 42 63 26 64
REMARK SMILES IDX 27 65 35 66 28 67 29 68 33 69 36 70 30 71 31 72 34 73 32 74
REMARK SMILES IDX 58 75 59 76 67 77 60 78 61 79 65 80 68 81 62 82 63 83 66 84
REMARK SMILES IDX 64 85 43 86 44 87 52 88 45 89 46 90 50 91 53 92 47 93 48 94
REMARK SMILES IDX 51 95 49 96
REMARK H PARENT 73 49 41 60
REMARK Flexibility Score: inf
ROOT
ATOM      1  C   UNL     1      -1.478  -3.143   5.854  1.00  0.00     0.275 C 
ENDROOT
BRANCH   1   2
ATOM      2  O   UNL     1      -0.431  -2.191   6.091  1.00  0.00    -0.457 OA
BRANCH   2   3
ATOM      3  C   UNL     1      -0.025  -2.036   7.388  1.00  0.00     0.361 C 
ATOM      4  O   UNL     1      -0.661  -2.458   8.350  1.00  0.00    -0.244 OA
BRANCH   3   5
ATOM      5  C   UNL     1       1.284  -1.408   7.515  1.00  0.00     0.198 A 
ATOM      6  C   UNL     1       2.022  -0.689   6.579  1.00  0.00     0.109 A 
ATOM      7  N   UNL     1       3.150  -0.290   7.308  1.00  0.00    -0.212 N 
ATOM      8  N   UNL     1       2.009  -1.516   8.680  1.00  0.00    -0.122 NA
ATOM      9  N   UNL     1       3.139  -0.844   8.540  1.00  0.00    -0.061 NA
BRANCH   6  10
ATOM     10  C   UNL     1       1.712  -0.272   5.201  1.00  0.00     0.003 A 
ATOM     11  C   UNL     1       1.016   0.341   2.527  1.00  0.00     0.118 A 
ATOM     12  C   UNL     1       0.121   0.586   3.566  1.00  0.00     0.047 A 
ATOM     13  C   UNL     1       2.280  -0.164   2.826  1.00  0.00     0.047 A 
ATOM     14  C   UNL     1       0.468   0.293   4.889  1.00  0.00     0.014 A 
ATOM     15  C   UNL     1       2.620  -0.478   4.153  1.00  0.00     0.014 A 
BRANCH  11  16
ATOM     16  O   UNL     1       0.560   0.665   1.279  1.00  0.00    -0.497 OA
ATOM     17  C   UNL     1       1.145  -0.048   0.194  1.00  0.00     0.278 C 
ENDBRANCH  11  16
ENDBRANCH   6  10
BRANCH   7  18
ATOM     18  C   UNL     1       3.771   0.965   7.133  1.00  0.00     0.071 A 
ATOM     19  C   UNL     1       4.888   1.073   6.299  1.00  0.00     0.032 A 
ATOM     20  C   UNL     1       2.978   2.069   7.465  1.00  0.00     0.078 A 
ATOM     21  C   UNL     1       5.129   2.291   5.665  1.00  0.00     0.052 A 
ATOM     22  C   UNL     1       3.158   3.232   6.749  1.00  0.00     0.163 A 
ATOM     23  C   UNL     1       4.198   3.320   5.817  1.00  0.00     0.161 A 
ATOM     24  O   UNL     1       2.167   4.166   6.871  1.00  0.00    -0.486 OA
ATOM     25  O   UNL     1       4.208   4.333   4.887  1.00  0.00    -0.486 OA
ATOM     26  C   UNL     1       2.037   5.006   5.718  1.00  0.00     0.271 C 
ATOM     27  C   UNL     1       2.834   4.525   4.510  1.00  0.00     0.271 C 
ENDBRANCH   7  18
ENDBRANCH   3   5
ENDBRANCH   2   3
ENDBRANCH   1   2
BRANCH   1  28
ATOM     28  C   UNL     1      -0.892  -4.528   5.620  1.00  0.00     0.275 C 
BRANCH  28  29
ATOM     29  O   UNL     1      -0.248  -5.011   6.797  1.00  0.00    -0.458 OA
BRANCH  29  30
ATOM     30  C   UNL     1       1.080  -4.765   6.865  1.00  0.00     0.338 C 
ATOM     31  O   UNL     1       1.730  -4.014   6.157  1.00  0.00    -0.246 OA
BRANCH  30  32
ATOM     32  C   UNL     1       1.699  -5.717   7.787  1.00  0.00     0.060 A 
ATOM     33  C   UNL     1       3.057  -5.541   8.076  1.00  0.00     0.016 A 
ATOM     34  C   UNL     1       1.032  -6.924   8.028  1.00  0.00     0.016 A 
ATOM     35  C   UNL     1       3.800  -6.649   8.422  1.00  0.00     0.010 A 
ATOM     36  C   UNL     1       1.777  -8.030   8.336  1.00  0.00     0.010 A 
ATOM     37  C   UNL     1       3.160  -7.889   8.456  1.00  0.00    -0.014 A 
BRANCH  37  38
ATOM     38  C   UNL     1       3.953  -9.081   8.657  1.00  0.00     0.031 A 
ATOM     39  C   UNL     1       4.271  -9.361  10.076  1.00  0.00     0.074 A 
ATOM     40  C   UNL     1       4.174  -9.933   7.638  1.00  0.00     0.049 A 
ATOM     41  N   UNL     1       5.431  -9.531  10.618  1.00  0.00    -0.248 NA
ATOM     42  C   UNL     1       3.156  -9.336  11.039  1.00  0.00     0.031 C 
ATOM     43  C   UNL     1       3.609  -9.883   6.285  1.00  0.00     0.029 A 
ATOM     44  N   UNL     1       4.849 -11.111   7.644  1.00  0.00    -0.354 N 
ATOM     45  C   UNL     1       5.181  -9.794  11.962  1.00  0.00     0.074 A 
ATOM     46  C   UNL     1       3.797  -9.490  12.195  1.00  0.00     0.031 C 
ATOM     47  C   UNL     1       3.776 -11.087   5.693  1.00  0.00     0.029 A 
ATOM     48  C   UNL     1       4.543 -11.946   6.580  1.00  0.00     0.049 A 
ATOM     49  H   UNL     1       5.500 -11.351   8.342  1.00  0.00     0.167 HD
ATOM     50  C   UNL     1       6.072 -10.481  12.725  1.00  0.00     0.037 A 
ATOM     51  C   UNL     1       4.819 -13.271   6.502  1.00  0.00     0.037 A 
ATOM     52  C   UNL     1       7.387 -10.452  12.143  1.00  0.00     0.049 A 
ATOM     53  C   UNL     1       5.841 -13.577   7.539  1.00  0.00     0.074 A 
ATOM     54  C   UNL     1       8.273  -9.444  11.813  1.00  0.00     0.029 A 
ATOM     55  N   UNL     1       7.831 -11.569  11.479  1.00  0.00    -0.354 N 
ATOM     56  N   UNL     1       7.080 -13.175   7.486  1.00  0.00    -0.248 NA
ATOM     57  C   UNL     1       5.366 -13.956   8.864  1.00  0.00     0.031 C 
ATOM     58  C   UNL     1       8.903  -9.881  10.612  1.00  0.00     0.029 A 
ATOM     59  C   UNL     1       8.398 -11.145  10.306  1.00  0.00     0.049 A 
ATOM     60  H   UNL     1       7.755 -12.501  11.788  1.00  0.00     0.167 HD
ATOM     61  C   UNL     1       7.404 -12.850   8.796  1.00  0.00     0.074 A 
ATOM     62  C   UNL     1       6.346 -13.438   9.611  1.00  0.00     0.031 C 
ATOM     63  C   UNL     1       8.333 -11.890   9.073  1.00  0.00     0.037 A 
BRANCH  50  64
ATOM     64  C   UNL     1       5.672 -11.486  13.778  1.00  0.00     0.064 A 
ATOM     65  C   UNL     1       6.679 -12.071  14.570  1.00  0.00     0.173 A 
ATOM     66  C   UNL     1       4.411 -12.122  13.833  1.00  0.00     0.173 A 
ATOM     67  F   UNL     1       7.918 -11.556  14.592  1.00  0.00    -0.203 F 
ATOM     68  C   UNL     1       6.467 -13.258  15.275  1.00  0.00     0.198 A 
ATOM     69  C   UNL     1       4.188 -13.273  14.585  1.00  0.00     0.198 A 
ATOM     70  F   UNL     1       3.375 -11.736  13.080  1.00  0.00    -0.203 F 
ATOM     71  F   UNL     1       7.494 -13.854  15.895  1.00  0.00    -0.200 F 
ATOM     72  C   UNL     1       5.224 -13.863  15.274  1.00  0.00     0.200 A 
ATOM     73  F   UNL     1       2.978 -13.851  14.559  1.00  0.00    -0.200 F 
ATOM     74  F   UNL     1       5.037 -15.038  15.888  1.00  0.00    -0.200 F 
ENDBRANCH  50  64
BRANCH  51  75
ATOM     75  C   UNL     1       4.046 -14.330   5.809  1.00  0.00     0.064 A 
ATOM     76  C   UNL     1       4.618 -15.584   5.537  1.00  0.00     0.173 A 
ATOM     77  C   UNL     1       2.654 -14.226   5.616  1.00  0.00     0.173 A 
ATOM     78  F   UNL     1       5.928 -15.785   5.739  1.00  0.00    -0.203 F 
ATOM     79  C   UNL     1       3.842 -16.669   5.113  1.00  0.00     0.198 A 
ATOM     80  C   UNL     1       1.883 -15.304   5.180  1.00  0.00     0.198 A 
ATOM     81  F   UNL     1       1.995 -13.103   5.934  1.00  0.00    -0.203 F 
ATOM     82  F   UNL     1       4.415 -17.865   4.919  1.00  0.00    -0.200 F 
ATOM     83  C   UNL     1       2.475 -16.529   4.940  1.00  0.00     0.200 A 
ATOM     84  F   UNL     1       0.556 -15.162   5.051  1.00  0.00    -0.200 F 
ATOM     85  F   UNL     1       1.724 -17.580   4.585  1.00  0.00    -0.200 F 
ENDBRANCH  51  75
BRANCH  63  86
ATOM     86  C   UNL     1       9.174 -11.383   7.938  1.00  0.00     0.064 A 
ATOM     87  C   UNL     1       8.653 -10.686   6.834  1.00  0.00     0.173 A 
ATOM     88  C   UNL     1      10.568 -11.466   8.050  1.00  0.00     0.173 A 
ATOM     89  F   UNL     1       7.337 -10.473   6.713  1.00  0.00    -0.203 F 
ATOM     90  C   UNL     1       9.490 -10.138   5.865  1.00  0.00     0.198 A 
ATOM     91  C   UNL     1      11.402 -10.884   7.101  1.00  0.00     0.198 A 
ATOM     92  F   UNL     1      11.121 -12.067   9.115  1.00  0.00    -0.203 F 
ATOM     93  F   UNL     1       8.966  -9.486   4.816  1.00  0.00    -0.200 F 
ATOM     94  C   UNL     1      10.864 -10.230   6.004  1.00  0.00     0.200 A 
ATOM     95  F   UNL     1      12.732 -10.930   7.266  1.00  0.00    -0.200 F 
ATOM     96  F   UNL     1      11.671  -9.663   5.096  1.00  0.00    -0.200 F 
ENDBRANCH  63  86
ENDBRANCH  37  38
ENDBRANCH  30  32
ENDBRANCH  29  30
ENDBRANCH  28  29
ENDBRANCH   1  28
TORSDOF 14
