REMARK SMILES O=C(OCCOC(=O)[C@@H](NC(=O)c1ccncc1Cl)C1CC1)c1ccc(-c2c3nc(c(-c4c(F)c(F)c(F)c(F)c4F)c4ccc([nH]4)c(-c4c(F)c(F)c(F)c(F)c4F)c4nc(c(-c5c(F)c(F)c(F)c(F)c5F)c5ccc2[nH]5)C=C4)C=C3)cc1
REMARK SMILES IDX 4 1 3 2 2 3 1 4 23 5 24 6 85 7 25 8 84 9 26 10 27 11 28 12
REMARK SMILES IDX 78 13 29 14 83 15 77 16 79 17 30 18 82 19 76 20 75 21 31 23
REMARK SMILES IDX 63 24 43 25 62 26 44 27 47 28 61 29 80 30 45 31 46 32 60 34
REMARK SMILES IDX 81 35 48 36 32 37 33 38 41 39 34 40 35 41 39 42 42 43 36 44
REMARK SMILES IDX 37 45 40 46 38 47 64 48 65 49 73 50 66 51 67 52 71 53 74 54
REMARK SMILES IDX 68 55 69 56 72 57 70 58 49 59 50 60 58 61 51 62 52 63 56 64
REMARK SMILES IDX 59 65 53 66 54 67 57 68 55 69 5 70 6 71 7 72 8 73 9 74 10 75
REMARK SMILES IDX 11 76 12 78 13 79 14 80 18 81 15 82 17 83 19 84 16 85 20 86
REMARK SMILES IDX 21 87 22 88
REMARK H PARENT 79 22 47 33 10 77
REMARK Flexibility Score: inf
ROOT
ATOM      1  C   UNL     1       4.489  -0.776  -1.301  1.00  0.00     0.275 C 
ENDROOT
BRANCH   1   2
ATOM      2  O   UNL     1       3.350  -1.251  -0.564  1.00  0.00    -0.458 OA
BRANCH   2   3
ATOM      3  C   UNL     1       2.907  -0.960   0.678  1.00  0.00     0.338 C 
ATOM      4  O   UNL     1       1.753  -1.289   0.956  1.00  0.00    -0.246 OA
BRANCH   3   5
ATOM      5  C   UNL     1       3.696  -0.282   1.768  1.00  0.00     0.060 A 
ATOM      6  C   UNL     1       4.935   0.351   1.653  1.00  0.00     0.016 A 
ATOM      7  C   UNL     1       3.077  -0.244   3.038  1.00  0.00     0.016 A 
ATOM      8  C   UNL     1       5.536   0.977   2.759  1.00  0.00     0.010 A 
ATOM      9  C   UNL     1       3.661   0.399   4.140  1.00  0.00     0.010 A 
ATOM     10  C   UNL     1       4.907   1.005   4.011  1.00  0.00    -0.014 A 
BRANCH  10  11
ATOM     11  C   UNL     1       5.669   1.511   5.179  1.00  0.00     0.031 A 
ATOM     12  C   UNL     1       6.468   0.550   5.981  1.00  0.00     0.074 A 
ATOM     13  C   UNL     1       5.646   2.796   5.570  1.00  0.00     0.049 A 
ATOM     14  N   UNL     1       7.271   0.796   6.978  1.00  0.00    -0.248 NA
ATOM     15  C   UNL     1       6.230  -0.873   5.714  1.00  0.00     0.031 C 
ATOM     16  C   UNL     1       4.641   3.752   5.173  1.00  0.00     0.029 A 
ATOM     17  N   UNL     1       6.499   3.538   6.352  1.00  0.00    -0.354 N 
ATOM     18  C   UNL     1       7.526  -0.435   7.549  1.00  0.00     0.074 A 
ATOM     19  C   UNL     1       6.845  -1.429   6.745  1.00  0.00     0.031 C 
ATOM     20  C   UNL     1       5.048   4.988   5.496  1.00  0.00     0.029 A 
ATOM     21  C   UNL     1       6.320   4.898   6.182  1.00  0.00     0.049 A 
ATOM     22  H   UNL     1       7.163   3.144   6.963  1.00  0.00     0.167 HD
ATOM     23  C   UNL     1       8.207  -0.681   8.691  1.00  0.00     0.037 A 
ATOM     24  C   UNL     1       7.122   5.927   6.520  1.00  0.00     0.037 A 
ATOM     25  C   UNL     1       8.848   0.347   9.469  1.00  0.00     0.049 A 
ATOM     26  C   UNL     1       8.187   5.607   7.528  1.00  0.00     0.074 A 
ATOM     27  C   UNL     1       9.578   0.227  10.636  1.00  0.00     0.029 A 
ATOM     28  N   UNL     1       8.832   1.702   9.148  1.00  0.00    -0.354 N 
ATOM     29  N   UNL     1       8.489   4.440   8.041  1.00  0.00    -0.248 NA
ATOM     30  C   UNL     1       8.929   6.734   8.105  1.00  0.00     0.031 C 
ATOM     31  C   UNL     1      10.000   1.506  11.022  1.00  0.00     0.029 A 
ATOM     32  C   UNL     1       9.570   2.422  10.074  1.00  0.00     0.049 A 
ATOM     33  H   UNL     1       8.364   2.091   8.375  1.00  0.00     0.167 HD
ATOM     34  C   UNL     1       9.373   4.696   9.069  1.00  0.00     0.074 A 
ATOM     35  C   UNL     1       9.659   6.118   9.026  1.00  0.00     0.031 C 
ATOM     36  C   UNL     1       9.834   3.840  10.012  1.00  0.00     0.037 A 
BRANCH  23  37
ATOM     37  C   UNL     1       8.186  -2.100   9.172  1.00  0.00     0.064 A 
ATOM     38  C   UNL     1       8.812  -3.132   8.455  1.00  0.00     0.173 A 
ATOM     39  C   UNL     1       7.427  -2.451  10.299  1.00  0.00     0.173 A 
ATOM     40  F   UNL     1       9.516  -2.852   7.347  1.00  0.00    -0.203 F 
ATOM     41  C   UNL     1       8.626  -4.465   8.810  1.00  0.00     0.198 A 
ATOM     42  C   UNL     1       7.276  -3.783  10.674  1.00  0.00     0.198 A 
ATOM     43  F   UNL     1       6.799  -1.506  11.014  1.00  0.00    -0.203 F 
ATOM     44  F   UNL     1       9.145  -5.436   8.046  1.00  0.00    -0.200 F 
ATOM     45  C   UNL     1       7.859  -4.789   9.918  1.00  0.00     0.200 A 
ATOM     46  F   UNL     1       6.537  -4.096  11.747  1.00  0.00    -0.200 F 
ATOM     47  F   UNL     1       7.660  -6.074  10.244  1.00  0.00    -0.200 F 
ENDBRANCH  23  37
BRANCH  24  48
ATOM     48  C   UNL     1       6.993   7.294   5.929  1.00  0.00     0.064 A 
ATOM     49  C   UNL     1       8.068   7.830   5.193  1.00  0.00     0.173 A 
ATOM     50  C   UNL     1       5.858   8.104   6.063  1.00  0.00     0.173 A 
ATOM     51  F   UNL     1       9.198   7.121   5.047  1.00  0.00    -0.203 F 
ATOM     52  C   UNL     1       8.017   9.111   4.640  1.00  0.00     0.198 A 
ATOM     53  C   UNL     1       5.789   9.368   5.469  1.00  0.00     0.198 A 
ATOM     54  F   UNL     1       4.811   7.685   6.787  1.00  0.00    -0.203 F 
ATOM     55  F   UNL     1       9.089   9.610   4.007  1.00  0.00    -0.200 F 
ATOM     56  C   UNL     1       6.872   9.876   4.769  1.00  0.00     0.200 A 
ATOM     57  F   UNL     1       4.675  10.103   5.594  1.00  0.00    -0.200 F 
ATOM     58  F   UNL     1       6.820  11.107   4.242  1.00  0.00    -0.200 F 
ENDBRANCH  24  48
BRANCH  36  59
ATOM     59  C   UNL     1      10.686   4.443  11.081  1.00  0.00     0.064 A 
ATOM     60  C   UNL     1      10.130   5.242  12.093  1.00  0.00     0.173 A 
ATOM     61  C   UNL     1      12.067   4.214  11.097  1.00  0.00     0.173 A 
ATOM     62  F   UNL     1       8.814   5.505  12.101  1.00  0.00    -0.203 F 
ATOM     63  C   UNL     1      10.936   5.811  13.072  1.00  0.00     0.198 A 
ATOM     64  C   UNL     1      12.866   4.765  12.092  1.00  0.00     0.198 A 
ATOM     65  F   UNL     1      12.637   3.460  10.146  1.00  0.00    -0.203 F 
ATOM     66  F   UNL     1      10.396   6.611  14.002  1.00  0.00    -0.200 F 
ATOM     67  C   UNL     1      12.302   5.568  13.074  1.00  0.00     0.200 A 
ATOM     68  F   UNL     1      14.184   4.527  12.096  1.00  0.00    -0.200 F 
ATOM     69  F   UNL     1      13.079   6.119  14.016  1.00  0.00    -0.200 F 
ENDBRANCH  36  59
ENDBRANCH  10  11
ENDBRANCH   3   5
ENDBRANCH   2   3
ENDBRANCH   1   2
BRANCH   1  70
ATOM     70  C   UNL     1       4.251   0.606  -1.905  1.00  0.00     0.274 C 
BRANCH  70  71
ATOM     71  O   UNL     1       3.767   1.548  -0.933  1.00  0.00    -0.461 OA
BRANCH  71  72
ATOM     72  C   UNL     1       2.458   1.935  -1.070  1.00  0.00     0.329 C 
ATOM     73  O   UNL     1       1.673   1.480  -1.890  1.00  0.00    -0.250 OA
BRANCH  72  74
ATOM     74  C   UNL     1       2.138   3.117  -0.135  1.00  0.00     0.195 C 
BRANCH  74  75
ATOM     75  N   UNL     1       2.250   2.680   1.261  1.00  0.00    -0.338 N 
ATOM     76  C   UNL     1       2.306   3.414   2.413  1.00  0.00     0.253 C 
ATOM     77  H   UNL     1       2.292   1.704   1.388  1.00  0.00     0.164 HD
ATOM     78  O   UNL     1       1.801   2.970   3.438  1.00  0.00    -0.269 OA
BRANCH  76  79
ATOM     79  C   UNL     1       3.089   4.662   2.472  1.00  0.00     0.061 A 
ATOM     80  C   UNL     1       4.459   4.601   2.170  1.00  0.00     0.035 A 
ATOM     81  C   UNL     1       2.540   5.848   2.949  1.00  0.00     0.072 A 
ATOM     82  C   UNL     1       5.217   5.751   2.302  1.00  0.00     0.112 A 
ATOM     83  C   UNL     1       3.386   6.945   3.042  1.00  0.00     0.132 A 
ATOM     84  Cl  UNL     1       0.890   6.020   3.400  1.00  0.00    -0.082 Cl
ATOM     85  N   UNL     1       4.711   6.928   2.729  1.00  0.00    -0.263 NA
ENDBRANCH  76  79
ENDBRANCH  74  75
BRANCH  74  86
ATOM     86  C   UNL     1       3.001   4.292  -0.500  1.00  0.00     0.023 C 
ATOM     87  C   UNL     1       2.715   5.079  -1.753  1.00  0.00     0.007 C 
ATOM     88  C   UNL     1       2.470   5.705  -0.414  1.00  0.00     0.007 C 
ENDBRANCH  74  86
ENDBRANCH  72  74
ENDBRANCH  71  72
ENDBRANCH  70  71
ENDBRANCH   1  70
TORSDOF 14
