REMARK SMILES Cc1c(C(=O)OCCOC(=O)c2ccc(-c3c4nc(c(-c5c(F)c(F)c(F)c(F)c5F)c5ccc([nH]5)c(-c5c(F)c(F)c(F)c(F)c5F)c5nc(c(-c6c(F)c(F)c(F)c(F)c6F)c6ccc3[nH]6)C=C5)C=C4)cc2)cnc2nc(CO)nn12
REMARK SMILES IDX 7 1 6 2 4 3 5 4 3 5 1 6 2 7 83 8 75 9 77 10 82 11 76 12
REMARK SMILES IDX 78 13 79 14 80 15 81 16 8 18 9 19 10 20 11 21 12 22 13 23
REMARK SMILES IDX 74 24 14 25 73 26 15 27 16 28 17 29 67 30 18 31 72 32 66 33
REMARK SMILES IDX 68 34 19 35 71 36 65 37 64 38 20 40 52 41 32 42 51 43 33 44
REMARK SMILES IDX 36 45 50 46 69 47 34 48 35 49 49 51 70 52 37 53 21 54 22 55
REMARK SMILES IDX 30 56 23 57 24 58 28 59 31 60 25 61 26 62 29 63 27 64 53 65
REMARK SMILES IDX 54 66 62 67 55 68 56 69 60 70 63 71 57 72 58 73 61 74 59 75
REMARK SMILES IDX 38 76 39 77 47 78 40 79 41 80 45 81 48 82 42 83 43 84 46 85
REMARK SMILES IDX 44 86
REMARK H PARENT 81 17 68 39 36 50
REMARK Flexibility Score: inf
ROOT
ATOM      1  C   UNL     1      -1.365  -3.269  -3.128  1.00  0.00     0.275 C 
ENDROOT
BRANCH   1   2
ATOM      2  O   UNL     1      -1.061  -1.865  -3.288  1.00  0.00    -0.458 OA
BRANCH   2   3
ATOM      3  C   UNL     1      -1.134  -1.099  -2.167  1.00  0.00     0.341 C 
ATOM      4  O   UNL     1      -1.550  -1.480  -1.082  1.00  0.00    -0.246 OA
BRANCH   3   5
ATOM      5  C   UNL     1      -0.601   0.263  -2.421  1.00  0.00     0.099 A 
ATOM      6  C   UNL     1       0.289   0.643  -0.054  1.00  0.00     0.068 C 
ATOM      7  C   UNL     1      -0.009   1.031  -1.475  1.00  0.00     0.059 A 
ATOM      8  N   UNL     1       0.387   2.332  -1.818  1.00  0.00    -0.200 N 
ATOM      9  C   UNL     1      -0.683   0.895  -3.776  1.00  0.00     0.132 A 
ATOM     10  C   UNL     1       0.204   2.855  -3.102  1.00  0.00     0.252 A 
ATOM     11  N   UNL     1       0.925   3.283  -1.015  1.00  0.00    -0.147 NA
ATOM     12  N   UNL     1      -0.324   2.100  -4.107  1.00  0.00    -0.219 NA
ATOM     13  N   UNL     1       0.587   4.114  -3.111  1.00  0.00    -0.191 NA
ATOM     14  C   UNL     1       1.027   4.333  -1.835  1.00  0.00     0.178 A 
BRANCH  14  15
ATOM     15  C   UNL     1       1.482   5.675  -1.352  1.00  0.00     0.235 C 
BRANCH  15  16
ATOM     16  O   UNL     1       0.740   6.149  -0.219  1.00  0.00    -0.388 OA
ATOM     17  H   UNL     1      -0.193   6.253  -0.464  1.00  0.00     0.211 HD
ENDBRANCH  15  16
ENDBRANCH  14  15
ENDBRANCH   3   5
ENDBRANCH   2   3
ENDBRANCH   1   2
BRANCH   1  18
ATOM     18  C   UNL     1      -0.110  -4.130  -2.958  1.00  0.00     0.275 C 
BRANCH  18  19
ATOM     19  O   UNL     1       0.474  -4.033  -1.652  1.00  0.00    -0.458 OA
BRANCH  19  20
ATOM     20  C   UNL     1       1.304  -2.981  -1.526  1.00  0.00     0.338 C 
ATOM     21  O   UNL     1       1.411  -2.023  -2.278  1.00  0.00    -0.246 OA
BRANCH  20  22
ATOM     22  C   UNL     1       2.295  -3.189  -0.476  1.00  0.00     0.060 A 
ATOM     23  C   UNL     1       2.830  -2.022   0.069  1.00  0.00     0.016 A 
ATOM     24  C   UNL     1       2.990  -4.401  -0.464  1.00  0.00     0.016 A 
ATOM     25  C   UNL     1       4.159  -2.000   0.409  1.00  0.00     0.010 A 
ATOM     26  C   UNL     1       4.318  -4.386  -0.087  1.00  0.00     0.010 A 
ATOM     27  C   UNL     1       4.912  -3.162   0.239  1.00  0.00    -0.014 A 
BRANCH  27  28
ATOM     28  C   UNL     1       6.346  -3.025   0.434  1.00  0.00     0.031 A 
ATOM     29  C   UNL     1       6.753  -2.603   1.806  1.00  0.00     0.074 A 
ATOM     30  C   UNL     1       7.217  -3.351  -0.538  1.00  0.00     0.049 A 
ATOM     31  N   UNL     1       7.614  -1.707   2.174  1.00  0.00    -0.248 NA
ATOM     32  C   UNL     1       6.017  -3.227   2.922  1.00  0.00     0.031 C 
ATOM     33  C   UNL     1       6.950  -4.006  -1.823  1.00  0.00     0.029 A 
ATOM     34  N   UNL     1       8.573  -3.295  -0.500  1.00  0.00    -0.354 N 
ATOM     35  C   UNL     1       7.618  -1.741   3.567  1.00  0.00     0.074 A 
ATOM     36  C   UNL     1       6.549  -2.614   3.974  1.00  0.00     0.031 C 
ATOM     37  C   UNL     1       8.103  -4.533  -2.291  1.00  0.00     0.029 A 
ATOM     38  C   UNL     1       9.185  -4.149  -1.401  1.00  0.00     0.049 A 
ATOM     39  H   UNL     1       9.072  -2.704   0.109  1.00  0.00     0.167 HD
ATOM     40  C   UNL     1       8.591  -1.177   4.330  1.00  0.00     0.037 A 
ATOM     41  C   UNL     1      10.450  -4.618  -1.301  1.00  0.00     0.037 A 
ATOM     42  C   UNL     1       9.295  -0.132   3.649  1.00  0.00     0.049 A 
ATOM     43  C   UNL     1      11.191  -3.726  -0.368  1.00  0.00     0.074 A 
ATOM     44  C   UNL     1       8.925   1.105   3.156  1.00  0.00     0.029 A 
ATOM     45  N   UNL     1      10.517  -0.397   3.084  1.00  0.00    -0.354 N 
ATOM     46  N   UNL     1      11.496  -2.483  -0.622  1.00  0.00    -0.248 NA
ATOM     47  C   UNL     1      11.218  -4.100   1.040  1.00  0.00     0.031 C 
ATOM     48  C   UNL     1       9.684   1.272   1.962  1.00  0.00     0.029 A 
ATOM     49  C   UNL     1      10.480   0.137   1.819  1.00  0.00     0.049 A 
ATOM     50  H   UNL     1      11.269  -0.874   3.502  1.00  0.00     0.167 HD
ATOM     51  C   UNL     1      11.369  -1.827   0.595  1.00  0.00     0.074 A 
ATOM     52  C   UNL     1      11.280  -2.887   1.594  1.00  0.00     0.031 C 
ATOM     53  C   UNL     1      11.068  -0.497   0.663  1.00  0.00     0.037 A 
BRANCH  40  54
ATOM     54  C   UNL     1       9.020  -1.763   5.642  1.00  0.00     0.064 A 
ATOM     55  C   UNL     1       9.733  -0.996   6.577  1.00  0.00     0.173 A 
ATOM     56  C   UNL     1       8.941  -3.149   5.909  1.00  0.00     0.173 A 
ATOM     57  F   UNL     1       9.911   0.319   6.388  1.00  0.00    -0.203 F 
ATOM     58  C   UNL     1      10.329  -1.581   7.699  1.00  0.00     0.198 A 
ATOM     59  C   UNL     1       9.487  -3.719   7.054  1.00  0.00     0.198 A 
ATOM     60  F   UNL     1       8.412  -4.005   5.023  1.00  0.00    -0.203 F 
ATOM     61  F   UNL     1      11.072  -0.832   8.525  1.00  0.00    -0.200 F 
ATOM     62  C   UNL     1      10.199  -2.939   7.940  1.00  0.00     0.200 A 
ATOM     63  F   UNL     1       9.368  -5.039   7.256  1.00  0.00    -0.200 F 
ATOM     64  F   UNL     1      10.797  -3.504   8.997  1.00  0.00    -0.200 F 
ENDBRANCH  40  54
BRANCH  41  65
ATOM     65  C   UNL     1      10.896  -5.998  -1.614  1.00  0.00     0.064 A 
ATOM     66  C   UNL     1      12.258  -6.297  -1.753  1.00  0.00     0.173 A 
ATOM     67  C   UNL     1      10.018  -7.101  -1.536  1.00  0.00     0.173 A 
ATOM     68  F   UNL     1      13.165  -5.309  -1.776  1.00  0.00    -0.203 F 
ATOM     69  C   UNL     1      12.716  -7.618  -1.803  1.00  0.00     0.198 A 
ATOM     70  C   UNL     1      10.474  -8.416  -1.605  1.00  0.00     0.198 A 
ATOM     71  F   UNL     1       8.710  -6.933  -1.297  1.00  0.00    -0.203 F 
ATOM     72  F   UNL     1      14.031  -7.867  -1.875  1.00  0.00    -0.200 F 
ATOM     73  C   UNL     1      11.824  -8.676  -1.725  1.00  0.00     0.200 A 
ATOM     74  F   UNL     1       9.600  -9.428  -1.492  1.00  0.00    -0.200 F 
ATOM     75  F   UNL     1      12.267  -9.941  -1.723  1.00  0.00    -0.200 F 
ENDBRANCH  41  65
BRANCH  53  76
ATOM     76  C   UNL     1      11.069   0.289  -0.619  1.00  0.00     0.064 A 
ATOM     77  C   UNL     1      10.194   0.021  -1.687  1.00  0.00     0.173 A 
ATOM     78  C   UNL     1      11.863   1.439  -0.717  1.00  0.00     0.173 A 
ATOM     79  F   UNL     1       9.315  -0.985  -1.618  1.00  0.00    -0.203 F 
ATOM     80  C   UNL     1      10.160   0.828  -2.822  1.00  0.00     0.198 A 
ATOM     81  C   UNL     1      11.799   2.268  -1.836  1.00  0.00     0.198 A 
ATOM     82  F   UNL     1      12.667   1.790   0.299  1.00  0.00    -0.203 F 
ATOM     83  F   UNL     1       9.325   0.535  -3.830  1.00  0.00    -0.200 F 
ATOM     84  C   UNL     1      10.958   1.956  -2.893  1.00  0.00     0.200 A 
ATOM     85  F   UNL     1      12.531   3.390  -1.877  1.00  0.00    -0.200 F 
ATOM     86  F   UNL     1      10.896   2.757  -3.965  1.00  0.00    -0.200 F 
ENDBRANCH  53  76
ENDBRANCH  27  28
ENDBRANCH  20  22
ENDBRANCH  19  20
ENDBRANCH  18  19
ENDBRANCH   1  18
TORSDOF 13
