REMARK SMILES COc1ccc(C(=O)OCCOC(=O)c2ccc(-c3c4nc(c(-c5c(F)c(F)c(F)c(F)c5F)c5ccc([nH]5)c(-c5c(F)c(F)c(F)c(F)c5F)c5nc(c(-c6c(F)c(F)c(F)c(F)c6F)c6ccc3[nH]6)C=C5)C=C4)cc2)cc1Oc1nc(C(C)(C)C)ns1
REMARK SMILES IDX 10 1 9 2 7 3 8 4 6 5 3 6 4 7 79 8 5 9 78 10 2 11 1 12 80 13
REMARK SMILES IDX 81 14 82 15 89 16 83 17 88 18 84 19 85 20 86 21 87 22 11 23
REMARK SMILES IDX 12 24 13 25 14 26 15 27 16 28 77 29 17 30 76 31 18 32 19 33
REMARK SMILES IDX 20 34 70 35 21 36 75 37 69 38 71 39 22 40 74 41 68 42 67 43
REMARK SMILES IDX 23 45 55 46 35 47 54 48 36 49 39 50 53 51 72 52 37 53 38 54
REMARK SMILES IDX 52 56 73 57 40 58 24 59 25 60 33 61 26 62 27 63 31 64 34 65
REMARK SMILES IDX 28 66 29 67 32 68 30 69 56 70 57 71 65 72 58 73 59 74 63 75
REMARK SMILES IDX 66 76 60 77 61 78 64 79 62 80 41 81 42 82 50 83 43 84 44 85
REMARK SMILES IDX 48 86 51 87 45 88 46 89 49 90 47 91
REMARK H PARENT 71 44 39 55
REMARK Flexibility Score: inf
ROOT
ATOM      1  C   UNL     1       3.282  -6.207  -4.577  1.00  0.00     0.275 C 
ENDROOT
BRANCH   1   2
ATOM      2  O   UNL     1       3.110  -5.320  -3.450  1.00  0.00    -0.458 OA
BRANCH   2   3
ATOM      3  C   UNL     1       1.978  -4.580  -3.490  1.00  0.00     0.338 C 
ATOM      4  O   UNL     1       1.123  -4.600  -4.357  1.00  0.00    -0.246 OA
BRANCH   3   5
ATOM      5  C   UNL     1       1.823  -3.736  -2.288  1.00  0.00     0.064 A 
ATOM      6  C   UNL     1       1.135  -1.819  -0.403  1.00  0.00     0.161 A 
ATOM      7  C   UNL     1       0.261  -2.866  -0.657  1.00  0.00     0.051 A 
ATOM      8  C   UNL     1       2.419  -1.794  -0.977  1.00  0.00     0.173 A 
ATOM      9  C   UNL     1       0.605  -3.813  -1.606  1.00  0.00     0.020 A 
ATOM     10  C   UNL     1       2.756  -2.753  -1.946  1.00  0.00     0.067 A 
BRANCH   6  11
ATOM     11  O   UNL     1       0.656  -0.823   0.405  1.00  0.00    -0.493 OA
ATOM     12  C   UNL     1      -0.052   0.133  -0.394  1.00  0.00     0.278 C 
ENDBRANCH   6  11
BRANCH   8  13
ATOM     13  O   UNL     1       3.381  -0.840  -0.720  1.00  0.00    -0.426 OA
BRANCH  13  14
ATOM     14  C   UNL     1       3.308  -0.091   0.380  1.00  0.00     0.298 A 
ATOM     15  N   UNL     1       2.960   1.176   0.347  1.00  0.00    -0.185 NA
ATOM     16  S   UNL     1       3.636  -0.643   1.969  1.00  0.00     0.025 S 
ATOM     17  C   UNL     1       2.830   1.623   1.661  1.00  0.00     0.151 A 
ATOM     18  N   UNL     1       3.194   0.813   2.664  1.00  0.00    -0.172 NA
BRANCH  17  19
ATOM     19  C   UNL     1       2.345   3.037   1.925  1.00  0.00     0.023 C 
ATOM     20  C   UNL     1       3.542   3.999   1.846  1.00  0.00     0.019 C 
ATOM     21  C   UNL     1       1.299   3.465   0.873  1.00  0.00     0.019 C 
ATOM     22  C   UNL     1       1.679   3.169   3.310  1.00  0.00     0.019 C 
ENDBRANCH  17  19
ENDBRANCH  13  14
ENDBRANCH   8  13
ENDBRANCH   3   5
ENDBRANCH   2   3
ENDBRANCH   1   2
BRANCH   1  23
ATOM     23  C   UNL     1       2.803  -7.627  -4.268  1.00  0.00     0.275 C 
BRANCH  23  24
ATOM     24  O   UNL     1       1.375  -7.662  -4.074  1.00  0.00    -0.458 OA
BRANCH  24  25
ATOM     25  C   UNL     1       0.970  -7.957  -2.821  1.00  0.00     0.338 C 
ATOM     26  O   UNL     1       1.671  -8.203  -1.851  1.00  0.00    -0.246 OA
BRANCH  25  27
ATOM     27  C   UNL     1      -0.498  -7.921  -2.718  1.00  0.00     0.060 A 
ATOM     28  C   UNL     1      -1.159  -6.709  -2.871  1.00  0.00     0.016 A 
ATOM     29  C   UNL     1      -1.192  -9.036  -2.252  1.00  0.00     0.016 A 
ATOM     30  C   UNL     1      -2.455  -6.558  -2.382  1.00  0.00     0.010 A 
ATOM     31  C   UNL     1      -2.547  -8.918  -1.916  1.00  0.00     0.010 A 
ATOM     32  C   UNL     1      -3.182  -7.664  -1.915  1.00  0.00    -0.014 A 
BRANCH  32  33
ATOM     33  C   UNL     1      -4.582  -7.501  -1.412  1.00  0.00     0.031 A 
ATOM     34  C   UNL     1      -4.975  -8.000  -0.041  1.00  0.00     0.074 A 
ATOM     35  C   UNL     1      -5.513  -6.889  -2.172  1.00  0.00     0.049 A 
ATOM     36  N   UNL     1      -6.168  -8.104   0.496  1.00  0.00    -0.248 NA
ATOM     37  C   UNL     1      -3.888  -8.461   0.836  1.00  0.00     0.031 C 
ATOM     38  C   UNL     1      -5.283  -6.317  -3.499  1.00  0.00     0.029 A 
ATOM     39  N   UNL     1      -6.842  -6.630  -1.932  1.00  0.00    -0.354 N 
ATOM     40  C   UNL     1      -5.979  -8.705   1.735  1.00  0.00     0.074 A 
ATOM     41  C   UNL     1      -4.558  -8.943   1.873  1.00  0.00     0.031 C 
ATOM     42  C   UNL     1      -6.402  -5.715  -3.923  1.00  0.00     0.029 A 
ATOM     43  C   UNL     1      -7.464  -5.955  -2.954  1.00  0.00     0.049 A 
ATOM     44  H   UNL     1      -7.304  -6.902  -1.106  1.00  0.00     0.167 HD
ATOM     45  C   UNL     1      -6.906  -9.031   2.671  1.00  0.00     0.037 A 
ATOM     46  C   UNL     1      -8.752  -5.603  -3.124  1.00  0.00     0.037 A 
ATOM     47  C   UNL     1      -8.312  -8.729   2.566  1.00  0.00     0.049 A 
ATOM     48  C   UNL     1      -9.764  -5.996  -2.089  1.00  0.00     0.074 A 
ATOM     49  C   UNL     1      -9.322  -8.983   3.479  1.00  0.00     0.029 A 
ATOM     50  N   UNL     1      -8.904  -8.088   1.487  1.00  0.00    -0.354 N 
ATOM     51  N   UNL     1      -9.583  -6.617  -0.950  1.00  0.00    -0.248 NA
ATOM     52  C   UNL     1     -11.166  -5.666  -2.380  1.00  0.00     0.031 C 
ATOM     53  C   UNL     1     -10.530  -8.534   2.935  1.00  0.00     0.029 A 
ATOM     54  C   UNL     1     -10.268  -7.957   1.703  1.00  0.00     0.049 A 
ATOM     55  H   UNL     1      -8.426  -7.773   0.686  1.00  0.00     0.167 HD
ATOM     56  C   UNL     1     -10.842  -6.746  -0.383  1.00  0.00     0.074 A 
ATOM     57  C   UNL     1     -11.778  -6.120  -1.295  1.00  0.00     0.031 C 
ATOM     58  C   UNL     1     -11.190  -7.336   0.787  1.00  0.00     0.037 A 
BRANCH  45  59
ATOM     59  C   UNL     1      -6.436  -9.794   3.879  1.00  0.00     0.064 A 
ATOM     60  C   UNL     1      -5.655  -9.203   4.882  1.00  0.00     0.173 A 
ATOM     61  C   UNL     1      -6.796 -11.142   4.040  1.00  0.00     0.173 A 
ATOM     62  F   UNL     1      -5.275  -7.921   4.774  1.00  0.00    -0.203 F 
ATOM     63  C   UNL     1      -5.220  -9.942   5.981  1.00  0.00     0.198 A 
ATOM     64  C   UNL     1      -6.386 -11.869   5.154  1.00  0.00     0.198 A 
ATOM     65  F   UNL     1      -7.552 -11.756   3.117  1.00  0.00    -0.203 F 
ATOM     66  F   UNL     1      -4.427  -9.371   6.899  1.00  0.00    -0.200 F 
ATOM     67  C   UNL     1      -5.589 -11.272   6.119  1.00  0.00     0.200 A 
ATOM     68  F   UNL     1      -6.757 -13.150   5.292  1.00  0.00    -0.200 F 
ATOM     69  F   UNL     1      -5.170 -11.981   7.176  1.00  0.00    -0.200 F 
ENDBRANCH  45  59
BRANCH  46  70
ATOM     70  C   UNL     1      -9.152  -4.856  -4.345  1.00  0.00     0.064 A 
ATOM     71  C   UNL     1      -9.539  -3.512  -4.267  1.00  0.00     0.173 A 
ATOM     72  C   UNL     1      -9.114  -5.454  -5.614  1.00  0.00     0.173 A 
ATOM     73  F   UNL     1      -9.615  -2.906  -3.073  1.00  0.00    -0.203 F 
ATOM     74  C   UNL     1      -9.870  -2.792  -5.413  1.00  0.00     0.198 A 
ATOM     75  C   UNL     1      -9.415  -4.725  -6.761  1.00  0.00     0.198 A 
ATOM     76  F   UNL     1      -8.749  -6.738  -5.740  1.00  0.00    -0.203 F 
ATOM     77  F   UNL     1     -10.261  -1.515  -5.309  1.00  0.00    -0.200 F 
ATOM     78  C   UNL     1      -9.796  -3.396  -6.660  1.00  0.00     0.200 A 
ATOM     79  F   UNL     1      -9.325  -5.307  -7.965  1.00  0.00    -0.200 F 
ATOM     80  F   UNL     1     -10.092  -2.696  -7.764  1.00  0.00    -0.200 F 
ENDBRANCH  46  70
BRANCH  58  81
ATOM     81  C   UNL     1     -12.642  -7.307   1.157  1.00  0.00     0.064 A 
ATOM     82  C   UNL     1     -13.582  -8.121   0.507  1.00  0.00     0.173 A 
ATOM     83  C   UNL     1     -13.097  -6.470   2.187  1.00  0.00     0.173 A 
ATOM     84  F   UNL     1     -13.199  -8.924  -0.497  1.00  0.00    -0.203 F 
ATOM     85  C   UNL     1     -14.928  -8.079   0.860  1.00  0.00     0.198 A 
ATOM     86  C   UNL     1     -14.439  -6.450   2.554  1.00  0.00     0.198 A 
ATOM     87  F   UNL     1     -12.237  -5.674   2.840  1.00  0.00    -0.203 F 
ATOM     88  F   UNL     1     -15.817  -8.830   0.194  1.00  0.00    -0.200 F 
ATOM     89  C   UNL     1     -15.355  -7.249   1.886  1.00  0.00     0.200 A 
ATOM     90  F   UNL     1     -14.848  -5.653   3.551  1.00  0.00    -0.200 F 
ATOM     91  F   UNL     1     -16.651  -7.211   2.224  1.00  0.00    -0.200 F 
ENDBRANCH  58  81
ENDBRANCH  32  33
ENDBRANCH  25  27
ENDBRANCH  24  25
ENDBRANCH  23  24
ENDBRANCH   1  23
TORSDOF 15
