REMARK SMILES CCOc1ccc(CNC(=O)Cc2c(C(=O)OCCOC(=O)c3ccc(-c4c5nc(c(-c6c(F)c(F)c(F)c(F)c6F)c6ccc([nH]6)c(-c6c(F)c(F)c(F)c(F)c6F)c6nc(c(-c7c(F)c(F)c(F)c(F)c7F)c7ccc4[nH]7)C=C6)C=C5)cc3)c(C)cn2C)cc1
REMARK SMILES IDX 15 1 16 2 14 3 13 4 89 5 86 6 88 7 90 8 87 9 12 10 10 11
REMARK SMILES IDX 9 12 11 14 8 15 7 16 4 17 5 18 92 19 6 20 91 21 3 22 2 23
REMARK SMILES IDX 1 24 17 25 18 26 19 27 20 28 21 29 22 30 23 31 24 32 85 33
REMARK SMILES IDX 25 34 84 35 26 36 27 37 28 38 78 39 29 40 83 41 77 42 79 43
REMARK SMILES IDX 30 44 82 45 76 46 75 47 31 49 63 50 43 51 62 52 44 53 47 54
REMARK SMILES IDX 61 55 80 56 45 57 46 58 60 60 81 61 48 62 32 63 33 64 41 65
REMARK SMILES IDX 34 66 35 67 39 68 42 69 36 70 37 71 40 72 38 73 64 74 65 75
REMARK SMILES IDX 73 76 66 77 67 78 71 79 74 80 68 81 69 82 72 83 70 84 49 85
REMARK SMILES IDX 50 86 58 87 51 88 52 89 56 90 59 91 53 92 54 93 57 94 55 95
REMARK H PARENT 9 13 79 48 47 59
REMARK Flexibility Score: inf
ROOT
ATOM      1  C   UNL     1       4.771  -0.337  -5.827  1.00  0.00     0.340 C 
ATOM      2  O   UNL     1       5.450  -1.345  -5.651  1.00  0.00    -0.246 OA
ENDROOT
BRANCH   1   3
ATOM      3  C   UNL     1       5.349   1.016  -5.922  1.00  0.00     0.084 A 
ATOM      4  C   UNL     1       6.691   1.371  -5.673  1.00  0.00     0.041 A 
ATOM      5  N   UNL     1       6.794   2.736  -5.894  1.00  0.00    -0.353 N 
ATOM      6  C   UNL     1       4.639   2.253  -6.176  1.00  0.00    -0.019 A 
ATOM      7  C   UNL     1       5.564   3.271  -6.135  1.00  0.00     0.089 A 
ATOM      8  C   UNL     1       8.008   3.528  -5.864  1.00  0.00     0.149 C 
ATOM      9  C   UNL     1       3.177   2.460  -6.373  1.00  0.00     0.047 C 
BRANCH   4  10
ATOM     10  C   UNL     1       7.932   0.599  -5.265  1.00  0.00     0.154 C 
BRANCH  10  11
ATOM     11  C   UNL     1       7.758  -0.766  -4.629  1.00  0.00     0.226 C 
ATOM     12  N   UNL     1       7.092  -0.921  -3.446  1.00  0.00    -0.352 N 
ATOM     13  H   UNL     1       6.942  -1.856  -3.176  1.00  0.00     0.163 HD
ATOM     14  O   UNL     1       8.305  -1.759  -5.123  1.00  0.00    -0.275 OA
BRANCH  12  15
ATOM     15  C   UNL     1       6.570   0.069  -2.526  1.00  0.00     0.151 C 
BRANCH  15  16
ATOM     16  C   UNL     1       5.086  -0.076  -2.276  1.00  0.00    -0.029 A 
ATOM     17  C   UNL     1       2.312  -0.344  -1.923  1.00  0.00     0.119 A 
ATOM     18  C   UNL     1       2.802   0.601  -2.808  1.00  0.00     0.047 A 
ATOM     19  C   UNL     1       3.186  -1.167  -1.218  1.00  0.00     0.047 A 
ATOM     20  C   UNL     1       4.180   0.768  -2.931  1.00  0.00     0.009 A 
ATOM     21  C   UNL     1       4.569  -1.042  -1.401  1.00  0.00     0.009 A 
BRANCH  17  22
ATOM     22  O   UNL     1       0.965  -0.504  -1.759  1.00  0.00    -0.494 OA
BRANCH  22  23
ATOM     23  C   UNL     1       0.402   0.566  -0.987  1.00  0.00     0.226 C 
ATOM     24  C   UNL     1       0.494   0.239   0.493  1.00  0.00     0.049 C 
ENDBRANCH  22  23
ENDBRANCH  17  22
ENDBRANCH  15  16
ENDBRANCH  12  15
ENDBRANCH  10  11
ENDBRANCH   4  10
ENDBRANCH   1   3
BRANCH   1  25
ATOM     25  O   UNL     1       3.409  -0.396  -5.953  1.00  0.00    -0.458 OA
BRANCH  25  26
ATOM     26  C   UNL     1       2.831  -1.710  -5.800  1.00  0.00     0.275 C 
BRANCH  26  27
ATOM     27  C   UNL     1       2.776  -2.510  -7.103  1.00  0.00     0.275 C 
BRANCH  27  28
ATOM     28  O   UNL     1       4.085  -2.806  -7.575  1.00  0.00    -0.458 OA
BRANCH  28  29
ATOM     29  C   UNL     1       4.672  -1.812  -8.279  1.00  0.00     0.338 C 
ATOM     30  O   UNL     1       4.146  -0.784  -8.675  1.00  0.00    -0.246 OA
BRANCH  29  31
ATOM     31  C   UNL     1       6.067  -2.174  -8.556  1.00  0.00     0.060 A 
ATOM     32  C   UNL     1       6.795  -1.276  -9.339  1.00  0.00     0.016 A 
ATOM     33  C   UNL     1       6.488  -3.492  -8.340  1.00  0.00     0.016 A 
ATOM     34  C   UNL     1       7.721  -1.801 -10.202  1.00  0.00     0.010 A 
ATOM     35  C   UNL     1       7.411  -4.017  -9.200  1.00  0.00     0.010 A 
ATOM     36  C   UNL     1       7.885  -3.189 -10.210  1.00  0.00    -0.014 A 
BRANCH  36  37
ATOM     37  C   UNL     1       8.502  -3.793 -11.361  1.00  0.00     0.031 A 
ATOM     38  C   UNL     1       9.968  -3.786 -11.293  1.00  0.00     0.074 A 
ATOM     39  C   UNL     1       7.765  -4.332 -12.351  1.00  0.00     0.049 A 
ATOM     40  N   UNL     1      10.766  -3.004 -11.936  1.00  0.00    -0.248 NA
ATOM     41  C   UNL     1      10.608  -4.590 -10.245  1.00  0.00     0.031 C 
ATOM     42  C   UNL     1       6.324  -4.592 -12.412  1.00  0.00     0.029 A 
ATOM     43  N   UNL     1       8.212  -4.812 -13.540  1.00  0.00    -0.354 N 
ATOM     44  C   UNL     1      12.038  -3.352 -11.508  1.00  0.00     0.074 A 
ATOM     45  C   UNL     1      11.867  -4.162 -10.332  1.00  0.00     0.031 C 
ATOM     46  C   UNL     1       6.054  -5.372 -13.488  1.00  0.00     0.029 A 
ATOM     47  C   UNL     1       7.273  -5.542 -14.258  1.00  0.00     0.049 A 
ATOM     48  H   UNL     1       9.127  -4.654 -13.868  1.00  0.00     0.167 HD
ATOM     49  C   UNL     1      13.112  -3.169 -12.321  1.00  0.00     0.037 A 
ATOM     50  C   UNL     1       7.552  -6.285 -15.360  1.00  0.00     0.037 A 
ATOM     51  C   UNL     1      12.807  -2.245 -13.387  1.00  0.00     0.049 A 
ATOM     52  C   UNL     1       8.818  -5.741 -15.933  1.00  0.00     0.074 A 
ATOM     53  C   UNL     1      12.445  -0.912 -13.432  1.00  0.00     0.029 A 
ATOM     54  N   UNL     1      12.454  -2.767 -14.609  1.00  0.00    -0.354 N 
ATOM     55  N   UNL     1       8.903  -4.546 -16.457  1.00  0.00    -0.248 NA
ATOM     56  C   UNL     1      10.074  -6.299 -15.447  1.00  0.00     0.031 C 
ATOM     57  C   UNL     1      11.470  -0.826 -14.470  1.00  0.00     0.029 A 
ATOM     58  C   UNL     1      11.341  -2.091 -15.044  1.00  0.00     0.049 A 
ATOM     59  H   UNL     1      12.916  -3.494 -15.085  1.00  0.00     0.167 HD
ATOM     60  C   UNL     1      10.111  -4.039 -15.997  1.00  0.00     0.074 A 
ATOM     61  C   UNL     1      10.812  -5.184 -15.418  1.00  0.00     0.031 C 
ATOM     62  C   UNL     1      10.306  -2.694 -15.851  1.00  0.00     0.037 A 
BRANCH  49  63
ATOM     63  C   UNL     1      14.276  -4.121 -12.379  1.00  0.00     0.064 A 
ATOM     64  C   UNL     1      15.398  -3.769 -13.151  1.00  0.00     0.173 A 
ATOM     65  C   UNL     1      14.218  -5.471 -11.965  1.00  0.00     0.173 A 
ATOM     66  F   UNL     1      15.549  -2.515 -13.604  1.00  0.00    -0.203 F 
ATOM     67  C   UNL     1      16.339  -4.718 -13.553  1.00  0.00     0.198 A 
ATOM     68  C   UNL     1      15.189  -6.402 -12.321  1.00  0.00     0.198 A 
ATOM     69  F   UNL     1      13.173  -5.979 -11.303  1.00  0.00    -0.203 F 
ATOM     70  F   UNL     1      17.317  -4.366 -14.398  1.00  0.00    -0.200 F 
ATOM     71  C   UNL     1      16.229  -6.035 -13.146  1.00  0.00     0.200 A 
ATOM     72  F   UNL     1      15.052  -7.676 -11.928  1.00  0.00    -0.200 F 
ATOM     73  F   UNL     1      17.090  -6.960 -13.586  1.00  0.00    -0.200 F 
ENDBRANCH  49  63
BRANCH  50  74
ATOM     74  C   UNL     1       7.040  -7.643 -15.674  1.00  0.00     0.064 A 
ATOM     75  C   UNL     1       7.184  -8.207 -16.952  1.00  0.00     0.173 A 
ATOM     76  C   UNL     1       6.639  -8.523 -14.648  1.00  0.00     0.173 A 
ATOM     77  F   UNL     1       7.614  -7.455 -17.976  1.00  0.00    -0.203 F 
ATOM     78  C   UNL     1       6.950  -9.569 -17.186  1.00  0.00     0.198 A 
ATOM     79  C   UNL     1       6.405  -9.879 -14.882  1.00  0.00     0.198 A 
ATOM     80  F   UNL     1       6.557  -8.106 -13.377  1.00  0.00    -0.203 F 
ATOM     81  F   UNL     1       7.146 -10.083 -18.409  1.00  0.00    -0.200 F 
ATOM     82  C   UNL     1       6.570 -10.405 -16.149  1.00  0.00     0.200 A 
ATOM     83  F   UNL     1       6.078 -10.683 -13.860  1.00  0.00    -0.200 F 
ATOM     84  F   UNL     1       6.402 -11.718 -16.359  1.00  0.00    -0.200 F 
ENDBRANCH  50  74
BRANCH  62  85
ATOM     85  C   UNL     1       9.235  -1.778 -16.376  1.00  0.00     0.064 A 
ATOM     86  C   UNL     1       7.939  -1.704 -15.833  1.00  0.00     0.173 A 
ATOM     87  C   UNL     1       9.573  -0.839 -17.356  1.00  0.00     0.173 A 
ATOM     88  F   UNL     1       7.574  -2.497 -14.820  1.00  0.00    -0.203 F 
ATOM     89  C   UNL     1       7.014  -0.762 -16.283  1.00  0.00     0.198 A 
ATOM     90  C   UNL     1       8.660   0.123 -17.782  1.00  0.00     0.198 A 
ATOM     91  F   UNL     1      10.815  -0.820 -17.866  1.00  0.00    -0.203 F 
ATOM     92  F   UNL     1       5.783  -0.717 -15.751  1.00  0.00    -0.200 F 
ATOM     93  C   UNL     1       7.379   0.155 -17.254  1.00  0.00     0.200 A 
ATOM     94  F   UNL     1       9.033   1.041 -18.684  1.00  0.00    -0.200 F 
ATOM     95  F   UNL     1       6.506   1.088 -17.661  1.00  0.00    -0.200 F 
ENDBRANCH  62  85
ENDBRANCH  36  37
ENDBRANCH  29  31
ENDBRANCH  28  29
ENDBRANCH  27  28
ENDBRANCH  26  27
ENDBRANCH  25  26
ENDBRANCH   1  25
TORSDOF 17
