REMARK SMILES COc1ccc(/C(=C/C(=O)OCCOC(=O)c2ccc(-c3c4nc(c(-c5c(F)c(F)c(F)c(F)c5F)c5ccc([nH]5)c(-c5c(F)c(F)c(F)c(F)c5F)c5nc(c(-c6c(F)c(F)c(F)c(F)c6F)c6ccc3[nH]6)C=C5)C=C4)cc2)C(C)C)cc1C
REMARK SMILES IDX 12 1 11 2 9 3 10 4 8 5 7 6 6 7 3 8 4 9 84 10 5 11 83 12
REMARK SMILES IDX 85 13 2 14 1 15 80 16 81 17 82 18 13 19 14 20 15 21 16 22
REMARK SMILES IDX 17 23 18 24 79 25 19 26 78 27 20 28 21 29 22 30 72 31 23 32
REMARK SMILES IDX 77 33 71 34 73 35 24 36 76 37 70 38 69 39 25 41 57 42 37 43
REMARK SMILES IDX 56 44 38 45 41 46 55 47 74 48 39 49 40 50 54 52 75 53 42 54
REMARK SMILES IDX 26 55 27 56 35 57 28 58 29 59 33 60 36 61 30 62 31 63 34 64
REMARK SMILES IDX 32 65 58 66 59 67 67 68 60 69 61 70 65 71 68 72 62 73 63 74
REMARK SMILES IDX 66 75 64 76 43 77 44 78 52 79 45 80 46 81 50 82 53 83 47 84
REMARK SMILES IDX 48 85 51 86 49 87
REMARK H PARENT 73 40 41 51
REMARK Flexibility Score: inf
ROOT
ATOM      1  C   UNL     1       3.560  -1.434 -10.320  1.00  0.00     0.275 C 
ENDROOT
BRANCH   1   2
ATOM      2  O   UNL     1       3.077  -1.162  -9.001  1.00  0.00    -0.459 OA
BRANCH   2   3
ATOM      3  C   UNL     1       2.971  -2.218  -8.173  1.00  0.00     0.331 C 
ATOM      4  O   UNL     1       3.269  -3.370  -8.451  1.00  0.00    -0.247 OA
BRANCH   3   5
ATOM      5  C   UNL     1       2.320  -1.828  -6.906  1.00  0.00     0.098 C 
ATOM      6  C   UNL     1       2.812  -0.951  -5.998  1.00  0.00    -0.031 C 
BRANCH   6   7
ATOM      7  C   UNL     1       2.112  -0.857  -4.677  1.00  0.00    -0.021 A 
ATOM      8  C   UNL     1       0.850  -0.774  -2.123  1.00  0.00     0.121 A 
ATOM      9  C   UNL     1       2.232  -0.666  -2.239  1.00  0.00     0.047 A 
ATOM     10  C   UNL     1       0.080  -0.964  -3.278  1.00  0.00    -0.008 A 
ATOM     11  C   UNL     1       2.846  -0.731  -3.492  1.00  0.00     0.012 A 
ATOM     12  C   UNL     1       0.713  -0.957  -4.544  1.00  0.00     0.015 A 
ATOM     13  C   UNL     1      -1.409  -1.175  -3.211  1.00  0.00     0.048 C 
BRANCH   8  14
ATOM     14  O   UNL     1       0.205  -0.794  -0.914  1.00  0.00    -0.496 OA
ATOM     15  C   UNL     1       0.742   0.076   0.078  1.00  0.00     0.278 C 
ENDBRANCH   8  14
ENDBRANCH   6   7
BRANCH   6  16
ATOM     16  C   UNL     1       4.140  -0.213  -6.233  1.00  0.00     0.014 C 
ATOM     17  C   UNL     1       4.346   1.123  -5.498  1.00  0.00     0.012 C 
ATOM     18  C   UNL     1       5.338  -1.142  -6.001  1.00  0.00     0.012 C 
ENDBRANCH   6  16
ENDBRANCH   3   5
ENDBRANCH   2   3
ENDBRANCH   1   2
BRANCH   1  19
ATOM     19  C   UNL     1       2.732  -2.414 -11.188  1.00  0.00     0.275 C 
BRANCH  19  20
ATOM     20  O   UNL     1       1.270  -2.507 -11.177  1.00  0.00    -0.458 OA
BRANCH  20  21
ATOM     21  C   UNL     1       0.425  -2.127 -10.187  1.00  0.00     0.338 C 
ATOM     22  O   UNL     1      -0.341  -2.887  -9.617  1.00  0.00    -0.246 OA
BRANCH  21  23
ATOM     23  C   UNL     1       0.408  -0.676  -9.933  1.00  0.00     0.060 A 
ATOM     24  C   UNL     1      -0.171  -0.134  -8.770  1.00  0.00     0.016 A 
ATOM     25  C   UNL     1       1.128   0.122 -10.805  1.00  0.00     0.016 A 
ATOM     26  C   UNL     1       0.046   1.211  -8.461  1.00  0.00     0.010 A 
ATOM     27  C   UNL     1       1.585   1.319 -10.345  1.00  0.00     0.010 A 
ATOM     28  C   UNL     1       0.946   1.919  -9.255  1.00  0.00    -0.014 A 
BRANCH  28  29
ATOM     29  C   UNL     1       1.100   3.363  -9.307  1.00  0.00     0.031 A 
ATOM     30  C   UNL     1       1.921   4.128  -8.372  1.00  0.00     0.074 A 
ATOM     31  C   UNL     1       0.677   3.876 -10.486  1.00  0.00     0.049 A 
ATOM     32  N   UNL     1       1.720   5.368  -8.093  1.00  0.00    -0.248 NA
ATOM     33  C   UNL     1       3.076   3.559  -7.692  1.00  0.00     0.031 C 
ATOM     34  C   UNL     1       0.992   5.126 -11.147  1.00  0.00     0.029 A 
ATOM     35  N   UNL     1      -0.215   3.246 -11.372  1.00  0.00    -0.354 N 
ATOM     36  C   UNL     1       2.873   5.830  -7.498  1.00  0.00     0.074 A 
ATOM     37  C   UNL     1       3.618   4.648  -7.128  1.00  0.00     0.031 C 
ATOM     38  C   UNL     1       0.096   5.317 -12.137  1.00  0.00     0.029 A 
ATOM     39  C   UNL     1      -0.901   4.255 -12.043  1.00  0.00     0.049 A 
ATOM     40  H   UNL     1      -0.332   2.276 -11.494  1.00  0.00     0.167 HD
ATOM     41  C   UNL     1       3.187   7.156  -7.590  1.00  0.00     0.037 A 
ATOM     42  C   UNL     1      -2.227   4.391 -11.750  1.00  0.00     0.037 A 
ATOM     43  C   UNL     1       2.233   7.837  -8.464  1.00  0.00     0.049 A 
ATOM     44  C   UNL     1      -2.474   5.681 -11.015  1.00  0.00     0.074 A 
ATOM     45  C   UNL     1       2.304   8.162  -9.810  1.00  0.00     0.029 A 
ATOM     46  N   UNL     1       0.889   7.911  -8.113  1.00  0.00    -0.354 N 
ATOM     47  N   UNL     1      -1.566   6.304 -10.315  1.00  0.00    -0.248 NA
ATOM     48  C   UNL     1      -3.746   6.386 -11.044  1.00  0.00     0.031 C 
ATOM     49  C   UNL     1       0.987   8.382 -10.281  1.00  0.00     0.029 A 
ATOM     50  C   UNL     1       0.114   8.200  -9.222  1.00  0.00     0.049 A 
ATOM     51  H   UNL     1       0.538   7.777  -7.203  1.00  0.00     0.167 HD
ATOM     52  C   UNL     1      -2.079   7.479  -9.846  1.00  0.00     0.074 A 
ATOM     53  C   UNL     1      -3.450   7.483 -10.326  1.00  0.00     0.031 C 
ATOM     54  C   UNL     1      -1.329   8.354  -9.111  1.00  0.00     0.037 A 
BRANCH  41  55
ATOM     55  C   UNL     1       4.519   7.750  -7.190  1.00  0.00     0.064 A 
ATOM     56  C   UNL     1       5.076   8.847  -7.888  1.00  0.00     0.173 A 
ATOM     57  C   UNL     1       5.287   7.289  -6.104  1.00  0.00     0.173 A 
ATOM     58  F   UNL     1       4.429   9.442  -8.896  1.00  0.00    -0.203 F 
ATOM     59  C   UNL     1       6.330   9.381  -7.579  1.00  0.00     0.198 A 
ATOM     60  C   UNL     1       6.559   7.804  -5.814  1.00  0.00     0.198 A 
ATOM     61  F   UNL     1       4.813   6.350  -5.273  1.00  0.00    -0.203 F 
ATOM     62  F   UNL     1       6.803  10.416  -8.287  1.00  0.00    -0.200 F 
ATOM     63  C   UNL     1       7.082   8.845  -6.556  1.00  0.00     0.200 A 
ATOM     64  F   UNL     1       7.274   7.284  -4.806  1.00  0.00    -0.200 F 
ATOM     65  F   UNL     1       8.294   9.343  -6.275  1.00  0.00    -0.200 F 
ENDBRANCH  41  55
BRANCH  42  66
ATOM     66  C   UNL     1      -2.890   3.071 -11.455  1.00  0.00     0.064 A 
ATOM     67  C   UNL     1      -2.847   2.067 -12.451  1.00  0.00     0.173 A 
ATOM     68  C   UNL     1      -3.204   2.654 -10.153  1.00  0.00     0.173 A 
ATOM     69  F   UNL     1      -2.529   2.393 -13.715  1.00  0.00    -0.203 F 
ATOM     70  C   UNL     1      -2.997   0.714 -12.142  1.00  0.00     0.198 A 
ATOM     71  C   UNL     1      -3.377   1.296  -9.851  1.00  0.00     0.198 A 
ATOM     72  F   UNL     1      -3.253   3.540  -9.150  1.00  0.00    -0.203 F 
ATOM     73  F   UNL     1      -2.825  -0.213 -13.095  1.00  0.00    -0.200 F 
ATOM     74  C   UNL     1      -3.244   0.328 -10.838  1.00  0.00     0.200 A 
ATOM     75  F   UNL     1      -3.598   0.915  -8.584  1.00  0.00    -0.200 F 
ATOM     76  F   UNL     1      -3.316  -0.974 -10.524  1.00  0.00    -0.200 F 
ENDBRANCH  42  66
BRANCH  54  77
ATOM     77  C   UNL     1      -1.865   9.507  -8.304  1.00  0.00     0.064 A 
ATOM     78  C   UNL     1      -3.171   9.559  -7.795  1.00  0.00     0.173 A 
ATOM     79  C   UNL     1      -1.001  10.546  -7.874  1.00  0.00     0.173 A 
ATOM     80  F   UNL     1      -4.048   8.570  -8.010  1.00  0.00    -0.203 F 
ATOM     81  C   UNL     1      -3.604  10.609  -6.984  1.00  0.00     0.198 A 
ATOM     82  C   UNL     1      -1.415  11.547  -7.001  1.00  0.00     0.198 A 
ATOM     83  F   UNL     1       0.282  10.607  -8.260  1.00  0.00    -0.203 F 
ATOM     84  F   UNL     1      -4.880  10.642  -6.574  1.00  0.00    -0.200 F 
ATOM     85  C   UNL     1      -2.724  11.592  -6.574  1.00  0.00     0.200 A 
ATOM     86  F   UNL     1      -0.530  12.452  -6.559  1.00  0.00    -0.200 F 
ATOM     87  F   UNL     1      -3.132  12.566  -5.751  1.00  0.00    -0.200 F 
ENDBRANCH  54  77
ENDBRANCH  28  29
ENDBRANCH  21  23
ENDBRANCH  20  21
ENDBRANCH  19  20
ENDBRANCH   1  19
TORSDOF 14
