REMARK SMILES Cc1cccc(C[C@H](CC(=O)OCCOC(=O)c2ccc(-c3c4nc(c(-c5c(F)c(F)c(F)c(F)c5F)c5ccc([nH]5)c(-c5c(F)c(F)c(F)c(F)c5F)c5nc(c(-c6c(F)c(F)c(F)c(F)c6F)c6ccc3[nH]6)C=C5)C=C4)cc2)NC(=O)OC(C)(C)C)c1
REMARK SMILES IDX 13 1 12 2 10 3 11 4 9 5 8 6 7 7 6 8 1 9 2 10 3 11 89 12 4 13
REMARK SMILES IDX 5 14 81 15 82 16 83 18 84 19 85 20 86 21 87 22 88 23 14 24
REMARK SMILES IDX 15 25 16 26 17 27 18 28 19 29 80 30 20 31 79 32 21 33 22 34
REMARK SMILES IDX 23 35 73 36 24 37 78 38 72 39 74 40 25 41 77 42 71 43 70 44
REMARK SMILES IDX 26 46 58 47 38 48 57 49 39 50 42 51 56 52 75 53 40 54 41 55
REMARK SMILES IDX 55 57 76 58 43 59 27 60 28 61 36 62 29 63 30 64 34 65 37 66
REMARK SMILES IDX 31 67 32 68 35 69 33 70 59 71 60 72 68 73 61 74 62 75 66 76
REMARK SMILES IDX 69 77 63 78 64 79 67 80 65 81 44 82 45 83 53 84 46 85 47 86
REMARK SMILES IDX 51 87 54 88 48 89 49 90 52 91 50 92
REMARK H PARENT 81 17 74 45 42 56
REMARK Flexibility Score: inf
ROOT
ATOM      1  C   UNL     1      -5.716   1.248   1.457  1.00  0.00     0.274 C 
ENDROOT
BRANCH   1   2
ATOM      2  O   UNL     1      -4.643   1.785   0.676  1.00  0.00    -0.462 OA
BRANCH   2   3
ATOM      3  C   UNL     1      -4.323   3.095   0.795  1.00  0.00     0.308 C 
ATOM      4  O   UNL     1      -4.832   3.877   1.580  1.00  0.00    -0.252 OA
BRANCH   3   5
ATOM      5  C   UNL     1      -3.234   3.438  -0.201  1.00  0.00     0.148 C 
BRANCH   5   6
ATOM      6  C   UNL     1      -3.689   3.403  -1.659  1.00  0.00     0.101 C 
BRANCH   6   7
ATOM      7  C   UNL     1      -4.573   2.183  -1.997  1.00  0.00     0.061 C 
BRANCH   7   8
ATOM      8  C   UNL     1      -4.942   1.907  -3.430  1.00  0.00    -0.046 A 
ATOM      9  C   UNL     1      -5.389  -1.159  -5.662  1.00  0.00     0.044 C 
ATOM     10  C   UNL     1      -5.378   0.260  -5.178  1.00  0.00    -0.051 A 
ATOM     11  C   UNL     1      -5.890   1.276  -5.990  1.00  0.00     0.003 A 
ATOM     12  C   UNL     1      -4.892   0.585  -3.906  1.00  0.00     0.007 A 
ATOM     13  C   UNL     1      -5.947   2.587  -5.527  1.00  0.00     0.001 A 
ATOM     14  C   UNL     1      -5.495   2.894  -4.248  1.00  0.00     0.004 A 
ENDBRANCH   7   8
ENDBRANCH   6   7
BRANCH   6  15
ATOM     15  N   UNL     1      -4.307   4.691  -1.936  1.00  0.00    -0.318 N 
ATOM     16  C   UNL     1      -3.803   5.649  -2.773  1.00  0.00     0.407 C 
ATOM     17  H   UNL     1      -5.158   4.889  -1.484  1.00  0.00     0.167 HD
ATOM     18  O   UNL     1      -4.309   6.746  -2.849  1.00  0.00    -0.225 OA
BRANCH  16  19
ATOM     19  O   UNL     1      -2.755   5.185  -3.497  1.00  0.00    -0.444 OA
BRANCH  19  20
ATOM     20  C   UNL     1      -2.248   5.935  -4.623  1.00  0.00     0.106 C 
ATOM     21  C   UNL     1      -3.362   6.212  -5.639  1.00  0.00     0.056 C 
ATOM     22  C   UNL     1      -1.545   7.210  -4.157  1.00  0.00     0.056 C 
ATOM     23  C   UNL     1      -1.214   5.008  -5.283  1.00  0.00     0.056 C 
ENDBRANCH  19  20
ENDBRANCH  16  19
ENDBRANCH   6  15
ENDBRANCH   5   6
ENDBRANCH   3   5
ENDBRANCH   2   3
ENDBRANCH   1   2
BRANCH   1  24
ATOM     24  C   UNL     1      -5.950  -0.209   1.002  1.00  0.00     0.275 C 
BRANCH  24  25
ATOM     25  O   UNL     1      -4.856  -1.155   1.172  1.00  0.00    -0.458 OA
BRANCH  25  26
ATOM     26  C   UNL     1      -3.659  -0.905   0.570  1.00  0.00     0.338 C 
ATOM     27  O   UNL     1      -3.382  -1.172  -0.585  1.00  0.00    -0.246 OA
BRANCH  26  28
ATOM     28  C   UNL     1      -2.762  -0.186   1.514  1.00  0.00     0.060 A 
ATOM     29  C   UNL     1      -1.650   0.543   1.053  1.00  0.00     0.016 A 
ATOM     30  C   UNL     1      -3.248   0.009   2.801  1.00  0.00     0.016 A 
ATOM     31  C   UNL     1      -1.121   1.577   1.843  1.00  0.00     0.010 A 
ATOM     32  C   UNL     1      -2.866   1.139   3.470  1.00  0.00     0.010 A 
ATOM     33  C   UNL     1      -1.777   1.909   3.026  1.00  0.00    -0.014 A 
BRANCH  33  34
ATOM     34  C   UNL     1      -1.317   2.819   4.070  1.00  0.00     0.031 A 
ATOM     35  C   UNL     1      -1.586   4.268   4.130  1.00  0.00     0.074 A 
ATOM     36  C   UNL     1      -0.961   2.109   5.164  1.00  0.00     0.049 A 
ATOM     37  N   UNL     1      -1.338   4.981   5.174  1.00  0.00    -0.248 NA
ATOM     38  C   UNL     1      -2.119   5.066   3.037  1.00  0.00     0.031 C 
ATOM     39  C   UNL     1      -0.930   2.459   6.571  1.00  0.00     0.029 A 
ATOM     40  N   UNL     1      -0.432   0.806   5.129  1.00  0.00    -0.354 N 
ATOM     41  C   UNL     1      -1.881   6.235   5.000  1.00  0.00     0.074 A 
ATOM     42  C   UNL     1      -2.291   6.261   3.620  1.00  0.00     0.031 C 
ATOM     43  C   UNL     1      -0.119   1.582   7.197  1.00  0.00     0.029 A 
ATOM     44  C   UNL     1       0.522   0.784   6.155  1.00  0.00     0.049 A 
ATOM     45  H   UNL     1      -0.677   0.072   4.520  1.00  0.00     0.167 HD
ATOM     46  C   UNL     1      -1.973   7.042   6.098  1.00  0.00     0.037 A 
ATOM     47  C   UNL     1       1.832   0.877   5.766  1.00  0.00     0.037 A 
ATOM     48  C   UNL     1      -1.122   6.508   7.163  1.00  0.00     0.049 A 
ATOM     49  C   UNL     1       2.481   2.167   6.226  1.00  0.00     0.074 A 
ATOM     50  C   UNL     1      -1.332   5.753   8.303  1.00  0.00     0.029 A 
ATOM     51  N   UNL     1       0.242   6.473   6.924  1.00  0.00    -0.354 N 
ATOM     52  N   UNL     1       1.824   3.221   6.626  1.00  0.00    -0.248 NA
ATOM     53  C   UNL     1       3.924   2.381   6.217  1.00  0.00     0.031 C 
ATOM     54  C   UNL     1      -0.076   5.174   8.675  1.00  0.00     0.029 A 
ATOM     55  C   UNL     1       0.890   5.609   7.782  1.00  0.00     0.049 A 
ATOM     56  H   UNL     1       0.693   7.001   6.227  1.00  0.00     0.167 HD
ATOM     57  C   UNL     1       2.700   4.192   7.002  1.00  0.00     0.074 A 
ATOM     58  C   UNL     1       4.005   3.644   6.671  1.00  0.00     0.031 C 
ATOM     59  C   UNL     1       2.308   5.365   7.575  1.00  0.00     0.037 A 
BRANCH  46  60
ATOM     60  C   UNL     1      -2.888   8.236   6.302  1.00  0.00     0.064 A 
ATOM     61  C   UNL     1      -2.966   8.849   7.578  1.00  0.00     0.173 A 
ATOM     62  C   UNL     1      -3.797   8.755   5.357  1.00  0.00     0.173 A 
ATOM     63  F   UNL     1      -2.146   8.489   8.576  1.00  0.00    -0.203 F 
ATOM     64  C   UNL     1      -3.903   9.841   7.889  1.00  0.00     0.198 A 
ATOM     65  C   UNL     1      -4.719   9.766   5.664  1.00  0.00     0.198 A 
ATOM     66  F   UNL     1      -3.860   8.299   4.105  1.00  0.00    -0.203 F 
ATOM     67  F   UNL     1      -3.957  10.339   9.133  1.00  0.00    -0.200 F 
ATOM     68  C   UNL     1      -4.785  10.296   6.934  1.00  0.00     0.200 A 
ATOM     69  F   UNL     1      -5.560  10.205   4.716  1.00  0.00    -0.200 F 
ATOM     70  F   UNL     1      -5.695  11.232   7.234  1.00  0.00    -0.200 F 
ENDBRANCH  46  60
BRANCH  47  71
ATOM     71  C   UNL     1       2.098   0.211   4.441  1.00  0.00     0.064 A 
ATOM     72  C   UNL     1       1.653  -1.118   4.239  1.00  0.00     0.173 A 
ATOM     73  C   UNL     1       2.446   0.938   3.294  1.00  0.00     0.173 A 
ATOM     74  F   UNL     1       1.290  -1.873   5.290  1.00  0.00    -0.203 F 
ATOM     75  C   UNL     1       1.450  -1.640   2.961  1.00  0.00     0.198 A 
ATOM     76  C   UNL     1       2.273   0.397   2.015  1.00  0.00     0.198 A 
ATOM     77  F   UNL     1       2.867   2.206   3.390  1.00  0.00    -0.203 F 
ATOM     78  F   UNL     1       0.900  -2.854   2.811  1.00  0.00    -0.200 F 
ATOM     79  C   UNL     1       1.746  -0.875   1.848  1.00  0.00     0.200 A 
ATOM     80  F   UNL     1       2.542   1.145   0.934  1.00  0.00    -0.200 F 
ATOM     81  F   UNL     1       1.485  -1.342   0.618  1.00  0.00    -0.200 F 
ENDBRANCH  47  71
BRANCH  59  82
ATOM     82  C   UNL     1       3.298   6.396   8.005  1.00  0.00     0.064 A 
ATOM     83  C   UNL     1       4.410   6.067   8.793  1.00  0.00     0.173 A 
ATOM     84  C   UNL     1       3.107   7.759   7.710  1.00  0.00     0.173 A 
ATOM     85  F   UNL     1       4.631   4.799   9.172  1.00  0.00    -0.203 F 
ATOM     86  C   UNL     1       5.314   7.041   9.209  1.00  0.00     0.198 A 
ATOM     87  C   UNL     1       3.978   8.736   8.180  1.00  0.00     0.198 A 
ATOM     88  F   UNL     1       2.091   8.171   6.936  1.00  0.00    -0.203 F 
ATOM     89  F   UNL     1       6.406   6.681   9.898  1.00  0.00    -0.200 F 
ATOM     90  C   UNL     1       5.092   8.375   8.912  1.00  0.00     0.200 A 
ATOM     91  F   UNL     1       3.738  10.026   7.906  1.00  0.00    -0.200 F 
ATOM     92  F   UNL     1       5.956   9.311   9.325  1.00  0.00    -0.200 F 
ENDBRANCH  59  82
ENDBRANCH  33  34
ENDBRANCH  26  28
ENDBRANCH  25  26
ENDBRANCH  24  25
ENDBRANCH   1  24
TORSDOF 17
