REMARK SMILES O=CN[C@@H](CCS[C@@H]1CCO[C@]2(CCOC2)C1)C(=O)OCCOC(=O)c1ccc(-c2c3nc(c(-c4c(F)c(F)c(F)c(F)c4F)c4ccc([nH]4)c(-c4c(F)c(F)c(F)c(F)c4F)c4nc(c(-c5c(F)c(F)c(F)c(F)c5F)c5ccc2[nH]5)C=C4)C=C3)cc1
REMARK SMILES IDX 21 1 20 2 18 3 19 4 4 5 3 6 1 7 2 8 5 10 6 11 7 12 8 13 9 14
REMARK SMILES IDX 17 15 10 16 12 17 11 18 13 19 16 20 14 21 15 22 22 23 23 24
REMARK SMILES IDX 24 25 25 26 26 27 27 28 88 29 28 30 87 31 29 32 30 33 31 34
REMARK SMILES IDX 81 35 32 36 86 37 80 38 82 39 33 40 85 41 79 42 78 43 34 45
REMARK SMILES IDX 66 46 46 47 65 48 47 49 50 50 64 51 83 52 48 53 49 54 63 56
REMARK SMILES IDX 84 57 51 58 35 59 36 60 44 61 37 62 38 63 42 64 45 65 39 66
REMARK SMILES IDX 40 67 43 68 41 69 67 70 68 71 76 72 69 73 70 74 74 75 77 76
REMARK SMILES IDX 71 77 72 78 75 79 73 80 52 81 53 82 61 83 54 84 55 85 59 86
REMARK SMILES IDX 62 87 56 88 57 89 60 90 58 91
REMARK H PARENT 3 9 82 44 50 55
REMARK Flexibility Score: inf
ROOT
ATOM      1  C   UNL     1       6.411   0.315  -4.070  1.00  0.00     0.274 C 
ENDROOT
BRANCH   1   2
ATOM      2  O   UNL     1       5.751   0.100  -2.800  1.00  0.00    -0.461 OA
BRANCH   2   3
ATOM      3  C   UNL     1       6.533  -0.475  -1.845  1.00  0.00     0.328 C 
ATOM      4  O   UNL     1       7.731  -0.703  -1.977  1.00  0.00    -0.250 OA
BRANCH   3   5
ATOM      5  C   UNL     1       5.741  -0.897  -0.587  1.00  0.00     0.192 C 
BRANCH   5   6
ATOM      6  N   UNL     1       4.384  -0.394  -0.412  1.00  0.00    -0.345 N 
ATOM      7  O   UNL     1       2.681   0.353   0.879  1.00  0.00    -0.279 OA
ATOM      8  C   UNL     1       3.753  -0.225   0.785  1.00  0.00     0.337 C 
ATOM      9  H   UNL     1       3.881  -0.158  -1.224  1.00  0.00     0.164 HD
ENDBRANCH   5   6
BRANCH   5  10
ATOM     10  C   UNL     1       5.810  -2.416  -0.396  1.00  0.00     0.048 C 
BRANCH  10  11
ATOM     11  C   UNL     1       5.268  -3.398  -1.455  1.00  0.00     0.072 C 
BRANCH  11  12
ATOM     12  S   UNL     1       5.342  -3.050  -3.246  1.00  0.00    -0.158 SA
BRANCH  12  13
ATOM     13  C   UNL     1       3.654  -2.520  -3.823  1.00  0.00     0.052 C 
ATOM     14  C   UNL     1       2.782  -1.622  -2.972  1.00  0.00     0.043 C 
ATOM     15  C   UNL     1       2.774  -3.642  -4.369  1.00  0.00     0.052 C 
ATOM     16  C   UNL     1       2.080  -2.366  -1.860  1.00  0.00     0.162 C 
ATOM     17  C   UNL     1       1.930  -4.350  -3.294  1.00  0.00     0.095 C 
ATOM     18  O   UNL     1       1.328  -3.466  -2.349  1.00  0.00    -0.372 OA
ATOM     19  C   UNL     1       2.663  -5.534  -2.681  1.00  0.00     0.066 C 
ATOM     20  C   UNL     1       0.767  -5.110  -3.949  1.00  0.00     0.195 C 
ATOM     21  C   UNL     1       2.483  -6.633  -3.719  1.00  0.00     0.163 C 
ATOM     22  O   UNL     1       1.296  -6.336  -4.461  1.00  0.00    -0.378 OA
ENDBRANCH  12  13
ENDBRANCH  11  12
ENDBRANCH  10  11
ENDBRANCH   5  10
ENDBRANCH   3   5
ENDBRANCH   2   3
ENDBRANCH   1   2
BRANCH   1  23
ATOM     23  C   UNL     1       5.544   1.185  -4.986  1.00  0.00     0.275 C 
BRANCH  23  24
ATOM     24  O   UNL     1       5.469   2.506  -4.422  1.00  0.00    -0.458 OA
BRANCH  24  25
ATOM     25  C   UNL     1       4.471   2.650  -3.526  1.00  0.00     0.338 C 
ATOM     26  O   UNL     1       3.451   1.972  -3.433  1.00  0.00    -0.246 OA
BRANCH  25  27
ATOM     27  C   UNL     1       4.980   3.478  -2.426  1.00  0.00     0.060 A 
ATOM     28  C   UNL     1       5.022   2.855  -1.179  1.00  0.00     0.016 A 
ATOM     29  C   UNL     1       5.419   4.789  -2.572  1.00  0.00     0.016 A 
ATOM     30  C   UNL     1       5.474   3.516  -0.056  1.00  0.00     0.010 A 
ATOM     31  C   UNL     1       5.861   5.477  -1.436  1.00  0.00     0.010 A 
ATOM     32  C   UNL     1       5.868   4.845  -0.176  1.00  0.00    -0.014 A 
BRANCH  32  33
ATOM     33  C   UNL     1       6.080   5.602   1.071  1.00  0.00     0.031 A 
ATOM     34  C   UNL     1       4.981   6.508   1.533  1.00  0.00     0.074 A 
ATOM     35  C   UNL     1       7.169   5.383   1.827  1.00  0.00     0.049 A 
ATOM     36  N   UNL     1       4.970   7.368   2.516  1.00  0.00    -0.248 NA
ATOM     37  C   UNL     1       3.717   6.433   0.781  1.00  0.00     0.031 C 
ATOM     38  C   UNL     1       8.223   4.412   1.530  1.00  0.00     0.029 A 
ATOM     39  N   UNL     1       7.560   5.955   3.007  1.00  0.00    -0.354 N 
ATOM     40  C   UNL     1       3.719   7.968   2.469  1.00  0.00     0.074 A 
ATOM     41  C   UNL     1       2.997   7.378   1.365  1.00  0.00     0.031 C 
ATOM     42  C   UNL     1       9.147   4.461   2.505  1.00  0.00     0.029 A 
ATOM     43  C   UNL     1       8.779   5.508   3.452  1.00  0.00     0.049 A 
ATOM     44  H   UNL     1       7.019   6.621   3.490  1.00  0.00     0.167 HD
ATOM     45  C   UNL     1       3.229   8.934   3.279  1.00  0.00     0.037 A 
ATOM     46  C   UNL     1       9.525   5.940   4.486  1.00  0.00     0.037 A 
ATOM     47  C   UNL     1       3.962   9.480   4.390  1.00  0.00     0.049 A 
ATOM     48  C   UNL     1       8.991   7.069   5.328  1.00  0.00     0.074 A 
ATOM     49  C   UNL     1       3.594  10.486   5.263  1.00  0.00     0.029 A 
ATOM     50  N   UNL     1       5.221   9.043   4.785  1.00  0.00    -0.354 N 
ATOM     51  N   UNL     1       7.846   7.704   5.233  1.00  0.00    -0.248 NA
ATOM     52  C   UNL     1       9.855   7.548   6.413  1.00  0.00     0.031 C 
ATOM     53  C   UNL     1       4.647  10.685   6.163  1.00  0.00     0.029 A 
ATOM     54  C   UNL     1       5.650   9.768   5.883  1.00  0.00     0.049 A 
ATOM     55  H   UNL     1       5.732   8.324   4.348  1.00  0.00     0.167 HD
ATOM     56  C   UNL     1       7.843   8.644   6.253  1.00  0.00     0.074 A 
ATOM     57  C   UNL     1       9.092   8.478   6.970  1.00  0.00     0.031 C 
ATOM     58  C   UNL     1       6.901   9.568   6.571  1.00  0.00     0.037 A 
BRANCH  45  59
ATOM     59  C   UNL     1       1.879   9.495   2.942  1.00  0.00     0.064 A 
ATOM     60  C   UNL     1       0.699   8.757   3.114  1.00  0.00     0.173 A 
ATOM     61  C   UNL     1       1.771  10.790   2.413  1.00  0.00     0.173 A 
ATOM     62  F   UNL     1       0.749   7.503   3.590  1.00  0.00    -0.203 F 
ATOM     63  C   UNL     1      -0.536   9.283   2.740  1.00  0.00     0.198 A 
ATOM     64  C   UNL     1       0.532  11.325   2.070  1.00  0.00     0.198 A 
ATOM     65  F   UNL     1       2.869  11.537   2.222  1.00  0.00    -0.203 F 
ATOM     66  F   UNL     1      -1.644   8.538   2.857  1.00  0.00    -0.200 F 
ATOM     67  C   UNL     1      -0.619  10.568   2.224  1.00  0.00     0.200 A 
ATOM     68  F   UNL     1       0.455  12.568   1.577  1.00  0.00    -0.200 F 
ATOM     69  F   UNL     1      -1.807  11.072   1.863  1.00  0.00    -0.200 F 
ENDBRANCH  45  59
BRANCH  46  70
ATOM     70  C   UNL     1      10.863   5.346   4.746  1.00  0.00     0.064 A 
ATOM     71  C   UNL     1      11.120   4.618   5.915  1.00  0.00     0.173 A 
ATOM     72  C   UNL     1      11.921   5.508   3.837  1.00  0.00     0.173 A 
ATOM     73  F   UNL     1      10.150   4.454   6.828  1.00  0.00    -0.203 F 
ATOM     74  C   UNL     1      12.384   4.090   6.174  1.00  0.00     0.198 A 
ATOM     75  C   UNL     1      13.175   4.953   4.081  1.00  0.00     0.198 A 
ATOM     76  F   UNL     1      11.733   6.198   2.702  1.00  0.00    -0.203 F 
ATOM     77  F   UNL     1      12.614   3.440   7.323  1.00  0.00    -0.200 F 
ATOM     78  C   UNL     1      13.409   4.253   5.254  1.00  0.00     0.200 A 
ATOM     79  F   UNL     1      14.158   5.101   3.182  1.00  0.00    -0.200 F 
ATOM     80  F   UNL     1      14.622   3.741   5.501  1.00  0.00    -0.200 F 
ENDBRANCH  46  70
BRANCH  58  81
ATOM     81  C   UNL     1       7.182  10.435   7.762  1.00  0.00     0.064 A 
ATOM     82  C   UNL     1       8.160  11.440   7.727  1.00  0.00     0.173 A 
ATOM     83  C   UNL     1       6.449  10.268   8.947  1.00  0.00     0.173 A 
ATOM     84  F   UNL     1       8.897  11.626   6.622  1.00  0.00    -0.203 F 
ATOM     85  C   UNL     1       8.420  12.222   8.848  1.00  0.00     0.198 A 
ATOM     86  C   UNL     1       6.689  11.074  10.055  1.00  0.00     0.198 A 
ATOM     87  F   UNL     1       5.497   9.326   9.027  1.00  0.00    -0.203 F 
ATOM     88  F   UNL     1       9.400  13.134   8.813  1.00  0.00    -0.200 F 
ATOM     89  C   UNL     1       7.681  12.042  10.008  1.00  0.00     0.200 A 
ATOM     90  F   UNL     1       5.964  10.910  11.170  1.00  0.00    -0.200 F 
ATOM     91  F   UNL     1       7.932  12.797  11.087  1.00  0.00    -0.200 F 
ENDBRANCH  58  81
ENDBRANCH  32  33
ENDBRANCH  25  27
ENDBRANCH  24  25
ENDBRANCH  23  24
ENDBRANCH   1  23
TORSDOF 16
