REMARK SMILES Cc1nc2ccccc2c2c1C(=O)N(c1cccc(C(=O)OCCOC(=O)c3ccc(-c4c5nc(c(-c6c(F)c(F)c(F)c(F)c6F)c6ccc([nH]6)c(-c6c(F)c(F)c(F)c(F)c6F)c6nc(c(-c7c(F)c(F)c(F)c(F)c7F)c7ccc4[nH]7)C=C6)C=C5)cc3)c1)C2=O
REMARK SMILES IDX 24 1 23 2 22 3 20 4 21 5 19 6 15 7 16 8 91 9 17 10 18 11
REMARK SMILES IDX 14 12 1 13 2 14 3 15 11 16 4 17 10 18 12 19 5 20 9 21 92 22
REMARK SMILES IDX 13 23 6 24 8 25 93 26 7 27 25 28 26 29 27 30 28 31 29 32
REMARK SMILES IDX 90 33 30 34 89 35 31 36 32 37 33 38 83 39 34 40 88 41 82 42
REMARK SMILES IDX 84 43 35 44 87 45 81 46 80 47 36 49 68 50 48 51 67 52 49 53
REMARK SMILES IDX 52 54 66 55 85 56 50 57 51 58 65 60 86 61 53 62 37 63 38 64
REMARK SMILES IDX 46 65 39 66 40 67 44 68 47 69 41 70 42 71 45 72 43 73 69 74
REMARK SMILES IDX 70 75 78 76 71 77 72 78 76 79 79 80 73 81 74 82 77 83 75 84
REMARK SMILES IDX 54 85 55 86 63 87 56 88 57 89 61 90 64 91 58 92 59 93 62 94
REMARK SMILES IDX 60 95
REMARK H PARENT 84 48 52 59
REMARK Flexibility Score: inf
ROOT
ATOM      1  C   UNL     1      -1.567  -9.434  -4.364  1.00  0.00     0.275 C 
ENDROOT
BRANCH   1   2
ATOM      2  C   UNL     1      -2.873  -9.405  -3.572  1.00  0.00     0.275 C 
BRANCH   2   3
ATOM      3  O   UNL     1      -2.863  -8.368  -2.570  1.00  0.00    -0.458 OA
BRANCH   3   4
ATOM      4  C   UNL     1      -2.630  -8.763  -1.294  1.00  0.00     0.338 C 
ATOM      5  O   UNL     1      -2.366  -9.899  -0.931  1.00  0.00    -0.246 OA
BRANCH   4   6
ATOM      6  C   UNL     1      -2.683  -7.612  -0.348  1.00  0.00     0.062 A 
ATOM      7  C   UNL     1      -2.894  -5.215   0.119  1.00  0.00     0.053 A 
ATOM      8  C   UNL     1      -2.587  -5.471   1.464  1.00  0.00     0.027 A 
ATOM      9  C   UNL     1      -3.002  -6.311  -0.762  1.00  0.00     0.042 A 
ATOM     10  C   UNL     1      -2.290  -6.771   1.889  1.00  0.00     0.003 A 
ATOM     11  C   UNL     1      -2.317  -7.832   0.983  1.00  0.00     0.016 A 
BRANCH   7  12
ATOM     12  N   UNL     1      -2.759  -3.891  -0.418  1.00  0.00    -0.242 N 
ATOM     13  C   UNL     1      -0.555  -0.097   0.994  1.00  0.00     0.067 C 
ATOM     14  C   UNL     1      -0.356  -1.473   0.439  1.00  0.00     0.052 A 
ATOM     15  N   UNL     1       0.866  -2.040   0.582  1.00  0.00    -0.252 NA
ATOM     16  C   UNL     1      -1.328  -2.076  -0.329  1.00  0.00     0.075 A 
ATOM     17  C   UNL     1       1.139  -3.179  -0.085  1.00  0.00     0.071 A 
ATOM     18  C   UNL     1      -0.918  -2.996  -1.276  1.00  0.00     0.064 A 
ATOM     19  C   UNL     1      -2.496  -2.754   0.320  1.00  0.00     0.268 C 
ATOM     20  C   UNL     1       2.214  -3.962   0.314  1.00  0.00     0.029 A 
ATOM     21  C   UNL     1       0.307  -3.662  -1.113  1.00  0.00     0.014 A 
ATOM     22  C   UNL     1      -2.111  -3.763  -1.610  1.00  0.00     0.266 C 
ATOM     23  O   UNL     1      -2.984  -2.382   1.373  1.00  0.00    -0.268 OA
ATOM     24  C   UNL     1       2.497  -5.187  -0.293  1.00  0.00     0.002 A 
ATOM     25  C   UNL     1       0.628  -4.866  -1.772  1.00  0.00     0.011 A 
ATOM     26  O   UNL     1      -2.387  -4.148  -2.729  1.00  0.00    -0.268 OA
ATOM     27  C   UNL     1       1.723  -5.618  -1.361  1.00  0.00     0.001 A 
ENDBRANCH   7  12
ENDBRANCH   4   6
ENDBRANCH   3   4
ENDBRANCH   2   3
ENDBRANCH   1   2
BRANCH   1  28
ATOM     28  O   UNL     1      -0.476  -9.837  -3.517  1.00  0.00    -0.458 OA
BRANCH  28  29
ATOM     29  C   UNL     1       0.455  -8.890  -3.282  1.00  0.00     0.338 C 
ATOM     30  O   UNL     1       0.513  -7.760  -3.735  1.00  0.00    -0.246 OA
BRANCH  29  31
ATOM     31  C   UNL     1       1.439  -9.403  -2.320  1.00  0.00     0.060 A 
ATOM     32  C   UNL     1       2.621  -9.985  -2.777  1.00  0.00     0.016 A 
ATOM     33  C   UNL     1       1.239  -9.165  -0.958  1.00  0.00     0.016 A 
ATOM     34  C   UNL     1       3.603 -10.355  -1.853  1.00  0.00     0.010 A 
ATOM     35  C   UNL     1       2.243  -9.491  -0.044  1.00  0.00     0.010 A 
ATOM     36  C   UNL     1       3.429 -10.103  -0.479  1.00  0.00    -0.014 A 
BRANCH  36  37
ATOM     37  C   UNL     1       4.487 -10.483   0.496  1.00  0.00     0.031 A 
ATOM     38  C   UNL     1       4.246 -11.588   1.489  1.00  0.00     0.074 A 
ATOM     39  C   UNL     1       5.671  -9.840   0.490  1.00  0.00     0.049 A 
ATOM     40  N   UNL     1       5.071 -12.104   2.367  1.00  0.00    -0.248 NA
ATOM     41  C   UNL     1       2.900 -12.181   1.512  1.00  0.00     0.031 C 
ATOM     42  C   UNL     1       6.020  -8.721  -0.384  1.00  0.00     0.029 A 
ATOM     43  N   UNL     1       6.808 -10.049   1.234  1.00  0.00    -0.354 N 
ATOM     44  C   UNL     1       4.348 -13.082   3.037  1.00  0.00     0.074 A 
ATOM     45  C   UNL     1       3.001 -13.048   2.509  1.00  0.00     0.031 C 
ATOM     46  C   UNL     1       7.300  -8.376  -0.166  1.00  0.00     0.029 A 
ATOM     47  C   UNL     1       7.857  -9.236   0.875  1.00  0.00     0.049 A 
ATOM     48  H   UNL     1       6.866 -10.717   1.954  1.00  0.00     0.167 HD
ATOM     49  C   UNL     1       4.774 -13.954   3.981  1.00  0.00     0.037 A 
ATOM     50  C   UNL     1       9.130  -9.206   1.318  1.00  0.00     0.037 A 
ATOM     51  C   UNL     1       6.116 -14.010   4.496  1.00  0.00     0.049 A 
ATOM     52  C   UNL     1       9.577 -10.181   2.373  1.00  0.00     0.074 A 
ATOM     53  C   UNL     1       6.646 -14.885   5.429  1.00  0.00     0.029 A 
ATOM     54  N   UNL     1       7.143 -13.160   4.117  1.00  0.00    -0.354 N 
ATOM     55  N   UNL     1       8.899 -11.141   2.951  1.00  0.00    -0.248 NA
ATOM     56  C   UNL     1      10.970 -10.072   2.831  1.00  0.00     0.031 C 
ATOM     57  C   UNL     1       7.987 -14.547   5.635  1.00  0.00     0.029 A 
ATOM     58  C   UNL     1       8.301 -13.484   4.804  1.00  0.00     0.049 A 
ATOM     59  H   UNL     1       7.061 -12.434   3.457  1.00  0.00     0.167 HD
ATOM     60  C   UNL     1       9.786 -11.765   3.818  1.00  0.00     0.074 A 
ATOM     61  C   UNL     1      11.055 -11.083   3.685  1.00  0.00     0.031 C 
ATOM     62  C   UNL     1       9.563 -12.810   4.651  1.00  0.00     0.037 A 
BRANCH  49  63
ATOM     63  C   UNL     1       3.784 -14.953   4.501  1.00  0.00     0.064 A 
ATOM     64  C   UNL     1       3.372 -16.038   3.715  1.00  0.00     0.173 A 
ATOM     65  C   UNL     1       3.298 -14.867   5.814  1.00  0.00     0.173 A 
ATOM     66  F   UNL     1       3.804 -16.158   2.450  1.00  0.00    -0.203 F 
ATOM     67  C   UNL     1       2.495 -16.995   4.218  1.00  0.00     0.198 A 
ATOM     68  C   UNL     1       2.440 -15.839   6.322  1.00  0.00     0.198 A 
ATOM     69  F   UNL     1       3.669 -13.853   6.609  1.00  0.00    -0.203 F 
ATOM     70  F   UNL     1       2.091 -18.007   3.438  1.00  0.00    -0.200 F 
ATOM     71  C   UNL     1       2.037 -16.899   5.523  1.00  0.00     0.200 A 
ATOM     72  F   UNL     1       2.008 -15.755   7.588  1.00  0.00    -0.200 F 
ATOM     73  F   UNL     1       1.205 -17.830   6.011  1.00  0.00    -0.200 F 
ENDBRANCH  49  63
BRANCH  50  74
ATOM     74  C   UNL     1      10.100  -8.260   0.710  1.00  0.00     0.064 A 
ATOM     75  C   UNL     1      11.110  -8.728  -0.143  1.00  0.00     0.173 A 
ATOM     76  C   UNL     1      10.042  -6.883   0.961  1.00  0.00     0.173 A 
ATOM     77  F   UNL     1      11.217 -10.041  -0.394  1.00  0.00    -0.203 F 
ATOM     78  C   UNL     1      12.033  -7.854  -0.713  1.00  0.00     0.198 A 
ATOM     79  C   UNL     1      10.953  -6.007   0.374  1.00  0.00     0.198 A 
ATOM     80  F   UNL     1       9.094  -6.387   1.770  1.00  0.00    -0.203 F 
ATOM     81  F   UNL     1      13.009  -8.332  -1.496  1.00  0.00    -0.200 F 
ATOM     82  C   UNL     1      11.950  -6.494  -0.458  1.00  0.00     0.200 A 
ATOM     83  F   UNL     1      10.866  -4.692   0.614  1.00  0.00    -0.200 F 
ATOM     84  F   UNL     1      12.836  -5.653  -1.010  1.00  0.00    -0.200 F 
ENDBRANCH  50  74
BRANCH  62  85
ATOM     85  C   UNL     1      10.715 -13.308   5.471  1.00  0.00     0.064 A 
ATOM     86  C   UNL     1      11.163 -12.609   6.601  1.00  0.00     0.173 A 
ATOM     87  C   UNL     1      11.320 -14.539   5.174  1.00  0.00     0.173 A 
ATOM     88  F   UNL     1      10.622 -11.423   6.918  1.00  0.00    -0.203 F 
ATOM     89  C   UNL     1      12.181 -13.121   7.400  1.00  0.00     0.198 A 
ATOM     90  C   UNL     1      12.323 -15.058   5.988  1.00  0.00     0.198 A 
ATOM     91  F   UNL     1      10.921 -15.248   4.108  1.00  0.00    -0.203 F 
ATOM     92  F   UNL     1      12.610 -12.425   8.463  1.00  0.00    -0.200 F 
ATOM     93  C   UNL     1      12.754 -14.348   7.099  1.00  0.00     0.200 A 
ATOM     94  F   UNL     1      12.867 -16.249   5.703  1.00  0.00    -0.200 F 
ATOM     95  F   UNL     1      13.722 -14.847   7.880  1.00  0.00    -0.200 F 
ENDBRANCH  62  85
ENDBRANCH  36  37
ENDBRANCH  29  31
ENDBRANCH  28  29
ENDBRANCH   1  28
TORSDOF 12
