REMARK SMILES O=C(COc1ccccc1/C=C1/SC(=O)N(c2ccc(F)cc2)C1=O)OCCOC(=O)c1ccc(-c2c3nc(c(-c4c(F)c(F)c(F)c(F)c4F)c4ccc([nH]4)c(-c4c(F)c(F)c(F)c(F)c4F)c4nc(c(-c5c(F)c(F)c(F)c(F)c5F)c5ccc2[nH]5)C=C4)C=C3)cc1
REMARK SMILES IDX 27 1 26 2 2 3 1 4 3 5 4 6 5 7 6 8 10 9 7 10 9 11 8 12 11 13
REMARK SMILES IDX 12 14 13 15 24 16 14 17 16 18 25 19 15 20 17 21 18 22 23 23
REMARK SMILES IDX 19 24 22 25 20 26 21 27 28 28 29 29 30 30 31 31 32 32 33 33
REMARK SMILES IDX 94 34 34 35 93 36 35 37 36 38 37 39 87 40 38 41 92 42 86 43
REMARK SMILES IDX 88 44 39 45 91 46 85 47 84 48 40 50 72 51 52 52 71 53 53 54
REMARK SMILES IDX 56 55 70 56 89 57 54 58 55 59 69 61 90 62 57 63 41 64 42 65
REMARK SMILES IDX 50 66 43 67 44 68 48 69 51 70 45 71 46 72 49 73 47 74 73 75
REMARK SMILES IDX 74 76 82 77 75 78 76 79 80 80 83 81 77 82 78 83 81 84 79 85
REMARK SMILES IDX 58 86 59 87 67 88 60 89 61 90 65 91 68 92 62 93 63 94 66 95
REMARK SMILES IDX 64 96
REMARK H PARENT 88 49 56 60
REMARK Flexibility Score: inf
ROOT
ATOM      1  C   UNL     1       4.766   0.635   0.923  1.00  0.00     0.274 C 
ENDROOT
BRANCH   1   2
ATOM      2  O   UNL     1       3.368   0.761   0.581  1.00  0.00    -0.460 OA
BRANCH   2   3
ATOM      3  C   UNL     1       2.592  -0.252   0.124  1.00  0.00     0.344 C 
ATOM      4  O   UNL     1       1.366  -0.174   0.183  1.00  0.00    -0.248 OA
BRANCH   3   5
ATOM      5  C   UNL     1       3.270  -1.438  -0.531  1.00  0.00     0.352 C 
BRANCH   5   6
ATOM      6  O   UNL     1       3.992  -1.030  -1.691  1.00  0.00    -0.481 OA
BRANCH   6   7
ATOM      7  C   UNL     1       3.304  -1.353  -2.836  1.00  0.00     0.127 A 
ATOM      8  C   UNL     1       3.652  -2.550  -3.467  1.00  0.00     0.047 A 
ATOM      9  C   UNL     1       2.335  -0.495  -3.394  1.00  0.00     0.018 A 
ATOM     10  C   UNL     1       3.000  -2.930  -4.637  1.00  0.00     0.004 A 
ATOM     11  C   UNL     1       1.676  -0.903  -4.559  1.00  0.00     0.012 A 
ATOM     12  C   UNL     1       2.008  -2.112  -5.177  1.00  0.00     0.001 A 
BRANCH   9  13
ATOM     13  C   UNL     1       1.958   0.794  -2.792  1.00  0.00     0.033 C 
ATOM     14  C   UNL     1       2.791   1.823  -2.580  1.00  0.00     0.084 C 
ATOM     15  S   UNL     1       2.405   3.174  -1.588  1.00  0.00    -0.022 SA
ATOM     16  C   UNL     1       4.219   1.906  -2.991  1.00  0.00     0.272 C 
ATOM     17  C   UNL     1       4.110   3.496  -1.272  1.00  0.00     0.298 C 
ATOM     18  N   UNL     1       4.897   2.790  -2.160  1.00  0.00    -0.236 N 
ATOM     19  O   UNL     1       4.674   1.248  -3.917  1.00  0.00    -0.268 OA
ATOM     20  O   UNL     1       4.454   4.258  -0.381  1.00  0.00    -0.260 OA
BRANCH  18  21
ATOM     21  C   UNL     1       6.322   2.894  -2.195  1.00  0.00     0.053 A 
ATOM     22  C   UNL     1       7.022   2.720  -3.402  1.00  0.00     0.030 A 
ATOM     23  C   UNL     1       7.074   3.111  -1.027  1.00  0.00     0.030 A 
ATOM     24  C   UNL     1       8.418   2.709  -3.438  1.00  0.00     0.041 A 
ATOM     25  C   UNL     1       8.473   3.066  -1.056  1.00  0.00     0.041 A 
ATOM     26  C   UNL     1       9.132   2.860  -2.260  1.00  0.00     0.123 A 
ATOM     27  F   UNL     1      10.469   2.805  -2.285  1.00  0.00    -0.207 F 
ENDBRANCH  18  21
ENDBRANCH   9  13
ENDBRANCH   6   7
ENDBRANCH   5   6
ENDBRANCH   3   5
ENDBRANCH   2   3
ENDBRANCH   1   2
BRANCH   1  28
ATOM     28  C   UNL     1       4.923   0.468   2.432  1.00  0.00     0.275 C 
BRANCH  28  29
ATOM     29  O   UNL     1       4.419  -0.824   2.794  1.00  0.00    -0.458 OA
BRANCH  29  30
ATOM     30  C   UNL     1       3.128  -0.853   3.204  1.00  0.00     0.338 C 
ATOM     31  O   UNL     1       2.420   0.092   3.498  1.00  0.00    -0.246 OA
BRANCH  30  32
ATOM     32  C   UNL     1       2.646  -2.233   3.013  1.00  0.00     0.060 A 
ATOM     33  C   UNL     1       1.357  -2.428   2.498  1.00  0.00     0.016 A 
ATOM     34  C   UNL     1       3.474  -3.324   3.297  1.00  0.00     0.016 A 
ATOM     35  C   UNL     1       0.878  -3.719   2.299  1.00  0.00     0.010 A 
ATOM     36  C   UNL     1       2.992  -4.614   3.111  1.00  0.00     0.010 A 
ATOM     37  C   UNL     1       1.679  -4.812   2.652  1.00  0.00    -0.014 A 
BRANCH  37  38
ATOM     38  C   UNL     1       1.072  -6.146   2.820  1.00  0.00     0.031 A 
ATOM     39  C   UNL     1       0.571  -6.504   4.189  1.00  0.00     0.074 A 
ATOM     40  C   UNL     1       1.012  -7.019   1.804  1.00  0.00     0.049 A 
ATOM     41  N   UNL     1       0.074  -7.629   4.628  1.00  0.00    -0.248 NA
ATOM     42  C   UNL     1       0.660  -5.444   5.209  1.00  0.00     0.031 C 
ATOM     43  C   UNL     1       1.454  -6.760   0.436  1.00  0.00     0.029 A 
ATOM     44  N   UNL     1       0.565  -8.314   1.779  1.00  0.00    -0.354 N 
ATOM     45  C   UNL     1      -0.204  -7.413   5.971  1.00  0.00     0.074 A 
ATOM     46  C   UNL     1       0.216  -6.067   6.287  1.00  0.00     0.031 C 
ATOM     47  C   UNL     1       1.268  -7.872  -0.297  1.00  0.00     0.029 A 
ATOM     48  C   UNL     1       0.718  -8.922   0.559  1.00  0.00     0.049 A 
ATOM     49  H   UNL     1       0.172  -8.764   2.561  1.00  0.00     0.167 HD
ATOM     50  C   UNL     1      -0.771  -8.261   6.859  1.00  0.00     0.037 A 
ATOM     51  C   UNL     1       0.452 -10.190   0.194  1.00  0.00     0.037 A 
ATOM     52  C   UNL     1      -1.166  -9.604   6.535  1.00  0.00     0.049 A 
ATOM     53  C   UNL     1      -0.123 -11.139   1.216  1.00  0.00     0.074 A 
ATOM     54  C   UNL     1      -1.759 -10.552   7.347  1.00  0.00     0.029 A 
ATOM     55  N   UNL     1      -0.992 -10.191   5.289  1.00  0.00    -0.354 N 
ATOM     56  N   UNL     1      -0.424 -10.921   2.474  1.00  0.00    -0.248 NA
ATOM     57  C   UNL     1      -0.399 -12.509   0.763  1.00  0.00     0.031 C 
ATOM     58  C   UNL     1      -1.898 -11.730   6.606  1.00  0.00     0.029 A 
ATOM     59  C   UNL     1      -1.445 -11.498   5.316  1.00  0.00     0.049 A 
ATOM     60  H   UNL     1      -0.604  -9.743   4.503  1.00  0.00     0.167 HD
ATOM     61  C   UNL     1      -0.959 -12.110   2.953  1.00  0.00     0.074 A 
ATOM     62  C   UNL     1      -0.944 -13.045   1.847  1.00  0.00     0.031 C 
ATOM     63  C   UNL     1      -1.427 -12.402   4.193  1.00  0.00     0.037 A 
BRANCH  50  64
ATOM     64  C   UNL     1      -0.953  -7.758   8.260  1.00  0.00     0.064 A 
ATOM     65  C   UNL     1      -1.878  -6.747   8.567  1.00  0.00     0.173 A 
ATOM     66  C   UNL     1      -0.173  -8.272   9.306  1.00  0.00     0.173 A 
ATOM     67  F   UNL     1      -2.631  -6.204   7.598  1.00  0.00    -0.203 F 
ATOM     68  C   UNL     1      -1.985  -6.241   9.860  1.00  0.00     0.198 A 
ATOM     69  C   UNL     1      -0.305  -7.787  10.604  1.00  0.00     0.198 A 
ATOM     70  F   UNL     1       0.729  -9.236   9.067  1.00  0.00    -0.203 F 
ATOM     71  F   UNL     1      -2.825  -5.228  10.115  1.00  0.00    -0.200 F 
ATOM     72  C   UNL     1      -1.202  -6.764  10.878  1.00  0.00     0.200 A 
ATOM     73  F   UNL     1       0.447  -8.297  11.589  1.00  0.00    -0.200 F 
ATOM     74  F   UNL     1      -1.301  -6.273  12.121  1.00  0.00    -0.200 F 
ENDBRANCH  50  64
BRANCH  51  75
ATOM     75  C   UNL     1       0.703 -10.628  -1.203  1.00  0.00     0.064 A 
ATOM     76  C   UNL     1      -0.361 -10.914  -2.069  1.00  0.00     0.173 A 
ATOM     77  C   UNL     1       2.006 -10.769  -1.702  1.00  0.00     0.173 A 
ATOM     78  F   UNL     1      -1.625 -10.815  -1.630  1.00  0.00    -0.203 F 
ATOM     79  C   UNL     1      -0.133 -11.337  -3.377  1.00  0.00     0.198 A 
ATOM     80  C   UNL     1       2.233 -11.168  -3.018  1.00  0.00     0.198 A 
ATOM     81  F   UNL     1       3.060 -10.507  -0.915  1.00  0.00    -0.203 F 
ATOM     82  F   UNL     1      -1.169 -11.640  -4.171  1.00  0.00    -0.200 F 
ATOM     83  C   UNL     1       1.164 -11.458  -3.852  1.00  0.00     0.200 A 
ATOM     84  F   UNL     1       3.488 -11.273  -3.478  1.00  0.00    -0.200 F 
ATOM     85  F   UNL     1       1.383 -11.859  -5.112  1.00  0.00    -0.200 F 
ENDBRANCH  51  75
BRANCH  63  86
ATOM     86  C   UNL     1      -2.005 -13.771   4.405  1.00  0.00     0.064 A 
ATOM     87  C   UNL     1      -1.196 -14.914   4.467  1.00  0.00     0.173 A 
ATOM     88  C   UNL     1      -3.386 -13.930   4.603  1.00  0.00     0.173 A 
ATOM     89  F   UNL     1       0.128 -14.816   4.272  1.00  0.00    -0.203 F 
ATOM     90  C   UNL     1      -1.751 -16.170   4.695  1.00  0.00     0.198 A 
ATOM     91  C   UNL     1      -3.933 -15.183   4.862  1.00  0.00     0.198 A 
ATOM     92  F   UNL     1      -4.202 -12.866   4.563  1.00  0.00    -0.203 F 
ATOM     93  F   UNL     1      -0.965 -17.256   4.705  1.00  0.00    -0.200 F 
ATOM     94  C   UNL     1      -3.116 -16.302   4.900  1.00  0.00     0.200 A 
ATOM     95  F   UNL     1      -5.250 -15.306   5.076  1.00  0.00    -0.200 F 
ATOM     96  F   UNL     1      -3.647 -17.512   5.129  1.00  0.00    -0.200 F 
ENDBRANCH  63  86
ENDBRANCH  37  38
ENDBRANCH  30  32
ENDBRANCH  29  30
ENDBRANCH  28  29
ENDBRANCH   1  28
TORSDOF 15
