REMARK SMILES C[C@H]1CC[C@@]2(CO)C(C(=O)OCCOC(=O)c3ccc(-c4c5nc(c(-c6c(F)c(F)c(F)c(F)c6F)c6ccc([nH]6)c(-c6c(F)c(F)c(F)c(F)c6F)c6nc(c(-c7c(F)c(F)c(F)c(F)c7F)c7ccc4[nH]7)C=C6)C=C5)cc3)=C[C@@H](O)C[C@@H]2[C@@]1(C)CCc1ccoc1
REMARK SMILES IDX 12 1 11 2 9 3 10 4 8 5 1 6 2 7 3 8 85 9 4 10 84 11 86 12
REMARK SMILES IDX 5 13 83 14 81 15 80 16 87 17 88 18 89 19 90 20 93 21 91 22
REMARK SMILES IDX 92 23 6 24 7 25 82 27 13 29 14 30 15 31 16 32 17 33 18 34
REMARK SMILES IDX 79 35 19 36 78 37 20 38 21 39 22 40 72 41 23 42 77 43 71 44
REMARK SMILES IDX 73 45 24 46 76 47 70 48 69 49 25 51 57 52 37 53 56 54 38 55
REMARK SMILES IDX 41 56 55 57 74 58 39 59 40 60 54 62 75 63 42 64 26 65 27 66
REMARK SMILES IDX 35 67 28 68 29 69 33 70 36 71 30 72 31 73 34 74 32 75 58 76
REMARK SMILES IDX 59 77 67 78 60 79 61 80 65 81 68 82 62 83 63 84 66 85 64 86
REMARK SMILES IDX 43 87 44 88 52 89 45 90 46 91 50 92 53 93 47 94 48 95 51 96
REMARK SMILES IDX 49 97
REMARK H PARENT 7 26 82 28 73 50 41 61
REMARK Flexibility Score: inf
ROOT
ATOM      1  C   UNL     1       0.626   1.365  -3.165  1.00  0.00     0.275 C 
ENDROOT
BRANCH   1   2
ATOM      2  O   UNL     1       1.018   2.044  -1.948  1.00  0.00    -0.459 OA
BRANCH   2   3
ATOM      3  C   UNL     1       1.550   1.213  -1.012  1.00  0.00     0.334 C 
ATOM      4  O   UNL     1       1.758   0.032  -1.236  1.00  0.00    -0.247 OA
BRANCH   3   5
ATOM      5  C   UNL     1       1.840   1.880   0.312  1.00  0.00     0.044 C 
ATOM      6  C   UNL     1       0.615  -2.061   0.622  1.00  0.00     0.008 C 
ATOM      7  C   UNL     1       0.911  -1.798   2.118  1.00  0.00    -0.008 C 
ATOM      8  C   UNL     1       2.416  -1.532   2.225  1.00  0.00     0.005 C 
ATOM      9  C   UNL     1       0.107  -0.625   2.793  1.00  0.00    -0.026 C 
ATOM     10  C   UNL     1       2.825  -0.323   1.394  1.00  0.00     0.015 C 
ATOM     11  C   UNL     1       0.397   0.675   1.939  1.00  0.00     0.011 C 
ATOM     12  C   UNL     1       0.595  -0.390   4.254  1.00  0.00     0.012 C 
ATOM     13  C   UNL     1       1.948   0.958   1.574  1.00  0.00     0.029 C 
ATOM     14  C   UNL     1      -0.271   2.008   2.366  1.00  0.00     0.041 C 
ATOM     15  C   UNL     1      -0.098   3.099   1.272  1.00  0.00     0.138 C 
ATOM     16  C   UNL     1       1.196   3.062   0.471  1.00  0.00     0.016 C 
BRANCH   9  17
ATOM     17  C   UNL     1      -1.419  -0.990   3.055  1.00  0.00     0.012 C 
BRANCH  17  18
ATOM     18  C   UNL     1      -2.382  -1.662   2.067  1.00  0.00     0.039 C 
BRANCH  18  19
ATOM     19  C   UNL     1      -2.161  -3.103   1.719  1.00  0.00    -0.010 A 
ATOM     20  C   UNL     1      -2.464  -3.699   0.453  1.00  0.00     0.045 A 
ATOM     21  C   UNL     1      -1.587  -4.121   2.459  1.00  0.00     0.198 A 
ATOM     22  C   UNL     1      -1.910  -4.957   0.467  1.00  0.00     0.195 A 
ATOM     23  O   UNL     1      -1.396  -5.229   1.693  1.00  0.00    -0.472 OA
ENDBRANCH  18  19
ENDBRANCH  17  18
ENDBRANCH   9  17
BRANCH  13  24
ATOM     24  C   UNL     1       2.759   1.833   2.629  1.00  0.00     0.168 C 
BRANCH  24  25
ATOM     25  O   UNL     1       3.389   1.081   3.659  1.00  0.00    -0.395 OA
ATOM     26  H   UNL     1       2.715   0.621   4.182  1.00  0.00     0.210 HD
ENDBRANCH  24  25
ENDBRANCH  13  24
BRANCH  15  27
ATOM     27  O   UNL     1      -1.162   2.949   0.333  1.00  0.00    -0.389 OA
ATOM     28  H   UNL     1      -1.090   2.085  -0.102  1.00  0.00     0.211 HD
ENDBRANCH  15  27
ENDBRANCH   3   5
ENDBRANCH   2   3
ENDBRANCH   1   2
BRANCH   1  29
ATOM     29  C   UNL     1       1.758   1.259  -4.199  1.00  0.00     0.275 C 
BRANCH  29  30
ATOM     30  O   UNL     1       2.792   0.331  -3.809  1.00  0.00    -0.458 OA
BRANCH  30  31
ATOM     31  C   UNL     1       3.844   0.877  -3.151  1.00  0.00     0.338 C 
ATOM     32  O   UNL     1       4.049   2.069  -2.975  1.00  0.00    -0.246 OA
BRANCH  31  33
ATOM     33  C   UNL     1       4.651  -0.172  -2.483  1.00  0.00     0.060 A 
ATOM     34  C   UNL     1       5.056   0.080  -1.167  1.00  0.00     0.016 A 
ATOM     35  C   UNL     1       5.019  -1.369  -3.103  1.00  0.00     0.016 A 
ATOM     36  C   UNL     1       5.793  -0.867  -0.456  1.00  0.00     0.010 A 
ATOM     37  C   UNL     1       5.803  -2.301  -2.404  1.00  0.00     0.010 A 
ATOM     38  C   UNL     1       6.196  -2.053  -1.077  1.00  0.00    -0.014 A 
BRANCH  38  39
ATOM     39  C   UNL     1       7.170  -2.932  -0.382  1.00  0.00     0.031 A 
ATOM     40  C   UNL     1       8.624  -2.557  -0.424  1.00  0.00     0.074 A 
ATOM     41  C   UNL     1       6.779  -4.017   0.310  1.00  0.00     0.049 A 
ATOM     42  N   UNL     1       9.662  -3.179   0.074  1.00  0.00    -0.248 NA
ATOM     43  C   UNL     1       8.951  -1.296  -1.111  1.00  0.00     0.031 C 
ATOM     44  C   UNL     1       5.396  -4.444   0.509  1.00  0.00     0.029 A 
ATOM     45  N   UNL     1       7.523  -4.962   0.976  1.00  0.00    -0.354 N 
ATOM     46  C   UNL     1      10.758  -2.385  -0.231  1.00  0.00     0.074 A 
ATOM     47  C   UNL     1      10.265  -1.237  -0.961  1.00  0.00     0.031 C 
ATOM     48  C   UNL     1       5.392  -5.585   1.224  1.00  0.00     0.029 A 
ATOM     49  C   UNL     1       6.772  -5.983   1.505  1.00  0.00     0.049 A 
ATOM     50  H   UNL     1       8.502  -4.912   1.066  1.00  0.00     0.167 HD
ATOM     51  C   UNL     1      12.063  -2.595   0.061  1.00  0.00     0.037 A 
ATOM     52  C   UNL     1       7.161  -7.122   2.113  1.00  0.00     0.037 A 
ATOM     53  C   UNL     1      12.568  -3.753   0.746  1.00  0.00     0.049 A 
ATOM     54  C   UNL     1       8.633  -7.394   2.315  1.00  0.00     0.074 A 
ATOM     55  C   UNL     1      13.878  -4.068   1.058  1.00  0.00     0.029 A 
ATOM     56  N   UNL     1      11.782  -4.798   1.207  1.00  0.00    -0.354 N 
ATOM     57  N   UNL     1       9.665  -6.639   2.027  1.00  0.00    -0.248 NA
ATOM     58  C   UNL     1       8.994  -8.687   2.920  1.00  0.00     0.031 C 
ATOM     59  C   UNL     1      13.891  -5.329   1.663  1.00  0.00     0.029 A 
ATOM     60  C   UNL     1      12.584  -5.775   1.774  1.00  0.00     0.049 A 
ATOM     61  H   UNL     1      10.800  -4.839   1.142  1.00  0.00     0.167 HD
ATOM     62  C   UNL     1      10.788  -7.349   2.436  1.00  0.00     0.074 A 
ATOM     63  C   UNL     1      10.313  -8.591   3.007  1.00  0.00     0.031 C 
ATOM     64  C   UNL     1      12.096  -7.004   2.346  1.00  0.00     0.037 A 
BRANCH  51  65
ATOM     65  C   UNL     1      13.041  -1.569  -0.422  1.00  0.00     0.064 A 
ATOM     66  C   UNL     1      13.157  -0.315   0.195  1.00  0.00     0.173 A 
ATOM     67  C   UNL     1      13.872  -1.846  -1.517  1.00  0.00     0.173 A 
ATOM     68  F   UNL     1      12.367   0.004   1.231  1.00  0.00    -0.203 F 
ATOM     69  C   UNL     1      14.058   0.634  -0.282  1.00  0.00     0.198 A 
ATOM     70  C   UNL     1      14.787  -0.905  -1.976  1.00  0.00     0.198 A 
ATOM     71  F   UNL     1      13.793  -3.030  -2.143  1.00  0.00    -0.203 F 
ATOM     72  F   UNL     1      14.123   1.843   0.293  1.00  0.00    -0.200 F 
ATOM     73  C   UNL     1      14.875   0.336  -1.363  1.00  0.00     0.200 A 
ATOM     74  F   UNL     1      15.579  -1.195  -3.018  1.00  0.00    -0.200 F 
ATOM     75  F   UNL     1      15.741   1.250  -1.821  1.00  0.00    -0.200 F 
ENDBRANCH  51  65
BRANCH  52  76
ATOM     76  C   UNL     1       6.152  -8.132   2.535  1.00  0.00     0.064 A 
ATOM     77  C   UNL     1       5.945  -8.432   3.889  1.00  0.00     0.173 A 
ATOM     78  C   UNL     1       5.425  -8.867   1.587  1.00  0.00     0.173 A 
ATOM     79  F   UNL     1       6.645  -7.787   4.833  1.00  0.00    -0.203 F 
ATOM     80  C   UNL     1       5.066  -9.444   4.276  1.00  0.00     0.198 A 
ATOM     81  C   UNL     1       4.526  -9.858   1.976  1.00  0.00     0.198 A 
ATOM     82  F   UNL     1       5.600  -8.633   0.278  1.00  0.00    -0.203 F 
ATOM     83  F   UNL     1       4.934  -9.754   5.573  1.00  0.00    -0.200 F 
ATOM     84  C   UNL     1       4.355 -10.153   3.320  1.00  0.00     0.200 A 
ATOM     85  F   UNL     1       3.843 -10.541   1.048  1.00  0.00    -0.200 F 
ATOM     86  F   UNL     1       3.521 -11.133   3.692  1.00  0.00    -0.200 F 
ENDBRANCH  52  76
BRANCH  64  87
ATOM     87  C   UNL     1      13.110  -7.963   2.902  1.00  0.00     0.064 A 
ATOM     88  C   UNL     1      13.413  -9.170   2.257  1.00  0.00     0.173 A 
ATOM     89  C   UNL     1      13.825  -7.643   4.067  1.00  0.00     0.173 A 
ATOM     90  F   UNL     1      12.749  -9.528   1.147  1.00  0.00    -0.203 F 
ATOM     91  C   UNL     1      14.381 -10.031   2.768  1.00  0.00     0.198 A 
ATOM     92  C   UNL     1      14.812  -8.492   4.559  1.00  0.00     0.198 A 
ATOM     93  F   UNL     1      13.580  -6.496   4.718  1.00  0.00    -0.203 F 
ATOM     94  F   UNL     1      14.626 -11.199   2.157  1.00  0.00    -0.200 F 
ATOM     95  C   UNL     1      15.085  -9.688   3.913  1.00  0.00     0.200 A 
ATOM     96  F   UNL     1      15.501  -8.152   5.657  1.00  0.00    -0.200 F 
ATOM     97  F   UNL     1      16.023 -10.514   4.397  1.00  0.00    -0.200 F 
ENDBRANCH  64  87
ENDBRANCH  38  39
ENDBRANCH  31  33
ENDBRANCH  30  31
ENDBRANCH  29  30
ENDBRANCH   1  29
TORSDOF 17
