REMARK SMILES [NH3+]CC1([C@H](O)C(=O)OCCOC(=O)c2ccc(-c3c4nc(c(-c5c(F)c(F)c(F)c(F)c5F)c5ccc([nH]5)c(-c5c(F)c(F)c(F)c(F)c5F)c5nc(c(-c6c(F)c(F)c(F)c(F)c6F)c6ccc3[nH]6)C=C5)C=C4)cc2)Cc2ccccc2C1
REMARK SMILES IDX 9 1 8 2 6 3 7 4 4 5 3 6 77 7 84 8 78 9 83 10 79 11 82 12
REMARK SMILES IDX 80 13 81 14 2 15 1 16 5 20 10 22 11 23 12 24 13 25 14 26
REMARK SMILES IDX 15 27 76 28 16 29 75 30 17 31 18 32 19 33 69 34 20 35 74 36
REMARK SMILES IDX 68 37 70 38 21 39 73 40 67 41 66 42 22 44 54 45 34 46 53 47
REMARK SMILES IDX 35 48 38 49 52 50 71 51 36 52 37 53 51 55 72 56 39 57 23 58
REMARK SMILES IDX 24 59 32 60 25 61 26 62 30 63 33 64 27 65 28 66 31 67 29 68
REMARK SMILES IDX 55 69 56 70 64 71 57 72 58 73 62 74 65 75 59 76 60 77 63 78
REMARK SMILES IDX 61 79 40 80 41 81 49 82 42 83 43 84 47 85 50 86 44 87 45 88
REMARK SMILES IDX 48 89 46 90
REMARK H PARENT 1 17 1 18 1 19 5 21 70 43 38 54
REMARK Flexibility Score: inf
ROOT
ATOM      1  C   UNL     1      -1.312   0.521  -2.487  1.00  0.00     0.274 C 
ENDROOT
BRANCH   1   2
ATOM      2  O   UNL     1      -0.338   0.592  -1.432  1.00  0.00    -0.460 OA
BRANCH   2   3
ATOM      3  C   UNL     1       0.805   1.282  -1.699  1.00  0.00     0.335 C 
ATOM      4  O   UNL     1       1.117   1.720  -2.800  1.00  0.00    -0.249 OA
BRANCH   3   5
ATOM      5  C   UNL     1       1.591   1.580  -0.406  1.00  0.00     0.236 C 
BRANCH   5   6
ATOM      6  C   UNL     1       3.006   0.932  -0.357  1.00  0.00     0.064 C 
ATOM      7  C   UNL     1       2.906  -0.611  -0.161  1.00  0.00     0.052 C 
ATOM      8  C   UNL     1       3.773   1.441   0.911  1.00  0.00     0.052 C 
ATOM      9  C   UNL     1       2.972  -0.766   1.324  1.00  0.00    -0.044 A 
ATOM     10  C   UNL     1       3.469   0.389   1.931  1.00  0.00    -0.044 A 
ATOM     11  C   UNL     1       2.604  -1.868   2.077  1.00  0.00     0.004 A 
ATOM     12  C   UNL     1       3.618   0.466   3.305  1.00  0.00     0.004 A 
ATOM     13  C   UNL     1       2.732  -1.793   3.465  1.00  0.00     0.000 A 
ATOM     14  C   UNL     1       3.238  -0.635   4.075  1.00  0.00     0.000 A 
BRANCH   6  15
ATOM     15  C   UNL     1       3.839   1.230  -1.633  1.00  0.00     0.269 C 
BRANCH  15  16
ATOM     16  N   UNL     1       3.888   2.629  -2.050  1.00  0.00    -0.357 N 
ATOM     17  H   UNL     1       4.457   2.713  -2.892  1.00  0.00     0.344 HD
ATOM     18  H   UNL     1       4.298   3.193  -1.305  1.00  0.00     0.344 HD
ATOM     19  H   UNL     1       2.942   2.959  -2.245  1.00  0.00     0.344 HD
ENDBRANCH  15  16
ENDBRANCH   6  15
ENDBRANCH   5   6
BRANCH   5  20
ATOM     20  O   UNL     1       0.822   1.321   0.768  1.00  0.00    -0.381 OA
ATOM     21  H   UNL     1       0.630   0.372   0.825  1.00  0.00     0.211 HD
ENDBRANCH   5  20
ENDBRANCH   3   5
ENDBRANCH   2   3
ENDBRANCH   1   2
BRANCH   1  22
ATOM     22  C   UNL     1      -2.394   1.593  -2.308  1.00  0.00     0.275 C 
BRANCH  22  23
ATOM     23  O   UNL     1      -1.916   2.919  -2.620  1.00  0.00    -0.458 OA
BRANCH  23  24
ATOM     24  C   UNL     1      -1.317   3.579  -1.603  1.00  0.00     0.338 C 
ATOM     25  O   UNL     1      -1.142   3.167  -0.462  1.00  0.00    -0.246 OA
BRANCH  24  26
ATOM     26  C   UNL     1      -0.735   4.846  -2.083  1.00  0.00     0.060 A 
ATOM     27  C   UNL     1       0.582   5.136  -1.711  1.00  0.00     0.016 A 
ATOM     28  C   UNL     1      -1.472   5.774  -2.822  1.00  0.00     0.016 A 
ATOM     29  C   UNL     1       1.167   6.347  -2.056  1.00  0.00     0.010 A 
ATOM     30  C   UNL     1      -0.887   6.999  -3.164  1.00  0.00     0.010 A 
ATOM     31  C   UNL     1       0.430   7.296  -2.769  1.00  0.00    -0.014 A 
BRANCH  31  32
ATOM     32  C   UNL     1       1.024   8.629  -3.007  1.00  0.00     0.031 A 
ATOM     33  C   UNL     1       0.599   9.787  -2.154  1.00  0.00     0.074 A 
ATOM     34  C   UNL     1       1.991   8.783  -3.928  1.00  0.00     0.049 A 
ATOM     35  N   UNL     1       0.942  11.047  -2.233  1.00  0.00    -0.248 NA
ATOM     36  C   UNL     1      -0.333   9.482  -1.057  1.00  0.00     0.031 C 
ATOM     37  C   UNL     1       2.551   7.710  -4.749  1.00  0.00     0.029 A 
ATOM     38  N   UNL     1       2.681   9.902  -4.319  1.00  0.00    -0.354 N 
ATOM     39  C   UNL     1       0.254  11.689  -1.214  1.00  0.00     0.074 A 
ATOM     40  C   UNL     1      -0.534  10.683  -0.534  1.00  0.00     0.031 C 
ATOM     41  C   UNL     1       3.502   8.223  -5.546  1.00  0.00     0.029 A 
ATOM     42  C   UNL     1       3.581   9.665  -5.327  1.00  0.00     0.049 A 
ATOM     43  H   UNL     1       2.543  10.789  -3.915  1.00  0.00     0.167 HD
ATOM     44  C   UNL     1       0.279  13.000  -0.877  1.00  0.00     0.037 A 
ATOM     45  C   UNL     1       4.358  10.524  -6.014  1.00  0.00     0.037 A 
ATOM     46  C   UNL     1       1.074  13.993  -1.552  1.00  0.00     0.049 A 
ATOM     47  C   UNL     1       4.301  11.990  -5.681  1.00  0.00     0.074 A 
ATOM     48  C   UNL     1       1.155  15.352  -1.304  1.00  0.00     0.029 A 
ATOM     49  N   UNL     1       1.929  13.727  -2.612  1.00  0.00    -0.354 N 
ATOM     50  N   UNL     1       3.615  12.600  -4.745  1.00  0.00    -0.248 NA
ATOM     51  C   UNL     1       5.119  12.888  -6.508  1.00  0.00     0.031 C 
ATOM     52  C   UNL     1       2.032  15.914  -2.238  1.00  0.00     0.029 A 
ATOM     53  C   UNL     1       2.530  14.899  -3.041  1.00  0.00     0.049 A 
ATOM     54  H   UNL     1       2.087  12.836  -3.001  1.00  0.00     0.167 HD
ATOM     55  C   UNL     1       3.932  13.947  -4.855  1.00  0.00     0.074 A 
ATOM     56  C   UNL     1       4.881  14.064  -5.944  1.00  0.00     0.031 C 
ATOM     57  C   UNL     1       3.479  14.992  -4.121  1.00  0.00     0.037 A 
BRANCH  44  58
ATOM     58  C   UNL     1      -0.617  13.438   0.241  1.00  0.00     0.064 A 
ATOM     59  C   UNL     1      -0.335  13.129   1.580  1.00  0.00     0.173 A 
ATOM     60  C   UNL     1      -1.775  14.181  -0.032  1.00  0.00     0.173 A 
ATOM     61  F   UNL     1       0.750  12.403   1.891  1.00  0.00    -0.203 F 
ATOM     62  C   UNL     1      -1.195  13.524   2.602  1.00  0.00     0.198 A 
ATOM     63  C   UNL     1      -2.620  14.596   0.994  1.00  0.00     0.198 A 
ATOM     64  F   UNL     1      -2.090  14.503  -1.296  1.00  0.00    -0.203 F 
ATOM     65  F   UNL     1      -0.933  13.174   3.869  1.00  0.00    -0.200 F 
ATOM     66  C   UNL     1      -2.334  14.260   2.309  1.00  0.00     0.200 A 
ATOM     67  F   UNL     1      -3.716  15.312   0.710  1.00  0.00    -0.200 F 
ATOM     68  F   UNL     1      -3.162  14.636   3.293  1.00  0.00    -0.200 F 
ENDBRANCH  44  58
BRANCH  45  69
ATOM     69  C   UNL     1       5.231  10.019  -7.103  1.00  0.00     0.064 A 
ATOM     70  C   UNL     1       6.626  10.021  -6.970  1.00  0.00     0.173 A 
ATOM     71  C   UNL     1       4.689   9.524  -8.299  1.00  0.00     0.173 A 
ATOM     72  F   UNL     1       7.191  10.510  -5.857  1.00  0.00    -0.203 F 
ATOM     73  C   UNL     1       7.446   9.553  -7.995  1.00  0.00     0.198 A 
ATOM     74  C   UNL     1       5.509   9.033  -9.312  1.00  0.00     0.198 A 
ATOM     75  F   UNL     1       3.360   9.507  -8.477  1.00  0.00    -0.203 F 
ATOM     76  F   UNL     1       8.778   9.599  -7.858  1.00  0.00    -0.200 F 
ATOM     77  C   UNL     1       6.887   9.052  -9.162  1.00  0.00     0.200 A 
ATOM     78  F   UNL     1       4.963   8.543 -10.434  1.00  0.00    -0.200 F 
ATOM     79  F   UNL     1       7.676   8.598 -10.144  1.00  0.00    -0.200 F 
ENDBRANCH  45  69
BRANCH  57  80
ATOM     80  C   UNL     1       4.029  16.348  -4.447  1.00  0.00     0.064 A 
ATOM     81  C   UNL     1       3.623  17.050  -5.590  1.00  0.00     0.173 A 
ATOM     82  C   UNL     1       4.941  16.969  -3.580  1.00  0.00     0.173 A 
ATOM     83  F   UNL     1       2.765  16.491  -6.456  1.00  0.00    -0.203 F 
ATOM     84  C   UNL     1       4.124  18.320  -5.864  1.00  0.00     0.198 A 
ATOM     85  C   UNL     1       5.422  18.248  -3.844  1.00  0.00     0.198 A 
ATOM     86  F   UNL     1       5.356  16.339  -2.471  1.00  0.00    -0.203 F 
ATOM     87  F   UNL     1       3.752  18.959  -6.981  1.00  0.00    -0.200 F 
ATOM     88  C   UNL     1       5.017  18.920  -4.988  1.00  0.00     0.200 A 
ATOM     89  F   UNL     1       6.276  18.831  -2.992  1.00  0.00    -0.200 F 
ATOM     90  F   UNL     1       5.493  20.145  -5.250  1.00  0.00    -0.200 F 
ENDBRANCH  57  80
ENDBRANCH  31  32
ENDBRANCH  24  26
ENDBRANCH  23  24
ENDBRANCH  22  23
ENDBRANCH   1  22
TORSDOF 15
