REMARK SMILES O=C(C[C@@H](NS(=O)(=O)c1ccc(Cl)cc1)c1ccc(F)cc1)OCCOC(=O)c1ccc(-c2c3nc(c(-c4c(F)c(F)c(F)c(F)c4F)c4ccc([nH]4)c(-c4c(F)c(F)c(F)c(F)c4F)c4nc(c(-c5c(F)c(F)c(F)c(F)c5F)c5ccc2[nH]5)C=C4)C=C3)cc1
REMARK SMILES IDX 24 1 23 2 2 3 1 4 3 5 4 6 5 7 6 9 7 10 8 11 9 12 10 13 15 14
REMARK SMILES IDX 11 15 14 16 12 17 13 18 16 19 17 20 22 21 18 22 21 23 19 24
REMARK SMILES IDX 20 25 25 26 26 27 27 28 28 29 29 30 30 31 91 32 31 33 90 34
REMARK SMILES IDX 32 35 33 36 34 37 84 38 35 39 89 40 83 41 85 42 36 43 88 44
REMARK SMILES IDX 82 45 81 46 37 48 69 49 49 50 68 51 50 52 53 53 67 54 86 55
REMARK SMILES IDX 51 56 52 57 66 59 87 60 54 61 38 62 39 63 47 64 40 65 41 66
REMARK SMILES IDX 45 67 48 68 42 69 43 70 46 71 44 72 70 73 71 74 79 75 72 76
REMARK SMILES IDX 73 77 77 78 80 79 74 80 75 81 78 82 76 83 55 84 56 85 64 86
REMARK SMILES IDX 57 87 58 88 62 89 65 90 59 91 60 92 63 93 61 94
REMARK H PARENT 5 8 85 47 53 58
REMARK Flexibility Score: inf
ROOT
ATOM      1  C   UNL     1       4.214   0.701  -1.045  1.00  0.00     0.274 C 
ENDROOT
BRANCH   1   2
ATOM      2  O   UNL     1       2.933   0.030  -1.129  1.00  0.00    -0.462 OA
BRANCH   2   3
ATOM      3  C   UNL     1       2.560  -1.014  -0.345  1.00  0.00     0.307 C 
ATOM      4  O   UNL     1       1.783  -1.870  -0.753  1.00  0.00    -0.252 OA
BRANCH   3   5
ATOM      5  C   UNL     1       3.075  -1.043   1.062  1.00  0.00     0.147 C 
BRANCH   5   6
ATOM      6  C   UNL     1       4.051  -2.186   1.376  1.00  0.00     0.111 C 
BRANCH   6   7
ATOM      7  N   UNL     1       5.192  -2.168   0.428  1.00  0.00    -0.203 NA
ATOM      8  H   UNL     1       5.764  -1.357   0.663  1.00  0.00     0.142 HD
BRANCH   7   9
ATOM      9  S   UNL     1       6.229  -3.505   0.367  1.00  0.00     0.241 S 
ATOM     10  O   UNL     1       5.417  -4.683   0.566  1.00  0.00    -0.207 OA
ATOM     11  O   UNL     1       7.018  -3.313  -0.829  1.00  0.00    -0.207 OA
BRANCH   9  12
ATOM     12  C   UNL     1       7.318  -3.309   1.745  1.00  0.00     0.082 A 
ATOM     13  C   UNL     1       7.549  -4.404   2.583  1.00  0.00     0.023 A 
ATOM     14  C   UNL     1       7.879  -2.059   2.026  1.00  0.00     0.023 A 
ATOM     15  C   UNL     1       8.312  -4.237   3.737  1.00  0.00     0.022 A 
ATOM     16  C   UNL     1       8.633  -1.896   3.190  1.00  0.00     0.022 A 
ATOM     17  C   UNL     1       8.836  -2.982   4.045  1.00  0.00     0.041 A 
ATOM     18  Cl  UNL     1       9.723  -2.764   5.502  1.00  0.00    -0.084 Cl
ENDBRANCH   9  12
ENDBRANCH   7   9
ENDBRANCH   6   7
BRANCH   6  19
ATOM     19  C   UNL     1       4.513  -2.011   2.826  1.00  0.00    -0.029 A 
ATOM     20  C   UNL     1       5.055  -0.789   3.282  1.00  0.00     0.008 A 
ATOM     21  C   UNL     1       4.438  -3.082   3.730  1.00  0.00     0.008 A 
ATOM     22  C   UNL     1       5.478  -0.633   4.602  1.00  0.00     0.039 A 
ATOM     23  C   UNL     1       4.886  -2.930   5.048  1.00  0.00     0.039 A 
ATOM     24  C   UNL     1       5.394  -1.708   5.472  1.00  0.00     0.123 A 
ATOM     25  F   UNL     1       5.824  -1.568   6.732  1.00  0.00    -0.207 F 
ENDBRANCH   6  19
ENDBRANCH   5   6
ENDBRANCH   3   5
ENDBRANCH   2   3
ENDBRANCH   1   2
BRANCH   1  26
ATOM     26  C   UNL     1       4.101   2.162  -0.605  1.00  0.00     0.275 C 
BRANCH  26  27
ATOM     27  O   UNL     1       3.745   2.237   0.788  1.00  0.00    -0.458 OA
BRANCH  27  28
ATOM     28  C   UNL     1       2.424   2.413   1.036  1.00  0.00     0.338 C 
ATOM     29  O   UNL     1       1.554   2.639   0.214  1.00  0.00    -0.246 OA
BRANCH  28  30
ATOM     30  C   UNL     1       2.138   2.090   2.454  1.00  0.00     0.060 A 
ATOM     31  C   UNL     1       0.918   1.463   2.737  1.00  0.00     0.016 A 
ATOM     32  C   UNL     1       3.044   2.359   3.486  1.00  0.00     0.016 A 
ATOM     33  C   UNL     1       0.586   1.134   4.051  1.00  0.00     0.010 A 
ATOM     34  C   UNL     1       2.710   2.028   4.804  1.00  0.00     0.010 A 
ATOM     35  C   UNL     1       1.468   1.440   5.095  1.00  0.00    -0.014 A 
BRANCH  35  36
ATOM     36  C   UNL     1       1.018   1.292   6.500  1.00  0.00     0.031 A 
ATOM     37  C   UNL     1       0.491   2.502   7.221  1.00  0.00     0.074 A 
ATOM     38  C   UNL     1       1.038   0.098   7.118  1.00  0.00     0.049 A 
ATOM     39  N   UNL     1       0.030   2.607   8.441  1.00  0.00    -0.248 NA
ATOM     40  C   UNL     1       0.481   3.763   6.462  1.00  0.00     0.031 C 
ATOM     41  C   UNL     1       1.498  -1.154   6.522  1.00  0.00     0.029 A 
ATOM     42  N   UNL     1       0.657  -0.253   8.390  1.00  0.00    -0.354 N 
ATOM     43  C   UNL     1      -0.330   3.939   8.592  1.00  0.00     0.074 A 
ATOM     44  C   UNL     1       0.002   4.614   7.356  1.00  0.00     0.031 C 
ATOM     45  C   UNL     1       1.369  -2.139   7.428  1.00  0.00     0.029 A 
ATOM     46  C   UNL     1       0.839  -1.583   8.674  1.00  0.00     0.049 A 
ATOM     47  H   UNL     1       0.287   0.391   9.037  1.00  0.00     0.167 HD
ATOM     48  C   UNL     1      -0.903   4.543   9.659  1.00  0.00     0.037 A 
ATOM     49  C   UNL     1       0.610  -2.269   9.811  1.00  0.00     0.037 A 
ATOM     50  C   UNL     1      -1.235   3.879  10.889  1.00  0.00     0.049 A 
ATOM     51  C   UNL     1       0.042  -1.556  11.013  1.00  0.00     0.074 A 
ATOM     52  C   UNL     1      -1.832   4.410  12.019  1.00  0.00     0.029 A 
ATOM     53  N   UNL     1      -0.993   2.540  11.153  1.00  0.00    -0.354 N 
ATOM     54  N   UNL     1      -0.326  -0.304  11.136  1.00  0.00    -0.248 NA
ATOM     55  C   UNL     1      -0.143  -2.355  12.235  1.00  0.00     0.031 C 
ATOM     56  C   UNL     1      -1.910   3.402  12.985  1.00  0.00     0.029 A 
ATOM     57  C   UNL     1      -1.407   2.232  12.439  1.00  0.00     0.049 A 
ATOM     58  H   UNL     1      -0.588   1.903  10.522  1.00  0.00     0.167 HD
ATOM     59  C   UNL     1      -0.808  -0.172  12.433  1.00  0.00     0.074 A 
ATOM     60  C   UNL     1      -0.695  -1.472  13.057  1.00  0.00     0.031 C 
ATOM     61  C   UNL     1      -1.302   0.931  13.047  1.00  0.00     0.037 A 
BRANCH  48  62
ATOM     62  C   UNL     1      -1.207   6.005   9.545  1.00  0.00     0.064 A 
ATOM     63  C   UNL     1      -0.462   6.946  10.271  1.00  0.00     0.173 A 
ATOM     64  C   UNL     1      -2.273   6.470   8.761  1.00  0.00     0.173 A 
ATOM     65  F   UNL     1       0.566   6.549  11.036  1.00  0.00    -0.203 F 
ATOM     66  C   UNL     1      -0.780   8.300  10.223  1.00  0.00     0.198 A 
ATOM     67  C   UNL     1      -2.573   7.828   8.696  1.00  0.00     0.198 A 
ATOM     68  F   UNL     1      -3.003   5.609   8.036  1.00  0.00    -0.203 F 
ATOM     69  F   UNL     1      -0.070   9.179  10.944  1.00  0.00    -0.200 F 
ATOM     70  C   UNL     1      -1.833   8.740   9.434  1.00  0.00     0.200 A 
ATOM     71  F   UNL     1      -3.574   8.255   7.914  1.00  0.00    -0.200 F 
ATOM     72  F   UNL     1      -2.130  10.045   9.380  1.00  0.00    -0.200 F 
ENDBRANCH  48  62
BRANCH  49  73
ATOM     73  C   UNL     1       0.907  -3.724   9.869  1.00  0.00     0.064 A 
ATOM     74  C   UNL     1       2.226  -4.199   9.861  1.00  0.00     0.173 A 
ATOM     75  C   UNL     1      -0.127  -4.667   9.940  1.00  0.00     0.173 A 
ATOM     76  F   UNL     1       3.250  -3.336   9.799  1.00  0.00    -0.203 F 
ATOM     77  C   UNL     1       2.499  -5.564   9.909  1.00  0.00     0.198 A 
ATOM     78  C   UNL     1       0.147  -6.031  10.012  1.00  0.00     0.198 A 
ATOM     79  F   UNL     1      -1.404  -4.259   9.977  1.00  0.00    -0.203 F 
ATOM     80  F   UNL     1       3.768  -5.994   9.876  1.00  0.00    -0.200 F 
ATOM     81  C   UNL     1       1.460  -6.479   9.989  1.00  0.00     0.200 A 
ATOM     82  F   UNL     1      -0.859  -6.910  10.116  1.00  0.00    -0.200 F 
ATOM     83  F   UNL     1       1.723  -7.791  10.052  1.00  0.00    -0.200 F 
ENDBRANCH  49  73
BRANCH  61  84
ATOM     84  C   UNL     1      -1.787   0.794  14.461  1.00  0.00     0.064 A 
ATOM     85  C   UNL     1      -3.158   0.879  14.751  1.00  0.00     0.173 A 
ATOM     86  C   UNL     1      -0.893   0.679  15.534  1.00  0.00     0.173 A 
ATOM     87  F   UNL     1      -4.053   1.000  13.760  1.00  0.00    -0.203 F 
ATOM     88  C   UNL     1      -3.613   0.875  16.067  1.00  0.00     0.198 A 
ATOM     89  C   UNL     1      -1.354   0.649  16.848  1.00  0.00     0.198 A 
ATOM     90  F   UNL     1       0.426   0.584  15.307  1.00  0.00    -0.203 F 
ATOM     91  F   UNL     1      -4.923   0.998  16.322  1.00  0.00    -0.200 F 
ATOM     92  C   UNL     1      -2.711   0.759  17.114  1.00  0.00     0.200 A 
ATOM     93  F   UNL     1      -0.484   0.518  17.859  1.00  0.00    -0.200 F 
ATOM     94  F   UNL     1      -3.150   0.753  18.380  1.00  0.00    -0.200 F 
ENDBRANCH  61  84
ENDBRANCH  35  36
ENDBRANCH  28  30
ENDBRANCH  27  28
ENDBRANCH  26  27
ENDBRANCH   1  26
TORSDOF 16
