REMARK SMILES CC(C)CN(C)c1cc2c(cc1Cl)C=C(C(=O)OCCOC(=O)c1ccc(-c3c4nc(c(-c5c(F)c(F)c(F)c(F)c5F)c5ccc([nH]5)c(-c5c(F)c(F)c(F)c(F)c5F)c5nc(c(-c6c(F)c(F)c(F)c(F)c6F)c6ccc3[nH]6)C=C5)C=C4)cc1)[C@@H](C(F)(F)F)O2
REMARK SMILES IDX 19 1 18 2 16 3 17 4 15 5 7 6 8 7 12 8 9 9 11 10 13 11 10 12
REMARK SMILES IDX 92 13 14 14 87 15 5 16 6 17 4 18 2 19 1 20 3 21 88 22 89 23
REMARK SMILES IDX 90 24 91 25 20 26 21 27 22 28 23 29 24 30 25 31 86 32 26 33
REMARK SMILES IDX 85 34 27 35 28 36 29 37 79 38 30 39 84 40 78 41 80 42 31 43
REMARK SMILES IDX 83 44 77 45 76 46 32 48 64 49 44 50 63 51 45 52 48 53 62 54
REMARK SMILES IDX 81 55 46 56 47 57 61 59 82 60 49 61 33 62 34 63 42 64 35 65
REMARK SMILES IDX 36 66 40 67 43 68 37 69 38 70 41 71 39 72 65 73 66 74 74 75
REMARK SMILES IDX 67 76 68 77 72 78 75 79 69 80 70 81 73 82 71 83 50 84 51 85
REMARK SMILES IDX 59 86 52 87 53 88 57 89 60 90 54 91 55 92 58 93 56 94
REMARK H PARENT 80 47 48 58
REMARK Flexibility Score: inf
ROOT
ATOM      1  C   UNL     1      -1.502   1.720  -9.607  1.00  0.00     0.275 C 
ENDROOT
BRANCH   1   2
ATOM      2  O   UNL     1      -1.887   1.426  -8.244  1.00  0.00    -0.459 OA
BRANCH   2   3
ATOM      3  C   UNL     1      -1.055   0.576  -7.605  1.00  0.00     0.338 C 
ATOM      4  O   UNL     1      -0.054   0.055  -8.081  1.00  0.00    -0.246 OA
BRANCH   3   5
ATOM      5  C   UNL     1      -1.449   0.353  -6.205  1.00  0.00     0.087 C 
ATOM      6  C   UNL     1      -1.040  -1.294  -1.471  1.00  0.00     0.059 A 
ATOM      7  C   UNL     1      -2.141  -0.904  -2.274  1.00  0.00     0.074 A 
ATOM      8  C   UNL     1       0.241  -1.249  -2.059  1.00  0.00     0.065 A 
ATOM      9  C   UNL     1      -1.954  -0.433  -3.577  1.00  0.00     0.130 A 
ATOM     10  C   UNL     1       0.436  -0.650  -3.295  1.00  0.00     0.034 A 
ATOM     11  Cl  UNL     1       1.633  -2.011  -1.366  1.00  0.00    -0.082 Cl
ATOM     12  C   UNL     1      -0.661  -0.228  -4.036  1.00  0.00     0.019 A 
ATOM     13  O   UNL     1      -3.047  -0.167  -4.365  1.00  0.00    -0.475 OA
ATOM     14  C   UNL     1      -0.438   0.350  -5.334  1.00  0.00     0.027 C 
ATOM     15  C   UNL     1      -2.817  -0.135  -5.821  1.00  0.00     0.316 C 
BRANCH   6  16
ATOM     16  N   UNL     1      -1.217  -1.705  -0.143  1.00  0.00    -0.373 N 
ATOM     17  C   UNL     1      -2.200  -2.757   0.085  1.00  0.00     0.143 C 
BRANCH  16  18
ATOM     18  C   UNL     1      -1.084  -0.670   0.908  1.00  0.00     0.119 C 
BRANCH  18  19
ATOM     19  C   UNL     1       0.381  -0.402   1.320  1.00  0.00     0.002 C 
ATOM     20  C   UNL     1       0.953   0.844   0.632  1.00  0.00     0.009 C 
ATOM     21  C   UNL     1       0.523  -0.230   2.835  1.00  0.00     0.009 C 
ENDBRANCH  18  19
ENDBRANCH  16  18
ENDBRANCH   6  16
BRANCH  15  22
ATOM     22  C   UNL     1      -3.097  -1.511  -6.448  1.00  0.00     0.430 C 
ATOM     23  F   UNL     1      -4.327  -1.969  -6.117  1.00  0.00    -0.167 F 
ATOM     24  F   UNL     1      -3.059  -1.446  -7.803  1.00  0.00    -0.167 F 
ATOM     25  F   UNL     1      -2.197  -2.445  -6.066  1.00  0.00    -0.167 F 
ENDBRANCH  15  22
ENDBRANCH   3   5
ENDBRANCH   2   3
ENDBRANCH   1   2
BRANCH   1  26
ATOM     26  C   UNL     1      -0.724   3.034  -9.717  1.00  0.00     0.275 C 
BRANCH  26  27
ATOM     27  O   UNL     1       0.565   2.938  -9.080  1.00  0.00    -0.458 OA
BRANCH  27  28
ATOM     28  C   UNL     1       0.690   3.628  -7.924  1.00  0.00     0.338 C 
ATOM     29  O   UNL     1      -0.159   4.299  -7.364  1.00  0.00    -0.246 OA
BRANCH  28  30
ATOM     30  C   UNL     1       2.029   3.424  -7.348  1.00  0.00     0.060 A 
ATOM     31  C   UNL     1       2.921   4.482  -7.216  1.00  0.00     0.016 A 
ATOM     32  C   UNL     1       2.317   2.201  -6.758  1.00  0.00     0.016 A 
ATOM     33  C   UNL     1       4.104   4.293  -6.489  1.00  0.00     0.010 A 
ATOM     34  C   UNL     1       3.397   2.072  -5.889  1.00  0.00     0.010 A 
ATOM     35  C   UNL     1       4.338   3.101  -5.774  1.00  0.00    -0.014 A 
BRANCH  35  36
ATOM     36  C   UNL     1       5.561   2.922  -4.934  1.00  0.00     0.031 A 
ATOM     37  C   UNL     1       6.481   1.738  -5.134  1.00  0.00     0.074 A 
ATOM     38  C   UNL     1       5.838   3.805  -3.952  1.00  0.00     0.049 A 
ATOM     39  N   UNL     1       7.601   1.445  -4.515  1.00  0.00    -0.248 NA
ATOM     40  C   UNL     1       6.073   0.723  -6.117  1.00  0.00     0.031 C 
ATOM     41  C   UNL     1       4.984   4.925  -3.555  1.00  0.00     0.029 A 
ATOM     42  N   UNL     1       6.928   3.913  -3.121  1.00  0.00    -0.354 N 
ATOM     43  C   UNL     1       7.994   0.205  -5.006  1.00  0.00     0.074 A 
ATOM     44  C   UNL     1       6.961  -0.236  -5.912  1.00  0.00     0.031 C 
ATOM     45  C   UNL     1       5.615   5.653  -2.622  1.00  0.00     0.029 A 
ATOM     46  C   UNL     1       6.905   5.036  -2.328  1.00  0.00     0.049 A 
ATOM     47  H   UNL     1       7.655   3.250  -3.095  1.00  0.00     0.167 HD
ATOM     48  C   UNL     1       9.135  -0.485  -4.767  1.00  0.00     0.037 A 
ATOM     49  C   UNL     1       7.830   5.532  -1.483  1.00  0.00     0.037 A 
ATOM     50  C   UNL     1      10.206  -0.010  -3.935  1.00  0.00     0.049 A 
ATOM     51  C   UNL     1       9.135   4.808  -1.306  1.00  0.00     0.074 A 
ATOM     52  C   UNL     1      11.452  -0.573  -3.727  1.00  0.00     0.029 A 
ATOM     53  N   UNL     1      10.159   1.153  -3.182  1.00  0.00    -0.354 N 
ATOM     54  N   UNL     1       9.539   3.691  -1.859  1.00  0.00    -0.248 NA
ATOM     55  C   UNL     1      10.114   5.416  -0.394  1.00  0.00     0.031 C 
ATOM     56  C   UNL     1      12.149   0.234  -2.822  1.00  0.00     0.029 A 
ATOM     57  C   UNL     1      11.350   1.319  -2.496  1.00  0.00     0.049 A 
ATOM     58  H   UNL     1       9.392   1.770  -3.141  1.00  0.00     0.167 HD
ATOM     59  C   UNL     1      10.817   3.463  -1.370  1.00  0.00     0.074 A 
ATOM     60  C   UNL     1      11.133   4.571  -0.492  1.00  0.00     0.031 C 
ATOM     61  C   UNL     1      11.649   2.424  -1.622  1.00  0.00     0.037 A 
BRANCH  48  62
ATOM     62  C   UNL     1       9.303  -1.813  -5.452  1.00  0.00     0.064 A 
ATOM     63  C   UNL     1       9.482  -1.905  -6.842  1.00  0.00     0.173 A 
ATOM     64  C   UNL     1       9.314  -3.004  -4.711  1.00  0.00     0.173 A 
ATOM     65  F   UNL     1       9.473  -0.797  -7.599  1.00  0.00    -0.203 F 
ATOM     66  C   UNL     1       9.623  -3.141  -7.468  1.00  0.00     0.198 A 
ATOM     67  C   UNL     1       9.490  -4.237  -5.337  1.00  0.00     0.198 A 
ATOM     68  F   UNL     1       9.162  -2.974  -3.379  1.00  0.00    -0.203 F 
ATOM     69  F   UNL     1       9.733  -3.204  -8.802  1.00  0.00    -0.200 F 
ATOM     70  C   UNL     1       9.633  -4.305  -6.715  1.00  0.00     0.200 A 
ATOM     71  F   UNL     1       9.517  -5.360  -4.607  1.00  0.00    -0.200 F 
ATOM     72  F   UNL     1       9.776  -5.493  -7.319  1.00  0.00    -0.200 F 
ENDBRANCH  48  62
BRANCH  49  73
ATOM     73  C   UNL     1       7.575   6.835  -0.815  1.00  0.00     0.064 A 
ATOM     74  C   UNL     1       8.224   7.998  -1.253  1.00  0.00     0.173 A 
ATOM     75  C   UNL     1       6.638   6.959   0.220  1.00  0.00     0.173 A 
ATOM     76  F   UNL     1       9.140   7.925  -2.230  1.00  0.00    -0.203 F 
ATOM     77  C   UNL     1       7.942   9.237  -0.683  1.00  0.00     0.198 A 
ATOM     78  C   UNL     1       6.342   8.203   0.775  1.00  0.00     0.198 A 
ATOM     79  F   UNL     1       5.986   5.876   0.668  1.00  0.00    -0.203 F 
ATOM     80  F   UNL     1       8.587  10.331  -1.112  1.00  0.00    -0.200 F 
ATOM     81  C   UNL     1       6.994   9.340   0.323  1.00  0.00     0.200 A 
ATOM     82  F   UNL     1       5.415   8.301   1.737  1.00  0.00    -0.200 F 
ATOM     83  F   UNL     1       6.707  10.536   0.856  1.00  0.00    -0.200 F 
ENDBRANCH  49  73
BRANCH  61  84
ATOM     84  C   UNL     1      12.984   2.421  -0.941  1.00  0.00     0.064 A 
ATOM     85  C   UNL     1      13.104   2.106   0.420  1.00  0.00     0.173 A 
ATOM     86  C   UNL     1      14.159   2.648  -1.672  1.00  0.00     0.173 A 
ATOM     87  F   UNL     1      12.007   1.891   1.162  1.00  0.00    -0.203 F 
ATOM     88  C   UNL     1      14.354   2.027   1.027  1.00  0.00     0.198 A 
ATOM     89  C   UNL     1      15.408   2.545  -1.068  1.00  0.00     0.198 A 
ATOM     90  F   UNL     1      14.095   2.945  -2.979  1.00  0.00    -0.203 F 
ATOM     91  F   UNL     1      14.445   1.748   2.334  1.00  0.00    -0.200 F 
ATOM     92  C   UNL     1      15.505   2.236   0.281  1.00  0.00     0.200 A 
ATOM     93  F   UNL     1      16.520   2.735  -1.792  1.00  0.00    -0.200 F 
ATOM     94  F   UNL     1      16.708   2.142   0.863  1.00  0.00    -0.200 F 
ENDBRANCH  61  84
ENDBRANCH  35  36
ENDBRANCH  28  30
ENDBRANCH  27  28
ENDBRANCH  26  27
ENDBRANCH   1  26
TORSDOF 15
