REMARK SMILES Cc1cc(Nc2ccc(C(=O)OCCOC(=O)c3ccc(-c4c5nc(c(-c6c(F)c(F)c(F)c(F)c6F)c6ccc([nH]6)c(-c6c(F)c(F)c(F)c(F)c6F)c6nc(c(-c7c(F)c(F)c(F)c(F)c7F)c7ccc4[nH]7)C=C6)C=C5)cc3)cc2)nc(-n2nc(C)cc2C)n1
REMARK SMILES IDX 13 1 12 2 10 3 11 4 9 5 6 6 7 7 82 8 8 9 81 10 5 11 4 13
REMARK SMILES IDX 1 14 2 15 3 16 92 17 84 18 83 19 85 20 86 21 90 22 87 23
REMARK SMILES IDX 89 24 91 25 88 26 14 27 15 28 16 29 17 30 18 31 19 32 80 33
REMARK SMILES IDX 20 34 79 35 21 36 22 37 23 38 73 39 24 40 78 41 72 42 74 43
REMARK SMILES IDX 25 44 77 45 71 46 70 47 26 49 58 50 38 51 57 52 39 53 42 54
REMARK SMILES IDX 56 55 75 56 40 57 41 58 55 60 76 61 43 62 27 63 28 64 36 65
REMARK SMILES IDX 29 66 30 67 34 68 37 69 31 70 32 71 35 72 33 73 59 74 60 75
REMARK SMILES IDX 68 76 61 77 62 78 66 79 69 80 63 81 64 82 67 83 65 84 44 85
REMARK SMILES IDX 45 86 53 87 46 88 47 89 51 90 54 91 48 92 49 93 52 94 50 95
REMARK H PARENT 5 12 74 48 42 59
REMARK Flexibility Score: inf
ROOT
ATOM      1  C   UNL     1       9.429  -1.149   1.257  1.00  0.00     0.275 C 
ENDROOT
BRANCH   1   2
ATOM      2  O   UNL     1       8.003  -1.353   1.322  1.00  0.00    -0.458 OA
BRANCH   2   3
ATOM      3  C   UNL     1       7.356  -1.303   0.132  1.00  0.00     0.338 C 
ATOM      4  O   UNL     1       7.860  -1.089  -0.960  1.00  0.00    -0.246 OA
BRANCH   3   5
ATOM      5  C   UNL     1       5.925  -1.645   0.295  1.00  0.00     0.060 A 
ATOM      6  C   UNL     1       3.164  -2.146   0.382  1.00  0.00     0.040 A 
ATOM      7  C   UNL     1       3.933  -2.655  -0.662  1.00  0.00     0.027 A 
ATOM      8  C   UNL     1       3.798  -1.413   1.400  1.00  0.00     0.027 A 
ATOM      9  C   UNL     1       5.294  -2.374  -0.721  1.00  0.00     0.018 A 
ATOM     10  C   UNL     1       5.178  -1.181   1.375  1.00  0.00     0.018 A 
BRANCH   6  11
ATOM     11  N   UNL     1       1.760  -2.184   0.271  1.00  0.00    -0.340 N 
ATOM     12  H   UNL     1       1.314  -3.062   0.274  1.00  0.00     0.168 HD
BRANCH  11  13
ATOM     13  C   UNL     1       0.964  -1.029   0.153  1.00  0.00     0.136 A 
ATOM     14  C   UNL     1      -2.628   0.019   0.259  1.00  0.00     0.067 C 
ATOM     15  C   UNL     1      -1.130   0.035   0.256  1.00  0.00     0.045 A 
ATOM     16  C   UNL     1      -0.407  -1.140   0.245  1.00  0.00     0.070 A 
ATOM     17  N   UNL     1      -0.538   1.246   0.246  1.00  0.00    -0.216 NA
ATOM     18  C   UNL     1       0.804   1.264   0.087  1.00  0.00     0.252 A 
ATOM     19  N   UNL     1       1.565   0.162   0.012  1.00  0.00    -0.194 NA
BRANCH  18  20
ATOM     20  N   UNL     1       1.471   2.533   0.049  1.00  0.00    -0.203 N 
ATOM     21  N   UNL     1       2.522   2.772  -0.791  1.00  0.00    -0.170 NA
ATOM     22  C   UNL     1       1.185   3.648   0.824  1.00  0.00     0.045 A 
ATOM     23  C   UNL     1       2.758   4.082  -0.676  1.00  0.00     0.060 A 
ATOM     24  C   UNL     1       1.976   4.668   0.340  1.00  0.00     0.049 A 
ATOM     25  C   UNL     1       0.266   3.609   1.987  1.00  0.00     0.067 C 
ATOM     26  C   UNL     1       3.759   4.743  -1.549  1.00  0.00     0.069 C 
ENDBRANCH  18  20
ENDBRANCH  11  13
ENDBRANCH   6  11
ENDBRANCH   3   5
ENDBRANCH   2   3
ENDBRANCH   1   2
BRANCH   1  27
ATOM     27  C   UNL     1      10.178  -2.481   1.268  1.00  0.00     0.275 C 
BRANCH  27  28
ATOM     28  O   UNL     1       9.919  -3.215   0.057  1.00  0.00    -0.458 OA
BRANCH  28  29
ATOM     29  C   UNL     1       9.207  -4.354   0.203  1.00  0.00     0.338 C 
ATOM     30  O   UNL     1       8.796  -4.854   1.236  1.00  0.00    -0.246 OA
BRANCH  29  31
ATOM     31  C   UNL     1       8.958  -4.956  -1.115  1.00  0.00     0.060 A 
ATOM     32  C   UNL     1       8.094  -4.321  -2.001  1.00  0.00     0.016 A 
ATOM     33  C   UNL     1       9.465  -6.216  -1.419  1.00  0.00     0.016 A 
ATOM     34  C   UNL     1       7.637  -4.981  -3.138  1.00  0.00     0.010 A 
ATOM     35  C   UNL     1       9.104  -6.827  -2.624  1.00  0.00     0.010 A 
ATOM     36  C   UNL     1       8.157  -6.234  -3.481  1.00  0.00    -0.014 A 
BRANCH  36  37
ATOM     37  C   UNL     1       7.718  -6.937  -4.720  1.00  0.00     0.031 A 
ATOM     38  C   UNL     1       7.166  -8.334  -4.637  1.00  0.00     0.074 A 
ATOM     39  C   UNL     1       7.846  -6.348  -5.926  1.00  0.00     0.049 A 
ATOM     40  N   UNL     1       6.994  -9.219  -5.586  1.00  0.00    -0.248 NA
ATOM     41  C   UNL     1       6.776  -8.804  -3.299  1.00  0.00     0.031 C 
ATOM     42  C   UNL     1       8.316  -4.982  -6.159  1.00  0.00     0.029 A 
ATOM     43  N   UNL     1       7.610  -6.837  -7.189  1.00  0.00    -0.354 N 
ATOM     44  C   UNL     1       6.550 -10.372  -4.952  1.00  0.00     0.074 A 
ATOM     45  C   UNL     1       6.468 -10.071  -3.538  1.00  0.00     0.031 C 
ATOM     46  C   UNL     1       8.325  -4.737  -7.476  1.00  0.00     0.029 A 
ATOM     47  C   UNL     1       7.962  -5.959  -8.185  1.00  0.00     0.049 A 
ATOM     48  H   UNL     1       7.227  -7.727  -7.362  1.00  0.00     0.167 HD
ATOM     49  C   UNL     1       6.250 -11.573  -5.503  1.00  0.00     0.037 A 
ATOM     50  C   UNL     1       8.053  -6.129  -9.517  1.00  0.00     0.037 A 
ATOM     51  C   UNL     1       6.276 -11.843  -6.918  1.00  0.00     0.049 A 
ATOM     52  C   UNL     1       7.731  -7.470 -10.110  1.00  0.00     0.074 A 
ATOM     53  C   UNL     1       5.955 -13.014  -7.582  1.00  0.00     0.029 A 
ATOM     54  N   UNL     1       6.635 -10.919  -7.890  1.00  0.00    -0.354 N 
ATOM     55  N   UNL     1       7.368  -8.573  -9.503  1.00  0.00    -0.248 NA
ATOM     56  C   UNL     1       7.851  -7.595 -11.568  1.00  0.00     0.031 C 
ATOM     57  C   UNL     1       6.155 -12.810  -8.952  1.00  0.00     0.029 A 
ATOM     58  C   UNL     1       6.557 -11.498  -9.147  1.00  0.00     0.049 A 
ATOM     59  H   UNL     1       6.904  -9.989  -7.713  1.00  0.00     0.167 HD
ATOM     60  C   UNL     1       7.206  -9.522 -10.501  1.00  0.00     0.074 A 
ATOM     61  C   UNL     1       7.497  -8.860 -11.757  1.00  0.00     0.031 C 
ATOM     62  C   UNL     1       6.851 -10.825 -10.386  1.00  0.00     0.037 A 
BRANCH  49  63
ATOM     63  C   UNL     1       5.918 -12.701  -4.569  1.00  0.00     0.064 A 
ATOM     64  C   UNL     1       4.716 -12.749  -3.848  1.00  0.00     0.173 A 
ATOM     65  C   UNL     1       6.823 -13.762  -4.402  1.00  0.00     0.173 A 
ATOM     66  F   UNL     1       3.822 -11.755  -3.960  1.00  0.00    -0.203 F 
ATOM     67  C   UNL     1       4.449 -13.797  -2.969  1.00  0.00     0.198 A 
ATOM     68  C   UNL     1       6.539 -14.823  -3.546  1.00  0.00     0.198 A 
ATOM     69  F   UNL     1       7.985 -13.772  -5.073  1.00  0.00    -0.203 F 
ATOM     70  F   UNL     1       3.318 -13.792  -2.248  1.00  0.00    -0.200 F 
ATOM     71  C   UNL     1       5.358 -14.834  -2.822  1.00  0.00     0.200 A 
ATOM     72  F   UNL     1       7.414 -15.831  -3.416  1.00  0.00    -0.200 F 
ATOM     73  F   UNL     1       5.098 -15.840  -1.976  1.00  0.00    -0.200 F 
ENDBRANCH  49  63
BRANCH  50  74
ATOM     74  C   UNL     1       8.528  -5.002 -10.359  1.00  0.00     0.064 A 
ATOM     75  C   UNL     1       7.651  -4.308 -11.201  1.00  0.00     0.173 A 
ATOM     76  C   UNL     1       9.858  -4.557 -10.289  1.00  0.00     0.173 A 
ATOM     77  F   UNL     1       6.378  -4.711 -11.320  1.00  0.00    -0.203 F 
ATOM     78  C   UNL     1       8.085  -3.207 -11.937  1.00  0.00     0.198 A 
ATOM     79  C   UNL     1      10.283  -3.440 -11.002  1.00  0.00     0.198 A 
ATOM     80  F   UNL     1      10.736  -5.188  -9.494  1.00  0.00    -0.203 F 
ATOM     81  F   UNL     1       7.232  -2.572 -12.753  1.00  0.00    -0.200 F 
ATOM     82  C   UNL     1       9.396  -2.766 -11.828  1.00  0.00     0.200 A 
ATOM     83  F   UNL     1      11.545  -3.008 -10.879  1.00  0.00    -0.200 F 
ATOM     84  F   UNL     1       9.804  -1.693 -12.518  1.00  0.00    -0.200 F 
ENDBRANCH  50  74
BRANCH  62  85
ATOM     85  C   UNL     1       6.728 -11.614 -11.654  1.00  0.00     0.064 A 
ATOM     86  C   UNL     1       7.858 -12.050 -12.360  1.00  0.00     0.173 A 
ATOM     87  C   UNL     1       5.464 -11.974 -12.145  1.00  0.00     0.173 A 
ATOM     88  F   UNL     1       9.087 -11.715 -11.939  1.00  0.00    -0.203 F 
ATOM     89  C   UNL     1       7.726 -12.806 -13.521  1.00  0.00     0.198 A 
ATOM     90  C   UNL     1       5.337 -12.750 -13.292  1.00  0.00     0.198 A 
ATOM     91  F   UNL     1       4.353 -11.583 -11.502  1.00  0.00    -0.203 F 
ATOM     92  F   UNL     1       8.818 -13.183 -14.201  1.00  0.00    -0.200 F 
ATOM     93  C   UNL     1       6.467 -13.162 -13.982  1.00  0.00     0.200 A 
ATOM     94  F   UNL     1       4.120 -13.101 -13.731  1.00  0.00    -0.200 F 
ATOM     95  F   UNL     1       6.343 -13.896 -15.096  1.00  0.00    -0.200 F 
ENDBRANCH  62  85
ENDBRANCH  36  37
ENDBRANCH  29  31
ENDBRANCH  28  29
ENDBRANCH  27  28
ENDBRANCH   1  27
TORSDOF 14
