REMARK SMILES Cc1cc(SCC(=O)OCCOC(=O)c2ccc(-c3c4nc(c(-c5c(F)c(F)c(F)c(F)c5F)c5ccc([nH]5)c(-c5c(F)c(F)c(F)c(F)c5F)c5nc(c(-c6c(F)c(F)c(F)c(F)c6F)c6ccc3[nH]6)C=C5)C=C4)cc2)c2cc(C(F)(F)F)ccc2n1
REMARK SMILES IDX 10 1 9 2 7 3 8 4 6 5 5 6 4 7 1 8 2 9 3 10 88 11 87 12 78 13
REMARK SMILES IDX 86 14 79 15 85 16 80 17 81 18 82 19 83 20 84 21 11 22 12 23
REMARK SMILES IDX 13 24 14 25 15 26 16 27 77 28 17 29 76 30 18 31 19 32 20 33
REMARK SMILES IDX 70 34 21 35 75 36 69 37 71 38 22 39 74 40 68 41 67 42 23 44
REMARK SMILES IDX 55 45 35 46 54 47 36 48 39 49 53 50 72 51 37 52 38 53 52 55
REMARK SMILES IDX 73 56 40 57 24 58 25 59 33 60 26 61 27 62 31 63 34 64 28 65
REMARK SMILES IDX 29 66 32 67 30 68 56 69 57 70 65 71 58 72 59 73 63 74 66 75
REMARK SMILES IDX 60 76 61 77 64 78 62 79 41 80 42 81 50 82 43 83 44 84 48 85
REMARK SMILES IDX 51 86 45 87 46 88 49 89 47 90
REMARK H PARENT 71 43 39 54
REMARK Flexibility Score: inf
ROOT
ATOM      1  C   UNL     1      -2.798   4.116  -3.411  1.00  0.00     0.274 C 
ENDROOT
BRANCH   1   2
ATOM      2  O   UNL     1      -1.871   3.845  -2.341  1.00  0.00    -0.461 OA
BRANCH   2   3
ATOM      3  C   UNL     1      -2.124   4.455  -1.154  1.00  0.00     0.316 C 
ATOM      4  O   UNL     1      -3.091   5.183  -0.943  1.00  0.00    -0.251 OA
BRANCH   3   5
ATOM      5  C   UNL     1      -1.143   4.118  -0.050  1.00  0.00     0.197 C 
BRANCH   5   6
ATOM      6  S   UNL     1       0.386   3.302  -0.603  1.00  0.00    -0.114 SA
BRANCH   6   7
ATOM      7  C   UNL     1       0.160   1.548  -0.219  1.00  0.00     0.019 A 
ATOM      8  C   UNL     1      -2.553  -1.036   0.312  1.00  0.00     0.067 C 
ATOM      9  C   UNL     1      -1.216  -0.382   0.164  1.00  0.00     0.039 A 
ATOM     10  C   UNL     1      -1.107   0.976  -0.105  1.00  0.00     0.039 A 
ATOM     11  N   UNL     1      -0.145  -1.191   0.271  1.00  0.00    -0.253 NA
ATOM     12  C   UNL     1       1.075  -0.666   0.129  1.00  0.00     0.072 A 
ATOM     13  C   UNL     1       1.304   0.708  -0.096  1.00  0.00     0.014 A 
ATOM     14  C   UNL     1       2.151  -1.536   0.207  1.00  0.00     0.029 A 
ATOM     15  C   UNL     1       2.651   1.147  -0.190  1.00  0.00     0.024 A 
ATOM     16  C   UNL     1       3.470  -1.093   0.093  1.00  0.00     0.015 A 
ATOM     17  C   UNL     1       3.736   0.261  -0.097  1.00  0.00     0.056 A 
BRANCH  17  18
ATOM     18  C   UNL     1       5.146   0.787  -0.183  1.00  0.00     0.416 C 
ATOM     19  F   UNL     1       5.348   1.562  -1.284  1.00  0.00    -0.166 F 
ATOM     20  F   UNL     1       5.472   1.563   0.887  1.00  0.00    -0.166 F 
ATOM     21  F   UNL     1       6.089  -0.193  -0.236  1.00  0.00    -0.166 F 
ENDBRANCH  17  18
ENDBRANCH   6   7
ENDBRANCH   5   6
ENDBRANCH   3   5
ENDBRANCH   2   3
ENDBRANCH   1   2
BRANCH   1  22
ATOM     22  C   UNL     1      -3.787   2.965  -3.556  1.00  0.00     0.275 C 
BRANCH  22  23
ATOM     23  O   UNL     1      -4.463   2.753  -2.303  1.00  0.00    -0.458 OA
BRANCH  23  24
ATOM     24  C   UNL     1      -4.562   1.465  -1.913  1.00  0.00     0.338 C 
ATOM     25  O   UNL     1      -4.205   0.477  -2.539  1.00  0.00    -0.246 OA
BRANCH  24  26
ATOM     26  C   UNL     1      -5.146   1.363  -0.561  1.00  0.00     0.060 A 
ATOM     27  C   UNL     1      -4.787   2.245   0.464  1.00  0.00     0.016 A 
ATOM     28  C   UNL     1      -5.958   0.260  -0.281  1.00  0.00     0.016 A 
ATOM     29  C   UNL     1      -5.185   1.985   1.778  1.00  0.00     0.010 A 
ATOM     30  C   UNL     1      -6.404   0.034   1.021  1.00  0.00     0.010 A 
ATOM     31  C   UNL     1      -5.998   0.878   2.067  1.00  0.00    -0.014 A 
BRANCH  31  32
ATOM     32  C   UNL     1      -6.466   0.606   3.448  1.00  0.00     0.031 A 
ATOM     33  C   UNL     1      -5.990  -0.604   4.201  1.00  0.00     0.074 A 
ATOM     34  C   UNL     1      -7.371   1.431   4.005  1.00  0.00     0.049 A 
ATOM     35  N   UNL     1      -6.402  -1.084   5.348  1.00  0.00    -0.248 NA
ATOM     36  C   UNL     1      -4.907  -1.382   3.583  1.00  0.00     0.031 C 
ATOM     37  C   UNL     1      -7.901   2.644   3.383  1.00  0.00     0.029 A 
ATOM     38  N   UNL     1      -8.021   1.358   5.210  1.00  0.00    -0.354 N 
ATOM     39  C   UNL     1      -5.641  -2.222   5.580  1.00  0.00     0.074 A 
ATOM     40  C   UNL     1      -4.747  -2.370   4.452  1.00  0.00     0.031 C 
ATOM     41  C   UNL     1      -8.802   3.199   4.207  1.00  0.00     0.029 A 
ATOM     42  C   UNL     1      -8.950   2.352   5.386  1.00  0.00     0.049 A 
ATOM     43  H   UNL     1      -7.839   0.662   5.882  1.00  0.00     0.167 HD
ATOM     44  C   UNL     1      -5.686  -3.065   6.640  1.00  0.00     0.037 A 
ATOM     45  C   UNL     1      -9.851   2.538   6.367  1.00  0.00     0.037 A 
ATOM     46  C   UNL     1      -6.572  -2.915   7.764  1.00  0.00     0.049 A 
ATOM     47  C   UNL     1      -9.918   1.563   7.505  1.00  0.00     0.074 A 
ATOM     48  C   UNL     1      -6.681  -3.709   8.893  1.00  0.00     0.029 A 
ATOM     49  N   UNL     1      -7.507  -1.900   7.899  1.00  0.00    -0.354 N 
ATOM     50  N   UNL     1      -9.203   0.485   7.709  1.00  0.00    -0.248 NA
ATOM     51  C   UNL     1     -10.922   1.828   8.544  1.00  0.00     0.031 C 
ATOM     52  C   UNL     1      -7.702  -3.191   9.697  1.00  0.00     0.029 A 
ATOM     53  C   UNL     1      -8.206  -2.055   9.084  1.00  0.00     0.049 A 
ATOM     54  H   UNL     1      -7.651  -1.175   7.248  1.00  0.00     0.167 HD
ATOM     55  C   UNL     1      -9.661  -0.054   8.902  1.00  0.00     0.074 A 
ATOM     56  C   UNL     1     -10.707   0.824   9.384  1.00  0.00     0.031 C 
ATOM     57  C   UNL     1      -9.250  -1.177   9.541  1.00  0.00     0.037 A 
BRANCH  44  58
ATOM     58  C   UNL     1      -4.759  -4.244   6.632  1.00  0.00     0.064 A 
ATOM     59  C   UNL     1      -3.397  -4.106   6.934  1.00  0.00     0.173 A 
ATOM     60  C   UNL     1      -5.252  -5.533   6.382  1.00  0.00     0.173 A 
ATOM     61  F   UNL     1      -2.878  -2.892   7.170  1.00  0.00    -0.203 F 
ATOM     62  C   UNL     1      -2.559  -5.218   6.980  1.00  0.00     0.198 A 
ATOM     63  C   UNL     1      -4.416  -6.644   6.445  1.00  0.00     0.198 A 
ATOM     64  F   UNL     1      -6.549  -5.715   6.091  1.00  0.00    -0.203 F 
ATOM     65  F   UNL     1      -1.256  -5.063   7.252  1.00  0.00    -0.200 F 
ATOM     66  C   UNL     1      -3.070  -6.486   6.743  1.00  0.00     0.200 A 
ATOM     67  F   UNL     1      -4.912  -7.869   6.224  1.00  0.00    -0.200 F 
ATOM     68  F   UNL     1      -2.265  -7.556   6.799  1.00  0.00    -0.200 F 
ENDBRANCH  44  58
BRANCH  45  69
ATOM     69  C   UNL     1     -10.777   3.693   6.287  1.00  0.00     0.064 A 
ATOM     70  C   UNL     1     -10.607   4.810   7.112  1.00  0.00     0.173 A 
ATOM     71  C   UNL     1     -11.821   3.719   5.350  1.00  0.00     0.173 A 
ATOM     72  F   UNL     1      -9.633   4.818   8.035  1.00  0.00    -0.203 F 
ATOM     73  C   UNL     1     -11.447   5.915   7.004  1.00  0.00     0.198 A 
ATOM     74  C   UNL     1     -12.646   4.833   5.227  1.00  0.00     0.198 A 
ATOM     75  F   UNL     1     -12.018   2.672   4.535  1.00  0.00    -0.203 F 
ATOM     76  F   UNL     1     -11.277   6.965   7.818  1.00  0.00    -0.200 F 
ATOM     77  C   UNL     1     -12.460   5.929   6.055  1.00  0.00     0.200 A 
ATOM     78  F   UNL     1     -13.614   4.848   4.300  1.00  0.00    -0.200 F 
ATOM     79  F   UNL     1     -13.257   7.000   5.940  1.00  0.00    -0.200 F 
ENDBRANCH  45  69
BRANCH  57  80
ATOM     80  C   UNL     1      -9.928  -1.504  10.835  1.00  0.00     0.064 A 
ATOM     81  C   UNL     1     -11.215  -2.058  10.864  1.00  0.00     0.173 A 
ATOM     82  C   UNL     1      -9.277  -1.278  12.056  1.00  0.00     0.173 A 
ATOM     83  F   UNL     1     -11.882  -2.275   9.720  1.00  0.00    -0.203 F 
ATOM     84  C   UNL     1     -11.837  -2.353  12.074  1.00  0.00     0.198 A 
ATOM     85  C   UNL     1      -9.894  -1.592  13.263  1.00  0.00     0.198 A 
ATOM     86  F   UNL     1      -8.043  -0.752  12.077  1.00  0.00    -0.203 F 
ATOM     87  F   UNL     1     -13.084  -2.844  12.082  1.00  0.00    -0.200 F 
ATOM     88  C   UNL     1     -11.175  -2.123  13.271  1.00  0.00     0.200 A 
ATOM     89  F   UNL     1      -9.252  -1.374  14.419  1.00  0.00    -0.200 F 
ATOM     90  F   UNL     1     -11.777  -2.404  14.435  1.00  0.00    -0.200 F 
ENDBRANCH  57  80
ENDBRANCH  31  32
ENDBRANCH  24  26
ENDBRANCH  23  24
ENDBRANCH  22  23
ENDBRANCH   1  22
TORSDOF 14
