REMARK SMILES CC1(C)O[C@](C)([C@H](O)C2CCCCC2)CC[C@H]1C(=O)OCCOC(=O)c1ccc(-c2c3nc(c(-c4c(F)c(F)c(F)c(F)c4F)c4ccc([nH]4)c(-c4c(F)c(F)c(F)c(F)c4F)c4nc(c(-c5c(F)c(F)c(F)c(F)c5F)c5ccc2[nH]5)C=C4)C=C3)cc1
REMARK SMILES IDX 21 1 20 2 18 3 19 4 17 5 1 6 2 7 3 8 4 9 5 10 16 11 6 12
REMARK SMILES IDX 15 13 7 14 9 15 10 16 14 17 11 18 13 19 12 20 8 21 22 23
REMARK SMILES IDX 23 24 24 25 25 26 26 27 27 28 88 29 28 30 87 31 29 32 30 33
REMARK SMILES IDX 31 34 81 35 32 36 86 37 80 38 82 39 33 40 85 41 79 42 78 43
REMARK SMILES IDX 34 45 66 46 46 47 65 48 47 49 50 50 64 51 83 52 48 53 49 54
REMARK SMILES IDX 63 56 84 57 51 58 35 59 36 60 44 61 37 62 38 63 42 64 45 65
REMARK SMILES IDX 39 66 40 67 43 68 41 69 67 70 68 71 76 72 69 73 70 74 74 75
REMARK SMILES IDX 77 76 71 77 72 78 75 79 73 80 52 81 53 82 61 83 54 84 55 85
REMARK SMILES IDX 59 86 62 87 56 88 57 89 60 90 58 91
REMARK H PARENT 8 22 82 44 50 55
REMARK Flexibility Score: inf
ROOT
ATOM      1  C   UNL     1      -8.628  -0.551  -0.708  1.00  0.00     0.274 C 
ENDROOT
BRANCH   1   2
ATOM      2  O   UNL     1      -7.341   0.097  -0.763  1.00  0.00    -0.462 OA
BRANCH   2   3
ATOM      3  C   UNL     1      -6.574  -0.219  -1.827  1.00  0.00     0.311 C 
ATOM      4  O   UNL     1      -6.937  -0.971  -2.729  1.00  0.00    -0.252 OA
BRANCH   3   5
ATOM      5  C   UNL     1      -5.207   0.453  -1.865  1.00  0.00     0.131 C 
ATOM      6  C   UNL     1      -5.122   1.113   0.722  1.00  0.00     0.043 C 
ATOM      7  C   UNL     1      -4.760   1.432  -0.737  1.00  0.00     0.077 C 
ATOM      8  C   UNL     1      -5.401   2.812  -1.040  1.00  0.00     0.043 C 
ATOM      9  O   UNL     1      -3.337   1.703  -0.776  1.00  0.00    -0.366 OA
ATOM     10  C   UNL     1      -2.402   0.638  -1.000  1.00  0.00     0.092 C 
ATOM     11  C   UNL     1      -4.194  -0.635  -2.236  1.00  0.00     0.021 C 
ATOM     12  C   UNL     1      -2.360  -0.421   0.122  1.00  0.00     0.045 C 
ATOM     13  C   UNL     1      -2.789  -0.072  -2.310  1.00  0.00     0.039 C 
BRANCH  10  14
ATOM     14  C   UNL     1      -0.986   1.294  -1.217  1.00  0.00     0.149 C 
BRANCH  14  15
ATOM     15  C   UNL     1      -0.509   2.386  -0.205  1.00  0.00     0.021 C 
ATOM     16  C   UNL     1      -0.547   2.043   1.289  1.00  0.00     0.006 C 
ATOM     17  C   UNL     1       0.918   2.892  -0.531  1.00  0.00     0.006 C 
ATOM     18  C   UNL     1       0.478   0.984   1.676  1.00  0.00     0.000 C 
ATOM     19  C   UNL     1       2.047   1.956  -0.082  1.00  0.00     0.000 C 
ATOM     20  C   UNL     1       1.892   1.457   1.353  1.00  0.00     0.000 C 
ENDBRANCH  14  15
BRANCH  14  21
ATOM     21  O   UNL     1       0.001   0.275  -1.386  1.00  0.00    -0.390 OA
ATOM     22  H   UNL     1       0.092  -0.227  -0.561  1.00  0.00     0.211 HD
ENDBRANCH  14  21
ENDBRANCH  10  14
ENDBRANCH   3   5
ENDBRANCH   2   3
ENDBRANCH   1   2
BRANCH   1  23
ATOM     23  C   UNL     1      -9.731   0.372  -1.220  1.00  0.00     0.275 C 
BRANCH  23  24
ATOM     24  O   UNL     1      -9.413   0.858  -2.536  1.00  0.00    -0.458 OA
BRANCH  24  25
ATOM     25  C   UNL     1      -9.176   2.186  -2.618  1.00  0.00     0.338 C 
ATOM     26  O   UNL     1      -9.248   3.016  -1.729  1.00  0.00    -0.246 OA
BRANCH  25  27
ATOM     27  C   UNL     1      -8.803   2.540  -3.994  1.00  0.00     0.060 A 
ATOM     28  C   UNL     1      -7.569   2.143  -4.510  1.00  0.00     0.016 A 
ATOM     29  C   UNL     1      -9.635   3.384  -4.726  1.00  0.00     0.016 A 
ATOM     30  C   UNL     1      -7.133   2.637  -5.738  1.00  0.00     0.010 A 
ATOM     31  C   UNL     1      -9.229   3.822  -5.988  1.00  0.00     0.010 A 
ATOM     32  C   UNL     1      -7.962   3.476  -6.493  1.00  0.00    -0.014 A 
BRANCH  32  33
ATOM     33  C   UNL     1      -7.514   4.021  -7.800  1.00  0.00     0.031 A 
ATOM     34  C   UNL     1      -7.342   5.503  -7.975  1.00  0.00     0.074 A 
ATOM     35  C   UNL     1      -7.298   3.193  -8.839  1.00  0.00     0.049 A 
ATOM     36  N   UNL     1      -7.164   6.194  -9.072  1.00  0.00    -0.248 NA
ATOM     37  C   UNL     1      -7.388   6.319  -6.752  1.00  0.00     0.031 C 
ATOM     38  C   UNL     1      -7.387   1.734  -8.793  1.00  0.00     0.029 A 
ATOM     39  N   UNL     1      -6.973   3.467 -10.144  1.00  0.00    -0.354 N 
ATOM     40  C   UNL     1      -7.128   7.525  -8.679  1.00  0.00     0.074 A 
ATOM     41  C   UNL     1      -7.300   7.547  -7.242  1.00  0.00     0.031 C 
ATOM     42  C   UNL     1      -7.117   1.240 -10.011  1.00  0.00     0.029 A 
ATOM     43  C   UNL     1      -6.905   2.348 -10.936  1.00  0.00     0.049 A 
ATOM     44  H   UNL     1      -6.805   4.378 -10.479  1.00  0.00     0.167 HD
ATOM     45  C   UNL     1      -6.970   8.627  -9.452  1.00  0.00     0.037 A 
ATOM     46  C   UNL     1      -6.737   2.229 -12.266  1.00  0.00     0.037 A 
ATOM     47  C   UNL     1      -6.753   8.598 -10.875  1.00  0.00     0.049 A 
ATOM     48  C   UNL     1      -6.603   3.467 -13.106  1.00  0.00     0.074 A 
ATOM     49  C   UNL     1      -6.543   9.659 -11.739  1.00  0.00     0.029 A 
ATOM     50  N   UNL     1      -6.712   7.444 -11.642  1.00  0.00    -0.354 N 
ATOM     51  N   UNL     1      -6.601   4.723 -12.733  1.00  0.00    -0.248 NA
ATOM     52  C   UNL     1      -6.466   3.270 -14.556  1.00  0.00     0.031 C 
ATOM     53  C   UNL     1      -6.407   9.148 -13.035  1.00  0.00     0.029 A 
ATOM     54  C   UNL     1      -6.497   7.767 -12.972  1.00  0.00     0.049 A 
ATOM     55  H   UNL     1      -6.819   6.529 -11.293  1.00  0.00     0.167 HD
ATOM     56  C   UNL     1      -6.450   5.465 -13.896  1.00  0.00     0.074 A 
ATOM     57  C   UNL     1      -6.351   4.518 -14.987  1.00  0.00     0.031 C 
ATOM     58  C   UNL     1      -6.401   6.811 -14.045  1.00  0.00     0.037 A 
BRANCH  45  59
ATOM     59  C   UNL     1      -7.059   9.964  -8.778  1.00  0.00     0.064 A 
ATOM     60  C   UNL     1      -6.025  10.457  -7.970  1.00  0.00     0.173 A 
ATOM     61  C   UNL     1      -8.185  10.777  -8.976  1.00  0.00     0.173 A 
ATOM     62  F   UNL     1      -4.934   9.711  -7.739  1.00  0.00    -0.203 F 
ATOM     63  C   UNL     1      -6.125  11.708  -7.365  1.00  0.00     0.198 A 
ATOM     64  C   UNL     1      -8.271  12.037  -8.389  1.00  0.00     0.198 A 
ATOM     65  F   UNL     1      -9.199  10.353  -9.744  1.00  0.00    -0.203 F 
ATOM     66  F   UNL     1      -5.143  12.144  -6.565  1.00  0.00    -0.200 F 
ATOM     67  C   UNL     1      -7.245  12.499  -7.580  1.00  0.00     0.200 A 
ATOM     68  F   UNL     1      -9.350  12.803  -8.606  1.00  0.00    -0.200 F 
ATOM     69  F   UNL     1      -7.336  13.704  -7.002  1.00  0.00    -0.200 F 
ENDBRANCH  45  59
BRANCH  46  70
ATOM     70  C   UNL     1      -6.716   0.880 -12.884  1.00  0.00     0.064 A 
ATOM     71  C   UNL     1      -5.523   0.339 -13.380  1.00  0.00     0.173 A 
ATOM     72  C   UNL     1      -7.878   0.100 -12.972  1.00  0.00     0.173 A 
ATOM     73  F   UNL     1      -4.393   1.060 -13.340  1.00  0.00    -0.203 F 
ATOM     74  C   UNL     1      -5.494  -0.934 -13.945  1.00  0.00     0.198 A 
ATOM     75  C   UNL     1      -7.842  -1.182 -13.514  1.00  0.00     0.198 A 
ATOM     76  F   UNL     1      -9.043   0.577 -12.511  1.00  0.00    -0.203 F 
ATOM     77  F   UNL     1      -4.346  -1.419 -14.438  1.00  0.00    -0.200 F 
ATOM     78  C   UNL     1      -6.651  -1.697 -14.003  1.00  0.00     0.200 A 
ATOM     79  F   UNL     1      -8.960  -1.920 -13.558  1.00  0.00    -0.200 F 
ATOM     80  F   UNL     1      -6.619  -2.926 -14.536  1.00  0.00    -0.200 F 
ENDBRANCH  46  70
BRANCH  58  81
ATOM     81  C   UNL     1      -6.205   7.336 -15.435  1.00  0.00     0.064 A 
ATOM     82  C   UNL     1      -7.251   7.340 -16.369  1.00  0.00     0.173 A 
ATOM     83  C   UNL     1      -4.967   7.865 -15.827  1.00  0.00     0.173 A 
ATOM     84  F   UNL     1      -8.447   6.828 -16.045  1.00  0.00    -0.203 F 
ATOM     85  C   UNL     1      -7.057   7.838 -17.654  1.00  0.00     0.198 A 
ATOM     86  C   UNL     1      -4.783   8.382 -17.106  1.00  0.00     0.198 A 
ATOM     87  F   UNL     1      -3.938   7.885 -14.967  1.00  0.00    -0.203 F 
ATOM     88  F   UNL     1      -8.058   7.797 -18.545  1.00  0.00    -0.200 F 
ATOM     89  C   UNL     1      -5.826   8.364 -18.020  1.00  0.00     0.200 A 
ATOM     90  F   UNL     1      -3.596   8.896 -17.455  1.00  0.00    -0.200 F 
ATOM     91  F   UNL     1      -5.642   8.844 -19.257  1.00  0.00    -0.200 F 
ENDBRANCH  58  81
ENDBRANCH  32  33
ENDBRANCH  25  27
ENDBRANCH  24  25
ENDBRANCH  23  24
ENDBRANCH   1  23
TORSDOF 14
