REMARK SMILES Cn1c(C[NH+]2CCC3(CC2)NC(=O)C[C@@H]3C(=O)OCCOC(=O)c2ccc(-c3c4nc(c(-c5c(F)c(F)c(F)c(F)c5F)c5ccc([nH]5)c(-c5c(F)c(F)c(F)c(F)c5F)c5nc(c(-c6c(F)c(F)c(F)c(F)c6F)c6ccc3[nH]6)C=C5)C=C4)cc2)nc2ccccc21
REMARK SMILES IDX 19 1 18 2 16 3 17 4 15 5 5 6 6 7 10 8 7 10 9 11 8 12 11 13
REMARK SMILES IDX 12 14 14 16 13 17 4 18 3 19 1 20 2 21 93 22 87 23 88 24
REMARK SMILES IDX 92 25 89 26 91 27 90 28 20 29 21 30 22 31 23 32 24 33 25 34
REMARK SMILES IDX 86 35 26 36 85 37 27 38 28 39 29 40 79 41 30 42 84 43 78 44
REMARK SMILES IDX 80 45 31 46 83 47 77 48 76 49 32 51 64 52 44 53 63 54 45 55
REMARK SMILES IDX 48 56 62 57 81 58 46 59 47 60 61 62 82 63 49 64 33 65 34 66
REMARK SMILES IDX 42 67 35 68 36 69 40 70 43 71 37 72 38 73 41 74 39 75 65 76
REMARK SMILES IDX 66 77 74 78 67 79 68 80 72 81 75 82 69 83 70 84 73 85 71 86
REMARK SMILES IDX 50 87 51 88 59 89 52 90 53 91 57 92 60 93 54 94 55 95 58 96
REMARK SMILES IDX 56 97
REMARK H PARENT 5 9 11 15 80 50 48 61
REMARK Flexibility Score: inf
ROOT
ATOM      1  C   UNL     1      -4.572  -3.170  -4.898  1.00  0.00     0.274 C 
ENDROOT
BRANCH   1   2
ATOM      2  O   UNL     1      -3.424  -3.272  -4.028  1.00  0.00    -0.462 OA
BRANCH   2   3
ATOM      3  C   UNL     1      -2.287  -3.720  -4.601  1.00  0.00     0.311 C 
ATOM      4  O   UNL     1      -2.225  -4.160  -5.744  1.00  0.00    -0.252 OA
BRANCH   3   5
ATOM      5  C   UNL     1      -1.067  -3.677  -3.702  1.00  0.00     0.134 C 
ATOM      6  N   UNL     1      -3.257  -2.316  -0.435  1.00  0.00    -0.328 N 
ATOM      7  C   UNL     1      -3.161  -1.522  -1.641  1.00  0.00     0.265 C 
ATOM      8  C   UNL     1      -2.685  -3.647  -0.594  1.00  0.00     0.265 C 
ATOM      9  H   UNL     1      -4.254  -2.491  -0.305  1.00  0.00     0.348 HD
ATOM     10  C   UNL     1      -1.804  -1.525  -2.349  1.00  0.00     0.091 C 
ATOM     11  C   UNL     1      -1.259  -3.701  -1.129  1.00  0.00     0.091 C 
ATOM     12  C   UNL     1      -1.008  -2.843  -2.382  1.00  0.00     0.064 C 
ATOM     13  N   UNL     1       0.409  -2.457  -2.379  1.00  0.00    -0.349 N 
ATOM     14  C   UNL     1       1.030  -2.506  -3.596  1.00  0.00     0.221 C 
ATOM     15  H   UNL     1       0.879  -2.183  -1.558  1.00  0.00     0.164 HD
ATOM     16  C   UNL     1       0.105  -3.161  -4.566  1.00  0.00     0.117 C 
ATOM     17  O   UNL     1       2.134  -2.057  -3.847  1.00  0.00    -0.275 OA
BRANCH   6  18
ATOM     18  C   UNL     1      -2.985  -1.614   0.826  1.00  0.00     0.339 C 
BRANCH  18  19
ATOM     19  C   UNL     1      -1.648  -0.945   0.912  1.00  0.00     0.165 A 
ATOM     20  C   UNL     1      -2.354   1.442   0.398  1.00  0.00     0.152 C 
ATOM     21  N   UNL     1      -1.401   0.393   0.672  1.00  0.00    -0.326 N 
ATOM     22  C   UNL     1      -0.035   0.560   0.584  1.00  0.00     0.068 A 
ATOM     23  N   UNL     1      -0.518  -1.581   1.154  1.00  0.00    -0.227 NA
ATOM     24  C   UNL     1       0.482  -0.695   0.880  1.00  0.00     0.089 A 
ATOM     25  C   UNL     1       0.781   1.645   0.247  1.00  0.00     0.028 A 
ATOM     26  C   UNL     1       1.863  -0.916   0.813  1.00  0.00     0.030 A 
ATOM     27  C   UNL     1       2.156   1.402   0.155  1.00  0.00     0.002 A 
ATOM     28  C   UNL     1       2.691   0.141   0.425  1.00  0.00     0.002 A 
ENDBRANCH  18  19
ENDBRANCH   6  18
ENDBRANCH   3   5
ENDBRANCH   2   3
ENDBRANCH   1   2
BRANCH   1  29
ATOM     29  C   UNL     1      -5.377  -1.898  -4.586  1.00  0.00     0.275 C 
BRANCH  29  30
ATOM     30  O   UNL     1      -4.577  -0.705  -4.427  1.00  0.00    -0.458 OA
BRANCH  30  31
ATOM     31  C   UNL     1      -3.816  -0.342  -5.484  1.00  0.00     0.338 C 
ATOM     32  O   UNL     1      -3.776  -0.867  -6.576  1.00  0.00    -0.246 OA
BRANCH  31  33
ATOM     33  C   UNL     1      -2.877   0.712  -5.050  1.00  0.00     0.060 A 
ATOM     34  C   UNL     1      -1.512   0.440  -5.155  1.00  0.00     0.016 A 
ATOM     35  C   UNL     1      -3.312   1.953  -4.583  1.00  0.00     0.016 A 
ATOM     36  C   UNL     1      -0.574   1.396  -4.778  1.00  0.00     0.010 A 
ATOM     37  C   UNL     1      -2.369   2.962  -4.346  1.00  0.00     0.010 A 
ATOM     38  C   UNL     1      -0.994   2.703  -4.490  1.00  0.00    -0.014 A 
BRANCH  38  39
ATOM     39  C   UNL     1      -0.006   3.814  -4.601  1.00  0.00     0.031 A 
ATOM     40  C   UNL     1       0.312   4.731  -3.460  1.00  0.00     0.074 A 
ATOM     41  C   UNL     1       0.590   4.002  -5.798  1.00  0.00     0.049 A 
ATOM     42  N   UNL     1       1.098   5.779  -3.437  1.00  0.00    -0.248 NA
ATOM     43  C   UNL     1      -0.340   4.442  -2.178  1.00  0.00     0.031 C 
ATOM     44  C   UNL     1       0.360   3.179  -6.989  1.00  0.00     0.029 A 
ATOM     45  N   UNL     1       1.517   4.923  -6.215  1.00  0.00    -0.354 N 
ATOM     46  C   UNL     1       1.031   6.282  -2.145  1.00  0.00     0.074 A 
ATOM     47  C   UNL     1       0.111   5.431  -1.416  1.00  0.00     0.031 C 
ATOM     48  C   UNL     1       1.168   3.586  -7.975  1.00  0.00     0.029 A 
ATOM     49  C   UNL     1       1.895   4.763  -7.526  1.00  0.00     0.049 A 
ATOM     50  H   UNL     1       1.876   5.630  -5.631  1.00  0.00     0.167 HD
ATOM     51  C   UNL     1       1.676   7.355  -1.624  1.00  0.00     0.037 A 
ATOM     52  C   UNL     1       2.704   5.501  -8.306  1.00  0.00     0.037 A 
ATOM     53  C   UNL     1       2.572   8.206  -2.370  1.00  0.00     0.049 A 
ATOM     54  C   UNL     1       3.339   6.727  -7.727  1.00  0.00     0.074 A 
ATOM     55  C   UNL     1       3.275   9.317  -1.934  1.00  0.00     0.029 A 
ATOM     56  N   UNL     1       2.881   8.048  -3.715  1.00  0.00    -0.354 N 
ATOM     57  N   UNL     1       3.266   7.193  -6.505  1.00  0.00    -0.248 NA
ATOM     58  C   UNL     1       4.147   7.543  -8.640  1.00  0.00     0.031 C 
ATOM     59  C   UNL     1       3.959   9.863  -3.026  1.00  0.00     0.029 A 
ATOM     60  C   UNL     1       3.733   9.060  -4.133  1.00  0.00     0.049 A 
ATOM     61  H   UNL     1       2.543   7.322  -4.290  1.00  0.00     0.167 HD
ATOM     62  C   UNL     1       4.027   8.351  -6.494  1.00  0.00     0.074 A 
ATOM     63  C   UNL     1       4.569   8.505  -7.830  1.00  0.00     0.031 C 
ATOM     64  C   UNL     1       4.253   9.208  -5.470  1.00  0.00     0.037 A 
BRANCH  51  65
ATOM     65  C   UNL     1       1.395   7.700  -0.188  1.00  0.00     0.064 A 
ATOM     66  C   UNL     1       1.852   6.901   0.871  1.00  0.00     0.173 A 
ATOM     67  C   UNL     1       0.667   8.857   0.134  1.00  0.00     0.173 A 
ATOM     68  F   UNL     1       2.538   5.776   0.619  1.00  0.00    -0.203 F 
ATOM     69  C   UNL     1       1.562   7.228   2.194  1.00  0.00     0.198 A 
ATOM     70  C   UNL     1       0.402   9.196   1.459  1.00  0.00     0.198 A 
ATOM     71  F   UNL     1       0.208   9.660  -0.838  1.00  0.00    -0.203 F 
ATOM     72  F   UNL     1       1.959   6.418   3.185  1.00  0.00    -0.200 F 
ATOM     73  C   UNL     1       0.841   8.376   2.487  1.00  0.00     0.200 A 
ATOM     74  F   UNL     1      -0.289  10.309   1.740  1.00  0.00    -0.200 F 
ATOM     75  F   UNL     1       0.555   8.684   3.760  1.00  0.00    -0.200 F 
ENDBRANCH  51  65
BRANCH  52  76
ATOM     76  C   UNL     1       2.921   5.101  -9.721  1.00  0.00     0.064 A 
ATOM     77  C   UNL     1       4.165   4.622 -10.152  1.00  0.00     0.173 A 
ATOM     78  C   UNL     1       1.877   5.143 -10.659  1.00  0.00     0.173 A 
ATOM     79  F   UNL     1       5.200   4.586  -9.299  1.00  0.00    -0.203 F 
ATOM     80  C   UNL     1       4.356   4.199 -11.466  1.00  0.00     0.198 A 
ATOM     81  C   UNL     1       2.060   4.689 -11.962  1.00  0.00     0.198 A 
ATOM     82  F   UNL     1       0.666   5.590 -10.296  1.00  0.00    -0.203 F 
ATOM     83  F   UNL     1       5.563   3.773 -11.861  1.00  0.00    -0.200 F 
ATOM     84  C   UNL     1       3.300   4.221 -12.366  1.00  0.00     0.200 A 
ATOM     85  F   UNL     1       1.032   4.694 -12.821  1.00  0.00    -0.200 F 
ATOM     86  F   UNL     1       3.480   3.796 -13.623  1.00  0.00    -0.200 F 
ENDBRANCH  52  76
BRANCH  64  87
ATOM     87  C   UNL     1       5.144  10.381  -5.757  1.00  0.00     0.064 A 
ATOM     88  C   UNL     1       4.713  11.453  -6.552  1.00  0.00     0.173 A 
ATOM     89  C   UNL     1       6.439  10.437  -5.220  1.00  0.00     0.173 A 
ATOM     90  F   UNL     1       3.492  11.436  -7.106  1.00  0.00    -0.203 F 
ATOM     91  C   UNL     1       5.557  12.528  -6.821  1.00  0.00     0.198 A 
ATOM     92  C   UNL     1       7.269  11.526  -5.467  1.00  0.00     0.198 A 
ATOM     93  F   UNL     1       6.896   9.437  -4.453  1.00  0.00    -0.203 F 
ATOM     94  F   UNL     1       5.144  13.517  -7.625  1.00  0.00    -0.200 F 
ATOM     95  C   UNL     1       6.831  12.566  -6.272  1.00  0.00     0.200 A 
ATOM     96  F   UNL     1       8.495  11.567  -4.928  1.00  0.00    -0.200 F 
ATOM     97  F   UNL     1       7.641  13.603  -6.529  1.00  0.00    -0.200 F 
ENDBRANCH  64  87
ENDBRANCH  38  39
ENDBRANCH  31  33
ENDBRANCH  30  31
ENDBRANCH  29  30
ENDBRANCH   1  29
TORSDOF 13
