REMARK SMILES CCCCCC[C@H](C)[C@@](C)(O)C(=O)OCCOC(=O)c1ccc(-c2c3nc(c(-c4c(F)c(F)c(F)c(F)c4F)c4ccc([nH]4)c(-c4c(F)c(F)c(F)c(F)c4F)c4nc(c(-c5c(F)c(F)c(F)c(F)c5F)c5ccc2[nH]5)C=C4)C=C3)cc1
REMARK SMILES IDX 12 1 13 2 9 3 10 4 7 5 8 6 6 7 5 8 4 9 3 10 2 11 1 12 11 13
REMARK SMILES IDX 14 15 15 16 16 17 17 18 18 19 19 20 20 21 21 22 82 23 22 24
REMARK SMILES IDX 81 25 23 26 24 27 25 28 75 29 26 30 80 31 74 32 76 33 27 34
REMARK SMILES IDX 79 35 73 36 72 37 28 39 60 40 40 41 59 42 41 43 44 44 58 45
REMARK SMILES IDX 77 46 42 47 43 48 57 50 78 51 45 52 29 53 30 54 38 55 31 56
REMARK SMILES IDX 32 57 36 58 39 59 33 60 34 61 37 62 35 63 61 64 62 65 70 66
REMARK SMILES IDX 63 67 64 68 68 69 71 70 65 71 66 72 69 73 67 74 46 75 47 76
REMARK SMILES IDX 55 77 48 78 49 79 53 80 56 81 50 82 51 83 54 84 52 85
REMARK H PARENT 11 14 76 38 44 49
REMARK Flexibility Score: inf
ROOT
ATOM      1  C   UNL     1      -2.679   5.680  -3.192  1.00  0.00     0.338 C 
ATOM      2  O   UNL     1      -3.192   5.082  -2.251  1.00  0.00    -0.249 OA
ENDROOT
BRANCH   1   3
ATOM      3  C   UNL     1      -1.154   5.614  -3.536  1.00  0.00     0.161 C 
ATOM      4  C   UNL     1      -0.512   6.321  -2.325  1.00  0.00     0.055 C 
BRANCH   3   5
ATOM      5  C   UNL     1      -0.519   4.161  -3.771  1.00  0.00     0.029 C 
ATOM      6  C   UNL     1      -0.218   3.375  -2.483  1.00  0.00     0.011 C 
BRANCH   5   7
ATOM      7  C   UNL     1      -0.940   3.349  -5.096  1.00  0.00     0.007 C 
BRANCH   7   8
ATOM      8  C   UNL     1      -1.868   1.842  -5.473  1.00  0.00     0.000 C 
BRANCH   8   9
ATOM      9  C   UNL     1      -3.699   0.917  -4.693  1.00  0.00     0.000 C 
BRANCH   9  10
ATOM     10  C   UNL     1      -5.311   1.385  -4.389  1.00  0.00    -0.000 C 
BRANCH  10  11
ATOM     11  C   UNL     1      -6.349   0.782  -5.343  1.00  0.00    -0.003 C 
ATOM     12  C   UNL     1      -6.581  -0.705  -5.100  1.00  0.00     0.004 C 
ENDBRANCH  10  11
ENDBRANCH   9  10
ENDBRANCH   8   9
ENDBRANCH   7   8
ENDBRANCH   5   7
ENDBRANCH   3   5
BRANCH   3  13
ATOM     13  O   UNL     1      -0.771   6.449  -4.639  1.00  0.00    -0.378 OA
ATOM     14  H   UNL     1       0.182   6.359  -4.797  1.00  0.00     0.212 HD
ENDBRANCH   3  13
ENDBRANCH   1   3
BRANCH   1  15
ATOM     15  O   UNL     1      -3.366   6.546  -3.993  1.00  0.00    -0.460 OA
BRANCH  15  16
ATOM     16  C   UNL     1      -4.803   6.628  -3.816  1.00  0.00     0.274 C 
BRANCH  16  17
ATOM     17  C   UNL     1      -5.506   5.962  -4.995  1.00  0.00     0.275 C 
BRANCH  17  18
ATOM     18  O   UNL     1      -5.167   4.573  -4.960  1.00  0.00    -0.458 OA
BRANCH  18  19
ATOM     19  C   UNL     1      -4.035   4.280  -5.617  1.00  0.00     0.338 C 
ATOM     20  O   UNL     1      -3.418   4.969  -6.411  1.00  0.00    -0.246 OA
BRANCH  19  21
ATOM     21  C   UNL     1      -3.600   2.935  -5.273  1.00  0.00     0.060 A 
ATOM     22  C   UNL     1      -2.761   2.448  -3.736  1.00  0.00     0.016 A 
ATOM     23  C   UNL     1      -3.685   1.806  -6.638  1.00  0.00     0.016 A 
ATOM     24  C   UNL     1      -1.852   0.867  -3.665  1.00  0.00     0.010 A 
ATOM     25  C   UNL     1      -2.865   0.237  -6.546  1.00  0.00     0.010 A 
ATOM     26  C   UNL     1      -1.969  -0.279  -5.068  1.00  0.00    -0.014 A 
BRANCH  26  27
ATOM     27  C   UNL     1      -1.464  -1.684  -5.030  1.00  0.00     0.031 A 
ATOM     28  C   UNL     1      -0.922  -2.345  -6.282  1.00  0.00     0.074 A 
ATOM     29  C   UNL     1      -1.630  -2.413  -3.909  1.00  0.00     0.049 A 
ATOM     30  N   UNL     1      -0.686  -3.613  -6.519  1.00  0.00    -0.248 NA
ATOM     31  C   UNL     1      -0.693  -1.488  -7.457  1.00  0.00     0.031 C 
ATOM     32  C   UNL     1      -2.260  -1.954  -2.673  1.00  0.00     0.029 A 
ATOM     33  N   UNL     1      -1.291  -3.713  -3.622  1.00  0.00    -0.354 N 
ATOM     34  C   UNL     1      -0.372  -3.698  -7.874  1.00  0.00     0.074 A 
ATOM     35  C   UNL     1      -0.548  -2.377  -8.428  1.00  0.00     0.031 C 
ATOM     36  C   UNL     1      -2.163  -2.898  -1.732  1.00  0.00     0.029 A 
ATOM     37  C   UNL     1      -1.581  -4.084  -2.329  1.00  0.00     0.049 A 
ATOM     38  H   UNL     1      -0.881  -4.321  -4.279  1.00  0.00     0.167 HD
ATOM     39  C   UNL     1       0.078  -4.765  -8.580  1.00  0.00     0.037 A 
ATOM     40  C   UNL     1      -1.429  -5.259  -1.694  1.00  0.00     0.037 A 
ATOM     41  C   UNL     1       0.360  -6.040  -7.975  1.00  0.00     0.049 A 
ATOM     42  C   UNL     1      -0.863  -6.406  -2.471  1.00  0.00     0.074 A 
ATOM     43  C   UNL     1       0.924  -7.166  -8.547  1.00  0.00     0.029 A 
ATOM     44  N   UNL     1       0.116  -6.346  -6.642  1.00  0.00    -0.354 N 
ATOM     45  N   UNL     1      -0.522  -6.456  -3.737  1.00  0.00    -0.248 NA
ATOM     46  C   UNL     1      -0.658  -7.659  -1.739  1.00  0.00     0.031 C 
ATOM     47  C   UNL     1       0.966  -8.171  -7.577  1.00  0.00     0.029 A 
ATOM     48  C   UNL     1       0.500  -7.649  -6.379  1.00  0.00     0.049 A 
ATOM     49  H   UNL     1      -0.273  -5.727  -5.982  1.00  0.00     0.167 HD
ATOM     50  C   UNL     1      -0.036  -7.735  -3.949  1.00  0.00     0.074 A 
ATOM     51  C   UNL     1      -0.107  -8.421  -2.673  1.00  0.00     0.031 C 
ATOM     52  C   UNL     1       0.424  -8.296  -5.093  1.00  0.00     0.037 A 
BRANCH  39  53
ATOM     53  C   UNL     1       0.329  -4.598 -10.060  1.00  0.00     0.064 A 
ATOM     54  C   UNL     1       1.306  -3.721 -10.562  1.00  0.00     0.173 A 
ATOM     55  C   UNL     1      -0.393  -5.358 -10.997  1.00  0.00     0.173 A 
ATOM     56  F   UNL     1       2.034  -2.968  -9.722  1.00  0.00    -0.203 F 
ATOM     57  C   UNL     1       1.512  -3.573 -11.932  1.00  0.00     0.198 A 
ATOM     58  C   UNL     1      -0.151  -5.241 -12.366  1.00  0.00     0.198 A 
ATOM     59  F   UNL     1      -1.329  -6.227 -10.587  1.00  0.00    -0.203 F 
ATOM     60  F   UNL     1       2.401  -2.674 -12.380  1.00  0.00    -0.200 F 
ATOM     61  C   UNL     1       0.790  -4.339 -12.833  1.00  0.00     0.200 A 
ATOM     62  F   UNL     1      -0.835  -6.001 -13.233  1.00  0.00    -0.200 F 
ATOM     63  F   UNL     1       0.998  -4.203 -14.150  1.00  0.00    -0.200 F 
ENDBRANCH  39  53
BRANCH  40  64
ATOM     64  C   UNL     1      -1.790  -5.378  -0.255  1.00  0.00     0.064 A 
ATOM     65  C   UNL     1      -0.800  -5.568   0.720  1.00  0.00     0.173 A 
ATOM     66  C   UNL     1      -3.117  -5.253   0.187  1.00  0.00     0.173 A 
ATOM     67  F   UNL     1       0.484  -5.697   0.353  1.00  0.00    -0.203 F 
ATOM     68  C   UNL     1      -1.123  -5.653   2.072  1.00  0.00     0.198 A 
ATOM     69  C   UNL     1      -3.434  -5.295   1.543  1.00  0.00     0.198 A 
ATOM     70  F   UNL     1      -4.103  -5.044  -0.698  1.00  0.00    -0.203 F 
ATOM     71  F   UNL     1      -0.161  -5.880   2.976  1.00  0.00    -0.200 F 
ATOM     72  C   UNL     1      -2.439  -5.507   2.484  1.00  0.00     0.200 A 
ATOM     73  F   UNL     1      -4.703  -5.120   1.938  1.00  0.00    -0.200 F 
ATOM     74  F   UNL     1      -2.748  -5.570   3.787  1.00  0.00    -0.200 F 
ENDBRANCH  40  64
BRANCH  52  75
ATOM     75  C   UNL     1       0.934  -9.702  -4.997  1.00  0.00     0.064 A 
ATOM     76  C   UNL     1       0.074 -10.787  -4.776  1.00  0.00     0.173 A 
ATOM     77  C   UNL     1       2.303  -9.964  -5.159  1.00  0.00     0.173 A 
ATOM     78  F   UNL     1      -1.240 -10.582  -4.599  1.00  0.00    -0.203 F 
ATOM     79  C   UNL     1       0.572 -12.082  -4.683  1.00  0.00     0.198 A 
ATOM     80  C   UNL     1       2.791 -11.264  -5.109  1.00  0.00     0.198 A 
ATOM     81  F   UNL     1       3.164  -8.959  -5.381  1.00  0.00    -0.203 F 
ATOM     82  F   UNL     1      -0.257 -13.097  -4.404  1.00  0.00    -0.200 F 
ATOM     83  C   UNL     1       1.928 -12.320  -4.859  1.00  0.00     0.200 A 
ATOM     84  F   UNL     1       4.097 -11.495  -5.301  1.00  0.00    -0.200 F 
ATOM     85  F   UNL     1       2.404 -13.570  -4.779  1.00  0.00    -0.200 F 
ENDBRANCH  52  75
ENDBRANCH  26  27
ENDBRANCH  19  21
ENDBRANCH  18  19
ENDBRANCH  17  18
ENDBRANCH  16  17
ENDBRANCH  15  16
ENDBRANCH   1  15
TORSDOF 18
