REMARK SMILES C[C@H]1CN(CCC(=O)OCCOC(=O)c2ccc(-c3c4nc(c(-c5c(F)c(F)c(F)c(F)c5F)c5ccc([nH]5)c(-c5c(F)c(F)c(F)c(F)c5F)c5nc(c(-c6c(F)c(F)c(F)c(F)c6F)c6ccc3[nH]6)C=C5)C=C4)cc2)S(=O)(=O)C1
REMARK SMILES IDX 10 1 9 2 7 3 8 4 6 5 5 6 4 7 1 8 2 9 3 10 81 11 78 12 79 13
REMARK SMILES IDX 80 14 11 15 12 16 13 17 14 18 15 19 16 20 77 21 17 22 76 23
REMARK SMILES IDX 18 24 19 25 20 26 70 27 21 28 75 29 69 30 71 31 22 32 74 33
REMARK SMILES IDX 68 34 67 35 23 37 55 38 35 39 54 40 36 41 39 42 53 43 72 44
REMARK SMILES IDX 37 45 38 46 52 48 73 49 40 50 24 51 25 52 33 53 26 54 27 55
REMARK SMILES IDX 31 56 34 57 28 58 29 59 32 60 30 61 56 62 57 63 65 64 58 65
REMARK SMILES IDX 59 66 63 67 66 68 60 69 61 70 64 71 62 72 41 73 42 74 50 75
REMARK SMILES IDX 43 76 44 77 48 78 51 79 45 80 46 81 49 82 47 83
REMARK H PARENT 71 36 39 47
REMARK Flexibility Score: inf
ROOT
ATOM      1  C   UNL     1      -3.389   2.533   0.121  1.00  0.00     0.274 C 
ENDROOT
BRANCH   1   2
ATOM      2  O   UNL     1      -2.070   2.951  -0.279  1.00  0.00    -0.462 OA
BRANCH   2   3
ATOM      3  C   UNL     1      -1.891   3.346  -1.556  1.00  0.00     0.307 C 
ATOM      4  O   UNL     1      -2.737   3.275  -2.440  1.00  0.00    -0.252 OA
BRANCH   3   5
ATOM      5  C   UNL     1      -0.486   3.830  -1.824  1.00  0.00     0.139 C 
BRANCH   5   6
ATOM      6  C   UNL     1       0.245   4.452  -0.641  1.00  0.00     0.114 C 
BRANCH   6   7
ATOM      7  N   UNL     1       1.051   3.537   0.188  1.00  0.00    -0.201 NA
ATOM      8  C   UNL     1       0.354   0.548  -1.192  1.00  0.00     0.010 C 
ATOM      9  C   UNL     1       1.195   1.139  -0.060  1.00  0.00     0.017 C 
ATOM     10  C   UNL     1       1.861   2.483  -0.430  1.00  0.00     0.106 C 
ATOM     11  C   UNL     1       0.363   1.323   1.225  1.00  0.00     0.158 C 
ATOM     12  S   UNL     1       0.546   3.023   1.723  1.00  0.00     0.214 S 
ATOM     13  O   UNL     1       1.695   3.086   2.600  1.00  0.00    -0.212 OA
ATOM     14  O   UNL     1      -0.730   3.589   2.079  1.00  0.00    -0.212 OA
ENDBRANCH   6   7
ENDBRANCH   5   6
ENDBRANCH   3   5
ENDBRANCH   2   3
ENDBRANCH   1   2
BRANCH   1  15
ATOM     15  C   UNL     1      -4.102   3.643   0.894  1.00  0.00     0.275 C 
BRANCH  15  16
ATOM     16  O   UNL     1      -4.432   4.732   0.015  1.00  0.00    -0.458 OA
BRANCH  16  17
ATOM     17  C   UNL     1      -3.577   5.778   0.035  1.00  0.00     0.338 C 
ATOM     18  O   UNL     1      -2.606   5.959   0.744  1.00  0.00    -0.246 OA
BRANCH  17  19
ATOM     19  C   UNL     1      -3.900   6.652  -1.091  1.00  0.00     0.060 A 
ATOM     20  C   UNL     1      -3.087   6.593  -2.225  1.00  0.00     0.016 A 
ATOM     21  C   UNL     1      -4.970   7.537  -1.016  1.00  0.00     0.016 A 
ATOM     22  C   UNL     1      -3.359   7.394  -3.320  1.00  0.00     0.010 A 
ATOM     23  C   UNL     1      -5.251   8.339  -2.119  1.00  0.00     0.010 A 
ATOM     24  C   UNL     1      -4.456   8.255  -3.276  1.00  0.00    -0.014 A 
BRANCH  24  25
ATOM     25  C   UNL     1      -4.799   9.065  -4.458  1.00  0.00     0.031 A 
ATOM     26  C   UNL     1      -4.578  10.540  -4.424  1.00  0.00     0.074 A 
ATOM     27  C   UNL     1      -5.357   8.456  -5.517  1.00  0.00     0.049 A 
ATOM     28  N   UNL     1      -4.998  11.456  -5.253  1.00  0.00    -0.248 NA
ATOM     29  C   UNL     1      -3.788  11.054  -3.295  1.00  0.00     0.031 C 
ATOM     30  C   UNL     1      -5.565   7.012  -5.644  1.00  0.00     0.029 A 
ATOM     31  N   UNL     1      -5.883   8.975  -6.670  1.00  0.00    -0.354 N 
ATOM     32  C   UNL     1      -4.558  12.662  -4.727  1.00  0.00     0.074 A 
ATOM     33  C   UNL     1      -3.841  12.361  -3.506  1.00  0.00     0.031 C 
ATOM     34  C   UNL     1      -6.205   6.763  -6.795  1.00  0.00     0.029 A 
ATOM     35  C   UNL     1      -6.509   8.032  -7.447  1.00  0.00     0.049 A 
ATOM     36  H   UNL     1      -5.820   9.926  -6.916  1.00  0.00     0.167 HD
ATOM     37  C   UNL     1      -4.755  13.904  -5.227  1.00  0.00     0.037 A 
ATOM     38  C   UNL     1      -7.295   8.186  -8.527  1.00  0.00     0.037 A 
ATOM     39  C   UNL     1      -5.473  14.161  -6.449  1.00  0.00     0.049 A 
ATOM     40  C   UNL     1      -7.553   9.578  -9.029  1.00  0.00     0.074 A 
ATOM     41  C   UNL     1      -5.695  15.368  -7.085  1.00  0.00     0.029 A 
ATOM     42  N   UNL     1      -6.100  13.183  -7.212  1.00  0.00    -0.354 N 
ATOM     43  N   UNL     1      -7.121  10.720  -8.549  1.00  0.00    -0.248 NA
ATOM     44  C   UNL     1      -8.412   9.708 -10.211  1.00  0.00     0.031 C 
ATOM     45  C   UNL     1      -6.508  15.128  -8.198  1.00  0.00     0.029 A 
ATOM     46  C   UNL     1      -6.748  13.764  -8.290  1.00  0.00     0.049 A 
ATOM     47  H   UNL     1      -6.086  12.218  -7.016  1.00  0.00     0.167 HD
ATOM     48  C   UNL     1      -7.651  11.706  -9.367  1.00  0.00     0.074 A 
ATOM     49  C   UNL     1      -8.418  11.022 -10.391  1.00  0.00     0.031 C 
ATOM     50  C   UNL     1      -7.520  13.053  -9.280  1.00  0.00     0.037 A 
BRANCH  37  51
ATOM     51  C   UNL     1      -4.242  15.062  -4.423  1.00  0.00     0.064 A 
ATOM     52  C   UNL     1      -2.871  15.313  -4.262  1.00  0.00     0.173 A 
ATOM     53  C   UNL     1      -5.144  15.934  -3.792  1.00  0.00     0.173 A 
ATOM     54  F   UNL     1      -1.966  14.503  -4.830  1.00  0.00    -0.203 F 
ATOM     55  C   UNL     1      -2.423  16.368  -3.470  1.00  0.00     0.198 A 
ATOM     56  C   UNL     1      -4.693  17.005  -3.026  1.00  0.00     0.198 A 
ATOM     57  F   UNL     1      -6.467  15.742  -3.912  1.00  0.00    -0.203 F 
ATOM     58  F   UNL     1      -1.108  16.550  -3.281  1.00  0.00    -0.200 F 
ATOM     59  C   UNL     1      -3.333  17.215  -2.856  1.00  0.00     0.200 A 
ATOM     60  F   UNL     1      -5.575  17.828  -2.443  1.00  0.00    -0.200 F 
ATOM     61  F   UNL     1      -2.900  18.227  -2.092  1.00  0.00    -0.200 F 
ENDBRANCH  37  51
BRANCH  38  62
ATOM     62  C   UNL     1      -7.924   6.993  -9.147  1.00  0.00     0.064 A 
ATOM     63  C   UNL     1      -7.513   6.529 -10.402  1.00  0.00     0.173 A 
ATOM     64  C   UNL     1      -8.911   6.258  -8.470  1.00  0.00     0.173 A 
ATOM     65  F   UNL     1      -6.588   7.207 -11.096  1.00  0.00    -0.203 F 
ATOM     66  C   UNL     1      -8.065   5.375 -10.957  1.00  0.00     0.198 A 
ATOM     67  C   UNL     1      -9.440   5.090  -9.012  1.00  0.00     0.198 A 
ATOM     68  F   UNL     1      -9.336   6.658  -7.262  1.00  0.00    -0.203 F 
ATOM     69  F   UNL     1      -7.671   4.965 -12.171  1.00  0.00    -0.200 F 
ATOM     70  C   UNL     1      -9.019   4.651 -10.258  1.00  0.00     0.200 A 
ATOM     71  F   UNL     1     -10.348   4.384  -8.324  1.00  0.00    -0.200 F 
ATOM     72  F   UNL     1      -9.532   3.530 -10.784  1.00  0.00    -0.200 F 
ENDBRANCH  38  62
BRANCH  50  73
ATOM     73  C   UNL     1      -8.228  13.871 -10.319  1.00  0.00     0.064 A 
ATOM     74  C   UNL     1      -9.621  14.030 -10.296  1.00  0.00     0.173 A 
ATOM     75  C   UNL     1      -7.501  14.547 -11.309  1.00  0.00     0.173 A 
ATOM     76  F   UNL     1     -10.360  13.387  -9.380  1.00  0.00    -0.203 F 
ATOM     77  C   UNL     1     -10.262  14.827 -11.240  1.00  0.00     0.198 A 
ATOM     78  C   UNL     1      -8.143  15.367 -12.232  1.00  0.00     0.198 A 
ATOM     79  F   UNL     1      -6.166  14.428 -11.369  1.00  0.00    -0.203 F 
ATOM     80  F   UNL     1     -11.598  14.935 -11.225  1.00  0.00    -0.200 F 
ATOM     81  C   UNL     1      -9.523  15.503 -12.199  1.00  0.00     0.200 A 
ATOM     82  F   UNL     1      -7.426  16.030 -13.149  1.00  0.00    -0.200 F 
ATOM     83  F   UNL     1     -10.141  16.282 -13.097  1.00  0.00    -0.200 F 
ENDBRANCH  50  73
ENDBRANCH  24  25
ENDBRANCH  17  19
ENDBRANCH  16  17
ENDBRANCH  15  16
ENDBRANCH   1  15
TORSDOF 13
