REMARK SMILES COc1cccc(NC(=O)[C@@H]2[C@@H](C(=O)OCCOC(=O)c3ccc(-c4c5nc(c(-c6c(F)c(F)c(F)c(F)c6F)c6ccc([nH]6)c(-c6c(F)c(F)c(F)c(F)c6F)c6nc(c(-c7c(F)c(F)c(F)c(F)c7F)c7ccc4[nH]7)C=C6)C=C5)cc3)[C@H]3C=C[C@@H]2C3)c1
REMARK SMILES IDX 16 1 15 2 13 3 14 4 12 5 11 6 87 7 84 8 86 9 88 10 85 11
REMARK SMILES IDX 9 12 8 13 10 15 7 16 3 17 4 18 89 19 5 20 6 21 2 22 1 23
REMARK SMILES IDX 17 24 18 25 19 26 20 27 21 28 22 29 83 30 23 31 82 32 24 33
REMARK SMILES IDX 25 34 26 35 76 36 27 37 81 38 75 39 77 40 28 41 80 42 74 43
REMARK SMILES IDX 73 44 29 46 61 47 41 48 60 49 42 50 45 51 59 52 78 53 43 54
REMARK SMILES IDX 44 55 58 57 79 58 46 59 30 60 31 61 39 62 32 63 33 64 37 65
REMARK SMILES IDX 40 66 34 67 35 68 38 69 36 70 62 71 63 72 71 73 64 74 65 75
REMARK SMILES IDX 69 76 72 77 66 78 67 79 70 80 68 81 47 82 48 83 56 84 49 85
REMARK SMILES IDX 50 86 54 87 57 88 51 89 52 90 55 91 53 92
REMARK H PARENT 8 14 77 45 45 56
REMARK Flexibility Score: inf
ROOT
ATOM      1  C   UNL     1      -0.520  -3.925  -7.567  1.00  0.00     0.274 C 
ENDROOT
BRANCH   1   2
ATOM      2  O   UNL     1      -0.106  -4.123  -6.198  1.00  0.00    -0.462 OA
BRANCH   2   3
ATOM      3  C   UNL     1       0.674  -5.216  -5.941  1.00  0.00     0.310 C 
ATOM      4  O   UNL     1       1.079  -5.995  -6.791  1.00  0.00    -0.252 OA
BRANCH   3   5
ATOM      5  C   UNL     1       0.943  -5.314  -4.442  1.00  0.00     0.119 C 
ATOM      6  C   UNL     1       2.412  -5.560  -4.045  1.00  0.00     0.100 C 
ATOM      7  C   UNL     1       2.378  -6.886  -3.242  1.00  0.00     0.025 C 
ATOM      8  C   UNL     1       0.238  -6.541  -3.794  1.00  0.00     0.027 C 
ATOM      9  C   UNL     1       1.980  -7.993  -4.196  1.00  0.00    -0.027 C 
ATOM     10  C   UNL     1       1.050  -6.773  -2.506  1.00  0.00     0.017 C 
ATOM     11  C   UNL     1       0.688  -7.801  -4.508  1.00  0.00    -0.027 C 
BRANCH   6  12
ATOM     12  C   UNL     1       3.208  -4.473  -3.337  1.00  0.00     0.228 C 
ATOM     13  N   UNL     1       2.864  -3.558  -2.408  1.00  0.00    -0.326 N 
ATOM     14  H   UNL     1       3.676  -3.067  -2.145  1.00  0.00     0.169 HD
ATOM     15  O   UNL     1       4.423  -4.435  -3.618  1.00  0.00    -0.274 OA
BRANCH  13  16
ATOM     16  C   UNL     1       1.778  -3.039  -1.673  1.00  0.00     0.044 A 
ATOM     17  C   UNL     1       1.116  -1.341  -0.040  1.00  0.00     0.120 A 
ATOM     18  C   UNL     1      -0.203  -1.766  -0.080  1.00  0.00     0.046 A 
ATOM     19  C   UNL     1       2.097  -1.971  -0.812  1.00  0.00     0.072 A 
ATOM     20  C   UNL     1      -0.537  -2.817  -0.917  1.00  0.00     0.006 A 
ATOM     21  C   UNL     1       0.448  -3.446  -1.694  1.00  0.00     0.026 A 
BRANCH  17  22
ATOM     22  O   UNL     1       1.458  -0.344   0.829  1.00  0.00    -0.497 OA
ATOM     23  C   UNL     1       1.430   0.924   0.173  1.00  0.00     0.278 C 
ENDBRANCH  17  22
ENDBRANCH  13  16
ENDBRANCH   6  12
ENDBRANCH   3   5
ENDBRANCH   2   3
ENDBRANCH   1   2
BRANCH   1  24
ATOM     24  C   UNL     1       0.349  -2.879  -8.263  1.00  0.00     0.275 C 
BRANCH  24  25
ATOM     25  O   UNL     1       1.671  -3.412  -8.437  1.00  0.00    -0.458 OA
BRANCH  25  26
ATOM     26  C   UNL     1       2.697  -2.610  -8.072  1.00  0.00     0.338 C 
ATOM     27  O   UNL     1       2.646  -1.450  -7.706  1.00  0.00    -0.246 OA
BRANCH  26  28
ATOM     28  C   UNL     1       3.941  -3.396  -8.118  1.00  0.00     0.060 A 
ATOM     29  C   UNL     1       4.058  -4.490  -7.267  1.00  0.00     0.016 A 
ATOM     30  C   UNL     1       5.023  -3.004  -8.898  1.00  0.00     0.016 A 
ATOM     31  C   UNL     1       5.267  -5.163  -7.131  1.00  0.00     0.010 A 
ATOM     32  C   UNL     1       6.218  -3.734  -8.827  1.00  0.00     0.010 A 
ATOM     33  C   UNL     1       6.363  -4.804  -7.920  1.00  0.00    -0.014 A 
BRANCH  33  34
ATOM     34  C   UNL     1       7.676  -5.485  -7.733  1.00  0.00     0.031 A 
ATOM     35  C   UNL     1       8.881  -4.677  -7.335  1.00  0.00     0.074 A 
ATOM     36  C   UNL     1       7.800  -6.821  -7.872  1.00  0.00     0.049 A 
ATOM     37  N   UNL     1      10.147  -5.009  -7.350  1.00  0.00    -0.248 NA
ATOM     38  C   UNL     1       8.626  -3.304  -6.872  1.00  0.00     0.031 C 
ATOM     39  C   UNL     1       6.711  -7.751  -8.168  1.00  0.00     0.029 A 
ATOM     40  N   UNL     1       8.906  -7.630  -7.768  1.00  0.00    -0.354 N 
ATOM     41  C   UNL     1      10.841  -3.865  -6.978  1.00  0.00     0.074 A 
ATOM     42  C   UNL     1       9.856  -2.834  -6.726  1.00  0.00     0.031 C 
ATOM     43  C   UNL     1       7.192  -9.004  -8.175  1.00  0.00     0.029 A 
ATOM     44  C   UNL     1       8.638  -8.960  -7.983  1.00  0.00     0.049 A 
ATOM     45  H   UNL     1       9.806  -7.290  -7.559  1.00  0.00     0.167 HD
ATOM     46  C   UNL     1      12.180  -3.692  -6.870  1.00  0.00     0.037 A 
ATOM     47  C   UNL     1       9.466 -10.020  -8.062  1.00  0.00     0.037 A 
ATOM     48  C   UNL     1      13.150  -4.742  -7.036  1.00  0.00     0.049 A 
ATOM     49  C   UNL     1      10.949  -9.806  -7.943  1.00  0.00     0.074 A 
ATOM     50  C   UNL     1      14.530  -4.666  -6.954  1.00  0.00     0.029 A 
ATOM     51  N   UNL     1      12.836  -6.070  -7.283  1.00  0.00    -0.354 N 
ATOM     52  N   UNL     1      11.609  -8.696  -7.717  1.00  0.00    -0.248 NA
ATOM     53  C   UNL     1      11.806 -10.986  -8.125  1.00  0.00     0.031 C 
ATOM     54  C   UNL     1      15.052  -5.947  -7.171  1.00  0.00     0.029 A 
ATOM     55  C   UNL     1      13.996  -6.824  -7.355  1.00  0.00     0.049 A 
ATOM     56  H   UNL     1      11.924  -6.424  -7.391  1.00  0.00     0.167 HD
ATOM     57  C   UNL     1      12.953  -9.042  -7.730  1.00  0.00     0.074 A 
ATOM     58  C   UNL     1      13.016 -10.470  -7.958  1.00  0.00     0.031 C 
ATOM     59  C   UNL     1      14.038  -8.245  -7.580  1.00  0.00     0.037 A 
BRANCH  46  60
ATOM     60  C   UNL     1      12.679  -2.303  -6.604  1.00  0.00     0.064 A 
ATOM     61  C   UNL     1      12.573  -1.700  -5.343  1.00  0.00     0.173 A 
ATOM     62  C   UNL     1      13.302  -1.577  -7.631  1.00  0.00     0.173 A 
ATOM     63  F   UNL     1      11.971  -2.346  -4.334  1.00  0.00    -0.203 F 
ATOM     64  C   UNL     1      13.054  -0.411  -5.126  1.00  0.00     0.198 A 
ATOM     65  C   UNL     1      13.805  -0.300  -7.404  1.00  0.00     0.198 A 
ATOM     66  F   UNL     1      13.431  -2.112  -8.855  1.00  0.00    -0.203 F 
ATOM     67  F   UNL     1      12.906   0.165  -3.925  1.00  0.00    -0.200 F 
ATOM     68  C   UNL     1      13.675   0.285  -6.154  1.00  0.00     0.200 A 
ATOM     69  F   UNL     1      14.413   0.366  -8.395  1.00  0.00    -0.200 F 
ATOM     70  F   UNL     1      14.143   1.523  -5.941  1.00  0.00    -0.200 F 
ENDBRANCH  46  60
BRANCH  47  71
ATOM     71  C   UNL     1       8.913 -11.376  -8.322  1.00  0.00     0.064 A 
ATOM     72  C   UNL     1       8.958 -12.373  -7.338  1.00  0.00     0.173 A 
ATOM     73  C   UNL     1       8.329 -11.701  -9.555  1.00  0.00     0.173 A 
ATOM     74  F   UNL     1       9.536 -12.121  -6.154  1.00  0.00    -0.203 F 
ATOM     75  C   UNL     1       8.444 -13.646  -7.581  1.00  0.00     0.198 A 
ATOM     76  C   UNL     1       7.790 -12.964  -9.786  1.00  0.00     0.198 A 
ATOM     77  F   UNL     1       8.270 -10.785 -10.533  1.00  0.00    -0.203 F 
ATOM     78  F   UNL     1       8.535 -14.594  -6.638  1.00  0.00    -0.200 F 
ATOM     79  C   UNL     1       7.852 -13.937  -8.801  1.00  0.00     0.200 A 
ATOM     80  F   UNL     1       7.209 -13.238 -10.963  1.00  0.00    -0.200 F 
ATOM     81  F   UNL     1       7.351 -15.158  -9.030  1.00  0.00    -0.200 F 
ENDBRANCH  47  71
BRANCH  59  82
ATOM     82  C   UNL     1      15.382  -8.904  -7.640  1.00  0.00     0.064 A 
ATOM     83  C   UNL     1      15.939  -9.315  -8.860  1.00  0.00     0.173 A 
ATOM     84  C   UNL     1      16.134  -9.096  -6.472  1.00  0.00     0.173 A 
ATOM     85  F   UNL     1      15.249  -9.166 -10.001  1.00  0.00    -0.203 F 
ATOM     86  C   UNL     1      17.195  -9.913  -8.905  1.00  0.00     0.198 A 
ATOM     87  C   UNL     1      17.398  -9.675  -6.524  1.00  0.00     0.198 A 
ATOM     88  F   UNL     1      15.644  -8.715  -5.282  1.00  0.00    -0.203 F 
ATOM     89  F   UNL     1      17.693 -10.333 -10.076  1.00  0.00    -0.200 F 
ATOM     90  C   UNL     1      17.925 -10.088  -7.739  1.00  0.00     0.200 A 
ATOM     91  F   UNL     1      18.106  -9.837  -5.397  1.00  0.00    -0.200 F 
ATOM     92  F   UNL     1      19.135 -10.662  -7.784  1.00  0.00    -0.200 F 
ENDBRANCH  59  82
ENDBRANCH  33  34
ENDBRANCH  26  28
ENDBRANCH  25  26
ENDBRANCH  24  25
ENDBRANCH   1  24
TORSDOF 14
