REMARK SMILES O=C(OCCOC(=O)c1cn(C2CN(C(=O)Nc3ccsc3)C2)nn1)c1ccc(-c2c3nc(c(-c4c(F)c(F)c(F)c(F)c4F)c4ccc([nH]4)c(-c4c(F)c(F)c(F)c(F)c4F)c4nc(c(-c5c(F)c(F)c(F)c(F)c5F)c5ccc2[nH]5)C=C4)C=C3)cc1
REMARK SMILES IDX 4 1 3 2 2 3 1 4 26 5 27 6 88 7 28 8 87 9 29 10 30 11 31 12
REMARK SMILES IDX 81 13 32 14 86 15 80 16 82 17 33 18 85 19 79 20 78 21 34 23
REMARK SMILES IDX 66 24 46 25 65 26 47 27 50 28 64 29 83 30 48 31 49 32 63 34
REMARK SMILES IDX 84 35 51 36 35 37 36 38 44 39 37 40 38 41 42 42 45 43 39 44
REMARK SMILES IDX 40 45 43 46 41 47 67 48 68 49 76 50 69 51 70 52 74 53 77 54
REMARK SMILES IDX 71 55 72 56 75 57 73 58 52 59 53 60 61 61 54 62 55 63 59 64
REMARK SMILES IDX 62 65 56 66 57 67 60 68 58 69 5 70 6 71 7 72 8 73 9 74 10 75
REMARK SMILES IDX 25 76 11 77 24 78 12 79 13 80 23 81 14 82 15 83 16 84 17 85
REMARK SMILES IDX 18 87 19 88 22 89 20 90 21 91
REMARK H PARENT 82 22 50 33 17 86
REMARK Flexibility Score: inf
ROOT
ATOM      1  C   UNL     1       4.786  -1.453  -0.081  1.00  0.00     0.275 C 
ENDROOT
BRANCH   1   2
ATOM      2  O   UNL     1       3.617  -1.509   0.767  1.00  0.00    -0.458 OA
BRANCH   2   3
ATOM      3  C   UNL     1       2.554  -0.722   0.483  1.00  0.00     0.338 C 
ATOM      4  O   UNL     1       1.760  -0.911  -0.421  1.00  0.00    -0.246 OA
BRANCH   3   5
ATOM      5  C   UNL     1       2.431   0.345   1.501  1.00  0.00     0.060 A 
ATOM      6  C   UNL     1       3.570   0.864   2.129  1.00  0.00     0.016 A 
ATOM      7  C   UNL     1       1.163   0.849   1.811  1.00  0.00     0.016 A 
ATOM      8  C   UNL     1       3.441   1.836   3.106  1.00  0.00     0.010 A 
ATOM      9  C   UNL     1       1.033   1.827   2.795  1.00  0.00     0.010 A 
ATOM     10  C   UNL     1       2.172   2.300   3.457  1.00  0.00    -0.014 A 
BRANCH  10  11
ATOM     11  C   UNL     1       2.109   3.350   4.471  1.00  0.00     0.031 A 
ATOM     12  C   UNL     1       2.662   4.681   4.089  1.00  0.00     0.074 A 
ATOM     13  C   UNL     1       1.485   3.190   5.654  1.00  0.00     0.049 A 
ATOM     14  N   UNL     1       3.523   5.408   4.730  1.00  0.00    -0.248 NA
ATOM     15  C   UNL     1       2.212   5.268   2.818  1.00  0.00     0.031 C 
ATOM     16  C   UNL     1       0.654   2.060   6.070  1.00  0.00     0.029 A 
ATOM     17  N   UNL     1       1.371   4.070   6.695  1.00  0.00    -0.354 N 
ATOM     18  C   UNL     1       3.600   6.616   4.038  1.00  0.00     0.074 A 
ATOM     19  C   UNL     1       2.845   6.442   2.824  1.00  0.00     0.031 C 
ATOM     20  C   UNL     1      -0.049   2.413   7.167  1.00  0.00     0.029 A 
ATOM     21  C   UNL     1       0.364   3.742   7.590  1.00  0.00     0.049 A 
ATOM     22  H   UNL     1       1.948   4.861   6.799  1.00  0.00     0.167 HD
ATOM     23  C   UNL     1       4.106   7.741   4.615  1.00  0.00     0.037 A 
ATOM     24  C   UNL     1      -0.156   4.529   8.561  1.00  0.00     0.037 A 
ATOM     25  C   UNL     1       4.999   7.434   5.701  1.00  0.00     0.049 A 
ATOM     26  C   UNL     1       0.811   5.611   8.857  1.00  0.00     0.074 A 
ATOM     27  C   UNL     1       6.162   6.699   5.837  1.00  0.00     0.029 A 
ATOM     28  N   UNL     1       4.604   7.718   6.983  1.00  0.00    -0.354 N 
ATOM     29  N   UNL     1       1.939   5.448   9.488  1.00  0.00    -0.248 NA
ATOM     30  C   UNL     1       0.665   6.881   8.161  1.00  0.00     0.031 C 
ATOM     31  C   UNL     1       6.130   6.182   7.166  1.00  0.00     0.029 A 
ATOM     32  C   UNL     1       4.958   6.648   7.759  1.00  0.00     0.049 A 
ATOM     33  H   UNL     1       4.151   8.537   7.288  1.00  0.00     0.167 HD
ATOM     34  C   UNL     1       2.792   6.379   8.921  1.00  0.00     0.074 A 
ATOM     35  C   UNL     1       1.922   7.322   8.232  1.00  0.00     0.031 C 
ATOM     36  C   UNL     1       4.130   6.131   8.820  1.00  0.00     0.037 A 
BRANCH  23  37
ATOM     37  C   UNL     1       3.503   9.119   4.435  1.00  0.00     0.064 A 
ATOM     38  C   UNL     1       4.153  10.234   5.006  1.00  0.00     0.173 A 
ATOM     39  C   UNL     1       2.168   9.338   4.030  1.00  0.00     0.173 A 
ATOM     40  F   UNL     1       5.421  10.143   5.433  1.00  0.00    -0.203 F 
ATOM     41  C   UNL     1       3.480  11.434   5.258  1.00  0.00     0.198 A 
ATOM     42  C   UNL     1       1.518  10.555   4.234  1.00  0.00     0.198 A 
ATOM     43  F   UNL     1       1.407   8.361   3.526  1.00  0.00    -0.203 F 
ATOM     44  F   UNL     1       4.095  12.409   5.940  1.00  0.00    -0.200 F 
ATOM     45  C   UNL     1       2.159  11.588   4.884  1.00  0.00     0.200 A 
ATOM     46  F   UNL     1       0.233  10.683   3.872  1.00  0.00    -0.200 F 
ATOM     47  F   UNL     1       1.490  12.706   5.193  1.00  0.00    -0.200 F 
ENDBRANCH  23  37
BRANCH  24  48
ATOM     48  C   UNL     1      -1.532   4.530   9.107  1.00  0.00     0.064 A 
ATOM     49  C   UNL     1      -1.828   5.150  10.331  1.00  0.00     0.173 A 
ATOM     50  C   UNL     1      -2.635   4.138   8.323  1.00  0.00     0.173 A 
ATOM     51  F   UNL     1      -0.840   5.603  11.117  1.00  0.00    -0.203 F 
ATOM     52  C   UNL     1      -3.146   5.375  10.739  1.00  0.00     0.198 A 
ATOM     53  C   UNL     1      -3.949   4.346   8.739  1.00  0.00     0.198 A 
ATOM     54  F   UNL     1      -2.463   3.628   7.095  1.00  0.00    -0.203 F 
ATOM     55  F   UNL     1      -3.388   6.027  11.886  1.00  0.00    -0.200 F 
ATOM     56  C   UNL     1      -4.205   4.976   9.941  1.00  0.00     0.200 A 
ATOM     57  F   UNL     1      -4.964   3.984   7.941  1.00  0.00    -0.200 F 
ATOM     58  F   UNL     1      -5.467   5.236  10.309  1.00  0.00    -0.200 F 
ENDBRANCH  24  48
BRANCH  36  59
ATOM     59  C   UNL     1       4.705   5.039   9.671  1.00  0.00     0.064 A 
ATOM     60  C   UNL     1       4.322   3.691   9.584  1.00  0.00     0.173 A 
ATOM     61  C   UNL     1       5.761   5.359  10.536  1.00  0.00     0.173 A 
ATOM     62  F   UNL     1       3.401   3.290   8.697  1.00  0.00    -0.203 F 
ATOM     63  C   UNL     1       4.924   2.720  10.381  1.00  0.00     0.198 A 
ATOM     64  C   UNL     1       6.388   4.381  11.300  1.00  0.00     0.198 A 
ATOM     65  F   UNL     1       6.211   6.622  10.613  1.00  0.00    -0.203 F 
ATOM     66  F   UNL     1       4.522   1.443  10.303  1.00  0.00    -0.200 F 
ATOM     67  C   UNL     1       5.959   3.065  11.235  1.00  0.00     0.200 A 
ATOM     68  F   UNL     1       7.424   4.709  12.086  1.00  0.00    -0.200 F 
ATOM     69  F   UNL     1       6.561   2.125  11.977  1.00  0.00    -0.200 F 
ENDBRANCH  36  59
ENDBRANCH  10  11
ENDBRANCH   3   5
ENDBRANCH   2   3
ENDBRANCH   1   2
BRANCH   1  70
ATOM     70  C   UNL     1       4.604  -0.914  -1.497  1.00  0.00     0.275 C 
BRANCH  70  71
ATOM     71  O   UNL     1       4.256   0.475  -1.410  1.00  0.00    -0.457 OA
BRANCH  71  72
ATOM     72  C   UNL     1       3.319   0.899  -2.308  1.00  0.00     0.360 C 
ATOM     73  O   UNL     1       2.932   0.274  -3.277  1.00  0.00    -0.244 OA
BRANCH  72  74
ATOM     74  C   UNL     1       2.892   2.243  -1.993  1.00  0.00     0.190 A 
ATOM     75  C   UNL     1       3.445   3.417  -2.456  1.00  0.00     0.147 A 
ATOM     76  N   UNL     1       1.841   2.535  -1.161  1.00  0.00    -0.123 NA
ATOM     77  N   UNL     1       2.618   4.381  -1.956  1.00  0.00    -0.245 N 
ATOM     78  N   UNL     1       1.702   3.853  -1.123  1.00  0.00    -0.066 NA
BRANCH  77  79
ATOM     79  C   UNL     1       2.500   5.734  -2.392  1.00  0.00     0.148 C 
ATOM     80  C   UNL     1       3.781   6.492  -2.763  1.00  0.00     0.150 C 
ATOM     81  C   UNL     1       2.176   5.764  -3.904  1.00  0.00     0.150 C 
ATOM     82  N   UNL     1       3.048   6.915  -3.960  1.00  0.00    -0.320 N 
ATOM     83  C   UNL     1       3.498   7.748  -4.932  1.00  0.00     0.322 C 
ATOM     84  O   UNL     1       4.523   8.413  -4.761  1.00  0.00    -0.248 OA
ATOM     85  N   UNL     1       2.922   7.761  -6.163  1.00  0.00    -0.307 N 
ATOM     86  H   UNL     1       3.503   8.114  -6.875  1.00  0.00     0.171 HD
BRANCH  85  87
ATOM     87  C   UNL     1       1.669   7.368  -6.599  1.00  0.00     0.053 A 
ATOM     88  C   UNL     1       0.441   7.375  -5.877  1.00  0.00     0.038 A 
ATOM     89  C   UNL     1       1.463   6.979  -7.907  1.00  0.00     0.091 A 
ATOM     90  C   UNL     1      -0.599   6.821  -6.592  1.00  0.00     0.067 A 
ATOM     91  S   UNL     1      -0.131   6.421  -8.185  1.00  0.00    -0.150 S 
ENDBRANCH  85  87
ENDBRANCH  77  79
ENDBRANCH  72  74
ENDBRANCH  71  72
ENDBRANCH  70  71
ENDBRANCH   1  70
TORSDOF 13
