REMARK SMILES Cc1nsc(N[C@@H](C)C2CCCC2)c1C(=O)OCCOC(=O)c1ccc(-c2c3nc(c(-c4c(F)c(F)c(F)c(F)c4F)c4ccc([nH]4)c(-c4c(F)c(F)c(F)c(F)c4F)c4nc(c(-c5c(F)c(F)c(F)c(F)c5F)c5ccc2[nH]5)C=C4)C=C3)cc1
REMARK SMILES IDX 18 1 17 2 15 3 16 4 14 5 1 6 2 7 3 8 4 9 5 10 6 11 7 13 8 14
REMARK SMILES IDX 9 15 10 16 13 17 11 18 12 19 19 20 20 21 21 22 22 23 23 24
REMARK SMILES IDX 24 25 85 26 25 27 84 28 26 29 27 30 28 31 78 32 29 33 83 34
REMARK SMILES IDX 77 35 79 36 30 37 82 38 76 39 75 40 31 42 63 43 43 44 62 45
REMARK SMILES IDX 44 46 47 47 61 48 80 49 45 50 46 51 60 53 81 54 48 55 32 56
REMARK SMILES IDX 33 57 41 58 34 59 35 60 39 61 42 62 36 63 37 64 40 65 38 66
REMARK SMILES IDX 64 67 65 68 73 69 66 70 67 71 71 72 74 73 68 74 69 75 72 76
REMARK SMILES IDX 70 77 49 78 50 79 58 80 51 81 52 82 56 83 59 84 53 85 54 86
REMARK SMILES IDX 57 87 55 88
REMARK H PARENT 6 12 79 41 47 52
REMARK Flexibility Score: inf
ROOT
ATOM      1  C   UNL     1      -0.005   3.808  -0.363  1.00  0.00     0.275 C 
ENDROOT
BRANCH   1   2
ATOM      2  O   UNL     1       0.072   2.411  -0.689  1.00  0.00    -0.458 OA
BRANCH   2   3
ATOM      3  C   UNL     1      -0.563   2.017  -1.831  1.00  0.00     0.343 C 
ATOM      4  O   UNL     1      -1.278   2.766  -2.498  1.00  0.00    -0.246 OA
BRANCH   3   5
ATOM      5  C   UNL     1      -0.267   0.641  -2.218  1.00  0.00     0.117 A 
ATOM      6  C   UNL     1       0.797  -0.302   0.010  1.00  0.00     0.069 C 
ATOM      7  C   UNL     1       0.322  -0.401  -1.401  1.00  0.00     0.068 A 
ATOM      8  N   UNL     1       0.463  -1.590  -1.986  1.00  0.00    -0.195 NA
ATOM      9  S   UNL     1      -0.050  -1.491  -3.544  1.00  0.00    -0.018 S 
ATOM     10  C   UNL     1      -0.501   0.168  -3.512  1.00  0.00     0.124 A 
BRANCH  10  11
ATOM     11  N   UNL     1      -0.974   0.889  -4.572  1.00  0.00    -0.372 N 
ATOM     12  H   UNL     1      -1.012   1.868  -4.470  1.00  0.00     0.161 HD
BRANCH  11  13
ATOM     13  C   UNL     1      -1.426   0.331  -5.841  1.00  0.00     0.080 C 
ATOM     14  C   UNL     1      -2.949   0.472  -5.891  1.00  0.00     0.031 C 
BRANCH  13  15
ATOM     15  C   UNL     1      -0.672   1.018  -7.000  1.00  0.00     0.011 C 
ATOM     16  C   UNL     1      -0.767   0.258  -8.326  1.00  0.00     0.006 C 
ATOM     17  C   UNL     1      -1.149   2.414  -7.407  1.00  0.00     0.006 C 
ATOM     18  C   UNL     1      -0.229   1.249  -9.352  1.00  0.00     0.000 C 
ATOM     19  C   UNL     1      -0.537   2.637  -8.791  1.00  0.00     0.000 C 
ENDBRANCH  13  15
ENDBRANCH  11  13
ENDBRANCH  10  11
ENDBRANCH   3   5
ENDBRANCH   2   3
ENDBRANCH   1   2
BRANCH   1  20
ATOM     20  C   UNL     1       1.153   4.581  -0.979  1.00  0.00     0.275 C 
BRANCH  20  21
ATOM     21  O   UNL     1       0.996   4.747  -2.390  1.00  0.00    -0.458 OA
BRANCH  21  22
ATOM     22  C   UNL     1       1.617   3.817  -3.152  1.00  0.00     0.338 C 
ATOM     23  O   UNL     1       2.042   2.736  -2.785  1.00  0.00    -0.246 OA
BRANCH  22  24
ATOM     24  C   UNL     1       1.886   4.381  -4.482  1.00  0.00     0.060 A 
ATOM     25  C   UNL     1       2.398   3.526  -5.460  1.00  0.00     0.016 A 
ATOM     26  C   UNL     1       1.838   5.770  -4.681  1.00  0.00     0.016 A 
ATOM     27  C   UNL     1       2.972   4.077  -6.591  1.00  0.00     0.010 A 
ATOM     28  C   UNL     1       2.418   6.319  -5.806  1.00  0.00     0.010 A 
ATOM     29  C   UNL     1       3.029   5.471  -6.725  1.00  0.00    -0.014 A 
BRANCH  29  30
ATOM     30  C   UNL     1       3.652   6.015  -7.917  1.00  0.00     0.031 A 
ATOM     31  C   UNL     1       2.896   5.745  -9.165  1.00  0.00     0.074 A 
ATOM     32  C   UNL     1       4.758   6.783  -7.899  1.00  0.00     0.049 A 
ATOM     33  N   UNL     1       3.260   5.015 -10.167  1.00  0.00    -0.248 NA
ATOM     34  C   UNL     1       1.516   6.244  -9.253  1.00  0.00     0.031 C 
ATOM     35  C   UNL     1       5.450   7.378  -6.755  1.00  0.00     0.029 A 
ATOM     36  N   UNL     1       5.459   7.261  -8.962  1.00  0.00    -0.354 N 
ATOM     37  C   UNL     1       2.217   5.076 -11.087  1.00  0.00     0.074 A 
ATOM     38  C   UNL     1       1.123   5.732 -10.420  1.00  0.00     0.031 C 
ATOM     39  C   UNL     1       6.329   8.307  -7.202  1.00  0.00     0.029 A 
ATOM     40  C   UNL     1       6.356   8.271  -8.655  1.00  0.00     0.049 A 
ATOM     41  H   UNL     1       5.338   6.917  -9.877  1.00  0.00     0.167 HD
ATOM     42  C   UNL     1       2.408   4.752 -12.395  1.00  0.00     0.037 A 
ATOM     43  C   UNL     1       7.009   9.055  -9.549  1.00  0.00     0.037 A 
ATOM     44  C   UNL     1       3.615   3.988 -12.575  1.00  0.00     0.049 A 
ATOM     45  C   UNL     1       6.995   8.349 -10.857  1.00  0.00     0.074 A 
ATOM     46  C   UNL     1       4.058   2.755 -12.137  1.00  0.00     0.029 A 
ATOM     47  N   UNL     1       4.736   4.644 -13.020  1.00  0.00    -0.354 N 
ATOM     48  N   UNL     1       7.657   7.251 -11.093  1.00  0.00    -0.248 NA
ATOM     49  C   UNL     1       5.876   8.609 -11.752  1.00  0.00     0.031 C 
ATOM     50  C   UNL     1       5.449   2.933 -11.878  1.00  0.00     0.029 A 
ATOM     51  C   UNL     1       5.777   4.245 -12.222  1.00  0.00     0.049 A 
ATOM     52  H   UNL     1       4.783   5.281 -13.769  1.00  0.00     0.167 HD
ATOM     53  C   UNL     1       6.797   6.480 -11.862  1.00  0.00     0.074 A 
ATOM     54  C   UNL     1       5.747   7.397 -12.300  1.00  0.00     0.031 C 
ATOM     55  C   UNL     1       6.858   5.117 -11.835  1.00  0.00     0.037 A 
BRANCH  42  56
ATOM     56  C   UNL     1       1.704   5.417 -13.551  1.00  0.00     0.064 A 
ATOM     57  C   UNL     1       1.897   4.911 -14.853  1.00  0.00     0.173 A 
ATOM     58  C   UNL     1       1.113   6.696 -13.475  1.00  0.00     0.173 A 
ATOM     59  F   UNL     1       2.461   3.709 -15.044  1.00  0.00    -0.203 F 
ATOM     60  C   UNL     1       1.607   5.670 -15.989  1.00  0.00     0.198 A 
ATOM     61  C   UNL     1       0.775   7.427 -14.612  1.00  0.00     0.198 A 
ATOM     62  F   UNL     1       0.947   7.338 -12.314  1.00  0.00    -0.203 F 
ATOM     63  F   UNL     1       1.933   5.203 -17.201  1.00  0.00    -0.200 F 
ATOM     64  C   UNL     1       1.054   6.931 -15.867  1.00  0.00     0.200 A 
ATOM     65  F   UNL     1       0.255   8.655 -14.472  1.00  0.00    -0.200 F 
ATOM     66  F   UNL     1       0.837   7.688 -16.950  1.00  0.00    -0.200 F 
ENDBRANCH  42  56
BRANCH  43  67
ATOM     67  C   UNL     1       7.316  10.501  -9.435  1.00  0.00     0.064 A 
ATOM     68  C   UNL     1       8.247  11.118 -10.286  1.00  0.00     0.173 A 
ATOM     69  C   UNL     1       6.491  11.360  -8.682  1.00  0.00     0.173 A 
ATOM     70  F   UNL     1       9.035  10.374 -11.076  1.00  0.00    -0.203 F 
ATOM     71  C   UNL     1       8.334  12.511 -10.391  1.00  0.00     0.198 A 
ATOM     72  C   UNL     1       6.582  12.748  -8.783  1.00  0.00     0.198 A 
ATOM     73  F   UNL     1       5.514  10.870  -7.907  1.00  0.00    -0.203 F 
ATOM     74  F   UNL     1       9.194  13.065 -11.258  1.00  0.00    -0.200 F 
ATOM     75  C   UNL     1       7.495  13.325  -9.647  1.00  0.00     0.200 A 
ATOM     76  F   UNL     1       5.736  13.522  -8.088  1.00  0.00    -0.200 F 
ATOM     77  F   UNL     1       7.534  14.656  -9.793  1.00  0.00    -0.200 F 
ENDBRANCH  43  67
BRANCH  55  78
ATOM     78  C   UNL     1       8.028   4.484 -11.139  1.00  0.00     0.064 A 
ATOM     79  C   UNL     1       8.289   4.618  -9.764  1.00  0.00     0.173 A 
ATOM     80  C   UNL     1       8.834   3.598 -11.864  1.00  0.00     0.173 A 
ATOM     81  F   UNL     1       7.499   5.365  -8.982  1.00  0.00    -0.203 F 
ATOM     82  C   UNL     1       9.341   3.934  -9.157  1.00  0.00     0.198 A 
ATOM     83  C   UNL     1       9.861   2.888 -11.249  1.00  0.00     0.198 A 
ATOM     84  F   UNL     1       8.595   3.385 -13.168  1.00  0.00    -0.203 F 
ATOM     85  F   UNL     1       9.578   4.091  -7.846  1.00  0.00    -0.200 F 
ATOM     86  C   UNL     1      10.122   3.065  -9.900  1.00  0.00     0.200 A 
ATOM     87  F   UNL     1      10.582   2.010 -11.961  1.00  0.00    -0.200 F 
ATOM     88  F   UNL     1      11.109   2.377  -9.310  1.00  0.00    -0.200 F 
ENDBRANCH  55  78
ENDBRANCH  29  30
ENDBRANCH  22  24
ENDBRANCH  21  22
ENDBRANCH  20  21
ENDBRANCH   1  20
TORSDOF 14
