REMARK SMILES O=C(OCCOC(=O)[C@H](CO)NC(=O)[C@H]1CC(=O)N(CC(F)(F)F)C1)c1ccc(-c2c3nc(c(-c4c(F)c(F)c(F)c(F)c4F)c4ccc([nH]4)c(-c4c(F)c(F)c(F)c(F)c4F)c4nc(c(-c5c(F)c(F)c(F)c(F)c5F)c5ccc2[nH]5)C=C4)C=C3)cc1
REMARK SMILES IDX 5 1 4 2 3 3 2 4 1 5 26 6 27 7 88 8 28 9 87 10 29 11 30 12
REMARK SMILES IDX 31 13 81 14 32 15 86 16 80 17 82 18 33 19 85 20 79 21 78 22
REMARK SMILES IDX 34 24 66 25 46 26 65 27 47 28 50 29 64 30 83 31 48 32 49 33
REMARK SMILES IDX 63 35 84 36 51 37 35 38 36 39 44 40 37 41 38 42 42 43 45 44
REMARK SMILES IDX 39 45 40 46 43 47 41 48 67 49 68 50 76 51 69 52 70 53 74 54
REMARK SMILES IDX 77 55 71 56 72 57 75 58 73 59 52 60 53 61 61 62 54 63 55 64
REMARK SMILES IDX 59 65 62 66 56 67 57 68 60 69 58 70 6 71 7 72 8 73 9 74
REMARK SMILES IDX 12 75 13 76 14 78 15 79 16 80 25 81 17 82 19 83 18 84 20 85
REMARK SMILES IDX 21 86 22 87 23 88 24 89 10 90 11 91
REMARK H PARENT 82 23 50 34 12 77 11 92
REMARK Flexibility Score: inf
ROOT
ATOM      1  C   UNL     1      -0.581   5.415   3.841  1.00  0.00     0.274 C 
ENDROOT
BRANCH   1   2
ATOM      2  C   UNL     1      -0.926   5.882   2.421  1.00  0.00     0.275 C 
BRANCH   2   3
ATOM      3  O   UNL     1      -2.011   5.156   1.825  1.00  0.00    -0.458 OA
BRANCH   3   4
ATOM      4  C   UNL     1      -2.058   3.860   1.451  1.00  0.00     0.338 C 
ATOM      5  O   UNL     1      -3.171   3.345   1.328  1.00  0.00    -0.246 OA
BRANCH   4   6
ATOM      6  C   UNL     1      -0.860   2.965   1.259  1.00  0.00     0.060 A 
ATOM      7  C   UNL     1       0.502   3.286   1.377  1.00  0.00     0.016 A 
ATOM      8  C   UNL     1      -1.170   1.622   1.029  1.00  0.00     0.016 A 
ATOM      9  C   UNL     1       1.503   2.292   1.412  1.00  0.00     0.010 A 
ATOM     10  C   UNL     1      -0.176   0.649   1.054  1.00  0.00     0.010 A 
ATOM     11  C   UNL     1       1.167   0.947   1.303  1.00  0.00    -0.014 A 
BRANCH  11  12
ATOM     12  C   UNL     1       2.141  -0.175   1.453  1.00  0.00     0.031 A 
ATOM     13  C   UNL     1       2.252  -1.207   0.355  1.00  0.00     0.074 A 
ATOM     14  C   UNL     1       2.768  -0.400   2.630  1.00  0.00     0.049 A 
ATOM     15  N   UNL     1       2.849  -2.372   0.361  1.00  0.00    -0.248 NA
ATOM     16  C   UNL     1       1.508  -0.925  -0.884  1.00  0.00     0.031 C 
ATOM     17  C   UNL     1       2.664   0.430   3.833  1.00  0.00     0.029 A 
ATOM     18  N   UNL     1       3.570  -1.446   3.029  1.00  0.00    -0.354 N 
ATOM     19  C   UNL     1       2.537  -2.959  -0.859  1.00  0.00     0.074 A 
ATOM     20  C   UNL     1       1.588  -2.086  -1.514  1.00  0.00     0.031 C 
ATOM     21  C   UNL     1       3.333  -0.160   4.841  1.00  0.00     0.029 A 
ATOM     22  C   UNL     1       3.926  -1.403   4.358  1.00  0.00     0.049 A 
ATOM     23  H   UNL     1       3.863  -2.160   2.418  1.00  0.00     0.167 HD
ATOM     24  C   UNL     1       3.046  -4.082  -1.424  1.00  0.00     0.037 A 
ATOM     25  C   UNL     1       4.650  -2.265   5.100  1.00  0.00     0.037 A 
ATOM     26  C   UNL     1       4.057  -4.901  -0.811  1.00  0.00     0.049 A 
ATOM     27  C   UNL     1       5.291  -3.453   4.429  1.00  0.00     0.074 A 
ATOM     28  C   UNL     1       4.756  -5.965  -1.353  1.00  0.00     0.029 A 
ATOM     29  N   UNL     1       4.523  -4.734   0.483  1.00  0.00    -0.354 N 
ATOM     30  N   UNL     1       5.123  -3.906   3.211  1.00  0.00    -0.248 NA
ATOM     31  C   UNL     1       6.278  -4.207   5.216  1.00  0.00     0.031 C 
ATOM     32  C   UNL     1       5.643  -6.446  -0.383  1.00  0.00     0.029 A 
ATOM     33  C   UNL     1       5.520  -5.658   0.749  1.00  0.00     0.049 A 
ATOM     34  H   UNL     1       4.194  -4.059   1.120  1.00  0.00     0.167 HD
ATOM     35  C   UNL     1       6.025  -4.953   3.067  1.00  0.00     0.074 A 
ATOM     36  C   UNL     1       6.734  -5.071   4.322  1.00  0.00     0.031 C 
ATOM     37  C   UNL     1       6.255  -5.735   1.984  1.00  0.00     0.037 A 
BRANCH  24  38
ATOM     38  C   UNL     1       2.580  -4.431  -2.811  1.00  0.00     0.064 A 
ATOM     39  C   UNL     1       2.856  -3.593  -3.905  1.00  0.00     0.173 A 
ATOM     40  C   UNL     1       1.873  -5.616  -3.062  1.00  0.00     0.173 A 
ATOM     41  F   UNL     1       3.530  -2.446  -3.724  1.00  0.00    -0.203 F 
ATOM     42  C   UNL     1       2.390  -3.895  -5.181  1.00  0.00     0.198 A 
ATOM     43  C   UNL     1       1.447  -5.938  -4.350  1.00  0.00     0.198 A 
ATOM     44  F   UNL     1       1.595  -6.464  -2.061  1.00  0.00    -0.203 F 
ATOM     45  F   UNL     1       2.599  -3.035  -6.187  1.00  0.00    -0.200 F 
ATOM     46  C   UNL     1       1.692  -5.070  -5.404  1.00  0.00     0.200 A 
ATOM     47  F   UNL     1       0.791  -7.085  -4.571  1.00  0.00    -0.200 F 
ATOM     48  F   UNL     1       1.248  -5.362  -6.634  1.00  0.00    -0.200 F 
ENDBRANCH  24  38
BRANCH  25  49
ATOM     49  C   UNL     1       4.894  -2.011   6.545  1.00  0.00     0.064 A 
ATOM     50  C   UNL     1       6.141  -1.550   6.993  1.00  0.00     0.173 A 
ATOM     51  C   UNL     1       3.917  -2.292   7.511  1.00  0.00     0.173 A 
ATOM     52  F   UNL     1       7.114  -1.294   6.107  1.00  0.00    -0.203 F 
ATOM     53  C   UNL     1       6.417  -1.421   8.353  1.00  0.00     0.198 A 
ATOM     54  C   UNL     1       4.188  -2.141   8.871  1.00  0.00     0.198 A 
ATOM     55  F   UNL     1       2.710  -2.732   7.131  1.00  0.00    -0.203 F 
ATOM     56  F   UNL     1       7.639  -1.043   8.752  1.00  0.00    -0.200 F 
ATOM     57  C   UNL     1       5.441  -1.717   9.291  1.00  0.00     0.200 A 
ATOM     58  F   UNL     1       3.245  -2.429   9.779  1.00  0.00    -0.200 F 
ATOM     59  F   UNL     1       5.714  -1.611  10.599  1.00  0.00    -0.200 F 
ENDBRANCH  25  49
BRANCH  37  60
ATOM     60  C   UNL     1       7.393  -6.711   2.062  1.00  0.00     0.064 A 
ATOM     61  C   UNL     1       7.337  -7.864   2.856  1.00  0.00     0.173 A 
ATOM     62  C   UNL     1       8.553  -6.491   1.302  1.00  0.00     0.173 A 
ATOM     63  F   UNL     1       6.258  -8.111   3.614  1.00  0.00    -0.203 F 
ATOM     64  C   UNL     1       8.414  -8.746   2.912  1.00  0.00     0.198 A 
ATOM     65  C   UNL     1       9.614  -7.391   1.335  1.00  0.00     0.198 A 
ATOM     66  F   UNL     1       8.654  -5.405   0.521  1.00  0.00    -0.203 F 
ATOM     67  F   UNL     1       8.363  -9.813   3.720  1.00  0.00    -0.200 F 
ATOM     68  C   UNL     1       9.548  -8.512   2.147  1.00  0.00     0.200 A 
ATOM     69  F   UNL     1      10.702  -7.169   0.585  1.00  0.00    -0.200 F 
ATOM     70  F   UNL     1      10.581  -9.364   2.199  1.00  0.00    -0.200 F 
ENDBRANCH  37  60
ENDBRANCH  11  12
ENDBRANCH   4   6
ENDBRANCH   3   4
ENDBRANCH   2   3
ENDBRANCH   1   2
BRANCH   1  71
ATOM     71  O   UNL     1      -0.669   3.981   3.961  1.00  0.00    -0.460 OA
BRANCH  71  72
ATOM     72  C   UNL     1      -1.429   3.478   4.975  1.00  0.00     0.331 C 
ATOM     73  O   UNL     1      -1.893   4.146   5.889  1.00  0.00    -0.250 OA
BRANCH  72  74
ATOM     74  C   UNL     1      -1.595   1.951   4.845  1.00  0.00     0.218 C 
BRANCH  74  75
ATOM     75  N   UNL     1      -1.005   1.307   6.020  1.00  0.00    -0.341 N 
ATOM     76  C   UNL     1      -0.688   0.011   6.269  1.00  0.00     0.226 C 
ATOM     77  H   UNL     1      -0.801   1.923   6.760  1.00  0.00     0.164 HD
ATOM     78  O   UNL     1      -0.440  -0.250   7.453  1.00  0.00    -0.275 OA
BRANCH  76  79
ATOM     79  C   UNL     1      -0.414  -1.046   5.203  1.00  0.00     0.107 C 
ATOM     80  C   UNL     1      -0.630  -2.459   5.765  1.00  0.00     0.115 C 
ATOM     81  C   UNL     1      -1.131  -1.131   3.870  1.00  0.00     0.133 C 
ATOM     82  C   UNL     1      -0.635  -3.314   4.529  1.00  0.00     0.223 C 
ATOM     83  N   UNL     1      -0.904  -2.500   3.446  1.00  0.00    -0.333 N 
ATOM     84  O   UNL     1      -0.453  -4.526   4.492  1.00  0.00    -0.275 OA
BRANCH  83  85
ATOM     85  C   UNL     1      -0.870  -2.982   2.056  1.00  0.00     0.234 C 
BRANCH  85  86
ATOM     86  C   UNL     1      -2.103  -2.771   1.170  1.00  0.00     0.406 C 
ATOM     87  F   UNL     1      -1.827  -1.897   0.167  1.00  0.00    -0.169 F 
ATOM     88  F   UNL     1      -2.495  -3.920   0.578  1.00  0.00    -0.169 F 
ATOM     89  F   UNL     1      -3.158  -2.267   1.845  1.00  0.00    -0.169 F 
ENDBRANCH  85  86
ENDBRANCH  83  85
ENDBRANCH  76  79
ENDBRANCH  74  75
BRANCH  74  90
ATOM     90  C   UNL     1      -3.108   1.653   4.724  1.00  0.00     0.193 C 
BRANCH  90  91
ATOM     91  O   UNL     1      -3.444   0.387   5.295  1.00  0.00    -0.394 OA
ATOM     92  H   UNL     1      -2.971  -0.316   4.823  1.00  0.00     0.210 HD
ENDBRANCH  90  91
ENDBRANCH  74  90
ENDBRANCH  72  74
ENDBRANCH  71  72
ENDBRANCH   1  71
TORSDOF 17
