REMARK SMILES COC(=O)c1ccc([C@H]2Nc3c(C(=O)OCCOC(=O)c4ccc(-c5c6nc(c(-c7c(F)c(F)c(F)c(F)c7F)c7ccc([nH]7)c(-c7c(F)c(F)c(F)c(F)c7F)c7nc(c(-c8c(F)c(F)c(F)c(F)c8F)c8ccc5[nH]8)C=C7)C=C6)cc4)cccc3[C@H]3[C@H]4CC[C@H](C4)[C@H]32)cc1
REMARK SMILES IDX 16 1 15 2 13 3 14 4 12 5 9 6 10 7 94 8 11 9 88 11 92 12
REMARK SMILES IDX 87 13 89 14 91 15 93 16 84 17 86 18 90 19 85 20 8 21 5 22
REMARK SMILES IDX 6 23 96 24 7 25 95 26 3 27 4 28 2 29 1 30 17 31 18 32 19 33
REMARK SMILES IDX 20 34 21 35 22 36 83 37 23 38 82 39 24 40 25 41 26 42 76 43
REMARK SMILES IDX 27 44 81 45 75 46 77 47 28 48 80 49 74 50 73 51 29 53 61 54
REMARK SMILES IDX 41 55 60 56 42 57 45 58 59 59 78 60 43 61 44 62 58 64 79 65
REMARK SMILES IDX 46 66 30 67 31 68 39 69 32 70 33 71 37 72 40 73 34 74 35 75
REMARK SMILES IDX 38 76 36 77 62 78 63 79 71 80 64 81 65 82 69 83 72 84 66 85
REMARK SMILES IDX 67 86 70 87 68 88 47 89 48 90 56 91 49 92 50 93 54 94 57 95
REMARK SMILES IDX 51 96 52 97 55 98 53 99
REMARK H PARENT 10 10 77 52 45 63
REMARK Flexibility Score: inf
ROOT
ATOM      1  C   UNL     1      -0.954   5.724  11.042  1.00  0.00     0.275 C 
ENDROOT
BRANCH   1   2
ATOM      2  O   UNL     1      -1.585   4.430  10.955  1.00  0.00    -0.458 OA
BRANCH   2   3
ATOM      3  C   UNL     1      -2.006   4.000   9.731  1.00  0.00     0.340 C 
ATOM      4  O   UNL     1      -1.847   4.545   8.661  1.00  0.00    -0.246 OA
BRANCH   3   5
ATOM      5  C   UNL     1      -2.820   2.790   9.977  1.00  0.00     0.083 A 
ATOM      6  C   UNL     1      -1.457  -0.090   8.031  1.00  0.00     0.113 C 
ATOM      7  N   UNL     1      -1.308   1.147   8.864  1.00  0.00    -0.377 N 
ATOM      8  C   UNL     1      -1.581  -1.261   9.053  1.00  0.00     0.027 C 
ATOM      9  C   UNL     1      -2.417   1.481   9.665  1.00  0.00     0.053 A 
ATOM     10  H   UNL     1      -0.488   1.692   8.851  1.00  0.00     0.161 HD
ATOM     11  C   UNL     1      -2.397  -0.901  10.326  1.00  0.00     0.030 C 
ATOM     12  C   UNL     1      -1.972  -2.752   8.805  1.00  0.00    -0.005 C 
ATOM     13  C   UNL     1      -3.119   0.417  10.264  1.00  0.00    -0.020 A 
ATOM     14  C   UNL     1      -3.127  -2.213  10.658  1.00  0.00    -0.003 C 
ATOM     15  C   UNL     1      -3.435  -3.074   8.456  1.00  0.00     0.004 C 
ATOM     16  C   UNL     1      -2.038  -3.232  10.278  1.00  0.00     0.008 C 
ATOM     17  C   UNL     1      -4.051   3.019  10.607  1.00  0.00     0.018 A 
ATOM     18  C   UNL     1      -4.330   0.654  10.924  1.00  0.00     0.006 A 
ATOM     19  C   UNL     1      -4.224  -2.502   9.626  1.00  0.00     0.004 C 
ATOM     20  C   UNL     1      -4.826   1.949  11.038  1.00  0.00     0.001 A 
BRANCH   6  21
ATOM     21  C   UNL     1      -2.469   0.132   6.905  1.00  0.00    -0.025 A 
ATOM     22  C   UNL     1      -4.583   0.511   5.074  1.00  0.00     0.060 A 
ATOM     23  C   UNL     1      -3.926   1.617   5.605  1.00  0.00     0.016 A 
ATOM     24  C   UNL     1      -4.077  -0.765   5.307  1.00  0.00     0.016 A 
ATOM     25  C   UNL     1      -2.880   1.422   6.512  1.00  0.00     0.007 A 
ATOM     26  C   UNL     1      -2.973  -0.931   6.154  1.00  0.00     0.007 A 
BRANCH  22  27
ATOM     27  C   UNL     1      -5.801   0.715   4.265  1.00  0.00     0.337 C 
ATOM     28  O   UNL     1      -5.912   1.553   3.388  1.00  0.00    -0.246 OA
BRANCH  27  29
ATOM     29  O   UNL     1      -6.766  -0.116   4.734  1.00  0.00    -0.465 OA
ATOM     30  C   UNL     1      -8.050   0.047   4.126  1.00  0.00     0.282 C 
ENDBRANCH  27  29
ENDBRANCH  22  27
ENDBRANCH   6  21
ENDBRANCH   3   5
ENDBRANCH   2   3
ENDBRANCH   1   2
BRANCH   1  31
ATOM     31  C   UNL     1       0.480   5.594  11.552  1.00  0.00     0.275 C 
BRANCH  31  32
ATOM     32  O   UNL     1       1.286   4.975  10.538  1.00  0.00    -0.458 OA
BRANCH  32  33
ATOM     33  C   UNL     1       1.530   3.663  10.728  1.00  0.00     0.338 C 
ATOM     34  O   UNL     1       1.280   2.976  11.704  1.00  0.00    -0.246 OA
BRANCH  33  35
ATOM     35  C   UNL     1       2.062   3.089   9.489  1.00  0.00     0.060 A 
ATOM     36  C   UNL     1       1.175   2.889   8.442  1.00  0.00     0.016 A 
ATOM     37  C   UNL     1       3.344   2.551   9.440  1.00  0.00     0.016 A 
ATOM     38  C   UNL     1       1.505   2.013   7.419  1.00  0.00     0.010 A 
ATOM     39  C   UNL     1       3.723   1.790   8.328  1.00  0.00     0.010 A 
ATOM     40  C   UNL     1       2.788   1.463   7.327  1.00  0.00    -0.014 A 
BRANCH  40  41
ATOM     41  C   UNL     1       3.120   0.527   6.214  1.00  0.00     0.031 A 
ATOM     42  C   UNL     1       3.718  -0.826   6.505  1.00  0.00     0.074 A 
ATOM     43  C   UNL     1       2.860   0.873   4.936  1.00  0.00     0.049 A 
ATOM     44  N   UNL     1       4.275  -1.681   5.684  1.00  0.00    -0.248 NA
ATOM     45  C   UNL     1       3.699  -1.275   7.906  1.00  0.00     0.031 C 
ATOM     46  C   UNL     1       2.218   2.117   4.505  1.00  0.00     0.029 A 
ATOM     47  N   UNL     1       3.095   0.205   3.758  1.00  0.00    -0.354 N 
ATOM     48  C   UNL     1       4.741  -2.724   6.476  1.00  0.00     0.074 A 
ATOM     49  C   UNL     1       4.394  -2.402   7.843  1.00  0.00     0.031 C 
ATOM     50  C   UNL     1       2.060   2.100   3.176  1.00  0.00     0.029 A 
ATOM     51  C   UNL     1       2.718   0.916   2.644  1.00  0.00     0.049 A 
ATOM     52  H   UNL     1       3.493  -0.695   3.716  1.00  0.00     0.167 HD
ATOM     53  C   UNL     1       5.407  -3.841   6.090  1.00  0.00     0.037 A 
ATOM     54  C   UNL     1       2.942   0.692   1.337  1.00  0.00     0.037 A 
ATOM     55  C   UNL     1       5.690  -4.175   4.716  1.00  0.00     0.049 A 
ATOM     56  C   UNL     1       3.729  -0.521   0.937  1.00  0.00     0.074 A 
ATOM     57  C   UNL     1       6.336  -5.291   4.214  1.00  0.00     0.029 A 
ATOM     58  N   UNL     1       5.331  -3.398   3.622  1.00  0.00    -0.354 N 
ATOM     59  N   UNL     1       4.232  -1.465   1.694  1.00  0.00    -0.248 NA
ATOM     60  C   UNL     1       4.000  -0.687  -0.495  1.00  0.00     0.031 C 
ATOM     61  C   UNL     1       6.420  -5.162   2.824  1.00  0.00     0.029 A 
ATOM     62  C   UNL     1       5.765  -3.999   2.451  1.00  0.00     0.049 A 
ATOM     63  H   UNL     1       4.841  -2.545   3.671  1.00  0.00     0.167 HD
ATOM     64  C   UNL     1       4.865  -2.346   0.832  1.00  0.00     0.074 A 
ATOM     65  C   UNL     1       4.664  -1.834  -0.509  1.00  0.00     0.031 C 
ATOM     66  C   UNL     1       5.553  -3.477   1.124  1.00  0.00     0.037 A 
BRANCH  53  67
ATOM     67  C   UNL     1       5.926  -4.760   7.161  1.00  0.00     0.064 A 
ATOM     68  C   UNL     1       5.079  -5.549   7.954  1.00  0.00     0.173 A 
ATOM     69  C   UNL     1       7.311  -4.885   7.365  1.00  0.00     0.173 A 
ATOM     70  F   UNL     1       3.748  -5.463   7.812  1.00  0.00    -0.203 F 
ATOM     71  C   UNL     1       5.597  -6.404   8.925  1.00  0.00     0.198 A 
ATOM     72  C   UNL     1       7.826  -5.765   8.312  1.00  0.00     0.198 A 
ATOM     73  F   UNL     1       8.170  -4.160   6.631  1.00  0.00    -0.203 F 
ATOM     74  F   UNL     1       4.765  -7.111   9.704  1.00  0.00    -0.200 F 
ATOM     75  C   UNL     1       6.968  -6.519   9.098  1.00  0.00     0.200 A 
ATOM     76  F   UNL     1       9.152  -5.885   8.464  1.00  0.00    -0.200 F 
ATOM     77  F   UNL     1       7.463  -7.350  10.026  1.00  0.00    -0.200 F 
ENDBRANCH  53  67
BRANCH  54  78
ATOM     78  C   UNL     1       2.480   1.685   0.330  1.00  0.00     0.064 A 
ATOM     79  C   UNL     1       1.484   1.365  -0.601  1.00  0.00     0.173 A 
ATOM     80  C   UNL     1       3.010   2.986   0.295  1.00  0.00     0.173 A 
ATOM     81  F   UNL     1       0.966   0.128  -0.629  1.00  0.00    -0.203 F 
ATOM     82  C   UNL     1       1.042   2.304  -1.532  1.00  0.00     0.198 A 
ATOM     83  C   UNL     1       2.539   3.934  -0.608  1.00  0.00     0.198 A 
ATOM     84  F   UNL     1       3.969   3.345   1.162  1.00  0.00    -0.203 F 
ATOM     85  F   UNL     1       0.122   1.958  -2.442  1.00  0.00    -0.200 F 
ATOM     86  C   UNL     1       1.560   3.590  -1.527  1.00  0.00     0.200 A 
ATOM     87  F   UNL     1       3.030   5.181  -0.584  1.00  0.00    -0.200 F 
ATOM     88  F   UNL     1       1.124   4.496  -2.412  1.00  0.00    -0.200 F 
ENDBRANCH  54  78
BRANCH  66  89
ATOM     89  C   UNL     1       6.097  -4.260  -0.034  1.00  0.00     0.064 A 
ATOM     90  C   UNL     1       7.176  -3.796  -0.800  1.00  0.00     0.173 A 
ATOM     91  C   UNL     1       5.540  -5.504  -0.368  1.00  0.00     0.173 A 
ATOM     92  F   UNL     1       7.731  -2.604  -0.532  1.00  0.00    -0.203 F 
ATOM     93  C   UNL     1       7.658  -4.535  -1.877  1.00  0.00     0.198 A 
ATOM     94  C   UNL     1       6.047  -6.256  -1.424  1.00  0.00     0.198 A 
ATOM     95  F   UNL     1       4.509  -5.995   0.336  1.00  0.00    -0.203 F 
ATOM     96  F   UNL     1       8.653  -4.046  -2.631  1.00  0.00    -0.200 F 
ATOM     97  C   UNL     1       7.098  -5.767  -2.183  1.00  0.00     0.200 A 
ATOM     98  F   UNL     1       5.514  -7.452  -1.708  1.00  0.00    -0.200 F 
ATOM     99  F   UNL     1       7.567  -6.479  -3.217  1.00  0.00    -0.200 F 
ENDBRANCH  66  89
ENDBRANCH  40  41
ENDBRANCH  33  35
ENDBRANCH  32  33
ENDBRANCH  31  32
ENDBRANCH   1  31
TORSDOF 14
