REMARK SMILES O=C(CC[NH+]1CC[NH+]([C@@H]2CCO[C@@]3(CCOC3)C2)CC1)OCCOC(=O)c1ccc(-c2c3nc(c(-c4c(F)c(F)c(F)c(F)c4F)c4ccc([nH]4)c(-c4c(F)c(F)c(F)c(F)c4F)c4nc(c(-c5c(F)c(F)c(F)c(F)c5F)c5ccc2[nH]5)C=C4)C=C3)cc1
REMARK SMILES IDX 22 1 21 2 2 3 1 4 3 5 4 6 5 7 6 8 20 9 7 11 19 12 8 13 9 15
REMARK SMILES IDX 10 16 18 17 11 18 13 19 12 20 14 21 17 22 15 23 16 24 23 25
REMARK SMILES IDX 24 26 25 27 26 28 27 29 28 30 89 31 29 32 88 33 30 34 31 35
REMARK SMILES IDX 32 36 82 37 33 38 87 39 81 40 83 41 34 42 86 43 80 44 79 45
REMARK SMILES IDX 35 47 67 48 47 49 66 50 48 51 51 52 65 53 84 54 49 55 50 56
REMARK SMILES IDX 64 58 85 59 52 60 36 61 37 62 45 63 38 64 39 65 43 66 46 67
REMARK SMILES IDX 40 68 41 69 44 70 42 71 68 72 69 73 77 74 70 75 71 76 75 77
REMARK SMILES IDX 78 78 72 79 73 80 76 81 74 82 53 83 54 84 62 85 55 86 56 87
REMARK SMILES IDX 60 88 63 89 57 90 58 91 61 92 59 93
REMARK H PARENT 5 10 8 14 83 46 51 57
REMARK Flexibility Score: inf
ROOT
ATOM      1  C   UNL     1       3.642  -0.200  -1.294  1.00  0.00     0.274 C 
ENDROOT
BRANCH   1   2
ATOM      2  O   UNL     1       2.296  -0.144  -0.790  1.00  0.00    -0.462 OA
BRANCH   2   3
ATOM      3  C   UNL     1       2.157  -0.450   0.536  1.00  0.00     0.311 C 
ATOM      4  O   UNL     1       1.689  -1.513   0.923  1.00  0.00    -0.252 OA
BRANCH   3   5
ATOM      5  C   UNL     1       2.433   0.729   1.443  1.00  0.00     0.184 C 
BRANCH   5   6
ATOM      6  C   UNL     1       3.532   0.563   2.475  1.00  0.00     0.274 C 
BRANCH   6   7
ATOM      7  N   UNL     1       4.628  -0.206   1.906  1.00  0.00    -0.325 N 
ATOM      8  C   UNL     1       5.903   0.500   1.690  1.00  0.00     0.324 C 
ATOM      9  C   UNL     1       4.807  -1.458   2.640  1.00  0.00     0.324 C 
ATOM     10  H   UNL     1       4.328  -0.399   0.951  1.00  0.00     0.348 HD
ATOM     11  C   UNL     1       7.033   0.346   2.761  1.00  0.00     0.324 C 
ATOM     12  C   UNL     1       5.654  -1.229   3.892  1.00  0.00     0.324 C 
ATOM     13  N   UNL     1       7.034  -0.886   3.577  1.00  0.00    -0.323 N 
ATOM     14  H   UNL     1       7.513  -0.690   4.456  1.00  0.00     0.348 HD
BRANCH  13  15
ATOM     15  C   UNL     1       7.932  -1.983   3.141  1.00  0.00     0.189 C 
ATOM     16  C   UNL     1       8.005  -2.353   1.646  1.00  0.00     0.093 C 
ATOM     17  C   UNL     1       7.880  -3.276   4.002  1.00  0.00     0.103 C 
ATOM     18  C   UNL     1       7.434  -3.721   1.298  1.00  0.00     0.167 C 
ATOM     19  C   UNL     1       6.877  -4.365   3.537  1.00  0.00     0.099 C 
ATOM     20  O   UNL     1       6.417  -4.114   2.205  1.00  0.00    -0.372 OA
ATOM     21  C   UNL     1       7.457  -5.784   3.595  1.00  0.00     0.066 C 
ATOM     22  C   UNL     1       5.644  -4.503   4.466  1.00  0.00     0.195 C 
ATOM     23  C   UNL     1       6.931  -6.337   4.895  1.00  0.00     0.163 C 
ATOM     24  O   UNL     1       5.595  -5.849   4.967  1.00  0.00    -0.378 OA
ENDBRANCH  13  15
ENDBRANCH   6   7
ENDBRANCH   5   6
ENDBRANCH   3   5
ENDBRANCH   2   3
ENDBRANCH   1   2
BRANCH   1  25
ATOM     25  C   UNL     1       4.091   1.112  -1.952  1.00  0.00     0.275 C 
BRANCH  25  26
ATOM     26  O   UNL     1       3.813   2.253  -1.121  1.00  0.00    -0.458 OA
BRANCH  26  27
ATOM     27  C   UNL     1       2.663   2.913  -1.423  1.00  0.00     0.338 C 
ATOM     28  O   UNL     1       1.979   2.775  -2.424  1.00  0.00    -0.246 OA
BRANCH  27  29
ATOM     29  C   UNL     1       2.209   3.676  -0.235  1.00  0.00     0.060 A 
ATOM     30  C   UNL     1       0.862   3.547   0.131  1.00  0.00     0.016 A 
ATOM     31  C   UNL     1       3.089   4.401   0.578  1.00  0.00     0.016 A 
ATOM     32  C   UNL     1       0.388   4.160   1.291  1.00  0.00     0.010 A 
ATOM     33  C   UNL     1       2.608   5.029   1.735  1.00  0.00     0.010 A 
ATOM     34  C   UNL     1       1.249   4.932   2.082  1.00  0.00    -0.014 A 
BRANCH  34  35
ATOM     35  C   UNL     1       0.658   5.795   3.136  1.00  0.00     0.031 A 
ATOM     36  C   UNL     1       0.208   7.174   2.742  1.00  0.00     0.074 A 
ATOM     37  C   UNL     1       0.456   5.356   4.391  1.00  0.00     0.049 A 
ATOM     38  N   UNL     1      -0.471   8.057   3.429  1.00  0.00    -0.248 NA
ATOM     39  C   UNL     1       0.567   7.612   1.384  1.00  0.00     0.031 C 
ATOM     40  C   UNL     1       0.845   4.048   4.910  1.00  0.00     0.029 A 
ATOM     41  N   UNL     1      -0.144   5.978   5.460  1.00  0.00    -0.354 N 
ATOM     42  C   UNL     1      -0.661   9.131   2.571  1.00  0.00     0.074 A 
ATOM     43  C   UNL     1       0.030   8.821   1.338  1.00  0.00     0.031 C 
ATOM     44  C   UNL     1       0.482   3.967   6.204  1.00  0.00     0.029 A 
ATOM     45  C   UNL     1      -0.174   5.214   6.600  1.00  0.00     0.049 A 
ATOM     46  H   UNL     1      -0.517   6.888   5.413  1.00  0.00     0.167 HD
ATOM     47  C   UNL     1      -1.371  10.264   2.776  1.00  0.00     0.037 A 
ATOM     48  C   UNL     1      -0.683   5.490   7.818  1.00  0.00     0.037 A 
ATOM     49  C   UNL     1      -2.023  10.604   4.011  1.00  0.00     0.049 A 
ATOM     50  C   UNL     1      -1.408   6.794   8.047  1.00  0.00     0.074 A 
ATOM     51  C   UNL     1      -2.754  11.737   4.319  1.00  0.00     0.029 A 
ATOM     52  N   UNL     1      -2.006   9.815   5.150  1.00  0.00    -0.354 N 
ATOM     53  N   UNL     1      -1.649   7.770   7.206  1.00  0.00    -0.248 NA
ATOM     54  C   UNL     1      -1.953   7.022   9.395  1.00  0.00     0.031 C 
ATOM     55  C   UNL     1      -3.146  11.653   5.660  1.00  0.00     0.029 A 
ATOM     56  C   UNL     1      -2.697  10.447   6.171  1.00  0.00     0.049 A 
ATOM     57  H   UNL     1      -1.569   8.936   5.223  1.00  0.00     0.167 HD
ATOM     58  C   UNL     1      -2.394   8.709   7.910  1.00  0.00     0.074 A 
ATOM     59  C   UNL     1      -2.581   8.178   9.244  1.00  0.00     0.031 C 
ATOM     60  C   UNL     1      -2.879   9.904   7.492  1.00  0.00     0.037 A 
BRANCH  47  61
ATOM     61  C   UNL     1      -1.475  11.217   1.626  1.00  0.00     0.064 A 
ATOM     62  C   UNL     1      -2.284  10.925   0.516  1.00  0.00     0.173 A 
ATOM     63  C   UNL     1      -0.777  12.431   1.633  1.00  0.00     0.173 A 
ATOM     64  F   UNL     1      -2.955   9.764   0.457  1.00  0.00    -0.203 F 
ATOM     65  C   UNL     1      -2.373  11.808  -0.555  1.00  0.00     0.198 A 
ATOM     66  C   UNL     1      -0.886  13.323   0.569  1.00  0.00     0.198 A 
ATOM     67  F   UNL     1       0.012  12.751   2.669  1.00  0.00    -0.203 F 
ATOM     68  F   UNL     1      -3.118  11.491  -1.623  1.00  0.00    -0.200 F 
ATOM     69  C   UNL     1      -1.679  13.009  -0.525  1.00  0.00     0.200 A 
ATOM     70  F   UNL     1      -0.219  14.484   0.600  1.00  0.00    -0.200 F 
ATOM     71  F   UNL     1      -1.767  13.860  -1.556  1.00  0.00    -0.200 F 
ENDBRANCH  47  61
BRANCH  48  72
ATOM     72  C   UNL     1      -0.543   4.511   8.928  1.00  0.00     0.064 A 
ATOM     73  C   UNL     1      -1.655   3.830   9.444  1.00  0.00     0.173 A 
ATOM     74  C   UNL     1       0.700   4.285   9.538  1.00  0.00     0.173 A 
ATOM     75  F   UNL     1      -2.870   4.038   8.915  1.00  0.00    -0.203 F 
ATOM     76  C   UNL     1      -1.534   2.983  10.544  1.00  0.00     0.198 A 
ATOM     77  C   UNL     1       0.824   3.419  10.622  1.00  0.00     0.198 A 
ATOM     78  F   UNL     1       1.793   4.918   9.087  1.00  0.00    -0.203 F 
ATOM     79  F   UNL     1      -2.623   2.392  11.054  1.00  0.00    -0.200 F 
ATOM     80  C   UNL     1      -0.295   2.777  11.131  1.00  0.00     0.200 A 
ATOM     81  F   UNL     1       2.024   3.220  11.184  1.00  0.00    -0.200 F 
ATOM     82  F   UNL     1      -0.181   1.972  12.196  1.00  0.00    -0.200 F 
ENDBRANCH  48  72
BRANCH  60  83
ATOM     83  C   UNL     1      -3.678  10.709   8.476  1.00  0.00     0.064 A 
ATOM     84  C   UNL     1      -3.072  11.347   9.569  1.00  0.00     0.173 A 
ATOM     85  C   UNL     1      -5.061  10.873   8.305  1.00  0.00     0.173 A 
ATOM     86  F   UNL     1      -1.754  11.212   9.783  1.00  0.00    -0.203 F 
ATOM     87  C   UNL     1      -3.826  12.095  10.470  1.00  0.00     0.198 A 
ATOM     88  C   UNL     1      -5.807  11.645   9.192  1.00  0.00     0.198 A 
ATOM     89  F   UNL     1      -5.689  10.292   7.272  1.00  0.00    -0.203 F 
ATOM     90  F   UNL     1      -3.232  12.655  11.533  1.00  0.00    -0.200 F 
ATOM     91  C   UNL     1      -5.191  12.248  10.278  1.00  0.00     0.200 A 
ATOM     92  F   UNL     1      -7.124  11.803   8.998  1.00  0.00    -0.200 F 
ATOM     93  F   UNL     1      -5.913  12.971  11.145  1.00  0.00    -0.200 F 
ENDBRANCH  60  83
ENDBRANCH  34  35
ENDBRANCH  27  29
ENDBRANCH  26  27
ENDBRANCH  25  26
ENDBRANCH   1  25
TORSDOF 14
