REMARK SMILES COc1ncccc1Cn1ccc(C(=O)OCCOC(=O)c2ccc(-c3c4nc(c(-c5c(F)c(F)c(F)c(F)c5F)c5ccc([nH]5)c(-c5c(F)c(F)c(F)c(F)c5F)c5nc(c(-c6c(F)c(F)c(F)c(F)c6F)c6ccc3[nH]6)C=C5)C=C4)cc2)n1
REMARK SMILES IDX 17 1 16 2 14 3 15 4 13 5 10 6 11 7 85 8 12 9 9 10 8 11 3 12
REMARK SMILES IDX 4 13 5 14 7 15 6 16 2 17 1 18 18 19 19 20 20 21 21 22 22 23
REMARK SMILES IDX 23 24 84 25 24 26 83 27 25 28 26 29 27 30 77 31 28 32 82 33
REMARK SMILES IDX 76 34 78 35 29 36 81 37 75 38 74 39 30 41 62 42 42 43 61 44
REMARK SMILES IDX 43 45 46 46 60 47 79 48 44 49 45 50 59 52 80 53 47 54 31 55
REMARK SMILES IDX 32 56 40 57 33 58 34 59 38 60 41 61 35 62 36 63 39 64 37 65
REMARK SMILES IDX 63 66 64 67 72 68 65 69 66 70 70 71 73 72 67 73 68 74 71 75
REMARK SMILES IDX 69 76 48 77 49 78 57 79 50 80 51 81 55 82 58 83 52 84 53 85
REMARK SMILES IDX 56 86 54 87
REMARK H PARENT 78 40 46 51
REMARK Flexibility Score: inf
ROOT
ATOM      1  C   UNL     1       5.787   1.450   5.218  1.00  0.00     0.275 C 
ENDROOT
BRANCH   1   2
ATOM      2  O   UNL     1       5.377   1.258   3.857  1.00  0.00    -0.457 OA
BRANCH   2   3
ATOM      3  C   UNL     1       4.353   0.363   3.679  1.00  0.00     0.358 C 
ATOM      4  O   UNL     1       3.972  -0.423   4.531  1.00  0.00    -0.244 OA
BRANCH   3   5
ATOM      5  C   UNL     1       3.622   0.591   2.426  1.00  0.00     0.170 A 
ATOM      6  N   UNL     1       3.136   1.175   0.435  1.00  0.00    -0.267 N 
ATOM      7  C   UNL     1       1.932   1.013   1.060  1.00  0.00     0.110 A 
ATOM      8  N   UNL     1       4.186   0.968   1.264  1.00  0.00    -0.165 NA
ATOM      9  C   UNL     1       2.209   0.522   2.308  1.00  0.00     0.057 A 
BRANCH   6  10
ATOM     10  C   UNL     1       3.403   1.431  -0.982  1.00  0.00     0.185 C 
BRANCH  10  11
ATOM     11  C   UNL     1       2.278   2.114  -1.705  1.00  0.00     0.036 A 
ATOM     12  C   UNL     1       1.210   1.392  -2.236  1.00  0.00     0.218 A 
ATOM     13  N   UNL     1       0.150   1.947  -2.860  1.00  0.00    -0.222 NA
ATOM     14  C   UNL     1       0.154   3.294  -2.971  1.00  0.00     0.115 A 
ATOM     15  C   UNL     1       2.239   3.506  -1.836  1.00  0.00     0.013 A 
ATOM     16  C   UNL     1       1.168   4.107  -2.488  1.00  0.00     0.021 A 
BRANCH  12  17
ATOM     17  O   UNL     1       1.282   0.020  -2.233  1.00  0.00    -0.481 OA
ATOM     18  C   UNL     1       0.271  -0.559  -1.415  1.00  0.00     0.280 C 
ENDBRANCH  12  17
ENDBRANCH  10  11
ENDBRANCH   6  10
ENDBRANCH   3   5
ENDBRANCH   2   3
ENDBRANCH   1   2
BRANCH   1  19
ATOM     19  C   UNL     1       4.949   2.529   5.900  1.00  0.00     0.275 C 
BRANCH  19  20
ATOM     20  O   UNL     1       3.609   2.095   6.162  1.00  0.00    -0.458 OA
BRANCH  20  21
ATOM     21  C   UNL     1       2.681   2.521   5.276  1.00  0.00     0.338 C 
ATOM     22  O   UNL     1       2.889   2.999   4.172  1.00  0.00    -0.246 OA
BRANCH  21  23
ATOM     23  C   UNL     1       1.345   2.500   5.890  1.00  0.00     0.060 A 
ATOM     24  C   UNL     1       0.236   2.725   5.065  1.00  0.00     0.016 A 
ATOM     25  C   UNL     1       1.223   2.504   7.285  1.00  0.00     0.016 A 
ATOM     26  C   UNL     1      -0.970   3.090   5.640  1.00  0.00     0.010 A 
ATOM     27  C   UNL     1       0.023   2.878   7.857  1.00  0.00     0.010 A 
ATOM     28  C   UNL     1      -1.044   3.233   7.029  1.00  0.00    -0.014 A 
BRANCH  28  29
ATOM     29  C   UNL     1      -2.263   3.776   7.610  1.00  0.00     0.031 A 
ATOM     30  C   UNL     1      -3.414   2.847   7.696  1.00  0.00     0.074 A 
ATOM     31  C   UNL     1      -2.284   4.993   8.190  1.00  0.00     0.049 A 
ATOM     32  N   UNL     1      -4.628   3.034   7.290  1.00  0.00    -0.248 NA
ATOM     33  C   UNL     1      -3.172   1.518   8.280  1.00  0.00     0.031 C 
ATOM     34  C   UNL     1      -1.132   5.865   8.444  1.00  0.00     0.029 A 
ATOM     35  N   UNL     1      -3.320   5.656   8.785  1.00  0.00    -0.354 N 
ATOM     36  C   UNL     1      -5.342   1.913   7.705  1.00  0.00     0.074 A 
ATOM     37  C   UNL     1      -4.383   0.968   8.212  1.00  0.00     0.031 C 
ATOM     38  C   UNL     1      -1.491   6.829   9.317  1.00  0.00     0.029 A 
ATOM     39  C   UNL     1      -2.917   6.718   9.579  1.00  0.00     0.049 A 
ATOM     40  H   UNL     1      -4.263   5.403   8.662  1.00  0.00     0.167 HD
ATOM     41  C   UNL     1      -6.696   1.930   7.809  1.00  0.00     0.037 A 
ATOM     42  C   UNL     1      -3.678   7.428  10.442  1.00  0.00     0.037 A 
ATOM     43  C   UNL     1      -7.283   3.014   7.074  1.00  0.00     0.049 A 
ATOM     44  C   UNL     1      -5.101   7.257  10.070  1.00  0.00     0.074 A 
ATOM     45  C   UNL     1      -7.524   3.299   5.749  1.00  0.00     0.029 A 
ATOM     46  N   UNL     1      -7.459   4.173   7.779  1.00  0.00    -0.354 N 
ATOM     47  N   UNL     1      -5.632   7.727   8.977  1.00  0.00    -0.248 NA
ATOM     48  C   UNL     1      -5.928   6.307  10.806  1.00  0.00     0.031 C 
ATOM     49  C   UNL     1      -7.611   4.720   5.660  1.00  0.00     0.029 A 
ATOM     50  C   UNL     1      -7.407   5.250   6.933  1.00  0.00     0.049 A 
ATOM     51  H   UNL     1      -7.602   4.226   8.751  1.00  0.00     0.167 HD
ATOM     52  C   UNL     1      -6.647   6.838   8.679  1.00  0.00     0.074 A 
ATOM     53  C   UNL     1      -6.905   6.119   9.915  1.00  0.00     0.031 C 
ATOM     54  C   UNL     1      -6.954   6.545   7.385  1.00  0.00     0.037 A 
BRANCH  41  55
ATOM     55  C   UNL     1      -7.463   1.220   8.897  1.00  0.00     0.064 A 
ATOM     56  C   UNL     1      -8.866   1.120   8.805  1.00  0.00     0.173 A 
ATOM     57  C   UNL     1      -6.910   0.924  10.162  1.00  0.00     0.173 A 
ATOM     58  F   UNL     1      -9.496   1.415   7.658  1.00  0.00    -0.203 F 
ATOM     59  C   UNL     1      -9.656   0.800   9.912  1.00  0.00     0.198 A 
ATOM     60  C   UNL     1      -7.698   0.552  11.250  1.00  0.00     0.198 A 
ATOM     61  F   UNL     1      -5.608   1.097  10.422  1.00  0.00    -0.203 F 
ATOM     62  F   UNL     1     -10.991   0.828   9.808  1.00  0.00    -0.200 F 
ATOM     63  C   UNL     1      -9.071   0.517  11.134  1.00  0.00     0.200 A 
ATOM     64  F   UNL     1      -7.115   0.307  12.433  1.00  0.00    -0.200 F 
ATOM     65  F   UNL     1      -9.829   0.263  12.209  1.00  0.00    -0.200 F 
ENDBRANCH  41  55
BRANCH  42  66
ATOM     66  C   UNL     1      -3.258   8.099  11.692  1.00  0.00     0.064 A 
ATOM     67  C   UNL     1      -4.029   9.121  12.265  1.00  0.00     0.173 A 
ATOM     68  C   UNL     1      -2.216   7.578  12.483  1.00  0.00     0.173 A 
ATOM     69  F   UNL     1      -5.068   9.640  11.594  1.00  0.00    -0.203 F 
ATOM     70  C   UNL     1      -3.785   9.582  13.562  1.00  0.00     0.198 A 
ATOM     71  C   UNL     1      -1.963   8.048  13.771  1.00  0.00     0.198 A 
ATOM     72  F   UNL     1      -1.479   6.543  12.056  1.00  0.00    -0.203 F 
ATOM     73  F   UNL     1      -4.581  10.516  14.100  1.00  0.00    -0.200 F 
ATOM     74  C   UNL     1      -2.757   9.040  14.316  1.00  0.00     0.200 A 
ATOM     75  F   UNL     1      -0.986   7.492  14.501  1.00  0.00    -0.200 F 
ATOM     76  F   UNL     1      -2.557   9.442  15.579  1.00  0.00    -0.200 F 
ENDBRANCH  42  66
BRANCH  54  77
ATOM     77  C   UNL     1      -6.563   7.555   6.353  1.00  0.00     0.064 A 
ATOM     78  C   UNL     1      -5.234   7.850   6.012  1.00  0.00     0.173 A 
ATOM     79  C   UNL     1      -7.579   8.203   5.638  1.00  0.00     0.173 A 
ATOM     80  F   UNL     1      -4.215   7.202   6.592  1.00  0.00    -0.203 F 
ATOM     81  C   UNL     1      -4.937   8.799   5.036  1.00  0.00     0.198 A 
ATOM     82  C   UNL     1      -7.280   9.122   4.638  1.00  0.00     0.198 A 
ATOM     83  F   UNL     1      -8.866   7.917   5.890  1.00  0.00    -0.203 F 
ATOM     84  F   UNL     1      -3.660   9.087   4.745  1.00  0.00    -0.200 F 
ATOM     85  C   UNL     1      -5.960   9.431   4.348  1.00  0.00     0.200 A 
ATOM     86  F   UNL     1      -8.271   9.697   3.943  1.00  0.00    -0.200 F 
ATOM     87  F   UNL     1      -5.675  10.322   3.388  1.00  0.00    -0.200 F 
ENDBRANCH  54  77
ENDBRANCH  28  29
ENDBRANCH  21  23
ENDBRANCH  20  21
ENDBRANCH  19  20
ENDBRANCH   1  19
TORSDOF 14
