REMARK SMILES CCc1ccc2[nH]c(C(=O)c3cc(C)ccn3)c(CC(=O)OCCOC(=O)c3ccc(-c4c5nc(c(-c6c(F)c(F)c(F)c(F)c6F)c6ccc([nH]6)c(-c6c(F)c(F)c(F)c(F)c6F)c6nc(c(-c7c(F)c(F)c(F)c(F)c7F)c7ccc4[nH]7)C=C6)C=C5)cc3)c2c1
REMARK SMILES IDX 23 1 22 2 20 3 21 4 19 5 18 6 3 7 4 8 92 9 5 10 91 11 6 12
REMARK SMILES IDX 7 13 8 14 2 16 1 17 9 18 10 19 11 20 12 21 17 22 13 23 16 24
REMARK SMILES IDX 14 25 15 26 24 27 25 28 26 29 27 30 28 31 29 32 90 33 30 34
REMARK SMILES IDX 89 35 31 36 32 37 33 38 83 39 34 40 88 41 82 42 84 43 35 44
REMARK SMILES IDX 87 45 81 46 80 47 36 49 68 50 48 51 67 52 49 53 52 54 66 55
REMARK SMILES IDX 85 56 50 57 51 58 65 60 86 61 53 62 37 63 38 64 46 65 39 66
REMARK SMILES IDX 40 67 44 68 47 69 41 70 42 71 45 72 43 73 69 74 70 75 78 76
REMARK SMILES IDX 71 77 72 78 76 79 79 80 73 81 74 82 77 83 75 84 54 85 55 86
REMARK SMILES IDX 63 87 56 88 57 89 61 90 64 91 58 92 59 93 62 94 60 95
REMARK H PARENT 7 15 84 48 52 59
REMARK Flexibility Score: inf
ROOT
ATOM      1  C   UNL     1      -3.179   5.506   3.472  1.00  0.00     0.274 C 
ENDROOT
BRANCH   1   2
ATOM      2  O   UNL     1      -1.825   5.043   3.299  1.00  0.00    -0.462 OA
BRANCH   2   3
ATOM      3  C   UNL     1      -1.278   5.276   2.076  1.00  0.00     0.310 C 
ATOM      4  O   UNL     1      -1.883   5.794   1.138  1.00  0.00    -0.252 OA
BRANCH   3   5
ATOM      5  C   UNL     1       0.178   4.888   1.941  1.00  0.00     0.161 C 
BRANCH   5   6
ATOM      6  C   UNL     1       0.789   4.128   3.079  1.00  0.00     0.000 A 
ATOM      7  C   UNL     1       0.845   0.347   2.511  1.00  0.00    -0.048 A 
ATOM      8  C   UNL     1       1.559   0.049   3.677  1.00  0.00     0.006 A 
ATOM      9  C   UNL     1       0.447   1.672   2.271  1.00  0.00     0.014 A 
ATOM     10  C   UNL     1       1.911   1.044   4.599  1.00  0.00     0.027 A 
ATOM     11  C   UNL     1       0.858   2.700   3.142  1.00  0.00     0.004 A 
ATOM     12  C   UNL     1       1.566   2.364   4.288  1.00  0.00     0.046 A 
ATOM     13  N   UNL     1       1.829   3.539   4.953  1.00  0.00    -0.352 N 
ATOM     14  C   UNL     1       1.546   4.622   4.144  1.00  0.00     0.093 A 
ATOM     15  H   UNL     1       2.170   3.600   5.874  1.00  0.00     0.167 HD
BRANCH   7  16
ATOM     16  C   UNL     1       0.524  -0.729   1.501  1.00  0.00     0.032 C 
ATOM     17  C   UNL     1       1.130  -0.446   0.129  1.00  0.00     0.009 C 
ENDBRANCH   7  16
BRANCH  14  18
ATOM     18  C   UNL     1       2.048   5.972   4.358  1.00  0.00     0.227 C 
ATOM     19  O   UNL     1       2.164   6.797   3.454  1.00  0.00    -0.285 OA
BRANCH  18  20
ATOM     20  C   UNL     1       2.574   6.357   5.689  1.00  0.00     0.113 A 
ATOM     21  C   UNL     1       3.937   6.260   5.944  1.00  0.00     0.036 A 
ATOM     22  N   UNL     1       1.677   6.863   6.564  1.00  0.00    -0.253 NA
ATOM     23  C   UNL     1       4.410   6.712   7.178  1.00  0.00    -0.047 A 
ATOM     24  C   UNL     1       2.162   7.338   7.726  1.00  0.00     0.112 A 
ATOM     25  C   UNL     1       5.863   6.626   7.536  1.00  0.00     0.044 C 
ATOM     26  C   UNL     1       3.502   7.283   8.075  1.00  0.00     0.023 A 
ENDBRANCH  18  20
ENDBRANCH  14  18
ENDBRANCH   5   6
ENDBRANCH   3   5
ENDBRANCH   2   3
ENDBRANCH   1   2
BRANCH   1  27
ATOM     27  C   UNL     1      -3.210   6.837   4.220  1.00  0.00     0.275 C 
BRANCH  27  28
ATOM     28  O   UNL     1      -2.322   7.775   3.588  1.00  0.00    -0.458 OA
BRANCH  28  29
ATOM     29  C   UNL     1      -1.252   8.129   4.335  1.00  0.00     0.338 C 
ATOM     30  O   UNL     1      -1.038   7.819   5.499  1.00  0.00    -0.246 OA
BRANCH  29  31
ATOM     31  C   UNL     1      -0.369   9.033   3.579  1.00  0.00     0.060 A 
ATOM     32  C   UNL     1       0.088   8.709   2.301  1.00  0.00     0.016 A 
ATOM     33  C   UNL     1       0.097  10.183   4.218  1.00  0.00     0.016 A 
ATOM     34  C   UNL     1       1.080   9.486   1.699  1.00  0.00     0.010 A 
ATOM     35  C   UNL     1       1.014  11.012   3.572  1.00  0.00     0.010 A 
ATOM     36  C   UNL     1       1.540  10.658   2.319  1.00  0.00    -0.014 A 
BRANCH  36  37
ATOM     37  C   UNL     1       2.562  11.525   1.676  1.00  0.00     0.031 A 
ATOM     38  C   UNL     1       3.869  11.799   2.368  1.00  0.00     0.074 A 
ATOM     39  C   UNL     1       2.301  12.113   0.493  1.00  0.00     0.049 A 
ATOM     40  N   UNL     1       4.772  12.711   2.104  1.00  0.00    -0.248 NA
ATOM     41  C   UNL     1       4.199  10.942   3.518  1.00  0.00     0.031 C 
ATOM     42  C   UNL     1       1.095  11.905  -0.308  1.00  0.00     0.029 A 
ATOM     43  N   UNL     1       3.030  13.022  -0.234  1.00  0.00    -0.354 N 
ATOM     44  C   UNL     1       5.747  12.574   3.083  1.00  0.00     0.074 A 
ATOM     45  C   UNL     1       5.330  11.488   3.946  1.00  0.00     0.031 C 
ATOM     46  C   UNL     1       1.171  12.651  -1.420  1.00  0.00     0.029 A 
ATOM     47  C   UNL     1       2.389  13.452  -1.369  1.00  0.00     0.049 A 
ATOM     48  H   UNL     1       3.925  13.335   0.034  1.00  0.00     0.167 HD
ATOM     49  C   UNL     1       6.883  13.296   3.246  1.00  0.00     0.037 A 
ATOM     50  C   UNL     1       2.716  14.419  -2.246  1.00  0.00     0.037 A 
ATOM     51  C   UNL     1       7.320  14.341   2.356  1.00  0.00     0.049 A 
ATOM     52  C   UNL     1       3.964  15.223  -2.029  1.00  0.00     0.074 A 
ATOM     53  C   UNL     1       8.466  15.116   2.429  1.00  0.00     0.029 A 
ATOM     54  N   UNL     1       6.636  14.747   1.220  1.00  0.00    -0.354 N 
ATOM     55  N   UNL     1       4.850  15.129  -1.070  1.00  0.00    -0.248 NA
ATOM     56  C   UNL     1       4.246  16.283  -3.008  1.00  0.00     0.031 C 
ATOM     57  C   UNL     1       8.461  16.009   1.351  1.00  0.00     0.029 A 
ATOM     58  C   UNL     1       7.331  15.767   0.588  1.00  0.00     0.049 A 
ATOM     59  H   UNL     1       5.783  14.368   0.908  1.00  0.00     0.167 HD
ATOM     60  C   UNL     1       5.801  16.104  -1.333  1.00  0.00     0.074 A 
ATOM     61  C   UNL     1       5.390  16.773  -2.550  1.00  0.00     0.031 C 
ATOM     62  C   UNL     1       6.912  16.418  -0.626  1.00  0.00     0.037 A 
BRANCH  49  63
ATOM     63  C   UNL     1       7.728  13.004   4.450  1.00  0.00     0.064 A 
ATOM     64  C   UNL     1       8.536  11.861   4.528  1.00  0.00     0.173 A 
ATOM     65  C   UNL     1       7.769  13.914   5.518  1.00  0.00     0.173 A 
ATOM     66  F   UNL     1       8.524  10.956   3.539  1.00  0.00    -0.203 F 
ATOM     67  C   UNL     1       9.341  11.630   5.641  1.00  0.00     0.198 A 
ATOM     68  C   UNL     1       8.592  13.691   6.618  1.00  0.00     0.198 A 
ATOM     69  F   UNL     1       7.019  15.026   5.489  1.00  0.00    -0.203 F 
ATOM     70  F   UNL     1      10.079  10.514   5.713  1.00  0.00    -0.200 F 
ATOM     71  C   UNL     1       9.374  12.548   6.681  1.00  0.00     0.200 A 
ATOM     72  F   UNL     1       8.630  14.584   7.618  1.00  0.00    -0.200 F 
ATOM     73  F   UNL     1      10.155  12.327   7.748  1.00  0.00    -0.200 F 
ENDBRANCH  49  63
BRANCH  50  74
ATOM     74  C   UNL     1       1.814  14.698  -3.391  1.00  0.00     0.064 A 
ATOM     75  C   UNL     1       2.181  14.345  -4.696  1.00  0.00     0.173 A 
ATOM     76  C   UNL     1       0.560  15.297  -3.200  1.00  0.00     0.173 A 
ATOM     77  F   UNL     1       3.381  13.794  -4.928  1.00  0.00    -0.203 F 
ATOM     78  C   UNL     1       1.326  14.584  -5.770  1.00  0.00     0.198 A 
ATOM     79  C   UNL     1      -0.304  15.511  -4.271  1.00  0.00     0.198 A 
ATOM     80  F   UNL     1       0.167  15.654  -1.969  1.00  0.00    -0.203 F 
ATOM     81  F   UNL     1       1.711  14.265  -7.013  1.00  0.00    -0.200 F 
ATOM     82  C   UNL     1       0.081  15.158  -5.555  1.00  0.00     0.200 A 
ATOM     83  F   UNL     1      -1.509  16.056  -4.058  1.00  0.00    -0.200 F 
ATOM     84  F   UNL     1      -0.744  15.376  -6.588  1.00  0.00    -0.200 F 
ENDBRANCH  50  74
BRANCH  62  85
ATOM     85  C   UNL     1       7.780  17.511  -1.170  1.00  0.00     0.064 A 
ATOM     86  C   UNL     1       7.421  18.860  -1.045  1.00  0.00     0.173 A 
ATOM     87  C   UNL     1       8.996  17.205  -1.799  1.00  0.00     0.173 A 
ATOM     88  F   UNL     1       6.260  19.199  -0.467  1.00  0.00    -0.203 F 
ATOM     89  C   UNL     1       8.244  19.866  -1.546  1.00  0.00     0.198 A 
ATOM     90  C   UNL     1       9.824  18.214  -2.281  1.00  0.00     0.198 A 
ATOM     91  F   UNL     1       9.381  15.928  -1.940  1.00  0.00    -0.203 F 
ATOM     92  F   UNL     1       7.866  21.148  -1.449  1.00  0.00    -0.200 F 
ATOM     93  C   UNL     1       9.446  19.543  -2.158  1.00  0.00     0.200 A 
ATOM     94  F   UNL     1      10.988  17.901  -2.867  1.00  0.00    -0.200 F 
ATOM     95  F   UNL     1      10.236  20.512  -2.639  1.00  0.00    -0.200 F 
ENDBRANCH  62  85
ENDBRANCH  36  37
ENDBRANCH  29  31
ENDBRANCH  28  29
ENDBRANCH  27  28
ENDBRANCH   1  27
TORSDOF 15
