REMARK SMILES O=C(OCCOC(=O)[C@H]1Cc2c([nH]c3ccccc23)[C@H](c2c[nH]c3ccccc23)[NH2+]1)c1ccc(-c2c3nc(c(-c4c(F)c(F)c(F)c(F)c4F)c4ccc([nH]4)c(-c4c(F)c(F)c(F)c(F)c4F)c4nc(c(-c5c(F)c(F)c(F)c(F)c5F)c5ccc2[nH]5)C=C4)C=C3)cc1
REMARK SMILES IDX 4 1 3 2 2 3 1 4 31 5 32 6 93 7 33 8 92 9 34 10 35 11 36 12
REMARK SMILES IDX 86 13 37 14 91 15 85 16 87 17 38 18 90 19 84 20 83 21 39 23
REMARK SMILES IDX 71 24 51 25 70 26 52 27 55 28 69 29 88 30 53 31 54 32 68 34
REMARK SMILES IDX 89 35 56 36 40 37 41 38 49 39 42 40 43 41 47 42 50 43 44 44
REMARK SMILES IDX 45 45 48 46 46 47 72 48 73 49 81 50 74 51 75 52 79 53 82 54
REMARK SMILES IDX 76 55 77 56 80 57 78 58 57 59 58 60 66 61 59 62 60 63 64 64
REMARK SMILES IDX 67 65 61 66 62 67 65 68 63 69 5 70 6 71 7 72 8 73 9 74 10 75
REMARK SMILES IDX 30 76 11 77 20 78 12 81 19 82 13 83 14 84 18 85 15 87 17 88
REMARK SMILES IDX 16 89 21 90 22 91 29 92 23 93 24 94 28 95 25 97 27 98 26 99
REMARK H PARENT 87 22 55 33 30 79 30 80 13 86 23 96
REMARK Flexibility Score: inf
ROOT
ATOM      1  C   UNL     1       4.018   0.550   1.498  1.00  0.00     0.275 C 
ENDROOT
BRANCH   1   2
ATOM      2  O   UNL     1       3.323   1.139   0.397  1.00  0.00    -0.458 OA
BRANCH   2   3
ATOM      3  C   UNL     1       3.475   0.911  -0.924  1.00  0.00     0.338 C 
ATOM      4  O   UNL     1       2.690   1.471  -1.690  1.00  0.00    -0.246 OA
BRANCH   3   5
ATOM      5  C   UNL     1       4.451  -0.070  -1.523  1.00  0.00     0.060 A 
ATOM      6  C   UNL     1       5.445  -0.815  -0.875  1.00  0.00     0.016 A 
ATOM      7  C   UNL     1       4.213  -0.375  -2.866  1.00  0.00     0.016 A 
ATOM      8  C   UNL     1       6.023  -1.954  -1.467  1.00  0.00     0.010 A 
ATOM      9  C   UNL     1       4.745  -1.535  -3.428  1.00  0.00     0.010 A 
ATOM     10  C   UNL     1       5.615  -2.383  -2.724  1.00  0.00    -0.014 A 
BRANCH  10  11
ATOM     11  C   UNL     1       6.100  -3.643  -3.368  1.00  0.00     0.031 A 
ATOM     12  C   UNL     1       6.647  -3.549  -4.769  1.00  0.00     0.074 A 
ATOM     13  C   UNL     1       5.978  -4.865  -2.797  1.00  0.00     0.049 A 
ATOM     14  N   UNL     1       6.920  -4.496  -5.629  1.00  0.00    -0.248 NA
ATOM     15  C   UNL     1       6.890  -2.188  -5.284  1.00  0.00     0.031 C 
ATOM     16  C   UNL     1       5.479  -5.149  -1.451  1.00  0.00     0.029 A 
ATOM     17  N   UNL     1       6.217  -6.124  -3.316  1.00  0.00    -0.354 N 
ATOM     18  C   UNL     1       7.343  -3.834  -6.771  1.00  0.00     0.074 A 
ATOM     19  C   UNL     1       7.139  -2.422  -6.559  1.00  0.00     0.031 C 
ATOM     20  C   UNL     1       5.392  -6.482  -1.275  1.00  0.00     0.029 A 
ATOM     21  C   UNL     1       5.790  -7.153  -2.503  1.00  0.00     0.049 A 
ATOM     22  H   UNL     1       6.651  -6.273  -4.187  1.00  0.00     0.167 HD
ATOM     23  C   UNL     1       7.962  -4.338  -7.861  1.00  0.00     0.037 A 
ATOM     24  C   UNL     1       5.686  -8.477  -2.739  1.00  0.00     0.037 A 
ATOM     25  C   UNL     1       8.252  -5.728  -8.039  1.00  0.00     0.049 A 
ATOM     26  C   UNL     1       6.227  -9.034  -4.029  1.00  0.00     0.074 A 
ATOM     27  C   UNL     1       9.013  -6.330  -9.021  1.00  0.00     0.029 A 
ATOM     28  N   UNL     1       7.790  -6.732  -7.205  1.00  0.00    -0.354 N 
ATOM     29  N   UNL     1       6.748  -8.396  -5.045  1.00  0.00    -0.248 NA
ATOM     30  C   UNL     1       6.211 -10.497  -4.184  1.00  0.00     0.031 C 
ATOM     31  C   UNL     1       8.968  -7.711  -8.813  1.00  0.00     0.029 A 
ATOM     32  C   UNL     1       8.214  -7.960  -7.676  1.00  0.00     0.049 A 
ATOM     33  H   UNL     1       7.242  -6.592  -6.399  1.00  0.00     0.167 HD
ATOM     34  C   UNL     1       7.204  -9.376  -5.915  1.00  0.00     0.074 A 
ATOM     35  C   UNL     1       6.857 -10.652  -5.331  1.00  0.00     0.031 C 
ATOM     36  C   UNL     1       7.885  -9.224  -7.075  1.00  0.00     0.037 A 
BRANCH  23  37
ATOM     37  C   UNL     1       8.439  -3.356  -8.885  1.00  0.00     0.064 A 
ATOM     38  C   UNL     1       9.479  -2.456  -8.598  1.00  0.00     0.173 A 
ATOM     39  C   UNL     1       7.850  -3.302 -10.154  1.00  0.00     0.173 A 
ATOM     40  F   UNL     1      10.062  -2.459  -7.388  1.00  0.00    -0.203 F 
ATOM     41  C   UNL     1       9.880  -1.506  -9.529  1.00  0.00     0.198 A 
ATOM     42  C   UNL     1       8.280  -2.372 -11.096  1.00  0.00     0.198 A 
ATOM     43  F   UNL     1       6.854  -4.141 -10.475  1.00  0.00    -0.203 F 
ATOM     44  F   UNL     1      10.823  -0.610  -9.206  1.00  0.00    -0.200 F 
ATOM     45  C   UNL     1       9.284  -1.469 -10.780  1.00  0.00     0.200 A 
ATOM     46  F   UNL     1       7.712  -2.341 -12.309  1.00  0.00    -0.200 F 
ATOM     47  F   UNL     1       9.672  -0.553 -11.678  1.00  0.00    -0.200 F 
ENDBRANCH  23  37
BRANCH  24  48
ATOM     48  C   UNL     1       5.015  -9.398  -1.778  1.00  0.00     0.064 A 
ATOM     49  C   UNL     1       5.734 -10.328  -1.014  1.00  0.00     0.173 A 
ATOM     50  C   UNL     1       3.615  -9.462  -1.728  1.00  0.00     0.173 A 
ATOM     51  F   UNL     1       7.073 -10.346  -1.074  1.00  0.00    -0.203 F 
ATOM     52  C   UNL     1       5.079 -11.306  -0.265  1.00  0.00     0.198 A 
ATOM     53  C   UNL     1       2.959 -10.424  -0.959  1.00  0.00     0.198 A 
ATOM     54  F   UNL     1       2.887  -8.623  -2.479  1.00  0.00    -0.203 F 
ATOM     55  F   UNL     1       5.791 -12.237   0.386  1.00  0.00    -0.200 F 
ATOM     56  C   UNL     1       3.692 -11.355  -0.239  1.00  0.00     0.200 A 
ATOM     57  F   UNL     1       1.620 -10.479  -0.957  1.00  0.00    -0.200 F 
ATOM     58  F   UNL     1       3.066 -12.318   0.451  1.00  0.00    -0.200 F 
ENDBRANCH  24  48
BRANCH  36  59
ATOM     59  C   UNL     1       8.376 -10.461  -7.760  1.00  0.00     0.064 A 
ATOM     60  C   UNL     1       7.507 -11.320  -8.444  1.00  0.00     0.173 A 
ATOM     61  C   UNL     1       9.751 -10.742  -7.795  1.00  0.00     0.173 A 
ATOM     62  F   UNL     1       6.183 -11.104  -8.416  1.00  0.00    -0.203 F 
ATOM     63  C   UNL     1       7.997 -12.421  -9.138  1.00  0.00     0.198 A 
ATOM     64  C   UNL     1      10.240 -11.824  -8.518  1.00  0.00     0.198 A 
ATOM     65  F   UNL     1      10.621  -9.947  -7.154  1.00  0.00    -0.203 F 
ATOM     66  F   UNL     1       7.148 -13.251  -9.758  1.00  0.00    -0.200 F 
ATOM     67  C   UNL     1       9.363 -12.664  -9.187  1.00  0.00     0.200 A 
ATOM     68  F   UNL     1      11.560 -12.045  -8.577  1.00  0.00    -0.200 F 
ATOM     69  F   UNL     1       9.834 -13.711  -9.877  1.00  0.00    -0.200 F 
ENDBRANCH  36  59
ENDBRANCH  10  11
ENDBRANCH   3   5
ENDBRANCH   2   3
ENDBRANCH   1   2
BRANCH   1  70
ATOM     70  C   UNL     1       3.527  -0.854   1.877  1.00  0.00     0.274 C 
BRANCH  70  71
ATOM     71  O   UNL     1       3.216  -1.727   0.767  1.00  0.00    -0.458 OA
BRANCH  71  72
ATOM     72  C   UNL     1       1.890  -1.896   0.477  1.00  0.00     0.365 C 
ATOM     73  O   UNL     1       0.992  -1.257   1.025  1.00  0.00    -0.245 OA
BRANCH  72  74
ATOM     74  C   UNL     1       1.599  -3.037  -0.526  1.00  0.00     0.298 C 
ATOM     75  C   UNL     1       1.766  -2.592  -1.996  1.00  0.00     0.115 C 
ATOM     76  N   UNL     1       2.359  -4.267  -0.132  1.00  0.00    -0.323 N 
ATOM     77  C   UNL     1       2.015  -3.745  -2.916  1.00  0.00    -0.006 A 
ATOM     78  C   UNL     1       2.037  -5.429  -0.975  1.00  0.00     0.264 C 
ATOM     79  H   UNL     1       2.132  -4.494   0.837  1.00  0.00     0.347 HD
ATOM     80  H   UNL     1       3.352  -4.067  -0.249  1.00  0.00     0.347 HD
ATOM     81  C   UNL     1       2.163  -5.018  -2.408  1.00  0.00     0.083 A 
ATOM     82  C   UNL     1       2.261  -3.814  -4.324  1.00  0.00     0.003 A 
ATOM     83  N   UNL     1       2.530  -5.845  -3.434  1.00  0.00    -0.353 N 
ATOM     84  C   UNL     1       2.638  -5.131  -4.605  1.00  0.00     0.046 A 
ATOM     85  C   UNL     1       2.271  -2.886  -5.388  1.00  0.00     0.010 A 
ATOM     86  H   UNL     1       2.695  -6.812  -3.347  1.00  0.00     0.166 HD
ATOM     87  C   UNL     1       3.064  -5.552  -5.872  1.00  0.00     0.026 A 
ATOM     88  C   UNL     1       2.715  -3.286  -6.658  1.00  0.00     0.001 A 
ATOM     89  C   UNL     1       3.114  -4.600  -6.891  1.00  0.00     0.002 A 
BRANCH  78  90
ATOM     90  C   UNL     1       0.701  -6.077  -0.674  1.00  0.00     0.041 A 
ATOM     91  C   UNL     1       0.235  -7.189  -1.366  1.00  0.00     0.093 A 
ATOM     92  C   UNL     1      -0.334  -5.758   0.286  1.00  0.00     0.009 A 
ATOM     93  N   UNL     1      -1.023  -7.491  -0.941  1.00  0.00    -0.361 N 
ATOM     94  C   UNL     1      -1.417  -6.602   0.025  1.00  0.00     0.046 A 
ATOM     95  C   UNL     1      -0.502  -4.808   1.322  1.00  0.00     0.011 A 
ATOM     96  H   UNL     1      -1.569  -8.238  -1.277  1.00  0.00     0.166 HD
ATOM     97  C   UNL     1      -2.653  -6.488   0.671  1.00  0.00     0.026 A 
ATOM     98  C   UNL     1      -1.740  -4.655   1.954  1.00  0.00     0.001 A 
ATOM     99  C   UNL     1      -2.805  -5.477   1.619  1.00  0.00     0.002 A 
ENDBRANCH  78  90
ENDBRANCH  72  74
ENDBRANCH  71  72
ENDBRANCH  70  71
ENDBRANCH   1  70
TORSDOF 12
