REMARK SMILES Cc1c(C(=O)Nc2ccc(C(=O)Nc3ccccc3C(=O)OCCOC(=O)c3ccc(-c4c5nc(c(-c6c(F)c(F)c(F)c(F)c6F)c6ccc([nH]6)c(-c6c(F)c(F)c(F)c(F)c6F)c6nc(c(-c7c(F)c(F)c(F)c(F)c7F)c7ccc4[nH]7)C=C6)C=C5)cc3)cc2)cccc1[N+](=O)[O-]
REMARK SMILES IDX 22 1 20 2 21 3 19 4 14 5 15 6 16 7 18 8 17 9 13 10 11 11
REMARK SMILES IDX 12 12 10 14 7 15 8 16 92 17 9 18 91 19 6 20 4 21 5 22 3 24
REMARK SMILES IDX 1 25 2 26 96 27 93 28 95 29 94 30 97 31 98 32 99 33 23 34
REMARK SMILES IDX 24 35 25 36 26 37 27 38 28 39 29 40 90 41 30 42 89 43 31 44
REMARK SMILES IDX 32 45 33 46 83 47 34 48 88 49 82 50 84 51 35 52 87 53 81 54
REMARK SMILES IDX 80 55 36 57 68 58 48 59 67 60 49 61 52 62 66 63 85 64 50 65
REMARK SMILES IDX 51 66 65 68 86 69 53 70 37 71 38 72 46 73 39 74 40 75 44 76
REMARK SMILES IDX 47 77 41 78 42 79 45 80 43 81 69 82 70 83 78 84 71 85 72 86
REMARK SMILES IDX 76 87 79 88 73 89 74 90 77 91 75 92 54 93 55 94 63 95 56 96
REMARK SMILES IDX 57 97 61 98 64 99 58 100 59 101 62 102 60 103
REMARK H PARENT 13 13 6 23 84 56 52 67
REMARK Flexibility Score: inf
ROOT
ATOM      1  O   UNL     1       4.202  -0.006   2.260  1.00  0.00    -0.458 OA
ENDROOT
BRANCH   1   2
ATOM      2  C   UNL     1       3.466   0.615   3.225  1.00  0.00     0.340 C 
ATOM      3  O   UNL     1       3.196   0.046   4.283  1.00  0.00    -0.246 OA
BRANCH   2   4
ATOM      4  C   UNL     1       2.864   1.983   2.959  1.00  0.00     0.083 A 
ATOM      5  C   UNL     1       3.158   2.995   2.012  1.00  0.00     0.056 A 
ATOM      6  C   UNL     1       2.460   4.230   2.101  1.00  0.00     0.027 A 
ATOM      7  C   UNL     1       1.422   4.448   3.003  1.00  0.00     0.002 A 
ATOM      8  C   UNL     1       1.800   2.251   3.870  1.00  0.00     0.018 A 
ATOM      9  C   UNL     1       1.078   3.445   3.882  1.00  0.00     0.001 A 
BRANCH   5  10
ATOM     10  N   UNL     1       4.017   3.011   0.892  1.00  0.00    -0.321 N 
ATOM     11  C   UNL     1       4.230   2.185  -0.187  1.00  0.00     0.255 C 
ATOM     12  O   UNL     1       4.988   2.596  -1.069  1.00  0.00    -0.269 OA
ATOM     13  H   UNL     1       4.604   3.801   0.881  1.00  0.00     0.170 HD
BRANCH  11  14
ATOM     14  C   UNL     1       3.602   0.869  -0.367  1.00  0.00     0.040 A 
ATOM     15  C   UNL     1       2.464  -1.646  -0.684  1.00  0.00     0.041 A 
ATOM     16  C   UNL     1       1.976  -0.774   0.276  1.00  0.00     0.027 A 
ATOM     17  C   UNL     1       3.637  -1.343  -1.373  1.00  0.00     0.027 A 
ATOM     18  C   UNL     1       2.437   0.525   0.299  1.00  0.00     0.016 A 
ATOM     19  C   UNL     1       4.207  -0.074  -1.210  1.00  0.00     0.016 A 
BRANCH  15  20
ATOM     20  N   UNL     1       1.667  -2.712  -1.112  1.00  0.00    -0.322 N 
ATOM     21  C   UNL     1       0.277  -2.732  -1.180  1.00  0.00     0.256 C 
ATOM     22  O   UNL     1      -0.308  -3.784  -1.425  1.00  0.00    -0.269 OA
ATOM     23  H   UNL     1       2.136  -3.530  -1.394  1.00  0.00     0.170 HD
BRANCH  21  24
ATOM     24  C   UNL     1      -0.542  -1.486  -0.933  1.00  0.00     0.049 A 
ATOM     25  C   UNL     1       0.594  -0.067  -2.725  1.00  0.00     0.053 C 
ATOM     26  C   UNL     1      -0.285  -0.209  -1.509  1.00  0.00     0.039 A 
ATOM     27  C   UNL     1      -0.866   0.920  -0.874  1.00  0.00     0.273 A 
ATOM     28  C   UNL     1      -1.537  -1.624   0.051  1.00  0.00     0.014 A 
ATOM     29  C   UNL     1      -1.846   0.763   0.122  1.00  0.00     0.086 A 
ATOM     30  C   UNL     1      -2.216  -0.510   0.543  1.00  0.00     0.008 A 
BRANCH  27  31
ATOM     31  N   UNL     1      -0.382   2.300  -1.109  1.00  0.00     0.063 N 
ATOM     32  O   UNL     1      -1.137   3.231  -0.795  1.00  0.00    -0.258 OA
ATOM     33  O   UNL     1       0.774   2.457  -1.521  1.00  0.00    -0.258 OA
ENDBRANCH  27  31
ENDBRANCH  21  24
ENDBRANCH  15  20
ENDBRANCH  11  14
ENDBRANCH   5  10
ENDBRANCH   2   4
ENDBRANCH   1   2
BRANCH   1  34
ATOM     34  C   UNL     1       4.436  -1.397   2.568  1.00  0.00     0.275 C 
BRANCH  34  35
ATOM     35  C   UNL     1       5.242  -2.277   1.577  1.00  0.00     0.275 C 
BRANCH  35  36
ATOM     36  O   UNL     1       5.976  -1.746   0.441  1.00  0.00    -0.458 OA
BRANCH  36  37
ATOM     37  C   UNL     1       6.930  -0.791   0.393  1.00  0.00     0.338 C 
ATOM     38  O   UNL     1       7.547  -0.485  -0.618  1.00  0.00    -0.246 OA
BRANCH  37  39
ATOM     39  C   UNL     1       7.100  -0.052   1.625  1.00  0.00     0.060 A 
ATOM     40  C   UNL     1       6.747   1.305   1.645  1.00  0.00     0.016 A 
ATOM     41  C   UNL     1       7.416  -0.776   2.768  1.00  0.00     0.016 A 
ATOM     42  C   UNL     1       6.582   1.941   2.858  1.00  0.00     0.010 A 
ATOM     43  C   UNL     1       7.179  -0.182   3.974  1.00  0.00     0.010 A 
ATOM     44  C   UNL     1       6.838   1.190   4.001  1.00  0.00    -0.014 A 
BRANCH  44  45
ATOM     45  C   UNL     1       7.389   1.829   5.178  1.00  0.00     0.031 A 
ATOM     46  C   UNL     1       6.643   1.877   6.433  1.00  0.00     0.074 A 
ATOM     47  C   UNL     1       8.731   1.828   5.007  1.00  0.00     0.049 A 
ATOM     48  N   UNL     1       7.088   2.407   7.514  1.00  0.00    -0.248 NA
ATOM     49  C   UNL     1       5.284   1.366   6.578  1.00  0.00     0.031 C 
ATOM     50  C   UNL     1       9.816   1.587   5.934  1.00  0.00     0.029 A 
ATOM     51  N   UNL     1       9.386   2.020   3.772  1.00  0.00    -0.354 N 
ATOM     52  C   UNL     1       6.297   1.929   8.540  1.00  0.00     0.074 A 
ATOM     53  C   UNL     1       5.097   1.459   7.899  1.00  0.00     0.031 C 
ATOM     54  C   UNL     1      10.970   1.948   5.333  1.00  0.00     0.029 A 
ATOM     55  C   UNL     1      10.617   2.594   4.069  1.00  0.00     0.049 A 
ATOM     56  H   UNL     1       9.041   1.792   2.879  1.00  0.00     0.167 HD
ATOM     57  C   UNL     1       6.872   1.770   9.769  1.00  0.00     0.037 A 
ATOM     58  C   UNL     1      10.739   3.930   3.804  1.00  0.00     0.037 A 
ATOM     59  C   UNL     1       8.266   2.227   9.709  1.00  0.00     0.049 A 
ATOM     60  C   UNL     1      10.842   4.701   5.094  1.00  0.00     0.074 A 
ATOM     61  C   UNL     1       9.454   1.533   9.539  1.00  0.00     0.029 A 
ATOM     62  N   UNL     1       8.540   3.555   9.390  1.00  0.00    -0.354 N 
ATOM     63  N   UNL     1      10.215   4.389   6.198  1.00  0.00    -0.248 NA
ATOM     64  C   UNL     1      11.762   5.817   5.250  1.00  0.00     0.031 C 
ATOM     65  C   UNL     1      10.428   2.444   9.050  1.00  0.00     0.029 A 
ATOM     66  C   UNL     1       9.830   3.686   8.909  1.00  0.00     0.049 A 
ATOM     67  H   UNL     1       7.902   4.298   9.492  1.00  0.00     0.167 HD
ATOM     68  C   UNL     1      10.707   5.157   7.217  1.00  0.00     0.074 A 
ATOM     69  C   UNL     1      11.651   6.053   6.567  1.00  0.00     0.031 C 
ATOM     70  C   UNL     1      10.352   4.989   8.526  1.00  0.00     0.037 A 
BRANCH  57  71
ATOM     71  C   UNL     1       6.329   0.890  10.882  1.00  0.00     0.064 A 
ATOM     72  C   UNL     1       7.206   0.319  11.835  1.00  0.00     0.173 A 
ATOM     73  C   UNL     1       4.976   0.540  11.058  1.00  0.00     0.173 A 
ATOM     74  F   UNL     1       8.508   0.629  11.866  1.00  0.00    -0.203 F 
ATOM     75  C   UNL     1       6.783  -0.593  12.807  1.00  0.00     0.198 A 
ATOM     76  C   UNL     1       4.556  -0.401  12.010  1.00  0.00     0.198 A 
ATOM     77  F   UNL     1       4.003   1.134  10.360  1.00  0.00    -0.203 F 
ATOM     78  F   UNL     1       7.673  -1.105  13.669  1.00  0.00    -0.200 F 
ATOM     79  C   UNL     1       5.461  -0.974  12.879  1.00  0.00     0.200 A 
ATOM     80  F   UNL     1       3.261  -0.740  12.083  1.00  0.00    -0.200 F 
ATOM     81  F   UNL     1       5.058  -1.862  13.797  1.00  0.00    -0.200 F 
ENDBRANCH  57  71
BRANCH  58  82
ATOM     82  C   UNL     1       9.981   4.372   2.583  1.00  0.00     0.064 A 
ATOM     83  C   UNL     1      10.314   3.799   1.335  1.00  0.00     0.173 A 
ATOM     84  C   UNL     1       8.762   5.064   2.650  1.00  0.00     0.173 A 
ATOM     85  F   UNL     1      11.457   3.106   1.203  1.00  0.00    -0.203 F 
ATOM     86  C   UNL     1       9.447   3.849   0.241  1.00  0.00     0.198 A 
ATOM     87  C   UNL     1       7.895   5.116   1.549  1.00  0.00     0.198 A 
ATOM     88  F   UNL     1       8.356   5.616   3.801  1.00  0.00    -0.203 F 
ATOM     89  F   UNL     1       9.768   3.220  -0.899  1.00  0.00    -0.200 F 
ATOM     90  C   UNL     1       8.229   4.495   0.355  1.00  0.00     0.200 A 
ATOM     91  F   UNL     1       6.692   5.697   1.671  1.00  0.00    -0.200 F 
ATOM     92  F   UNL     1       7.363   4.493  -0.667  1.00  0.00    -0.200 F 
ENDBRANCH  58  82
BRANCH  70  93
ATOM     93  C   UNL     1      10.558   6.014   9.612  1.00  0.00     0.064 A 
ATOM     94  C   UNL     1      10.670   7.390   9.360  1.00  0.00     0.173 A 
ATOM     95  C   UNL     1      10.459   5.649  10.977  1.00  0.00     0.173 A 
ATOM     96  F   UNL     1      10.631   7.883   8.115  1.00  0.00    -0.203 F 
ATOM     97  C   UNL     1      10.755   8.323  10.393  1.00  0.00     0.198 A 
ATOM     98  C   UNL     1      10.459   6.591  12.001  1.00  0.00     0.198 A 
ATOM     99  F   UNL     1      10.316   4.372  11.363  1.00  0.00    -0.203 F 
ATOM    100  F   UNL     1      10.921   9.619  10.097  1.00  0.00    -0.200 F 
ATOM    101  C   UNL     1      10.631   7.926  11.710  1.00  0.00     0.200 A 
ATOM    102  F   UNL     1      10.264   6.195  13.267  1.00  0.00    -0.200 F 
ATOM    103  F   UNL     1      10.651   8.833  12.694  1.00  0.00    -0.200 F 
ENDBRANCH  70  93
ENDBRANCH  44  45
ENDBRANCH  37  39
ENDBRANCH  36  37
ENDBRANCH  35  36
ENDBRANCH  34  35
ENDBRANCH   1  34
TORSDOF 16
