REMARK SMILES CCC(C)(C)[C@@H]1CCc2c(sc(=O)n2CCCC(=O)OCCOC(=O)c2ccc(-c3c4nc(c(-c5c(F)c(F)c(F)c(F)c5F)c5ccc([nH]5)c(-c5c(F)c(F)c(F)c(F)c5F)c5nc(c(-c6c(F)c(F)c(F)c(F)c6F)c6ccc3[nH]6)C=C5)C=C4)cc2)C1
REMARK SMILES IDX 20 1 18 2 19 3 17 4 16 5 15 6 14 7 6 8 7 9 89 10 8 11 10 12
REMARK SMILES IDX 9 13 11 14 12 15 13 16 3 17 4 18 5 19 2 20 1 21 21 22 22 23
REMARK SMILES IDX 23 24 24 25 25 26 26 27 27 28 88 29 28 30 87 31 29 32 30 33
REMARK SMILES IDX 31 34 81 35 32 36 86 37 80 38 82 39 33 40 85 41 79 42 78 43
REMARK SMILES IDX 34 45 66 46 46 47 65 48 47 49 50 50 64 51 83 52 48 53 49 54
REMARK SMILES IDX 63 56 84 57 51 58 35 59 36 60 44 61 37 62 38 63 42 64 45 65
REMARK SMILES IDX 39 66 40 67 43 68 41 69 67 70 68 71 76 72 69 73 70 74 74 75
REMARK SMILES IDX 77 76 71 77 72 78 75 79 73 80 52 81 53 82 61 83 54 84 55 85
REMARK SMILES IDX 59 86 62 87 56 88 57 89 60 90 58 91
REMARK H PARENT 82 44 50 55
REMARK Flexibility Score: inf
ROOT
ATOM      1  O   UNL     1       1.246   0.837  -7.838  1.00  0.00    -0.462 OA
ENDROOT
BRANCH   1   2
ATOM      2  C   UNL     1       2.403   0.560  -8.481  1.00  0.00     0.305 C 
ATOM      3  O   UNL     1       2.485  -0.082  -9.522  1.00  0.00    -0.252 OA
BRANCH   2   4
ATOM      4  C   UNL     1       3.620   1.121  -7.766  1.00  0.00     0.124 C 
BRANCH   4   5
ATOM      5  C   UNL     1       3.466   2.387  -6.915  1.00  0.00     0.034 C 
BRANCH   5   6
ATOM      6  C   UNL     1       2.418   2.385  -5.800  1.00  0.00     0.127 C 
BRANCH   6   7
ATOM      7  N   UNL     1       2.737   1.466  -4.719  1.00  0.00    -0.303 N 
ATOM      8  C   UNL     1       2.597   2.306  -0.658  1.00  0.00     0.000 C 
ATOM      9  C   UNL     1       3.195   3.478  -1.490  1.00  0.00     0.011 C 
ATOM     10  C   UNL     1       3.355   1.036  -1.119  1.00  0.00     0.053 C 
ATOM     11  C   UNL     1       3.019   3.321  -3.006  1.00  0.00     0.055 C 
ATOM     12  C   UNL     1       3.277   0.870  -2.591  1.00  0.00     0.030 A 
ATOM     13  C   UNL     1       3.077   1.885  -3.444  1.00  0.00     0.035 A 
ATOM     14  S   UNL     1       3.118  -0.676  -3.343  1.00  0.00    -0.079 S 
ATOM     15  C   UNL     1       2.591   0.080  -4.851  1.00  0.00     0.307 A 
ATOM     16  O   UNL     1       2.177  -0.572  -5.782  1.00  0.00    -0.257 OA
BRANCH   8  17
ATOM     17  C   UNL     1       1.003   2.228  -0.604  1.00  0.00    -0.032 C 
ATOM     18  C   UNL     1       0.282   1.776  -1.894  1.00  0.00     0.011 C 
ATOM     19  C   UNL     1       0.453   3.647  -0.289  1.00  0.00     0.011 C 
BRANCH  17  20
ATOM     20  C   UNL     1       0.504   1.319   0.571  1.00  0.00     0.003 C 
ATOM     21  C   UNL     1       0.757  -0.182   0.486  1.00  0.00     0.004 C 
ENDBRANCH  17  20
ENDBRANCH   8  17
ENDBRANCH   6   7
ENDBRANCH   5   6
ENDBRANCH   4   5
ENDBRANCH   2   4
ENDBRANCH   1   2
BRANCH   1  22
ATOM     22  C   UNL     1       0.009   0.418  -8.427  1.00  0.00     0.274 C 
BRANCH  22  23
ATOM     23  C   UNL     1      -0.593   1.570  -9.209  1.00  0.00     0.275 C 
BRANCH  23  24
ATOM     24  O   UNL     1       0.218   1.893 -10.338  1.00  0.00    -0.458 OA
BRANCH  24  25
ATOM     25  C   UNL     1       1.134   2.860 -10.116  1.00  0.00     0.338 C 
ATOM     26  O   UNL     1       1.486   3.322  -9.044  1.00  0.00    -0.246 OA
BRANCH  25  27
ATOM     27  C   UNL     1       1.492   3.487 -11.385  1.00  0.00     0.060 A 
ATOM     28  C   UNL     1       2.555   4.392 -11.387  1.00  0.00     0.016 A 
ATOM     29  C   UNL     1       0.587   3.399 -12.451  1.00  0.00     0.016 A 
ATOM     30  C   UNL     1       2.610   5.327 -12.399  1.00  0.00     0.010 A 
ATOM     31  C   UNL     1       0.633   4.341 -13.448  1.00  0.00     0.010 A 
ATOM     32  C   UNL     1       1.604   5.334 -13.379  1.00  0.00    -0.014 A 
BRANCH  32  33
ATOM     33  C   UNL     1       1.738   6.252 -14.492  1.00  0.00     0.031 A 
ATOM     34  C   UNL     1       2.904   5.881 -15.319  1.00  0.00     0.074 A 
ATOM     35  C   UNL     1       0.865   7.236 -14.784  1.00  0.00     0.049 A 
ATOM     36  N   UNL     1       4.038   6.494 -15.341  1.00  0.00    -0.248 NA
ATOM     37  C   UNL     1       2.920   4.574 -15.998  1.00  0.00     0.031 C 
ATOM     38  C   UNL     1      -0.431   7.498 -14.156  1.00  0.00     0.029 A 
ATOM     39  N   UNL     1       0.919   8.177 -15.774  1.00  0.00    -0.354 N 
ATOM     40  C   UNL     1       4.813   5.801 -16.262  1.00  0.00     0.074 A 
ATOM     41  C   UNL     1       4.178   4.526 -16.443  1.00  0.00     0.031 C 
ATOM     42  C   UNL     1      -1.134   8.367 -14.920  1.00  0.00     0.029 A 
ATOM     43  C   UNL     1      -0.290   8.830 -16.010  1.00  0.00     0.049 A 
ATOM     44  H   UNL     1       1.741   8.377 -16.276  1.00  0.00     0.167 HD
ATOM     45  C   UNL     1       5.658   6.509 -17.058  1.00  0.00     0.037 A 
ATOM     46  C   UNL     1      -0.569   9.663 -17.046  1.00  0.00     0.037 A 
ATOM     47  C   UNL     1       5.874   7.824 -16.497  1.00  0.00     0.049 A 
ATOM     48  C   UNL     1       0.724  10.195 -17.533  1.00  0.00     0.074 A 
ATOM     49  C   UNL     1       6.509   8.359 -15.397  1.00  0.00     0.029 A 
ATOM     50  N   UNL     1       4.941   8.736 -16.909  1.00  0.00    -0.354 N 
ATOM     51  N   UNL     1       1.455  11.029 -16.848  1.00  0.00    -0.248 NA
ATOM     52  C   UNL     1       1.405   9.522 -18.632  1.00  0.00     0.031 C 
ATOM     53  C   UNL     1       5.817   9.571 -15.088  1.00  0.00     0.029 A 
ATOM     54  C   UNL     1       4.823   9.781 -16.041  1.00  0.00     0.049 A 
ATOM     55  H   UNL     1       4.416   8.648 -17.737  1.00  0.00     0.167 HD
ATOM     56  C   UNL     1       2.750  10.631 -17.112  1.00  0.00     0.074 A 
ATOM     57  C   UNL     1       2.666   9.851 -18.343  1.00  0.00     0.031 C 
ATOM     58  C   UNL     1       3.692  10.676 -16.125  1.00  0.00     0.037 A 
BRANCH  45  59
ATOM     59  C   UNL     1       5.764   6.296 -18.562  1.00  0.00     0.064 A 
ATOM     60  C   UNL     1       6.653   7.117 -19.288  1.00  0.00     0.173 A 
ATOM     61  C   UNL     1       4.813   5.604 -19.346  1.00  0.00     0.173 A 
ATOM     62  F   UNL     1       7.583   7.846 -18.651  1.00  0.00    -0.203 F 
ATOM     63  C   UNL     1       6.539   7.294 -20.671  1.00  0.00     0.198 A 
ATOM     64  C   UNL     1       4.733   5.747 -20.730  1.00  0.00     0.198 A 
ATOM     65  F   UNL     1       3.844   4.853 -18.814  1.00  0.00    -0.203 F 
ATOM     66  F   UNL     1       7.321   8.186 -21.295  1.00  0.00    -0.200 F 
ATOM     67  C   UNL     1       5.574   6.615 -21.389  1.00  0.00     0.200 A 
ATOM     68  F   UNL     1       3.767   5.103 -21.401  1.00  0.00    -0.200 F 
ATOM     69  F   UNL     1       5.419   6.830 -22.701  1.00  0.00    -0.200 F 
ENDBRANCH  45  59
BRANCH  46  70
ATOM     70  C   UNL     1      -1.824   9.863 -17.816  1.00  0.00     0.064 A 
ATOM     71  C   UNL     1      -1.946  10.922 -18.737  1.00  0.00     0.173 A 
ATOM     72  C   UNL     1      -2.793   8.848 -17.908  1.00  0.00     0.173 A 
ATOM     73  F   UNL     1      -1.052  11.921 -18.744  1.00  0.00    -0.203 F 
ATOM     74  C   UNL     1      -2.936  10.930 -19.727  1.00  0.00     0.198 A 
ATOM     75  C   UNL     1      -3.783   8.859 -18.894  1.00  0.00     0.198 A 
ATOM     76  F   UNL     1      -2.737   7.772 -17.111  1.00  0.00    -0.203 F 
ATOM     77  F   UNL     1      -2.965  11.914 -20.637  1.00  0.00    -0.200 F 
ATOM     78  C   UNL     1      -3.842   9.888 -19.816  1.00  0.00     0.200 A 
ATOM     79  F   UNL     1      -4.635   7.828 -18.991  1.00  0.00    -0.200 F 
ATOM     80  F   UNL     1      -4.739   9.852 -20.812  1.00  0.00    -0.200 F 
ENDBRANCH  46  70
BRANCH  58  81
ATOM     81  C   UNL     1       3.461  11.638 -15.002  1.00  0.00     0.064 A 
ATOM     82  C   UNL     1       2.396  11.571 -14.088  1.00  0.00     0.173 A 
ATOM     83  C   UNL     1       4.406  12.657 -14.822  1.00  0.00     0.173 A 
ATOM     84  F   UNL     1       1.500  10.576 -14.140  1.00  0.00    -0.203 F 
ATOM     85  C   UNL     1       2.260  12.520 -13.076  1.00  0.00     0.198 A 
ATOM     86  C   UNL     1       4.291  13.576 -13.787  1.00  0.00     0.198 A 
ATOM     87  F   UNL     1       5.465  12.743 -15.643  1.00  0.00    -0.203 F 
ATOM     88  F   UNL     1       1.218  12.459 -12.233  1.00  0.00    -0.200 F 
ATOM     89  C   UNL     1       3.209  13.518 -12.924  1.00  0.00     0.200 A 
ATOM     90  F   UNL     1       5.237  14.510 -13.620  1.00  0.00    -0.200 F 
ATOM     91  F   UNL     1       3.094  14.415 -11.935  1.00  0.00    -0.200 F 
ENDBRANCH  58  81
ENDBRANCH  32  33
ENDBRANCH  25  27
ENDBRANCH  24  25
ENDBRANCH  23  24
ENDBRANCH  22  23
ENDBRANCH   1  22
TORSDOF 16
