REMARK SMILES CCCC[C@@H](C(=O)OCCOC(=O)c1ccc(-c2c3nc(c(-c4c(F)c(F)c(F)c(F)c4F)c4ccc([nH]4)c(-c4c(F)c(F)c(F)c(F)c4F)c4nc(c(-c5c(F)c(F)c(F)c(F)c5F)c5ccc2[nH]5)C=C4)C=C3)cc1)[C@@H](O)C1CC1
REMARK SMILES IDX 9 1 8 2 6 3 7 4 5 5 4 6 3 7 2 8 1 9 77 10 78 11 79 13 80 14
REMARK SMILES IDX 81 15 10 16 11 17 12 18 13 19 14 20 15 21 76 22 16 23 75 24
REMARK SMILES IDX 17 25 18 26 19 27 69 28 20 29 74 30 68 31 70 32 21 33 73 34
REMARK SMILES IDX 67 35 66 36 22 38 54 39 34 40 53 41 35 42 38 43 52 44 71 45
REMARK SMILES IDX 36 46 37 47 51 49 72 50 39 51 23 52 24 53 32 54 25 55 26 56
REMARK SMILES IDX 30 57 33 58 27 59 28 60 31 61 29 62 55 63 56 64 64 65 57 66
REMARK SMILES IDX 58 67 62 68 65 69 59 70 60 71 63 72 61 73 40 74 41 75 49 76
REMARK SMILES IDX 42 77 43 78 47 79 50 80 44 81 45 82 48 83 46 84
REMARK H PARENT 78 12 70 37 38 48
REMARK Flexibility Score: inf
ROOT
ATOM      1  C   UNL     1      -1.713   4.116   3.081  1.00  0.00     0.274 C 
ENDROOT
BRANCH   1   2
ATOM      2  O   UNL     1      -1.150   3.333   2.007  1.00  0.00    -0.462 OA
BRANCH   2   3
ATOM      3  C   UNL     1      -1.952   3.060   0.944  1.00  0.00     0.311 C 
ATOM      4  O   UNL     1      -3.123   3.413   0.894  1.00  0.00    -0.252 OA
BRANCH   3   5
ATOM      5  C   UNL     1      -1.242   2.223  -0.132  1.00  0.00     0.128 C 
BRANCH   5   6
ATOM      6  C   UNL     1       0.304   2.453  -0.116  1.00  0.00     0.018 C 
BRANCH   6   7
ATOM      7  C   UNL     1       1.117   1.811   1.019  1.00  0.00     0.001 C 
BRANCH   7   8
ATOM      8  C   UNL     1       0.833   0.336   1.293  1.00  0.00    -0.003 C 
ATOM      9  C   UNL     1       1.075  -0.558   0.087  1.00  0.00     0.004 C 
ENDBRANCH   7   8
ENDBRANCH   6   7
ENDBRANCH   5   6
BRANCH   5  10
ATOM     10  C   UNL     1      -1.744   2.528  -1.576  1.00  0.00     0.131 C 
BRANCH  10  11
ATOM     11  O   UNL     1      -1.036   1.666  -2.479  1.00  0.00    -0.392 OA
ATOM     12  H   UNL     1      -1.262   0.743  -2.288  1.00  0.00     0.210 HD
ENDBRANCH  10  11
BRANCH  10  13
ATOM     13  C   UNL     1      -3.230   2.385  -1.846  1.00  0.00     0.019 C 
ATOM     14  C   UNL     1      -3.773   2.763  -3.209  1.00  0.00     0.006 C 
ATOM     15  C   UNL     1      -3.831   1.334  -2.751  1.00  0.00     0.006 C 
ENDBRANCH  10  13
ENDBRANCH   5  10
ENDBRANCH   3   5
ENDBRANCH   2   3
ENDBRANCH   1   2
BRANCH   1  16
ATOM     16  C   UNL     1      -1.256   5.568   2.967  1.00  0.00     0.275 C 
BRANCH  16  17
ATOM     17  O   UNL     1      -1.815   6.133   1.770  1.00  0.00    -0.458 OA
BRANCH  17  18
ATOM     18  C   UNL     1      -0.977   6.844   0.987  1.00  0.00     0.338 C 
ATOM     19  O   UNL     1       0.186   7.150   1.213  1.00  0.00    -0.246 OA
BRANCH  18  20
ATOM     20  C   UNL     1      -1.687   7.199  -0.251  1.00  0.00     0.060 A 
ATOM     21  C   UNL     1      -2.235   6.186  -1.035  1.00  0.00     0.016 A 
ATOM     22  C   UNL     1      -1.763   8.524  -0.670  1.00  0.00     0.016 A 
ATOM     23  C   UNL     1      -2.825   6.478  -2.260  1.00  0.00     0.010 A 
ATOM     24  C   UNL     1      -2.428   8.829  -1.863  1.00  0.00     0.010 A 
ATOM     25  C   UNL     1      -2.954   7.807  -2.676  1.00  0.00    -0.014 A 
BRANCH  25  26
ATOM     26  C   UNL     1      -3.627   8.127  -3.961  1.00  0.00     0.031 A 
ATOM     27  C   UNL     1      -2.855   8.785  -5.068  1.00  0.00     0.074 A 
ATOM     28  C   UNL     1      -4.926   7.821  -4.144  1.00  0.00     0.049 A 
ATOM     29  N   UNL     1      -3.293   9.327  -6.175  1.00  0.00    -0.248 NA
ATOM     30  C   UNL     1      -1.393   8.838  -4.908  1.00  0.00     0.031 C 
ATOM     31  C   UNL     1      -5.774   7.110  -3.187  1.00  0.00     0.029 A 
ATOM     32  N   UNL     1      -5.763   8.073  -5.204  1.00  0.00    -0.354 N 
ATOM     33  C   UNL     1      -2.171   9.825  -6.821  1.00  0.00     0.074 A 
ATOM     34  C   UNL     1      -1.028   9.514  -5.988  1.00  0.00     0.031 C 
ATOM     35  C   UNL     1      -7.003   6.968  -3.708  1.00  0.00     0.029 A 
ATOM     36  C   UNL     1      -7.054   7.655  -4.994  1.00  0.00     0.049 A 
ATOM     37  H   UNL     1      -5.466   8.512  -6.034  1.00  0.00     0.167 HD
ATOM     38  C   UNL     1      -2.105  10.490  -7.999  1.00  0.00     0.037 A 
ATOM     39  C   UNL     1      -8.168   7.851  -5.725  1.00  0.00     0.037 A 
ATOM     40  C   UNL     1      -3.239  10.767  -8.840  1.00  0.00     0.049 A 
ATOM     41  C   UNL     1      -8.084   8.668  -6.985  1.00  0.00     0.074 A 
ATOM     42  C   UNL     1      -3.274  11.433 -10.053  1.00  0.00     0.029 A 
ATOM     43  N   UNL     1      -4.541  10.383  -8.557  1.00  0.00    -0.354 N 
ATOM     44  N   UNL     1      -7.032   9.200  -7.556  1.00  0.00    -0.248 NA
ATOM     45  C   UNL     1      -9.349   8.942  -7.682  1.00  0.00     0.031 C 
ATOM     46  C   UNL     1      -4.603  11.483 -10.487  1.00  0.00     0.029 A 
ATOM     47  C   UNL     1      -5.391  10.819  -9.561  1.00  0.00     0.049 A 
ATOM     48  H   UNL     1      -4.820   9.876  -7.761  1.00  0.00     0.167 HD
ATOM     49  C   UNL     1      -7.504   9.870  -8.675  1.00  0.00     0.074 A 
ATOM     50  C   UNL     1      -8.936   9.659  -8.718  1.00  0.00     0.031 C 
ATOM     51  C   UNL     1      -6.814  10.605  -9.581  1.00  0.00     0.037 A 
BRANCH  38  52
ATOM     52  C   UNL     1      -0.766  11.007  -8.427  1.00  0.00     0.064 A 
ATOM     53  C   UNL     1       0.218  10.164  -8.959  1.00  0.00     0.173 A 
ATOM     54  C   UNL     1      -0.481  12.378  -8.336  1.00  0.00     0.173 A 
ATOM     55  F   UNL     1      -0.002   8.844  -9.050  1.00  0.00    -0.203 F 
ATOM     56  C   UNL     1       1.448  10.672  -9.369  1.00  0.00     0.198 A 
ATOM     57  C   UNL     1       0.741  12.886  -8.766  1.00  0.00     0.198 A 
ATOM     58  F   UNL     1      -1.393  13.226  -7.835  1.00  0.00    -0.203 F 
ATOM     59  F   UNL     1       2.389   9.845  -9.844  1.00  0.00    -0.200 F 
ATOM     60  C   UNL     1       1.706  12.033  -9.278  1.00  0.00     0.200 A 
ATOM     61  F   UNL     1       0.985  14.202  -8.684  1.00  0.00    -0.200 F 
ATOM     62  F   UNL     1       2.888  12.521  -9.679  1.00  0.00    -0.200 F 
ENDBRANCH  38  52
BRANCH  39  63
ATOM     63  C   UNL     1      -9.472   7.327  -5.244  1.00  0.00     0.064 A 
ATOM     64  C   UNL     1     -10.127   6.290  -5.921  1.00  0.00     0.173 A 
ATOM     65  C   UNL     1     -10.092   7.855  -4.101  1.00  0.00     0.173 A 
ATOM     66  F   UNL     1      -9.589   5.774  -7.036  1.00  0.00    -0.203 F 
ATOM     67  C   UNL     1     -11.354   5.803  -5.475  1.00  0.00     0.198 A 
ATOM     68  C   UNL     1     -11.305   7.349  -3.641  1.00  0.00     0.198 A 
ATOM     69  F   UNL     1      -9.510   8.855  -3.423  1.00  0.00    -0.203 F 
ATOM     70  F   UNL     1     -11.979   4.837  -6.162  1.00  0.00    -0.200 F 
ATOM     71  C   UNL     1     -11.938   6.328  -4.331  1.00  0.00     0.200 A 
ATOM     72  F   UNL     1     -11.859   7.853  -2.530  1.00  0.00    -0.200 F 
ATOM     73  F   UNL     1     -13.115   5.855  -3.900  1.00  0.00    -0.200 F 
ENDBRANCH  39  63
BRANCH  51  74
ATOM     74  C   UNL     1      -7.599  11.233 -10.692  1.00  0.00     0.064 A 
ATOM     75  C   UNL     1      -8.379  12.377 -10.473  1.00  0.00     0.173 A 
ATOM     76  C   UNL     1      -7.535  10.714 -11.993  1.00  0.00     0.173 A 
ATOM     77  F   UNL     1      -8.484  12.896  -9.241  1.00  0.00    -0.203 F 
ATOM     78  C   UNL     1      -9.079  12.973 -11.518  1.00  0.00     0.198 A 
ATOM     79  C   UNL     1      -8.219  11.326 -13.039  1.00  0.00     0.198 A 
ATOM     80  F   UNL     1      -6.798   9.623 -12.251  1.00  0.00    -0.203 F 
ATOM     81  F   UNL     1      -9.846  14.047 -11.282  1.00  0.00    -0.200 F 
ATOM     82  C   UNL     1      -8.993  12.452 -12.801  1.00  0.00     0.200 A 
ATOM     83  F   UNL     1      -8.129  10.826 -14.280  1.00  0.00    -0.200 F 
ATOM     84  F   UNL     1      -9.662  13.031 -13.807  1.00  0.00    -0.200 F 
ENDBRANCH  51  74
ENDBRANCH  25  26
ENDBRANCH  18  20
ENDBRANCH  17  18
ENDBRANCH  16  17
ENDBRANCH   1  16
TORSDOF 17
