REMARK SMILES C[C@@H](c1cccc(O)c1)[N@H+]1[C@@H]2CC[C@H]1C[C@H](CC(=O)OCCOC(=O)c1ccc(-c3c4nc(c(-c5c(F)c(F)c(F)c(F)c5F)c5ccc([nH]5)c(-c5c(F)c(F)c(F)c(F)c5F)c5nc(c(-c6c(F)c(F)c(F)c(F)c6F)c6ccc3[nH]6)C=C5)C=C4)cc1)C2
REMARK SMILES IDX 21 1 20 2 18 3 19 4 17 5 16 6 10 7 11 8 14 9 12 11 89 12
REMARK SMILES IDX 13 13 15 14 2 15 1 16 3 17 4 18 9 19 5 20 7 21 6 22 8 23
REMARK SMILES IDX 22 25 23 26 24 27 25 28 26 29 27 30 88 31 28 32 87 33 29 34
REMARK SMILES IDX 30 35 31 36 81 37 32 38 86 39 80 40 82 41 33 42 85 43 79 44
REMARK SMILES IDX 78 45 34 47 66 48 46 49 65 50 47 51 50 52 64 53 83 54 48 55
REMARK SMILES IDX 49 56 63 58 84 59 51 60 35 61 36 62 44 63 37 64 38 65 42 66
REMARK SMILES IDX 45 67 39 68 40 69 43 70 41 71 67 72 68 73 76 74 69 75 70 76
REMARK SMILES IDX 74 77 77 78 71 79 72 80 75 81 73 82 52 83 53 84 61 85 54 86
REMARK SMILES IDX 55 87 59 88 62 89 56 90 57 91 60 92 58 93
REMARK H PARENT 10 10 8 24 82 46 50 57
REMARK Flexibility Score: inf
ROOT
ATOM      1  C   UNL     1       0.011  -4.109  -6.059  1.00  0.00     0.274 C 
ENDROOT
BRANCH   1   2
ATOM      2  O   UNL     1       0.123  -3.309  -4.869  1.00  0.00    -0.462 OA
BRANCH   2   3
ATOM      3  C   UNL     1       0.731  -2.107  -5.020  1.00  0.00     0.306 C 
ATOM      4  O   UNL     1       1.264  -1.708  -6.048  1.00  0.00    -0.252 OA
BRANCH   3   5
ATOM      5  C   UNL     1       0.722  -1.298  -3.748  1.00  0.00     0.126 C 
BRANCH   5   6
ATOM      6  C   UNL     1      -0.612  -1.296  -2.966  1.00  0.00     0.012 C 
ATOM      7  N   UNL     1      -0.828  -1.147  -0.015  1.00  0.00    -0.324 N 
ATOM      8  C   UNL     1      -1.360  -0.030  -0.805  1.00  0.00     0.185 C 
ATOM      9  C   UNL     1      -1.401  -2.314  -0.711  1.00  0.00     0.185 C 
ATOM     10  H   UNL     1      -1.103  -1.081   0.965  1.00  0.00     0.349 HD
ATOM     11  C   UNL     1      -2.847  -0.387  -0.868  1.00  0.00     0.071 C 
ATOM     12  C   UNL     1      -0.748   0.047  -2.211  1.00  0.00     0.069 C 
ATOM     13  C   UNL     1      -2.869  -1.908  -0.888  1.00  0.00     0.071 C 
ATOM     14  C   UNL     1      -0.738  -2.556  -2.077  1.00  0.00     0.069 C 
BRANCH   7  15
ATOM     15  C   UNL     1       0.627  -1.184   0.255  1.00  0.00     0.212 C 
ATOM     16  C   UNL     1       1.241   0.217   0.490  1.00  0.00     0.081 C 
BRANCH  15  17
ATOM     17  C   UNL     1       0.966  -2.121   1.428  1.00  0.00     0.013 A 
ATOM     18  C   UNL     1       1.014  -3.514   1.234  1.00  0.00     0.010 A 
ATOM     19  C   UNL     1       1.280  -1.638   2.711  1.00  0.00     0.056 A 
ATOM     20  C   UNL     1       1.350  -4.384   2.278  1.00  0.00     0.004 A 
ATOM     21  C   UNL     1       1.661  -2.505   3.731  1.00  0.00     0.116 A 
ATOM     22  C   UNL     1       1.688  -3.878   3.530  1.00  0.00     0.046 A 
BRANCH  21  23
ATOM     23  O   UNL     1       2.024  -1.954   4.926  1.00  0.00    -0.508 OA
ATOM     24  H   UNL     1       2.286  -2.506   5.636  1.00  0.00     0.293 HD
ENDBRANCH  21  23
ENDBRANCH  15  17
ENDBRANCH   7  15
ENDBRANCH   5   6
ENDBRANCH   3   5
ENDBRANCH   2   3
ENDBRANCH   1   2
BRANCH   1  25
ATOM     25  C   UNL     1      -1.358  -3.908  -6.709  1.00  0.00     0.275 C 
BRANCH  25  26
ATOM     26  O   UNL     1      -1.480  -2.573  -7.237  1.00  0.00    -0.458 OA
BRANCH  26  27
ATOM     27  C   UNL     1      -2.309  -1.742  -6.565  1.00  0.00     0.338 C 
ATOM     28  O   UNL     1      -3.006  -1.996  -5.600  1.00  0.00    -0.246 OA
BRANCH  27  29
ATOM     29  C   UNL     1      -2.195  -0.394  -7.141  1.00  0.00     0.060 A 
ATOM     30  C   UNL     1      -1.403   0.556  -6.490  1.00  0.00     0.016 A 
ATOM     31  C   UNL     1      -2.922  -0.054  -8.281  1.00  0.00     0.016 A 
ATOM     32  C   UNL     1      -1.329   1.857  -6.985  1.00  0.00     0.010 A 
ATOM     33  C   UNL     1      -2.840   1.248  -8.781  1.00  0.00     0.010 A 
ATOM     34  C   UNL     1      -2.047   2.213  -8.134  1.00  0.00    -0.014 A 
BRANCH  34  35
ATOM     35  C   UNL     1      -1.994   3.601  -8.652  1.00  0.00     0.031 A 
ATOM     36  C   UNL     1      -3.171   4.513  -8.475  1.00  0.00     0.074 A 
ATOM     37  C   UNL     1      -0.894   4.035  -9.294  1.00  0.00     0.049 A 
ATOM     38  N   UNL     1      -3.371   5.714  -8.957  1.00  0.00    -0.248 NA
ATOM     39  C   UNL     1      -4.274   4.006  -7.644  1.00  0.00     0.031 C 
ATOM     40  C   UNL     1       0.327   3.256  -9.497  1.00  0.00     0.029 A 
ATOM     41  N   UNL     1      -0.633   5.236  -9.906  1.00  0.00    -0.354 N 
ATOM     42  C   UNL     1      -4.626   6.097  -8.508  1.00  0.00     0.074 A 
ATOM     43  C   UNL     1      -5.149   4.998  -7.723  1.00  0.00     0.031 C 
ATOM     44  C   UNL     1       1.206   3.996 -10.192  1.00  0.00     0.029 A 
ATOM     45  C   UNL     1       0.593   5.281 -10.522  1.00  0.00     0.049 A 
ATOM     46  H   UNL     1      -1.265   5.991  -9.904  1.00  0.00     0.167 HD
ATOM     47  C   UNL     1      -5.280   7.262  -8.731  1.00  0.00     0.037 A 
ATOM     48  C   UNL     1       1.145   6.237 -11.292  1.00  0.00     0.037 A 
ATOM     49  C   UNL     1      -4.753   8.359  -9.499  1.00  0.00     0.049 A 
ATOM     50  C   UNL     1       0.373   7.497 -11.573  1.00  0.00     0.074 A 
ATOM     51  C   UNL     1      -5.332   9.589  -9.762  1.00  0.00     0.029 A 
ATOM     52  N   UNL     1      -3.518   8.357 -10.132  1.00  0.00    -0.354 N 
ATOM     53  N   UNL     1      -0.816   7.850 -11.150  1.00  0.00    -0.248 NA
ATOM     54  C   UNL     1       1.017   8.486 -12.449  1.00  0.00     0.031 C 
ATOM     55  C   UNL     1      -4.464  10.316 -10.583  1.00  0.00     0.029 A 
ATOM     56  C   UNL     1      -3.327   9.555 -10.801  1.00  0.00     0.049 A 
ATOM     57  H   UNL     1      -2.873   7.613 -10.108  1.00  0.00     0.167 HD
ATOM     58  C   UNL     1      -1.058   9.104 -11.695  1.00  0.00     0.074 A 
ATOM     59  C   UNL     1       0.115   9.458 -12.467  1.00  0.00     0.031 C 
ATOM     60  C   UNL     1      -2.155   9.889 -11.569  1.00  0.00     0.037 A 
BRANCH  47  61
ATOM     61  C   UNL     1      -6.657   7.401  -8.154  1.00  0.00     0.064 A 
ATOM     62  C   UNL     1      -6.862   7.615  -6.784  1.00  0.00     0.173 A 
ATOM     63  C   UNL     1      -7.783   7.354  -8.990  1.00  0.00     0.173 A 
ATOM     64  F   UNL     1      -5.818   7.654  -5.943  1.00  0.00    -0.203 F 
ATOM     65  C   UNL     1      -8.148   7.758  -6.268  1.00  0.00     0.198 A 
ATOM     66  C   UNL     1      -9.065   7.519  -8.474  1.00  0.00     0.198 A 
ATOM     67  F   UNL     1      -7.638   7.155 -10.309  1.00  0.00    -0.203 F 
ATOM     68  F   UNL     1      -8.325   7.925  -4.950  1.00  0.00    -0.200 F 
ATOM     69  C   UNL     1      -9.247   7.715  -7.114  1.00  0.00     0.200 A 
ATOM     70  F   UNL     1     -10.125   7.486  -9.293  1.00  0.00    -0.200 F 
ATOM     71  F   UNL     1     -10.483   7.857  -6.616  1.00  0.00    -0.200 F 
ENDBRANCH  47  61
BRANCH  48  72
ATOM     72  C   UNL     1       2.493   6.027 -11.876  1.00  0.00     0.064 A 
ATOM     73  C   UNL     1       3.598   6.757 -11.419  1.00  0.00     0.173 A 
ATOM     74  C   UNL     1       2.703   5.094 -12.902  1.00  0.00     0.173 A 
ATOM     75  F   UNL     1       3.439   7.680 -10.459  1.00  0.00    -0.203 F 
ATOM     76  C   UNL     1       4.862   6.569 -11.973  1.00  0.00     0.198 A 
ATOM     77  C   UNL     1       3.972   4.890 -13.439  1.00  0.00     0.198 A 
ATOM     78  F   UNL     1       1.676   4.374 -13.376  1.00  0.00    -0.203 F 
ATOM     79  F   UNL     1       5.895   7.307 -11.545  1.00  0.00    -0.200 F 
ATOM     80  C   UNL     1       5.049   5.631 -12.978  1.00  0.00     0.200 A 
ATOM     81  F   UNL     1       4.150   3.977 -14.404  1.00  0.00    -0.200 F 
ATOM     82  F   UNL     1       6.266   5.448 -13.508  1.00  0.00    -0.200 F 
ENDBRANCH  48  72
BRANCH  60  83
ATOM     83  C   UNL     1      -2.131  11.214 -12.269  1.00  0.00     0.064 A 
ATOM     84  C   UNL     1      -2.296  11.309 -13.658  1.00  0.00     0.173 A 
ATOM     85  C   UNL     1      -1.976  12.402 -11.540  1.00  0.00     0.173 A 
ATOM     86  F   UNL     1      -2.431  10.200 -14.399  1.00  0.00    -0.203 F 
ATOM     87  C   UNL     1      -2.287  12.547 -14.295  1.00  0.00     0.198 A 
ATOM     88  C   UNL     1      -1.990  13.640 -12.177  1.00  0.00     0.198 A 
ATOM     89  F   UNL     1      -1.818  12.363 -10.208  1.00  0.00    -0.203 F 
ATOM     90  F   UNL     1      -2.407  12.614 -15.628  1.00  0.00    -0.200 F 
ATOM     91  C   UNL     1      -2.140  13.711 -13.554  1.00  0.00     0.200 A 
ATOM     92  F   UNL     1      -1.856  14.764 -11.460  1.00  0.00    -0.200 F 
ATOM     93  F   UNL     1      -2.135  14.902 -14.169  1.00  0.00    -0.200 F 
ENDBRANCH  60  83
ENDBRANCH  34  35
ENDBRANCH  27  29
ENDBRANCH  26  27
ENDBRANCH  25  26
ENDBRANCH   1  25
TORSDOF 15
