REMARK SMILES O=C(NC(=S)Nc1ccc(Cl)c(C(=O)OCCOC(=O)c2ccc(-c3c4nc(c(-c5c(F)c(F)c(F)c(F)c5F)c5ccc([nH]5)c(-c5c(F)c(F)c(F)c(F)c5F)c5nc(c(-c6c(F)c(F)c(F)c(F)c6F)c6ccc3[nH]6)C=C5)C=C4)cc2)c1)c1ccc(N2CCCC2)c([N+](=O)[O-])c1
REMARK SMILES IDX 15 1 13 2 14 3 12 4 7 5 8 6 84 7 9 8 10 9 11 10 6 11 4 13
REMARK SMILES IDX 5 14 3 15 1 16 2 17 85 19 86 20 98 21 87 22 94 23 88 24
REMARK SMILES IDX 95 25 96 26 97 27 89 28 90 29 93 30 91 31 92 32 16 33 17 34
REMARK SMILES IDX 18 35 19 36 20 37 21 38 22 39 83 40 23 41 82 42 24 43 25 44
REMARK SMILES IDX 26 45 76 46 27 47 81 48 75 49 77 50 28 51 80 52 74 53 73 54
REMARK SMILES IDX 29 56 61 57 41 58 60 59 42 60 45 61 59 62 78 63 43 64 44 65
REMARK SMILES IDX 58 67 79 68 46 69 30 70 31 71 39 72 32 73 33 74 37 75 40 76
REMARK SMILES IDX 34 77 35 78 38 79 36 80 62 81 63 82 71 83 64 84 65 85 69 86
REMARK SMILES IDX 72 87 66 88 67 89 70 90 68 91 47 92 48 93 56 94 49 95 50 96
REMARK SMILES IDX 54 97 57 98 51 99 52 100 55 101 53 102
REMARK H PARENT 6 12 3 18 77 55 45 66
REMARK Flexibility Score: inf
ROOT
ATOM      1  O   UNL     1       4.111  -4.804   3.776  1.00  0.00    -0.458 OA
ENDROOT
BRANCH   1   2
ATOM      2  C   UNL     1       3.980  -3.480   4.050  1.00  0.00     0.339 C 
ATOM      3  O   UNL     1       4.324  -2.889   5.056  1.00  0.00    -0.246 OA
BRANCH   2   4
ATOM      4  C   UNL     1       3.567  -2.821   2.793  1.00  0.00     0.080 A 
ATOM      5  C   UNL     1       4.779  -1.179   0.416  1.00  0.00     0.041 A 
ATOM      6  C   UNL     1       3.689  -2.025  -0.714  1.00  0.00     0.028 A 
ATOM      7  C   UNL     1       4.709  -1.614   2.130  1.00  0.00     0.043 A 
ATOM      8  C   UNL     1       2.311  -3.292   0.058  1.00  0.00     0.023 A 
ATOM      9  C   UNL     1       2.354  -3.628   1.817  1.00  0.00     0.055 A 
ATOM     10  Cl  UNL     1       1.250  -4.767   2.472  1.00  0.00    -0.083 Cl
BRANCH   5  11
ATOM     11  N   UNL     1       5.050   0.166   0.143  1.00  0.00    -0.332 N 
ATOM     12  H   UNL     1       5.981   0.447   0.295  1.00  0.00     0.169 HD
BRANCH  11  13
ATOM     13  C   UNL     1       4.217   1.140  -0.302  1.00  0.00     0.177 C 
ATOM     14  S   UNL     1       4.888   2.671  -0.479  1.00  0.00    -0.040 S 
BRANCH  13  15
ATOM     15  N   UNL     1       2.847   1.040  -0.528  1.00  0.00    -0.299 N 
ATOM     16  O   UNL     1       0.587   0.707  -0.865  1.00  0.00    -0.269 OA
ATOM     17  C   UNL     1       1.677   0.223  -0.580  1.00  0.00     0.257 C 
ATOM     18  H   UNL     1       2.547   1.949  -0.757  1.00  0.00     0.172 HD
BRANCH  17  19
ATOM     19  C   UNL     1       1.769  -1.228  -0.388  1.00  0.00     0.047 A 
ATOM     20  C   UNL     1       2.825  -1.706   0.961  1.00  0.00     0.016 A 
ATOM     21  C   UNL     1       1.791  -2.209  -1.858  1.00  0.00     0.101 A 
ATOM     22  C   UNL     1       4.116  -3.239   0.670  1.00  0.00     0.034 A 
ATOM     23  C   UNL     1       2.867  -3.628  -2.080  1.00  0.00     0.293 A 
ATOM     24  C   UNL     1       4.038  -4.175  -0.871  1.00  0.00     0.116 A 
BRANCH  23  25
ATOM     25  N   UNL     1       2.470  -4.500  -3.181  1.00  0.00     0.065 N 
ATOM     26  O   UNL     1       3.153  -5.488  -3.453  1.00  0.00    -0.258 OA
ATOM     27  O   UNL     1       1.431  -4.188  -3.777  1.00  0.00    -0.258 OA
ENDBRANCH  23  25
BRANCH  24  28
ATOM     28  N   UNL     1       4.631  -5.428  -0.870  1.00  0.00    -0.366 N 
ATOM     29  C   UNL     1       5.612  -5.917  -1.827  1.00  0.00     0.117 C 
ATOM     30  C   UNL     1       4.875  -6.090   0.404  1.00  0.00     0.117 C 
ATOM     31  C   UNL     1       5.708  -7.397  -1.440  1.00  0.00     0.023 C 
ATOM     32  C   UNL     1       5.573  -7.402   0.077  1.00  0.00     0.023 C 
ENDBRANCH  24  28
ENDBRANCH  17  19
ENDBRANCH  13  15
ENDBRANCH  11  13
ENDBRANCH   5  11
ENDBRANCH   2   4
ENDBRANCH   1   2
BRANCH   1  33
ATOM     33  C   UNL     1       4.523  -5.709   4.825  1.00  0.00     0.275 C 
BRANCH  33  34
ATOM     34  C   UNL     1       5.897  -6.334   4.554  1.00  0.00     0.275 C 
BRANCH  34  35
ATOM     35  O   UNL     1       6.945  -5.348   4.686  1.00  0.00    -0.458 OA
BRANCH  35  36
ATOM     36  C   UNL     1       7.350  -4.866   3.498  1.00  0.00     0.338 C 
ATOM     37  O   UNL     1       6.968  -5.222   2.398  1.00  0.00    -0.246 OA
BRANCH  36  38
ATOM     38  C   UNL     1       8.208  -3.694   3.542  1.00  0.00     0.060 A 
ATOM     39  C   UNL     1       7.530  -2.493   3.420  1.00  0.00     0.016 A 
ATOM     40  C   UNL     1       9.556  -3.780   3.207  1.00  0.00     0.016 A 
ATOM     41  C   UNL     1       8.160  -1.398   2.857  1.00  0.00     0.010 A 
ATOM     42  C   UNL     1      10.242  -2.616   2.839  1.00  0.00     0.010 A 
ATOM     43  C   UNL     1       9.546  -1.406   2.678  1.00  0.00    -0.014 A 
BRANCH  43  44
ATOM     44  C   UNL     1      10.235  -0.105   2.474  1.00  0.00     0.031 A 
ATOM     45  C   UNL     1      11.173   0.121   1.327  1.00  0.00     0.074 A 
ATOM     46  C   UNL     1       9.998   0.880   3.369  1.00  0.00     0.049 A 
ATOM     47  N   UNL     1      12.018   1.103   1.142  1.00  0.00    -0.248 NA
ATOM     48  C   UNL     1      11.175  -0.884   0.253  1.00  0.00     0.031 C 
ATOM     49  C   UNL     1       9.068   0.791   4.505  1.00  0.00     0.029 A 
ATOM     50  N   UNL     1      10.499   2.152   3.473  1.00  0.00    -0.354 N 
ATOM     51  C   UNL     1      12.691   0.811  -0.037  1.00  0.00     0.074 A 
ATOM     52  C   UNL     1      12.152  -0.440  -0.530  1.00  0.00     0.031 C 
ATOM     53  C   UNL     1       9.010   1.966   5.136  1.00  0.00     0.029 A 
ATOM     54  C   UNL     1      10.022   2.835   4.568  1.00  0.00     0.049 A 
ATOM     55  H   UNL     1      11.136   2.538   2.829  1.00  0.00     0.167 HD
ATOM     56  C   UNL     1      13.676   1.527  -0.631  1.00  0.00     0.037 A 
ATOM     57  C   UNL     1      10.414   3.995   5.122  1.00  0.00     0.037 A 
ATOM     58  C   UNL     1      14.172   2.783  -0.121  1.00  0.00     0.049 A 
ATOM     59  C   UNL     1      11.562   4.716   4.489  1.00  0.00     0.074 A 
ATOM     60  C   UNL     1      15.175   3.589  -0.630  1.00  0.00     0.029 A 
ATOM     61  N   UNL     1      13.691   3.420   1.017  1.00  0.00    -0.354 N 
ATOM     62  N   UNL     1      12.241   4.401   3.414  1.00  0.00    -0.248 NA
ATOM     63  C   UNL     1      12.015   5.940   5.157  1.00  0.00     0.031 C 
ATOM     64  C   UNL     1      15.336   4.683   0.227  1.00  0.00     0.029 A 
ATOM     65  C   UNL     1      14.389   4.597   1.234  1.00  0.00     0.049 A 
ATOM     66  H   UNL     1      12.960   3.083   1.585  1.00  0.00     0.167 HD
ATOM     67  C   UNL     1      13.186   5.400   3.258  1.00  0.00     0.074 A 
ATOM     68  C   UNL     1      12.975   6.343   4.339  1.00  0.00     0.031 C 
ATOM     69  C   UNL     1      14.147   5.524   2.311  1.00  0.00     0.037 A 
BRANCH  56  70
ATOM     70  C   UNL     1      14.319   0.957  -1.865  1.00  0.00     0.064 A 
ATOM     71  C   UNL     1      13.644   0.877  -3.091  1.00  0.00     0.173 A 
ATOM     72  C   UNL     1      15.656   0.525  -1.829  1.00  0.00     0.173 A 
ATOM     73  F   UNL     1      12.363   1.264  -3.182  1.00  0.00    -0.203 F 
ATOM     74  C   UNL     1      14.272   0.367  -4.226  1.00  0.00     0.198 A 
ATOM     75  C   UNL     1      16.291   0.045  -2.972  1.00  0.00     0.198 A 
ATOM     76  F   UNL     1      16.355   0.582  -0.685  1.00  0.00    -0.203 F 
ATOM     77  F   UNL     1      13.591   0.258  -5.375  1.00  0.00    -0.200 F 
ATOM     78  C   UNL     1      15.597  -0.041  -4.168  1.00  0.00     0.200 A 
ATOM     79  F   UNL     1      17.575  -0.334  -2.915  1.00  0.00    -0.200 F 
ATOM     80  F   UNL     1      16.201  -0.523  -5.263  1.00  0.00    -0.200 F 
ENDBRANCH  56  70
BRANCH  57  81
ATOM     81  C   UNL     1       9.776   4.486   6.374  1.00  0.00     0.064 A 
ATOM     82  C   UNL     1       9.063   5.691   6.393  1.00  0.00     0.173 A 
ATOM     83  C   UNL     1       9.868   3.767   7.579  1.00  0.00     0.173 A 
ATOM     84  F   UNL     1       8.957   6.423   5.274  1.00  0.00    -0.203 F 
ATOM     85  C   UNL     1       8.495   6.174   7.571  1.00  0.00     0.198 A 
ATOM     86  C   UNL     1       9.261   4.228   8.744  1.00  0.00     0.198 A 
ATOM     87  F   UNL     1      10.528   2.600   7.619  1.00  0.00    -0.203 F 
ATOM     88  F   UNL     1       7.874   7.361   7.573  1.00  0.00    -0.200 F 
ATOM     89  C   UNL     1       8.588   5.439   8.743  1.00  0.00     0.200 A 
ATOM     90  F   UNL     1       9.330   3.498   9.866  1.00  0.00    -0.200 F 
ATOM     91  F   UNL     1       8.038   5.902   9.873  1.00  0.00    -0.200 F 
ENDBRANCH  57  81
BRANCH  69  92
ATOM     92  C   UNL     1      14.995   6.759   2.377  1.00  0.00     0.064 A 
ATOM     93  C   UNL     1      15.939   6.956   3.396  1.00  0.00     0.173 A 
ATOM     94  C   UNL     1      14.864   7.755   1.398  1.00  0.00     0.173 A 
ATOM     95  F   UNL     1      16.083   6.043   4.369  1.00  0.00    -0.203 F 
ATOM     96  C   UNL     1      16.697   8.121   3.450  1.00  0.00     0.198 A 
ATOM     97  C   UNL     1      15.651   8.900   1.433  1.00  0.00     0.198 A 
ATOM     98  F   UNL     1      13.975   7.612   0.403  1.00  0.00    -0.203 F 
ATOM     99  F   UNL     1      17.546   8.318   4.468  1.00  0.00    -0.200 F 
ATOM    100  C   UNL     1      16.559   9.087   2.464  1.00  0.00     0.200 A 
ATOM    101  F   UNL     1      15.527   9.825   0.472  1.00  0.00    -0.200 F 
ATOM    102  F   UNL     1      17.295  10.206   2.514  1.00  0.00    -0.200 F 
ENDBRANCH  69  92
ENDBRANCH  43  44
ENDBRANCH  36  38
ENDBRANCH  35  36
ENDBRANCH  34  35
ENDBRANCH  33  34
ENDBRANCH   1  33
TORSDOF 17
