REMARK SMILES COC(=O)c1cscc1NS(=O)(=O)c1cc(C)c(C(=O)OCCOC(=O)c2ccc(-c3c4nc(c(-c5c(F)c(F)c(F)c(F)c5F)c5ccc([nH]5)c(-c5c(F)c(F)c(F)c(F)c5F)c5nc(c(-c6c(F)c(F)c(F)c(F)c6F)c6ccc3[nH]6)C=C5)C=C4)cc2)s1
REMARK SMILES IDX 21 1 19 2 20 3 18 4 14 5 15 6 90 7 16 8 17 9 11 10 12 11
REMARK SMILES IDX 13 12 10 13 9 15 5 16 6 17 7 18 8 19 3 20 4 21 2 22 1 23
REMARK SMILES IDX 22 24 23 25 24 26 25 27 26 28 27 29 28 30 89 31 29 32 88 33
REMARK SMILES IDX 30 34 31 35 32 36 82 37 33 38 87 39 81 40 83 41 34 42 86 43
REMARK SMILES IDX 80 44 79 45 35 47 67 48 47 49 66 50 48 51 51 52 65 53 84 54
REMARK SMILES IDX 49 55 50 56 64 58 85 59 52 60 36 61 37 62 45 63 38 64 39 65
REMARK SMILES IDX 43 66 46 67 40 68 41 69 44 70 42 71 68 72 69 73 77 74 70 75
REMARK SMILES IDX 71 76 75 77 78 78 72 79 73 80 76 81 74 82 53 83 54 84 62 85
REMARK SMILES IDX 55 86 56 87 60 88 63 89 57 90 58 91 61 92 59 93
REMARK H PARENT 10 14 83 46 51 57
REMARK Flexibility Score: inf
ROOT
ATOM      1  O   UNL     1      -0.599  11.458  -1.761  1.00  0.00    -0.458 OA
ENDROOT
BRANCH   1   2
ATOM      2  C   UNL     1       0.710  11.113  -1.943  1.00  0.00     0.348 C 
ATOM      3  O   UNL     1       1.604  11.923  -2.163  1.00  0.00    -0.245 OA
BRANCH   2   4
ATOM      4  C   UNL     1       0.894   9.673  -1.792  1.00  0.00     0.116 A 
ATOM      5  C   UNL     1       1.867   7.526  -1.028  1.00  0.00     0.141 A 
ATOM      6  C   UNL     1       0.666   7.353  -1.686  1.00  0.00     0.038 A 
ATOM      7  S   UNL     1       2.448   9.104  -1.314  1.00  0.00    -0.115 S 
ATOM      8  C   UNL     1       0.019   8.607  -1.972  1.00  0.00    -0.024 A 
ATOM      9  C   UNL     1      -1.415   8.704  -2.379  1.00  0.00     0.046 C 
BRANCH   5  10
ATOM     10  S   UNL     1       2.902   6.504   0.003  1.00  0.00     0.271 S 
ATOM     11  O   UNL     1       3.042   7.245   1.239  1.00  0.00    -0.200 OA
ATOM     12  O   UNL     1       4.043   6.178  -0.826  1.00  0.00    -0.200 OA
BRANCH  10  13
ATOM     13  N   UNL     1       2.159   5.046   0.369  1.00  0.00    -0.277 N 
ATOM     14  H   UNL     1       2.758   4.280   0.521  1.00  0.00     0.180 HD
BRANCH  13  15
ATOM     15  C   UNL     1       0.785   4.788   0.486  1.00  0.00     0.074 A 
ATOM     16  C   UNL     1       0.243   3.464   0.290  1.00  0.00     0.094 A 
ATOM     17  C   UNL     1      -1.139   3.501   0.217  1.00  0.00     0.082 A 
ATOM     18  S   UNL     1      -1.777   5.042   0.575  1.00  0.00    -0.149 S 
ATOM     19  C   UNL     1      -0.211   5.689   0.804  1.00  0.00     0.092 A 
BRANCH  16  20
ATOM     20  C   UNL     1       1.035   2.242   0.159  1.00  0.00     0.340 C 
ATOM     21  O   UNL     1       2.257   2.241   0.259  1.00  0.00    -0.246 OA
BRANCH  20  22
ATOM     22  O   UNL     1       0.269   1.131  -0.032  1.00  0.00    -0.465 OA
ATOM     23  C   UNL     1       0.960  -0.121   0.009  1.00  0.00     0.282 C 
ENDBRANCH  20  22
ENDBRANCH  16  20
ENDBRANCH  13  15
ENDBRANCH  10  13
ENDBRANCH   5  10
ENDBRANCH   2   4
ENDBRANCH   1   2
BRANCH   1  24
ATOM     24  C   UNL     1      -0.921  12.856  -1.907  1.00  0.00     0.275 C 
BRANCH  24  25
ATOM     25  C   UNL     1      -1.049  13.581  -0.563  1.00  0.00     0.275 C 
BRANCH  25  26
ATOM     26  O   UNL     1       0.228  13.737   0.082  1.00  0.00    -0.458 OA
BRANCH  26  27
ATOM     27  C   UNL     1       0.494  12.830   1.049  1.00  0.00     0.338 C 
ATOM     28  O   UNL     1      -0.235  11.934   1.442  1.00  0.00    -0.246 OA
BRANCH  27  29
ATOM     29  C   UNL     1       1.894  12.957   1.478  1.00  0.00     0.060 A 
ATOM     30  C   UNL     1       2.773  11.975   1.033  1.00  0.00     0.016 A 
ATOM     31  C   UNL     1       2.324  13.926   2.381  1.00  0.00     0.016 A 
ATOM     32  C   UNL     1       4.080  11.926   1.496  1.00  0.00     0.010 A 
ATOM     33  C   UNL     1       3.653  13.898   2.830  1.00  0.00     0.010 A 
ATOM     34  C   UNL     1       4.537  12.887   2.402  1.00  0.00    -0.014 A 
BRANCH  34  35
ATOM     35  C   UNL     1       5.919  12.778   2.936  1.00  0.00     0.031 A 
ATOM     36  C   UNL     1       6.140  12.445   4.384  1.00  0.00     0.074 A 
ATOM     37  C   UNL     1       6.975  12.920   2.111  1.00  0.00     0.049 A 
ATOM     38  N   UNL     1       7.255  12.411   5.069  1.00  0.00    -0.248 NA
ATOM     39  C   UNL     1       4.942  12.112   5.169  1.00  0.00     0.031 C 
ATOM     40  C   UNL     1       6.893  13.171   0.672  1.00  0.00     0.029 A 
ATOM     41  N   UNL     1       8.323  12.863   2.364  1.00  0.00    -0.354 N 
ATOM     42  C   UNL     1       6.890  12.092   6.370  1.00  0.00     0.074 A 
ATOM     43  C   UNL     1       5.449  11.956   6.383  1.00  0.00     0.031 C 
ATOM     44  C   UNL     1       8.134  13.227   0.166  1.00  0.00     0.029 A 
ATOM     45  C   UNL     1       9.098  13.088   1.252  1.00  0.00     0.049 A 
ATOM     46  H   UNL     1       8.698  12.678   3.255  1.00  0.00     0.167 HD
ATOM     47  C   UNL     1       7.689  11.927   7.452  1.00  0.00     0.037 A 
ATOM     48  C   UNL     1      10.434  13.208   1.129  1.00  0.00     0.037 A 
ATOM     49  C   UNL     1       9.126  12.023   7.420  1.00  0.00     0.049 A 
ATOM     50  C   UNL     1      11.295  13.076   2.356  1.00  0.00     0.074 A 
ATOM     51  C   UNL     1      10.027  11.862   8.457  1.00  0.00     0.029 A 
ATOM     52  N   UNL     1       9.873  12.298   6.282  1.00  0.00    -0.354 N 
ATOM     53  N   UNL     1      10.942  12.818   3.591  1.00  0.00    -0.248 NA
ATOM     54  C   UNL     1      12.740  13.266   2.172  1.00  0.00     0.031 C 
ATOM     55  C   UNL     1      11.315  12.088   7.959  1.00  0.00     0.029 A 
ATOM     56  C   UNL     1      11.222  12.335   6.598  1.00  0.00     0.049 A 
ATOM     57  H   UNL     1       9.499  12.444   5.383  1.00  0.00     0.167 HD
ATOM     58  C   UNL     1      12.117  12.795   4.329  1.00  0.00     0.074 A 
ATOM     59  C   UNL     1      13.197  13.048   3.398  1.00  0.00     0.031 C 
ATOM     60  C   UNL     1      12.285  12.586   5.658  1.00  0.00     0.037 A 
BRANCH  47  61
ATOM     61  C   UNL     1       7.021  11.673   8.774  1.00  0.00     0.064 A 
ATOM     62  C   UNL     1       6.381  10.460   9.068  1.00  0.00     0.173 A 
ATOM     63  C   UNL     1       7.042  12.660   9.772  1.00  0.00     0.173 A 
ATOM     64  F   UNL     1       6.321   9.487   8.146  1.00  0.00    -0.203 F 
ATOM     65  C   UNL     1       5.756  10.259  10.297  1.00  0.00     0.198 A 
ATOM     66  C   UNL     1       6.444  12.444  11.011  1.00  0.00     0.198 A 
ATOM     67  F   UNL     1       7.647  13.837   9.548  1.00  0.00    -0.203 F 
ATOM     68  F   UNL     1       5.102   9.113  10.536  1.00  0.00    -0.200 F 
ATOM     69  C   UNL     1       5.793  11.247  11.269  1.00  0.00     0.200 A 
ATOM     70  F   UNL     1       6.494  13.395  11.953  1.00  0.00    -0.200 F 
ATOM     71  F   UNL     1       5.195  11.050  12.452  1.00  0.00    -0.200 F 
ENDBRANCH  47  61
BRANCH  48  72
ATOM     72  C   UNL     1      11.030  13.505  -0.200  1.00  0.00     0.064 A 
ATOM     73  C   UNL     1      11.830  12.565  -0.863  1.00  0.00     0.173 A 
ATOM     74  C   UNL     1      10.807  14.735  -0.837  1.00  0.00     0.173 A 
ATOM     75  F   UNL     1      12.098  11.385  -0.284  1.00  0.00    -0.203 F 
ATOM     76  C   UNL     1      12.390  12.847  -2.108  1.00  0.00     0.198 A 
ATOM     77  C   UNL     1      11.341  15.004  -2.095  1.00  0.00     0.198 A 
ATOM     78  F   UNL     1      10.054  15.673  -0.243  1.00  0.00    -0.203 F 
ATOM     79  F   UNL     1      13.187  11.948  -2.701  1.00  0.00    -0.200 F 
ATOM     80  C   UNL     1      12.138  14.062  -2.727  1.00  0.00     0.200 A 
ATOM     81  F   UNL     1      11.083  16.175  -2.694  1.00  0.00    -0.200 F 
ATOM     82  F   UNL     1      12.670  14.330  -3.927  1.00  0.00    -0.200 F 
ENDBRANCH  48  72
BRANCH  60  83
ATOM     83  C   UNL     1      13.693  12.591   6.178  1.00  0.00     0.064 A 
ATOM     84  C   UNL     1      14.437  13.776   6.282  1.00  0.00     0.173 A 
ATOM     85  C   UNL     1      14.293  11.398   6.611  1.00  0.00     0.173 A 
ATOM     86  F   UNL     1      13.914  14.939   5.866  1.00  0.00    -0.203 F 
ATOM     87  C   UNL     1      15.739  13.762   6.775  1.00  0.00     0.198 A 
ATOM     88  C   UNL     1      15.584  11.393   7.132  1.00  0.00     0.198 A 
ATOM     89  F   UNL     1      13.623  10.239   6.539  1.00  0.00    -0.203 F 
ATOM     90  F   UNL     1      16.449  14.898   6.819  1.00  0.00    -0.200 F 
ATOM     91  C   UNL     1      16.308  12.573   7.206  1.00  0.00     0.200 A 
ATOM     92  F   UNL     1      16.128  10.246   7.561  1.00  0.00    -0.200 F 
ATOM     93  F   UNL     1      17.559  12.563   7.686  1.00  0.00    -0.200 F 
ENDBRANCH  60  83
ENDBRANCH  34  35
ENDBRANCH  27  29
ENDBRANCH  26  27
ENDBRANCH  25  26
ENDBRANCH  24  25
ENDBRANCH   1  24
TORSDOF 16
