REMARK SMILES C[C@@H]1CCCN(C(=O)CSc2nnc3c4ccccc4n(CC(=O)OCCOC(=O)c4ccc(-c5c6nc(c(-c7c(F)c(F)c(F)c(F)c7F)c7ccc([nH]7)c(-c7c(F)c(F)c(F)c(F)c7F)c7nc(c(-c8c(F)c(F)c(F)c(F)c8F)c8ccc5[nH]8)C=C7)C=C6)cc4)c3n2)C1
REMARK SMILES IDX 25 1 23 2 24 3 22 4 21 5 11 6 12 7 95 8 13 9 94 10 14 11
REMARK SMILES IDX 15 12 20 13 16 14 19 15 17 16 18 17 10 18 9 19 7 20 8 21
REMARK SMILES IDX 6 22 1 23 2 24 3 25 96 26 4 27 5 28 26 29 27 30 28 31 29 32
REMARK SMILES IDX 30 33 31 34 32 35 93 36 33 37 92 38 34 39 35 40 36 41 86 42
REMARK SMILES IDX 37 43 91 44 85 45 87 46 38 47 90 48 84 49 83 50 39 52 71 53
REMARK SMILES IDX 51 54 70 55 52 56 55 57 69 58 88 59 53 60 54 61 68 63 89 64
REMARK SMILES IDX 56 65 40 66 41 67 49 68 42 69 43 70 47 71 50 72 44 73 45 74
REMARK SMILES IDX 48 75 46 76 72 77 73 78 81 79 74 80 75 81 79 82 82 83 76 84
REMARK SMILES IDX 77 85 80 86 78 87 57 88 58 89 66 90 59 91 60 92 64 93 67 94
REMARK SMILES IDX 61 95 62 96 65 97 63 98
REMARK H PARENT 87 51 55 62
REMARK Flexibility Score: inf
ROOT
ATOM      1  O   UNL     1       5.450   4.251   6.062  1.00  0.00    -0.461 OA
ENDROOT
BRANCH   1   2
ATOM      2  C   UNL     1       4.495   3.361   5.700  1.00  0.00     0.326 C 
ATOM      3  O   UNL     1       4.303   2.290   6.272  1.00  0.00    -0.250 OA
BRANCH   2   4
ATOM      4  C   UNL     1       3.635   3.772   4.540  1.00  0.00     0.246 C 
BRANCH   4   5
ATOM      5  N   UNL     1       3.993   4.944   3.750  1.00  0.00    -0.313 N 
ATOM      6  C   UNL     1       4.645   3.860   0.447  1.00  0.00     0.211 A 
ATOM      7  N   UNL     1       4.782   5.066  -0.160  1.00  0.00    -0.122 NA
ATOM      8  N   UNL     1       4.384   3.648   1.748  1.00  0.00    -0.201 NA
ATOM      9  N   UNL     1       4.641   6.201   0.534  1.00  0.00    -0.144 NA
ATOM     10  C   UNL     1       4.265   4.810   2.411  1.00  0.00     0.165 A 
ATOM     11  C   UNL     1       4.375   6.067   1.857  1.00  0.00     0.138 A 
ATOM     12  C   UNL     1       4.133   7.014   2.881  1.00  0.00     0.030 A 
ATOM     13  C   UNL     1       3.844   6.292   4.054  1.00  0.00     0.053 A 
ATOM     14  C   UNL     1       4.112   8.426   2.913  1.00  0.00     0.013 A 
ATOM     15  C   UNL     1       3.496   6.979   5.228  1.00  0.00     0.027 A 
ATOM     16  C   UNL     1       3.740   9.096   4.080  1.00  0.00     0.001 A 
ATOM     17  C   UNL     1       3.411   8.376   5.217  1.00  0.00     0.002 A 
BRANCH   6  18
ATOM     18  S   UNL     1       4.999   2.393  -0.482  1.00  0.00    -0.074 SA
BRANCH  18  19
ATOM     19  C   UNL     1       3.585   2.387  -1.610  1.00  0.00     0.178 C 
BRANCH  19  20
ATOM     20  C   UNL     1       2.248   2.629  -0.935  1.00  0.00     0.233 C 
ATOM     21  O   UNL     1       1.676   3.708  -1.114  1.00  0.00    -0.274 OA
BRANCH  20  22
ATOM     22  N   UNL     1       1.663   1.616  -0.191  1.00  0.00    -0.342 N 
ATOM     23  C   UNL     1      -2.070   1.004  -0.152  1.00  0.00     0.009 C 
ATOM     24  C   UNL     1      -0.602   0.789  -0.503  1.00  0.00     0.005 C 
ATOM     25  C   UNL     1      -0.103  -0.635  -0.204  1.00  0.00     0.007 C 
ATOM     26  C   UNL     1       0.281   1.789   0.250  1.00  0.00     0.122 C 
ATOM     27  C   UNL     1       1.377  -0.797  -0.558  1.00  0.00     0.022 C 
ATOM     28  C   UNL     1       2.226   0.295   0.088  1.00  0.00     0.119 C 
ENDBRANCH  20  22
ENDBRANCH  19  20
ENDBRANCH  18  19
ENDBRANCH   6  18
ENDBRANCH   4   5
ENDBRANCH   2   4
ENDBRANCH   1   2
BRANCH   1  29
ATOM     29  C   UNL     1       6.305   3.858   7.164  1.00  0.00     0.274 C 
BRANCH  29  30
ATOM     30  C   UNL     1       5.981   4.672   8.421  1.00  0.00     0.275 C 
BRANCH  30  31
ATOM     31  O   UNL     1       4.730   4.212   8.960  1.00  0.00    -0.458 OA
BRANCH  31  32
ATOM     32  C   UNL     1       3.667   5.046   8.811  1.00  0.00     0.338 C 
ATOM     33  O   UNL     1       3.682   6.237   8.608  1.00  0.00    -0.246 OA
BRANCH  32  34
ATOM     34  C   UNL     1       2.514   4.163   8.532  1.00  0.00     0.060 A 
ATOM     35  C   UNL     1       2.240   3.028   9.289  1.00  0.00     0.016 A 
ATOM     36  C   UNL     1       1.839   4.388   7.331  1.00  0.00     0.016 A 
ATOM     37  C   UNL     1       1.386   2.063   8.759  1.00  0.00     0.010 A 
ATOM     38  C   UNL     1       1.062   3.394   6.766  1.00  0.00     0.010 A 
ATOM     39  C   UNL     1       0.870   2.212   7.459  1.00  0.00    -0.014 A 
BRANCH  39  40
ATOM     40  C   UNL     1      -0.145   1.295   6.966  1.00  0.00     0.031 A 
ATOM     41  C   UNL     1      -1.481   1.621   7.522  1.00  0.00     0.074 A 
ATOM     42  C   UNL     1      -0.060   0.347   6.013  1.00  0.00     0.049 A 
ATOM     43  N   UNL     1      -2.089   1.007   8.479  1.00  0.00    -0.248 NA
ATOM     44  C   UNL     1      -2.149   2.847   7.062  1.00  0.00     0.031 C 
ATOM     45  C   UNL     1       0.979   0.053   5.028  1.00  0.00     0.029 A 
ATOM     46  N   UNL     1      -1.007  -0.602   5.752  1.00  0.00    -0.354 N 
ATOM     47  C   UNL     1      -3.288   1.681   8.662  1.00  0.00     0.074 A 
ATOM     48  C   UNL     1      -3.212   2.878   7.866  1.00  0.00     0.031 C 
ATOM     49  C   UNL     1       0.542  -0.928   4.190  1.00  0.00     0.029 A 
ATOM     50  C   UNL     1      -0.728  -1.445   4.686  1.00  0.00     0.049 A 
ATOM     51  H   UNL     1      -1.832  -0.682   6.283  1.00  0.00     0.167 HD
ATOM     52  C   UNL     1      -4.325   1.099   9.320  1.00  0.00     0.037 A 
ATOM     53  C   UNL     1      -1.498  -2.491   4.287  1.00  0.00     0.037 A 
ATOM     54  C   UNL     1      -3.880  -0.016  10.118  1.00  0.00     0.049 A 
ATOM     55  C   UNL     1      -2.411  -2.844   5.394  1.00  0.00     0.074 A 
ATOM     56  C   UNL     1      -2.971  -0.158  11.153  1.00  0.00     0.029 A 
ATOM     57  N   UNL     1      -4.083  -1.289   9.645  1.00  0.00    -0.354 N 
ATOM     58  N   UNL     1      -2.036  -3.458   6.476  1.00  0.00    -0.248 NA
ATOM     59  C   UNL     1      -3.694  -2.162   5.459  1.00  0.00     0.031 C 
ATOM     60  C   UNL     1      -2.305  -1.395  10.897  1.00  0.00     0.029 A 
ATOM     61  C   UNL     1      -2.879  -1.940   9.750  1.00  0.00     0.049 A 
ATOM     62  H   UNL     1      -4.926  -1.662   9.298  1.00  0.00     0.167 HD
ATOM     63  C   UNL     1      -2.821  -2.907   7.474  1.00  0.00     0.074 A 
ATOM     64  C   UNL     1      -3.882  -2.184   6.779  1.00  0.00     0.031 C 
ATOM     65  C   UNL     1      -2.383  -2.862   8.762  1.00  0.00     0.037 A 
BRANCH  52  66
ATOM     66  C   UNL     1      -5.771   1.345   8.988  1.00  0.00     0.064 A 
ATOM     67  C   UNL     1      -6.767   0.808   9.824  1.00  0.00     0.173 A 
ATOM     68  C   UNL     1      -6.220   1.843   7.745  1.00  0.00     0.173 A 
ATOM     69  F   UNL     1      -6.449   0.283  11.017  1.00  0.00    -0.203 F 
ATOM     70  C   UNL     1      -8.099   0.713   9.416  1.00  0.00     0.198 A 
ATOM     71  C   UNL     1      -7.560   1.800   7.365  1.00  0.00     0.198 A 
ATOM     72  F   UNL     1      -5.377   2.285   6.804  1.00  0.00    -0.203 F 
ATOM     73  F   UNL     1      -8.987   0.079  10.193  1.00  0.00    -0.200 F 
ATOM     74  C   UNL     1      -8.494   1.206   8.186  1.00  0.00     0.200 A 
ATOM     75  F   UNL     1      -7.918   2.265   6.160  1.00  0.00    -0.200 F 
ATOM     76  F   UNL     1      -9.758   1.063   7.769  1.00  0.00    -0.200 F 
ENDBRANCH  52  66
BRANCH  53  77
ATOM     77  C   UNL     1      -1.738  -3.101   2.969  1.00  0.00     0.064 A 
ATOM     78  C   UNL     1      -1.891  -4.480   2.777  1.00  0.00     0.173 A 
ATOM     79  C   UNL     1      -2.202  -2.268   1.944  1.00  0.00     0.173 A 
ATOM     80  F   UNL     1      -1.586  -5.334   3.763  1.00  0.00    -0.203 F 
ATOM     81  C   UNL     1      -2.443  -4.994   1.596  1.00  0.00     0.198 A 
ATOM     82  C   UNL     1      -2.743  -2.777   0.764  1.00  0.00     0.198 A 
ATOM     83  F   UNL     1      -2.228  -0.944   2.142  1.00  0.00    -0.203 F 
ATOM     84  F   UNL     1      -2.632  -6.314   1.462  1.00  0.00    -0.200 F 
ATOM     85  C   UNL     1      -2.860  -4.142   0.587  1.00  0.00     0.200 A 
ATOM     86  F   UNL     1      -3.203  -1.944  -0.178  1.00  0.00    -0.200 F 
ATOM     87  F   UNL     1      -3.421  -4.626  -0.529  1.00  0.00    -0.200 F 
ENDBRANCH  53  77
BRANCH  65  88
ATOM     88  C   UNL     1      -1.138  -3.630   9.100  1.00  0.00     0.064 A 
ATOM     89  C   UNL     1       0.133  -3.329   8.576  1.00  0.00     0.173 A 
ATOM     90  C   UNL     1      -1.214  -4.611  10.095  1.00  0.00     0.173 A 
ATOM     91  F   UNL     1       0.295  -2.348   7.679  1.00  0.00    -0.203 F 
ATOM     92  C   UNL     1       1.271  -4.003   9.018  1.00  0.00     0.198 A 
ATOM     93  C   UNL     1      -0.072  -5.259  10.556  1.00  0.00     0.198 A 
ATOM     94  F   UNL     1      -2.397  -4.908  10.655  1.00  0.00    -0.203 F 
ATOM     95  F   UNL     1       2.473  -3.702   8.505  1.00  0.00    -0.200 F 
ATOM     96  C   UNL     1       1.168  -4.959  10.015  1.00  0.00     0.200 A 
ATOM     97  F   UNL     1      -0.171  -6.153  11.550  1.00  0.00    -0.200 F 
ATOM     98  F   UNL     1       2.267  -5.572  10.477  1.00  0.00    -0.200 F 
ENDBRANCH  65  88
ENDBRANCH  39  40
ENDBRANCH  32  34
ENDBRANCH  31  32
ENDBRANCH  30  31
ENDBRANCH  29  30
ENDBRANCH   1  29
TORSDOF 16
