REMARK SMILES C/C(=N\[NH+]=C1\NC(=O)[C@H](CC(=O)OCCOC(=O)c2ccc(-c3c4nc(c(-c5c(F)c(F)c(F)c(F)c5F)c5ccc([nH]5)c(-c5c(F)c(F)c(F)c(F)c5F)c5nc(c(-c6c(F)c(F)c(F)c(F)c6F)c6ccc3[nH]6)C=C5)C=C4)cc2)S1)c1ccc([N+](=O)[O-])cc1
REMARK SMILES IDX 14 1 13 2 11 3 12 4 10 5 9 6 4 7 5 8 6 10 82 11 7 12 8 14
REMARK SMILES IDX 3 15 1 16 2 17 83 18 84 19 91 20 85 21 90 22 86 23 87 24
REMARK SMILES IDX 88 25 89 26 15 27 16 28 17 29 18 30 19 31 20 32 81 33 21 34
REMARK SMILES IDX 80 35 22 36 23 37 24 38 74 39 25 40 79 41 73 42 75 43 26 44
REMARK SMILES IDX 78 45 72 46 71 47 27 49 59 50 39 51 58 52 40 53 43 54 57 55
REMARK SMILES IDX 76 56 41 57 42 58 56 60 77 61 44 62 28 63 29 64 37 65 30 66
REMARK SMILES IDX 31 67 35 68 38 69 32 70 33 71 36 72 34 73 60 74 61 75 69 76
REMARK SMILES IDX 62 77 63 78 67 79 70 80 64 81 65 82 68 83 66 84 45 85 46 86
REMARK SMILES IDX 54 87 47 88 48 89 52 90 55 91 49 92 50 93 53 94 51 95
REMARK H PARENT 4 9 6 13 75 48 43 59
REMARK Flexibility Score: inf
ROOT
ATOM      1  C   UNL     1      -3.610   2.395  -6.310  1.00  0.00     0.274 C 
ENDROOT
BRANCH   1   2
ATOM      2  O   UNL     1      -3.424   2.249  -4.890  1.00  0.00    -0.462 OA
BRANCH   2   3
ATOM      3  C   UNL     1      -3.979   1.181  -4.277  1.00  0.00     0.307 C 
ATOM      4  O   UNL     1      -4.633   0.310  -4.835  1.00  0.00    -0.252 OA
BRANCH   3   5
ATOM      5  C   UNL     1      -3.738   1.206  -2.787  1.00  0.00     0.150 C 
BRANCH   5   6
ATOM      6  C   UNL     1      -2.260   1.244  -2.440  1.00  0.00     0.184 C 
ATOM      7  N   UNL     1      -0.206   2.036   0.738  1.00  0.00    -0.142 N 
ATOM      8  C   UNL     1      -0.977   1.888  -0.283  1.00  0.00     0.337 C 
ATOM      9  H   UNL     1       0.320   2.858   0.864  1.00  0.00     0.343 HD
ATOM     10  N   UNL     1      -1.034   2.877  -1.198  1.00  0.00    -0.202 N 
ATOM     11  S   UNL     1      -1.964   0.546  -0.760  1.00  0.00    -0.020 SA
ATOM     12  C   UNL     1      -1.705   2.659  -2.359  1.00  0.00     0.322 C 
ATOM     13  H   UNL     1      -0.597   3.743  -1.027  1.00  0.00     0.316 HD
ATOM     14  O   UNL     1      -1.789   3.523  -3.221  1.00  0.00    -0.246 OA
BRANCH   7  15
ATOM     15  N   UNL     1      -0.143   0.996   1.654  1.00  0.00    -0.090 NA
ATOM     16  C   UNL     1       1.741   0.127   0.263  1.00  0.00     0.071 C 
ATOM     17  C   UNL     1       0.851   0.168   1.494  1.00  0.00     0.088 C 
BRANCH  17  18
ATOM     18  C   UNL     1       1.148  -0.803   2.599  1.00  0.00    -0.000 A 
ATOM     19  C   UNL     1       0.185  -1.036   3.593  1.00  0.00     0.017 A 
ATOM     20  C   UNL     1       2.412  -1.401   2.715  1.00  0.00     0.017 A 
ATOM     21  C   UNL     1       0.484  -1.838   4.700  1.00  0.00     0.086 A 
ATOM     22  C   UNL     1       2.722  -2.197   3.822  1.00  0.00     0.086 A 
ATOM     23  C   UNL     1       1.759  -2.405   4.817  1.00  0.00     0.269 A 
BRANCH  23  24
ATOM     24  N   UNL     1       2.102  -3.201   6.003  1.00  0.00     0.062 N 
ATOM     25  O   UNL     1       1.219  -3.379   6.853  1.00  0.00    -0.258 OA
ATOM     26  O   UNL     1       3.257  -3.642   6.084  1.00  0.00    -0.258 OA
ENDBRANCH  23  24
ENDBRANCH  17  18
ENDBRANCH   7  15
ENDBRANCH   5   6
ENDBRANCH   3   5
ENDBRANCH   2   3
ENDBRANCH   1   2
BRANCH   1  27
ATOM     27  C   UNL     1      -2.407   1.863  -7.090  1.00  0.00     0.275 C 
BRANCH  27  28
ATOM     28  O   UNL     1      -2.402   0.423  -7.115  1.00  0.00    -0.458 OA
BRANCH  28  29
ATOM     29  C   UNL     1      -1.647  -0.172  -6.164  1.00  0.00     0.338 C 
ATOM     30  O   UNL     1      -0.925   0.365  -5.344  1.00  0.00    -0.246 OA
BRANCH  29  31
ATOM     31  C   UNL     1      -1.926  -1.617  -6.155  1.00  0.00     0.060 A 
ATOM     32  C   UNL     1      -2.422  -2.187  -4.979  1.00  0.00     0.016 A 
ATOM     33  C   UNL     1      -1.655  -2.408  -7.272  1.00  0.00     0.016 A 
ATOM     34  C   UNL     1      -2.654  -3.558  -4.916  1.00  0.00     0.010 A 
ATOM     35  C   UNL     1      -1.890  -3.784  -7.208  1.00  0.00     0.010 A 
ATOM     36  C   UNL     1      -2.385  -4.367  -6.028  1.00  0.00    -0.014 A 
BRANCH  36  37
ATOM     37  C   UNL     1      -2.602  -5.831  -5.948  1.00  0.00     0.031 A 
ATOM     38  C   UNL     1      -1.429  -6.758  -5.825  1.00  0.00     0.074 A 
ATOM     39  C   UNL     1      -3.854  -6.322  -5.987  1.00  0.00     0.049 A 
ATOM     40  N   UNL     1      -1.405  -8.066  -5.808  1.00  0.00    -0.248 NA
ATOM     41  C   UNL     1      -0.105  -6.128  -5.707  1.00  0.00     0.031 C 
ATOM     42  C   UNL     1      -5.071  -5.517  -6.078  1.00  0.00     0.029 A 
ATOM     43  N   UNL     1      -4.307  -7.617  -5.963  1.00  0.00    -0.354 N 
ATOM     44  C   UNL     1      -0.067  -8.418  -5.690  1.00  0.00     0.074 A 
ATOM     45  C   UNL     1       0.693  -7.186  -5.662  1.00  0.00     0.031 C 
ATOM     46  C   UNL     1      -6.135  -6.336  -6.106  1.00  0.00     0.029 A 
ATOM     47  C   UNL     1      -5.671  -7.721  -6.075  1.00  0.00     0.049 A 
ATOM     48  H   UNL     1      -3.712  -8.396  -5.874  1.00  0.00     0.167 HD
ATOM     49  C   UNL     1       0.473  -9.657  -5.606  1.00  0.00     0.037 A 
ATOM     50  C   UNL     1      -6.454  -8.812  -6.170  1.00  0.00     0.037 A 
ATOM     51  C   UNL     1      -0.289 -10.879  -5.628  1.00  0.00     0.049 A 
ATOM     52  C   UNL     1      -5.822 -10.177  -6.138  1.00  0.00     0.074 A 
ATOM     53  C   UNL     1       0.165 -12.182  -5.519  1.00  0.00     0.029 A 
ATOM     54  N   UNL     1      -1.667 -10.947  -5.775  1.00  0.00    -0.354 N 
ATOM     55  N   UNL     1      -4.559 -10.501  -6.003  1.00  0.00    -0.248 NA
ATOM     56  C   UNL     1      -6.725 -11.329  -6.276  1.00  0.00     0.031 C 
ATOM     57  C   UNL     1      -0.933 -13.040  -5.647  1.00  0.00     0.029 A 
ATOM     58  C   UNL     1      -2.076 -12.271  -5.789  1.00  0.00     0.049 A 
ATOM     59  H   UNL     1      -2.265 -10.170  -5.857  1.00  0.00     0.167 HD
ATOM     60  C   UNL     1      -4.516 -11.889  -6.022  1.00  0.00     0.074 A 
ATOM     61  C   UNL     1      -5.883 -12.347  -6.163  1.00  0.00     0.031 C 
ATOM     62  C   UNL     1      -3.441 -12.710  -5.933  1.00  0.00     0.037 A 
BRANCH  49  63
ATOM     63  C   UNL     1       1.967  -9.756  -5.507  1.00  0.00     0.064 A 
ATOM     64  C   UNL     1       2.653  -9.404  -4.336  1.00  0.00     0.173 A 
ATOM     65  C   UNL     1       2.718 -10.245  -6.587  1.00  0.00     0.173 A 
ATOM     66  F   UNL     1       1.982  -8.918  -3.280  1.00  0.00    -0.203 F 
ATOM     67  C   UNL     1       4.039  -9.517  -4.257  1.00  0.00     0.198 A 
ATOM     68  C   UNL     1       4.100 -10.381  -6.495  1.00  0.00     0.198 A 
ATOM     69  F   UNL     1       2.109 -10.600  -7.729  1.00  0.00    -0.203 F 
ATOM     70  F   UNL     1       4.678  -9.134  -3.143  1.00  0.00    -0.200 F 
ATOM     71  C   UNL     1       4.760 -10.011  -5.333  1.00  0.00     0.200 A 
ATOM     72  F   UNL     1       4.795 -10.867  -7.533  1.00  0.00    -0.200 F 
ATOM     73  F   UNL     1       6.093 -10.122  -5.254  1.00  0.00    -0.200 F 
ENDBRANCH  49  63
BRANCH  50  74
ATOM     74  C   UNL     1      -7.924  -8.657  -6.322  1.00  0.00     0.064 A 
ATOM     75  C   UNL     1      -8.800  -9.027  -5.293  1.00  0.00     0.173 A 
ATOM     76  C   UNL     1      -8.481  -8.142  -7.502  1.00  0.00     0.173 A 
ATOM     77  F   UNL     1      -8.315  -9.550  -4.157  1.00  0.00    -0.203 F 
ATOM     78  C   UNL     1     -10.179  -8.901  -5.444  1.00  0.00     0.198 A 
ATOM     79  C   UNL     1      -9.859  -7.990  -7.641  1.00  0.00     0.198 A 
ATOM     80  F   UNL     1      -7.685  -7.776  -8.518  1.00  0.00    -0.203 F 
ATOM     81  F   UNL     1     -10.997  -9.302  -4.461  1.00  0.00    -0.200 F 
ATOM     82  C   UNL     1     -10.707  -8.376  -6.614  1.00  0.00     0.200 A 
ATOM     83  F   UNL     1     -10.364  -7.473  -8.769  1.00  0.00    -0.200 F 
ATOM     84  F   UNL     1     -12.034  -8.252  -6.756  1.00  0.00    -0.200 F 
ENDBRANCH  50  74
BRANCH  62  85
ATOM     85  C   UNL     1      -3.702 -14.187  -5.968  1.00  0.00     0.064 A 
ATOM     86  C   UNL     1      -4.065 -14.839  -7.155  1.00  0.00     0.173 A 
ATOM     87  C   UNL     1      -3.550 -14.964  -4.810  1.00  0.00     0.173 A 
ATOM     88  F   UNL     1      -4.239 -14.137  -8.285  1.00  0.00    -0.203 F 
ATOM     89  C   UNL     1      -4.288 -16.213  -7.176  1.00  0.00     0.198 A 
ATOM     90  C   UNL     1      -3.747 -16.342  -4.841  1.00  0.00     0.198 A 
ATOM     91  F   UNL     1      -3.199 -14.389  -3.650  1.00  0.00    -0.203 F 
ATOM     92  F   UNL     1      -4.676 -16.809  -8.312  1.00  0.00    -0.200 F 
ATOM     93  C   UNL     1      -4.122 -16.964  -6.022  1.00  0.00     0.200 A 
ATOM     94  F   UNL     1      -3.575 -17.068  -3.728  1.00  0.00    -0.200 F 
ATOM     95  F   UNL     1      -4.330 -18.288  -6.047  1.00  0.00    -0.200 F 
ENDBRANCH  62  85
ENDBRANCH  36  37
ENDBRANCH  29  31
ENDBRANCH  28  29
ENDBRANCH  27  28
ENDBRANCH   1  27
TORSDOF 15
