REMARK SMILES COc1cccc(NC(=O)c2nccnc2C(=O)OCCOC(=O)c2ccc(-c3c4nc(c(-c5c(F)c(F)c(F)c(F)c5F)c5ccc([nH]5)c(-c5c(F)c(F)c(F)c(F)c5F)c5nc(c(-c6c(F)c(F)c(F)c(F)c6F)c6ccc3[nH]6)C=C5)C=C4)cc2)c1
REMARK SMILES IDX 20 1 19 2 17 3 18 4 16 5 11 6 12 7 13 8 15 9 14 10 9 11 8 12
REMARK SMILES IDX 10 14 7 15 3 16 4 17 88 18 5 19 6 20 2 21 1 22 21 23 22 24
REMARK SMILES IDX 23 25 24 26 25 27 26 28 87 29 27 30 86 31 28 32 29 33 30 34
REMARK SMILES IDX 80 35 31 36 85 37 79 38 81 39 32 40 84 41 78 42 77 43 33 45
REMARK SMILES IDX 65 46 45 47 64 48 46 49 49 50 63 51 82 52 47 53 48 54 62 56
REMARK SMILES IDX 83 57 50 58 34 59 35 60 43 61 36 62 37 63 41 64 44 65 38 66
REMARK SMILES IDX 39 67 42 68 40 69 66 70 67 71 75 72 68 73 69 74 73 75 76 76
REMARK SMILES IDX 70 77 71 78 74 79 72 80 51 81 52 82 60 83 53 84 54 85 58 86
REMARK SMILES IDX 61 87 55 88 56 89 59 90 57 91
REMARK H PARENT 8 13 81 44 49 55
REMARK Flexibility Score: inf
ROOT
ATOM      1  C   UNL     1       7.071   6.550   3.132  1.00  0.00     0.275 C 
ENDROOT
BRANCH   1   2
ATOM      2  O   UNL     1       5.797   6.066   3.602  1.00  0.00    -0.457 OA
BRANCH   2   3
ATOM      3  C   UNL     1       5.433   6.450   4.850  1.00  0.00     0.359 C 
ATOM      4  O   UNL     1       6.057   7.227   5.560  1.00  0.00    -0.244 OA
BRANCH   3   5
ATOM      5  C   UNL     1       4.096   5.920   5.236  1.00  0.00     0.179 A 
ATOM      6  C   UNL     1       3.585   4.685   4.869  1.00  0.00     0.161 A 
ATOM      7  N   UNL     1       2.363   4.246   5.318  1.00  0.00    -0.247 NA
ATOM      8  C   UNL     1       1.657   5.105   6.083  1.00  0.00     0.132 A 
ATOM      9  N   UNL     1       3.362   6.779   6.023  1.00  0.00    -0.245 NA
ATOM     10  C   UNL     1       2.144   6.350   6.423  1.00  0.00     0.132 A 
BRANCH   6  11
ATOM     11  C   UNL     1       4.336   3.711   4.047  1.00  0.00     0.276 C 
ATOM     12  N   UNL     1       3.730   2.997   3.029  1.00  0.00    -0.320 N 
ATOM     13  H   UNL     1       4.280   2.259   2.680  1.00  0.00     0.170 HD
ATOM     14  O   UNL     1       5.502   3.453   4.354  1.00  0.00    -0.267 OA
BRANCH  12  15
ATOM     15  C   UNL     1       2.475   3.121   2.393  1.00  0.00     0.045 A 
ATOM     16  C   UNL     1       0.767   2.017   1.047  1.00  0.00     0.120 A 
ATOM     17  C   UNL     1      -0.046   3.144   1.164  1.00  0.00     0.046 A 
ATOM     18  C   UNL     1       2.024   2.010   1.660  1.00  0.00     0.072 A 
ATOM     19  C   UNL     1       0.410   4.270   1.843  1.00  0.00     0.006 A 
ATOM     20  C   UNL     1       1.677   4.265   2.432  1.00  0.00     0.026 A 
BRANCH  16  21
ATOM     21  O   UNL     1       0.216   0.996   0.323  1.00  0.00    -0.497 OA
ATOM     22  C   UNL     1       1.032  -0.143   0.086  1.00  0.00     0.278 C 
ENDBRANCH  16  21
ENDBRANCH  12  15
ENDBRANCH   6  11
ENDBRANCH   3   5
ENDBRANCH   2   3
ENDBRANCH   1   2
BRANCH   1  23
ATOM     23  C   UNL     1       6.900   7.472   1.923  1.00  0.00     0.275 C 
BRANCH  23  24
ATOM     24  O   UNL     1       6.180   8.672   2.266  1.00  0.00    -0.458 OA
BRANCH  24  25
ATOM     25  C   UNL     1       4.834   8.569   2.166  1.00  0.00     0.338 C 
ATOM     26  O   UNL     1       4.189   7.609   1.777  1.00  0.00    -0.246 OA
BRANCH  25  27
ATOM     27  C   UNL     1       4.194   9.755   2.754  1.00  0.00     0.060 A 
ATOM     28  C   UNL     1       3.281   9.533   3.786  1.00  0.00     0.016 A 
ATOM     29  C   UNL     1       4.412  11.045   2.266  1.00  0.00     0.016 A 
ATOM     30  C   UNL     1       2.570  10.595   4.330  1.00  0.00     0.010 A 
ATOM     31  C   UNL     1       3.697  12.117   2.817  1.00  0.00     0.010 A 
ATOM     32  C   UNL     1       2.763  11.895   3.845  1.00  0.00    -0.014 A 
BRANCH  32  33
ATOM     33  C   UNL     1       1.944  12.997   4.407  1.00  0.00     0.031 A 
ATOM     34  C   UNL     1       0.803  13.570   3.619  1.00  0.00     0.074 A 
ATOM     35  C   UNL     1       2.183  13.428   5.660  1.00  0.00     0.049 A 
ATOM     36  N   UNL     1      -0.031  14.526   3.944  1.00  0.00    -0.248 NA
ATOM     37  C   UNL     1       0.564  12.989   2.289  1.00  0.00     0.031 C 
ATOM     38  C   UNL     1       3.235  12.919   6.538  1.00  0.00     0.029 A 
ATOM     39  N   UNL     1       1.546  14.381   6.415  1.00  0.00    -0.354 N 
ATOM     40  C   UNL     1      -0.882  14.672   2.857  1.00  0.00     0.074 A 
ATOM     41  C   UNL     1      -0.454  13.719   1.854  1.00  0.00     0.031 C 
ATOM     42  C   UNL     1       3.161  13.551   7.721  1.00  0.00     0.029 A 
ATOM     43  C   UNL     1       2.084  14.537   7.668  1.00  0.00     0.049 A 
ATOM     44  H   UNL     1       0.777  14.902   6.089  1.00  0.00     0.167 HD
ATOM     45  C   UNL     1      -1.927  15.522   2.712  1.00  0.00     0.037 A 
ATOM     46  C   UNL     1       1.756  15.389   8.656  1.00  0.00     0.037 A 
ATOM     47  C   UNL     1      -2.362  16.458   3.716  1.00  0.00     0.049 A 
ATOM     48  C   UNL     1       0.619  16.352   8.451  1.00  0.00     0.074 A 
ATOM     49  C   UNL     1      -3.420  17.350   3.666  1.00  0.00     0.029 A 
ATOM     50  N   UNL     1      -1.761  16.623   4.956  1.00  0.00    -0.354 N 
ATOM     51  N   UNL     1      -0.177  16.485   7.419  1.00  0.00    -0.248 NA
ATOM     52  C   UNL     1       0.339  17.288   9.550  1.00  0.00     0.031 C 
ATOM     53  C   UNL     1      -3.435  18.081   4.860  1.00  0.00     0.029 A 
ATOM     54  C   UNL     1      -2.413  17.616   5.670  1.00  0.00     0.049 A 
ATOM     55  H   UNL     1      -0.986  16.110   5.280  1.00  0.00     0.167 HD
ATOM     56  C   UNL     1      -1.055  17.509   7.743  1.00  0.00     0.074 A 
ATOM     57  C   UNL     1      -0.711  17.947   9.080  1.00  0.00     0.031 C 
ATOM     58  C   UNL     1      -2.052  18.045   6.997  1.00  0.00     0.037 A 
BRANCH  45  59
ATOM     59  C   UNL     1      -2.661  15.498   1.404  1.00  0.00     0.064 A 
ATOM     60  C   UNL     1      -3.528  14.451   1.063  1.00  0.00     0.173 A 
ATOM     61  C   UNL     1      -2.520  16.558   0.495  1.00  0.00     0.173 A 
ATOM     62  F   UNL     1      -3.686  13.408   1.893  1.00  0.00    -0.203 F 
ATOM     63  C   UNL     1      -4.212  14.454  -0.150  1.00  0.00     0.198 A 
ATOM     64  C   UNL     1      -3.224  16.570  -0.706  1.00  0.00     0.198 A 
ATOM     65  F   UNL     1      -1.706  17.586   0.776  1.00  0.00    -0.203 F 
ATOM     66  F   UNL     1      -5.006  13.424  -0.473  1.00  0.00    -0.200 F 
ATOM     67  C   UNL     1      -4.065  15.517  -1.030  1.00  0.00     0.200 A 
ATOM     68  F   UNL     1      -3.087  17.602  -1.551  1.00  0.00    -0.200 F 
ATOM     69  F   UNL     1      -4.728  15.521  -2.195  1.00  0.00    -0.200 F 
ENDBRANCH  45  59
BRANCH  46  70
ATOM     70  C   UNL     1       2.528  15.382   9.925  1.00  0.00     0.064 A 
ATOM     71  C   UNL     1       1.951  14.935  11.121  1.00  0.00     0.173 A 
ATOM     72  C   UNL     1       3.858  15.825   9.966  1.00  0.00     0.173 A 
ATOM     73  F   UNL     1       0.673  14.527  11.136  1.00  0.00    -0.203 F 
ATOM     74  C   UNL     1       2.672  14.943  12.313  1.00  0.00     0.198 A 
ATOM     75  C   UNL     1       4.586  15.808  11.153  1.00  0.00     0.198 A 
ATOM     76  F   UNL     1       4.453  16.267   8.848  1.00  0.00    -0.203 F 
ATOM     77  F   UNL     1       2.084  14.550  13.451  1.00  0.00    -0.200 F 
ATOM     78  C   UNL     1       3.991  15.373  12.327  1.00  0.00     0.200 A 
ATOM     79  F   UNL     1       5.863  16.215  11.159  1.00  0.00    -0.200 F 
ATOM     80  F   UNL     1       4.684  15.377  13.473  1.00  0.00    -0.200 F 
ENDBRANCH  46  70
BRANCH  58  81
ATOM     81  C   UNL     1      -2.845  19.157   7.618  1.00  0.00     0.064 A 
ATOM     82  C   UNL     1      -2.303  20.442   7.775  1.00  0.00     0.173 A 
ATOM     83  C   UNL     1      -4.163  18.942   8.045  1.00  0.00     0.173 A 
ATOM     84  F   UNL     1      -1.040  20.692   7.398  1.00  0.00    -0.203 F 
ATOM     85  C   UNL     1      -3.045  21.464   8.360  1.00  0.00     0.198 A 
ATOM     86  C   UNL     1      -4.911  19.973   8.606  1.00  0.00     0.198 A 
ATOM     87  F   UNL     1      -4.728  17.732   7.913  1.00  0.00    -0.203 F 
ATOM     88  F   UNL     1      -2.491  22.671   8.544  1.00  0.00    -0.200 F 
ATOM     89  C   UNL     1      -4.349  21.231   8.771  1.00  0.00     0.200 A 
ATOM     90  F   UNL     1      -6.174  19.749   8.994  1.00  0.00    -0.200 F 
ATOM     91  F   UNL     1      -5.062  22.216   9.335  1.00  0.00    -0.200 F 
ENDBRANCH  58  81
ENDBRANCH  32  33
ENDBRANCH  25  27
ENDBRANCH  24  25
ENDBRANCH  23  24
ENDBRANCH   1  23
TORSDOF 14
