REMARK SMILES CC[C@](NC(=O)c1cccc(CS(C)(=O)=O)c1)(C(=O)OCCOC(=O)c1ccc(-c2c3nc(c(-c4c(F)c(F)c(F)c(F)c4F)c4ccc([nH]4)c(-c4c(F)c(F)c(F)c(F)c4F)c4nc(c(-c5c(F)c(F)c(F)c(F)c5F)c5ccc2[nH]5)C=C4)C=C3)cc1)c1ccccc1
REMARK SMILES IDX 21 1 20 2 18 3 19 4 3 5 2 6 1 7 89 8 90 9 94 10 91 11 93 12
REMARK SMILES IDX 92 13 4 14 5 15 6 17 7 18 8 19 17 20 9 21 11 22 10 23 12 24
REMARK SMILES IDX 13 25 14 26 15 27 16 28 22 29 23 30 24 31 25 32 26 33 27 34
REMARK SMILES IDX 88 35 28 36 87 37 29 38 30 39 31 40 81 41 32 42 86 43 80 44
REMARK SMILES IDX 82 45 33 46 85 47 79 48 78 49 34 51 66 52 46 53 65 54 47 55
REMARK SMILES IDX 50 56 64 57 83 58 48 59 49 60 63 62 84 63 51 64 35 65 36 66
REMARK SMILES IDX 44 67 37 68 38 69 42 70 45 71 39 72 40 73 43 74 41 75 67 76
REMARK SMILES IDX 68 77 76 78 69 79 70 80 74 81 77 82 71 83 72 84 75 85 73 86
REMARK SMILES IDX 52 87 53 88 61 89 54 90 55 91 59 92 62 93 56 94 57 95 60 96
REMARK SMILES IDX 58 97
REMARK H PARENT 4 16 82 50 50 61
REMARK Flexibility Score: inf
ROOT
ATOM      1  C   UNL     1      -1.001  -3.314  -4.267  1.00  0.00     0.274 C 
ENDROOT
BRANCH   1   2
ATOM      2  O   UNL     1      -0.615  -2.284  -3.320  1.00  0.00    -0.460 OA
BRANCH   2   3
ATOM      3  C   UNL     1       0.404  -2.630  -2.477  1.00  0.00     0.336 C 
ATOM      4  O   UNL     1       0.935  -3.740  -2.525  1.00  0.00    -0.249 OA
BRANCH   3   5
ATOM      5  C   UNL     1       0.724  -1.563  -1.357  1.00  0.00     0.163 C 
BRANCH   5   6
ATOM      6  C   UNL     1      -0.012  -2.204  -0.099  1.00  0.00     0.042 C 
ATOM      7  C   UNL     1       0.272  -1.527   1.246  1.00  0.00     0.007 C 
ENDBRANCH   5   6
BRANCH   5   8
ATOM      8  C   UNL     1       2.242  -1.550  -1.009  1.00  0.00    -0.011 A 
ATOM      9  C   UNL     1       2.894  -2.744  -0.603  1.00  0.00     0.007 A 
ATOM     10  C   UNL     1       3.021  -0.389  -0.993  1.00  0.00     0.007 A 
ATOM     11  C   UNL     1       4.242  -2.776  -0.231  1.00  0.00     0.000 A 
ATOM     12  C   UNL     1       4.378  -0.417  -0.635  1.00  0.00     0.000 A 
ATOM     13  C   UNL     1       4.988  -1.608  -0.254  1.00  0.00     0.000 A 
ENDBRANCH   5   8
BRANCH   5  14
ATOM     14  N   UNL     1       0.060  -0.215  -1.502  1.00  0.00    -0.332 N 
ATOM     15  C   UNL     1       0.089   0.946  -2.216  1.00  0.00     0.252 C 
ATOM     16  H   UNL     1      -0.660  -0.150  -0.835  1.00  0.00     0.165 HD
ATOM     17  O   UNL     1      -0.677   1.840  -1.844  1.00  0.00    -0.269 OA
BRANCH  15  18
ATOM     18  C   UNL     1       0.943   1.273  -3.367  1.00  0.00     0.040 A 
ATOM     19  C   UNL     1       1.922   2.258  -3.227  1.00  0.00     0.014 A 
ATOM     20  C   UNL     1       0.585   0.864  -4.652  1.00  0.00     0.018 A 
ATOM     21  C   UNL     1       2.595   2.741  -4.350  1.00  0.00     0.001 A 
ATOM     22  C   UNL     1       1.305   1.280  -5.803  1.00  0.00    -0.032 A 
ATOM     23  C   UNL     1       2.296   2.248  -5.625  1.00  0.00     0.005 A 
BRANCH  22  24
ATOM     24  C   UNL     1       1.000   0.536  -7.083  1.00  0.00     0.172 C 
BRANCH  24  25
ATOM     25  S   UNL     1       1.610   1.174  -8.627  1.00  0.00     0.151 S 
ATOM     26  C   UNL     1       3.388   1.072  -8.559  1.00  0.00     0.158 C 
ATOM     27  O   UNL     1       1.201   0.214  -9.639  1.00  0.00    -0.229 OA
ATOM     28  O   UNL     1       1.240   2.571  -8.760  1.00  0.00    -0.229 OA
ENDBRANCH  24  25
ENDBRANCH  22  24
ENDBRANCH  15  18
ENDBRANCH   5  14
ENDBRANCH   3   5
ENDBRANCH   2   3
ENDBRANCH   1   2
BRANCH   1  29
ATOM     29  C   UNL     1      -0.323  -3.203  -5.647  1.00  0.00     0.275 C 
BRANCH  29  30
ATOM     30  O   UNL     1       1.074  -3.584  -5.677  1.00  0.00    -0.458 OA
BRANCH  30  31
ATOM     31  C   UNL     1       1.880  -2.612  -5.229  1.00  0.00     0.338 C 
ATOM     32  O   UNL     1       1.516  -1.544  -4.759  1.00  0.00    -0.246 OA
BRANCH  31  33
ATOM     33  C   UNL     1       3.314  -2.826  -5.274  1.00  0.00     0.060 A 
ATOM     34  C   UNL     1       3.920  -2.990  -4.032  1.00  0.00     0.016 A 
ATOM     35  C   UNL     1       4.043  -2.372  -6.376  1.00  0.00     0.016 A 
ATOM     36  C   UNL     1       5.248  -2.640  -3.866  1.00  0.00     0.010 A 
ATOM     37  C   UNL     1       5.402  -2.084  -6.223  1.00  0.00     0.010 A 
ATOM     38  C   UNL     1       6.004  -2.202  -4.961  1.00  0.00    -0.014 A 
BRANCH  38  39
ATOM     39  C   UNL     1       7.458  -2.024  -4.778  1.00  0.00     0.031 A 
ATOM     40  C   UNL     1       8.107  -0.677  -4.788  1.00  0.00     0.074 A 
ATOM     41  C   UNL     1       8.178  -3.139  -4.558  1.00  0.00     0.049 A 
ATOM     42  N   UNL     1       9.383  -0.386  -4.760  1.00  0.00    -0.248 NA
ATOM     43  C   UNL     1       7.223   0.496  -4.840  1.00  0.00     0.031 C 
ATOM     44  C   UNL     1       7.617  -4.491  -4.487  1.00  0.00     0.029 A 
ATOM     45  N   UNL     1       9.514  -3.319  -4.335  1.00  0.00    -0.354 N 
ATOM     46  C   UNL     1       9.462   0.996  -4.845  1.00  0.00     0.074 A 
ATOM     47  C   UNL     1       8.101   1.493  -4.894  1.00  0.00     0.031 C 
ATOM     48  C   UNL     1       8.593  -5.357  -4.194  1.00  0.00     0.029 A 
ATOM     49  C   UNL     1       9.856  -4.633  -4.144  1.00  0.00     0.049 A 
ATOM     50  H   UNL     1      10.165  -2.581  -4.314  1.00  0.00     0.167 HD
ATOM     51  C   UNL     1      10.580   1.761  -4.898  1.00  0.00     0.037 A 
ATOM     52  C   UNL     1      11.062  -5.203  -3.987  1.00  0.00     0.037 A 
ATOM     53  C   UNL     1      11.922   1.237  -4.808  1.00  0.00     0.049 A 
ATOM     54  C   UNL     1      12.274  -4.331  -4.021  1.00  0.00     0.074 A 
ATOM     55  C   UNL     1      13.125   1.921  -4.862  1.00  0.00     0.029 A 
ATOM     56  N   UNL     1      12.236  -0.103  -4.628  1.00  0.00    -0.354 N 
ATOM     57  N   UNL     1      12.344  -3.033  -4.190  1.00  0.00    -0.248 NA
ATOM     58  C   UNL     1      13.570  -4.997  -3.865  1.00  0.00     0.031 C 
ATOM     59  C   UNL     1      14.165   0.992  -4.738  1.00  0.00     0.029 A 
ATOM     60  C   UNL     1      13.612  -0.267  -4.574  1.00  0.00     0.049 A 
ATOM     61  H   UNL     1      11.578  -0.832  -4.550  1.00  0.00     0.167 HD
ATOM     62  C   UNL     1      13.692  -2.724  -4.188  1.00  0.00     0.074 A 
ATOM     63  C   UNL     1      14.404  -3.969  -3.960  1.00  0.00     0.031 C 
ATOM     64  C   UNL     1      14.289  -1.523  -4.376  1.00  0.00     0.037 A 
BRANCH  51  65
ATOM     65  C   UNL     1      10.417   3.236  -5.115  1.00  0.00     0.064 A 
ATOM     66  C   UNL     1      10.031   4.103  -4.084  1.00  0.00     0.173 A 
ATOM     67  C   UNL     1      10.731   3.799  -6.363  1.00  0.00     0.173 A 
ATOM     68  F   UNL     1       9.708   3.615  -2.877  1.00  0.00    -0.203 F 
ATOM     69  C   UNL     1       9.961   5.479  -4.295  1.00  0.00     0.198 A 
ATOM     70  C   UNL     1      10.678   5.176  -6.565  1.00  0.00     0.198 A 
ATOM     71  F   UNL     1      11.107   3.012  -7.382  1.00  0.00    -0.203 F 
ATOM     72  F   UNL     1       9.571   6.290  -3.301  1.00  0.00    -0.200 F 
ATOM     73  C   UNL     1      10.293   6.015  -5.532  1.00  0.00     0.200 A 
ATOM     74  F   UNL     1      11.006   5.690  -7.759  1.00  0.00    -0.200 F 
ATOM     75  F   UNL     1      10.237   7.340  -5.728  1.00  0.00    -0.200 F 
ENDBRANCH  51  65
BRANCH  52  76
ATOM     76  C   UNL     1      11.137  -6.673  -3.826  1.00  0.00     0.064 A 
ATOM     77  C   UNL     1      11.386  -7.245  -2.574  1.00  0.00     0.173 A 
ATOM     78  C   UNL     1      10.835  -7.531  -4.896  1.00  0.00     0.173 A 
ATOM     79  F   UNL     1      11.686  -6.462  -1.528  1.00  0.00    -0.203 F 
ATOM     80  C   UNL     1      11.315  -8.624  -2.392  1.00  0.00     0.198 A 
ATOM     81  C   UNL     1      10.740  -8.906  -4.706  1.00  0.00     0.198 A 
ATOM     82  F   UNL     1      10.572  -7.023  -6.109  1.00  0.00    -0.203 F 
ATOM     83  F   UNL     1      11.556  -9.151  -1.184  1.00  0.00    -0.200 F 
ATOM     84  C   UNL     1      10.978  -9.451  -3.454  1.00  0.00     0.200 A 
ATOM     85  F   UNL     1      10.387  -9.697  -5.728  1.00  0.00    -0.200 F 
ATOM     86  F   UNL     1      10.873 -10.774  -3.268  1.00  0.00    -0.200 F 
ENDBRANCH  52  76
BRANCH  64  87
ATOM     87  C   UNL     1      15.784  -1.522  -4.364  1.00  0.00     0.064 A 
ATOM     88  C   UNL     1      16.514  -1.962  -5.478  1.00  0.00     0.173 A 
ATOM     89  C   UNL     1      16.491  -1.089  -3.234  1.00  0.00     0.173 A 
ATOM     90  F   UNL     1      15.875  -2.402  -6.572  1.00  0.00    -0.203 F 
ATOM     91  C   UNL     1      17.904  -1.992  -5.450  1.00  0.00     0.198 A 
ATOM     92  C   UNL     1      17.882  -1.105  -3.216  1.00  0.00     0.198 A 
ATOM     93  F   UNL     1      15.831  -0.663  -2.147  1.00  0.00    -0.203 F 
ATOM     94  F   UNL     1      18.584  -2.457  -6.508  1.00  0.00    -0.200 F 
ATOM     95  C   UNL     1      18.587  -1.562  -4.321  1.00  0.00     0.200 A 
ATOM     96  F   UNL     1      18.541  -0.692  -2.126  1.00  0.00    -0.200 F 
ATOM     97  F   UNL     1      19.926  -1.603  -4.292  1.00  0.00    -0.200 F 
ENDBRANCH  64  87
ENDBRANCH  38  39
ENDBRANCH  31  33
ENDBRANCH  30  31
ENDBRANCH  29  30
ENDBRANCH   1  29
TORSDOF 17
