REMARK SMILES O=C(OCCOC(=O)c1ccc(-c2c3nc(c(-c4c(F)c(F)c(F)c(F)c4F)c4ccc([nH]4)c(-c4c(F)c(F)c(F)c(F)c4F)c4nc(c(-c5c(F)c(F)c(F)c(F)c5F)c5ccc2[nH]5)C=C4)C=C3)cc1)C1=Cc2cc(S(F)(F)(F)(F)F)cc(Br)c2O[C@@H]1C(F)(F)F
REMARK SMILES IDX 5 1 4 2 3 3 2 4 1 5 72 6 73 7 88 8 74 9 87 10 75 11 86 12
REMARK SMILES IDX 76 13 84 14 83 15 85 16 89 17 90 18 91 19 92 20 77 21 78 22
REMARK SMILES IDX 79 23 80 24 81 25 82 26 6 27 7 28 8 29 9 30 10 31 71 32
REMARK SMILES IDX 11 33 70 34 12 35 13 36 14 37 64 38 15 39 69 40 63 41 65 42
REMARK SMILES IDX 16 43 68 44 62 45 61 46 17 48 49 49 29 50 48 51 30 52 33 53
REMARK SMILES IDX 47 54 66 55 31 56 32 57 46 59 67 60 34 61 18 62 19 63 27 64
REMARK SMILES IDX 20 65 21 66 25 67 28 68 22 69 23 70 26 71 24 72 50 73 51 74
REMARK SMILES IDX 59 75 52 76 53 77 57 78 60 79 54 80 55 81 58 82 56 83 35 84
REMARK SMILES IDX 36 85 44 86 37 87 38 88 42 89 45 90 39 91 40 92 43 93 41 94
REMARK H PARENT 65 47 33 58
REMARK Flexibility Score: inf
ROOT
ATOM      1  C   UNL     1       4.835   0.279  -1.384  1.00  0.00     0.275 C 
ENDROOT
BRANCH   1   2
ATOM      2  C   UNL     1       4.329  -1.008  -0.755  1.00  0.00     0.275 C 
BRANCH   2   3
ATOM      3  O   UNL     1       2.909  -1.008  -0.755  1.00  0.00    -0.459 OA
BRANCH   3   4
ATOM      4  C   UNL     1       2.199   0.012  -0.068  1.00  0.00     0.338 C 
ATOM      5  O   UNL     1       0.928   0.012  -0.068  1.00  0.00    -0.246 OA
BRANCH   4   6
ATOM      6  C   UNL     1       2.959   1.104   0.667  1.00  0.00     0.087 C 
ATOM      7  C   UNL     1       4.319   1.104   0.667  1.00  0.00     0.027 C 
ATOM      8  C   UNL     1       2.199   2.196   1.402  1.00  0.00     0.316 C 
ATOM      9  C   UNL     1       5.079   0.012  -0.068  1.00  0.00     0.020 A 
ATOM     10  O   UNL     1       3.628   0.134  -1.946  1.00  0.00    -0.474 OA
ATOM     11  C   UNL     1       6.087  -0.597   0.662  1.00  0.00     0.036 A 
ATOM     12  C   UNL     1       4.768  -0.403  -1.291  1.00  0.00     0.142 A 
ATOM     13  C   UNL     1       6.910  -1.456  -0.103  1.00  0.00     0.109 A 
ATOM     14  C   UNL     1       5.538  -1.346  -1.927  1.00  0.00     0.062 A 
ATOM     15  C   UNL     1       6.586  -1.946  -1.286  1.00  0.00     0.044 A 
ATOM     16  Br  UNL     1       5.129  -1.837  -3.780  1.00  0.00    -0.047 Br
BRANCH   8  17
ATOM     17  C   UNL     1       2.566   3.550   0.818  1.00  0.00     0.430 C 
ATOM     18  F   UNL     1       2.244   3.578  -0.472  1.00  0.00    -0.167 F 
ATOM     19  F   UNL     1       1.901   4.505   1.461  1.00  0.00    -0.167 F 
ATOM     20  F   UNL     1       3.873   3.752   0.954  1.00  0.00    -0.167 F 
ENDBRANCH   8  17
BRANCH  13  21
ATOM     21  S   UNL     1       8.518  -1.917   0.587  1.00  0.00     0.310 S 
ATOM     22  F   UNL     1       7.951  -1.863   2.068  1.00  0.00    -0.094 F 
ATOM     23  F   UNL     1       8.869  -0.389   0.739  1.00  0.00    -0.094 F 
ATOM     24  F   UNL     1       9.892  -2.321   1.193  1.00  0.00    -0.094 F 
ATOM     25  F   UNL     1       8.093  -3.438   0.557  1.00  0.00    -0.094 F 
ATOM     26  F   UNL     1       7.076  -1.519   0.076  1.00  0.00    -0.094 F 
ENDBRANCH  13  21
ENDBRANCH   4   6
ENDBRANCH   3   4
ENDBRANCH   2   3
ENDBRANCH   1   2
BRANCH   1  27
ATOM     27  O   UNL     1       4.362   1.390  -0.636  1.00  0.00    -0.458 OA
BRANCH  27  28
ATOM     28  C   UNL     1       2.966   1.605  -0.492  1.00  0.00     0.338 C 
ATOM     29  O   UNL     1       2.140   0.804  -1.031  1.00  0.00    -0.246 OA
BRANCH  28  30
ATOM     30  C   UNL     1       2.459   2.794   0.309  1.00  0.00     0.060 A 
ATOM     31  C   UNL     1       1.326   2.606   1.083  1.00  0.00     0.016 A 
ATOM     32  C   UNL     1       2.992   3.999   0.149  1.00  0.00     0.016 A 
ATOM     33  C   UNL     1       0.654   3.806   1.416  1.00  0.00     0.010 A 
ATOM     34  C   UNL     1       2.347   5.117   0.620  1.00  0.00     0.010 A 
ATOM     35  C   UNL     1       1.191   5.010   1.342  1.00  0.00    -0.014 A 
BRANCH  35  36
ATOM     36  C   UNL     1       0.558   6.212   2.023  1.00  0.00     0.031 A 
ATOM     37  C   UNL     1       0.141   7.332   1.302  1.00  0.00     0.074 A 
ATOM     38  C   UNL     1       0.342   6.041   3.380  1.00  0.00     0.049 A 
ATOM     39  N   UNL     1      -0.544   8.383   1.755  1.00  0.00    -0.248 NA
ATOM     40  C   UNL     1       0.399   7.532  -0.132  1.00  0.00     0.031 C 
ATOM     41  C   UNL     1       0.752   4.910   4.113  1.00  0.00     0.029 A 
ATOM     42  N   UNL     1      -0.290   6.901   4.250  1.00  0.00    -0.354 N 
ATOM     43  C   UNL     1      -0.776   9.245   0.763  1.00  0.00     0.074 A 
ATOM     44  C   UNL     1      -0.167   8.713  -0.464  1.00  0.00     0.031 C 
ATOM     45  C   UNL     1       0.384   5.092   5.409  1.00  0.00     0.029 A 
ATOM     46  C   UNL     1      -0.263   6.338   5.507  1.00  0.00     0.049 A 
ATOM     47  H   UNL     1      -0.690   7.769   4.015  1.00  0.00     0.167 HD
ATOM     48  C   UNL     1      -1.472  10.453   0.833  1.00  0.00     0.037 A 
ATOM     49  C   UNL     1      -0.767   6.866   6.685  1.00  0.00     0.037 A 
ATOM     50  C   UNL     1      -2.014  10.961   2.003  1.00  0.00     0.049 A 
ATOM     51  C   UNL     1      -1.413   8.102   6.766  1.00  0.00     0.074 A 
ATOM     52  C   UNL     1      -2.726  12.173   2.089  1.00  0.00     0.029 A 
ATOM     53  N   UNL     1      -1.966  10.409   3.264  1.00  0.00    -0.354 N 
ATOM     54  N   UNL     1      -1.679   8.945   5.767  1.00  0.00    -0.248 NA
ATOM     55  C   UNL     1      -1.923   8.687   8.014  1.00  0.00     0.031 C 
ATOM     56  C   UNL     1      -3.094  12.355   3.385  1.00  0.00     0.029 A 
ATOM     57  C   UNL     1      -2.618  11.259   4.130  1.00  0.00     0.049 A 
ATOM     58  H   UNL     1      -1.540   9.555   3.504  1.00  0.00     0.167 HD
ATOM     59  C   UNL     1      -2.328  10.016   6.229  1.00  0.00     0.074 A 
ATOM     60  C   UNL     1      -2.487   9.869   7.682  1.00  0.00     0.031 C 
ATOM     61  C   UNL     1      -2.796  11.108   5.497  1.00  0.00     0.037 A 
BRANCH  48  62
ATOM     62  C   UNL     1      -1.646  11.256  -0.446  1.00  0.00     0.064 A 
ATOM     63  C   UNL     1      -2.401  10.669  -1.448  1.00  0.00     0.173 A 
ATOM     64  C   UNL     1      -1.176  12.492  -0.572  1.00  0.00     0.173 A 
ATOM     65  F   UNL     1      -3.097   9.550  -1.270  1.00  0.00    -0.203 F 
ATOM     66  C   UNL     1      -2.364  11.368  -2.678  1.00  0.00     0.198 A 
ATOM     67  C   UNL     1      -1.296  13.168  -1.762  1.00  0.00     0.198 A 
ATOM     68  F   UNL     1      -0.585  13.081   0.464  1.00  0.00    -0.203 F 
ATOM     69  F   UNL     1      -2.745  10.715  -3.772  1.00  0.00    -0.200 F 
ATOM     70  C   UNL     1      -1.978  12.623  -2.814  1.00  0.00     0.200 A 
ATOM     71  F   UNL     1      -0.739  14.369  -1.892  1.00  0.00    -0.200 F 
ATOM     72  F   UNL     1      -2.239  13.321  -3.916  1.00  0.00    -0.200 F 
ENDBRANCH  48  62
BRANCH  49  73
ATOM     73  C   UNL     1      -0.609   6.055   7.961  1.00  0.00     0.064 A 
ATOM     74  C   UNL     1      -1.706   5.721   8.736  1.00  0.00     0.173 A 
ATOM     75  C   UNL     1       0.626   5.761   8.351  1.00  0.00     0.173 A 
ATOM     76  F   UNL     1      -2.955   5.763   8.282  1.00  0.00    -0.203 F 
ATOM     77  C   UNL     1      -1.378   5.330  10.056  1.00  0.00     0.198 A 
ATOM     78  C   UNL     1       0.861   5.254   9.606  1.00  0.00     0.198 A 
ATOM     79  F   UNL     1       1.645   5.959   7.519  1.00  0.00    -0.203 F 
ATOM     80  F   UNL     1      -2.349   5.340  10.964  1.00  0.00    -0.200 F 
ATOM     81  C   UNL     1      -0.174   4.955  10.448  1.00  0.00     0.200 A 
ATOM     82  F   UNL     1       2.113   5.052  10.008  1.00  0.00    -0.200 F 
ATOM     83  F   UNL     1       0.022   4.321  11.601  1.00  0.00    -0.200 F 
ENDBRANCH  49  73
BRANCH  61  84
ATOM     84  C   UNL     1      -3.548  12.198   6.243  1.00  0.00     0.064 A 
ATOM     85  C   UNL     1      -2.901  12.764   7.329  1.00  0.00     0.173 A 
ATOM     86  C   UNL     1      -4.802  12.518   5.944  1.00  0.00     0.173 A 
ATOM     87  F   UNL     1      -1.588  12.674   7.520  1.00  0.00    -0.203 F 
ATOM     88  C   UNL     1      -3.765  13.447   8.219  1.00  0.00     0.198 A 
ATOM     89  C   UNL     1      -5.545  13.302   6.794  1.00  0.00     0.198 A 
ATOM     90  F   UNL     1      -5.343  12.075   4.814  1.00  0.00    -0.203 F 
ATOM     91  F   UNL     1      -3.314  13.704   9.443  1.00  0.00    -0.200 F 
ATOM     92  C   UNL     1      -4.987  13.847   7.917  1.00  0.00     0.200 A 
ATOM     93  F   UNL     1      -6.825  13.535   6.519  1.00  0.00    -0.200 F 
ATOM     94  F   UNL     1      -5.639  14.731   8.665  1.00  0.00    -0.200 F 
ENDBRANCH  61  84
ENDBRANCH  35  36
ENDBRANCH  28  30
ENDBRANCH  27  28
ENDBRANCH   1  27
TORSDOF 13
