REMARK SMILES O=C(OCCOC(=O)c1cccc(COc2ccccc2C=C2C(=O)c3ccccc3C2=O)c1)c1ccc(-c2c3nc(c(-c4c(F)c(F)c(F)c(F)c4F)c4ccc([nH]4)c(-c4c(F)c(F)c(F)c(F)c4F)c4nc(c(-c5c(F)c(F)c(F)c(F)c5F)c5ccc2[nH]5)C=C4)C=C3)cc1
REMARK SMILES IDX 5 1 4 2 3 3 2 4 1 5 35 6 36 7 97 8 37 9 96 10 38 11 39 12
REMARK SMILES IDX 40 13 90 14 41 15 95 16 89 17 91 18 42 19 94 20 88 21 87 22
REMARK SMILES IDX 43 24 75 25 55 26 74 27 56 28 59 29 73 30 92 31 57 32 58 33
REMARK SMILES IDX 72 35 93 36 60 37 44 38 45 39 53 40 46 41 47 42 51 43 54 44
REMARK SMILES IDX 48 45 49 46 52 47 50 48 76 49 77 50 85 51 78 52 79 53 83 54
REMARK SMILES IDX 86 55 80 56 81 57 84 58 82 59 61 60 62 61 70 62 63 63 64 64
REMARK SMILES IDX 68 65 71 66 65 67 66 68 69 69 67 70 6 71 7 72 8 73 9 74
REMARK SMILES IDX 10 75 34 76 11 77 13 78 12 79 14 80 15 81 16 82 17 83 21 84
REMARK SMILES IDX 18 85 20 86 19 87 22 88 23 89 24 90 32 91 25 92 26 93 31 94
REMARK SMILES IDX 33 95 27 96 30 97 28 98 29 99
REMARK H PARENT 91 23 59 34
REMARK Flexibility Score: inf
ROOT
ATOM      1  C   UNL     1       4.333   0.314  -1.948  1.00  0.00     0.275 C 
ENDROOT
BRANCH   1   2
ATOM      2  C   UNL     1       4.471  -0.918  -1.033  1.00  0.00     0.275 C 
BRANCH   2   3
ATOM      3  O   UNL     1       3.415  -1.165  -0.083  1.00  0.00    -0.458 OA
BRANCH   3   4
ATOM      4  C   UNL     1       3.292  -0.739   1.198  1.00  0.00     0.338 C 
ATOM      5  O   UNL     1       2.492  -1.282   1.956  1.00  0.00    -0.246 OA
BRANCH   4   6
ATOM      6  C   UNL     1       3.963   0.506   1.664  1.00  0.00     0.060 A 
ATOM      7  C   UNL     1       5.249   0.908   1.304  1.00  0.00     0.016 A 
ATOM      8  C   UNL     1       3.210   1.351   2.493  1.00  0.00     0.016 A 
ATOM      9  C   UNL     1       5.718   2.184   1.614  1.00  0.00     0.010 A 
ATOM     10  C   UNL     1       3.670   2.634   2.802  1.00  0.00     0.010 A 
ATOM     11  C   UNL     1       4.927   3.061   2.353  1.00  0.00    -0.014 A 
BRANCH  11  12
ATOM     12  C   UNL     1       5.547   4.279   2.913  1.00  0.00     0.031 A 
ATOM     13  C   UNL     1       5.952   4.205   4.354  1.00  0.00     0.074 A 
ATOM     14  C   UNL     1       5.838   5.359   2.164  1.00  0.00     0.049 A 
ATOM     15  N   UNL     1       6.629   5.060   5.069  1.00  0.00    -0.248 NA
ATOM     16  C   UNL     1       5.577   2.977   5.079  1.00  0.00     0.031 C 
ATOM     17  C   UNL     1       5.600   5.487   0.729  1.00  0.00     0.029 A 
ATOM     18  N   UNL     1       6.405   6.561   2.506  1.00  0.00    -0.354 N 
ATOM     19  C   UNL     1       6.801   4.445   6.299  1.00  0.00     0.074 A 
ATOM     20  C   UNL     1       6.059   3.210   6.283  1.00  0.00     0.031 C 
ATOM     21  C   UNL     1       5.951   6.721   0.323  1.00  0.00     0.029 A 
ATOM     22  C   UNL     1       6.478   7.457   1.466  1.00  0.00     0.049 A 
ATOM     23  H   UNL     1       6.731   6.762   3.413  1.00  0.00     0.167 HD
ATOM     24  C   UNL     1       7.575   4.841   7.331  1.00  0.00     0.037 A 
ATOM     25  C   UNL     1       6.943   8.721   1.445  1.00  0.00     0.037 A 
ATOM     26  C   UNL     1       8.286   6.083   7.341  1.00  0.00     0.049 A 
ATOM     27  C   UNL     1       7.638   9.233   2.680  1.00  0.00     0.074 A 
ATOM     28  C   UNL     1       9.081   6.616   8.334  1.00  0.00     0.029 A 
ATOM     29  N   UNL     1       8.257   7.003   6.300  1.00  0.00    -0.354 N 
ATOM     30  N   UNL     1       7.856   8.617   3.819  1.00  0.00    -0.248 NA
ATOM     31  C   UNL     1       8.210  10.583   2.609  1.00  0.00     0.031 C 
ATOM     32  C   UNL     1       9.478   7.893   7.922  1.00  0.00     0.029 A 
ATOM     33  C   UNL     1       8.992   8.123   6.642  1.00  0.00     0.049 A 
ATOM     34  H   UNL     1       7.784   6.877   5.446  1.00  0.00     0.167 HD
ATOM     35  C   UNL     1       8.655   9.468   4.569  1.00  0.00     0.074 A 
ATOM     36  C   UNL     1       8.863  10.654   3.760  1.00  0.00     0.031 C 
ATOM     37  C   UNL     1       9.192   9.277   5.800  1.00  0.00     0.037 A 
BRANCH  24  38
ATOM     38  C   UNL     1       7.629   3.917   8.508  1.00  0.00     0.064 A 
ATOM     39  C   UNL     1       8.235   2.650   8.424  1.00  0.00     0.173 A 
ATOM     40  C   UNL     1       6.970   4.252   9.697  1.00  0.00     0.173 A 
ATOM     41  F   UNL     1       8.843   2.265   7.291  1.00  0.00    -0.203 F 
ATOM     42  C   UNL     1       8.130   1.736   9.469  1.00  0.00     0.198 A 
ATOM     43  C   UNL     1       6.897   3.349  10.752  1.00  0.00     0.198 A 
ATOM     44  F   UNL     1       6.361   5.441   9.819  1.00  0.00    -0.203 F 
ATOM     45  F   UNL     1       8.631   0.501   9.330  1.00  0.00    -0.200 F 
ATOM     46  C   UNL     1       7.462   2.087  10.632  1.00  0.00     0.200 A 
ATOM     47  F   UNL     1       6.250   3.687  11.876  1.00  0.00    -0.200 F 
ATOM     48  F   UNL     1       7.341   1.200  11.629  1.00  0.00    -0.200 F 
ENDBRANCH  24  38
BRANCH  25  49
ATOM     49  C   UNL     1       6.838   9.554   0.215  1.00  0.00     0.064 A 
ATOM     50  C   UNL     1       7.971   9.906  -0.531  1.00  0.00     0.173 A 
ATOM     51  C   UNL     1       5.598  10.045  -0.222  1.00  0.00     0.173 A 
ATOM     52  F   UNL     1       9.182   9.474  -0.151  1.00  0.00    -0.203 F 
ATOM     53  C   UNL     1       7.875  10.740  -1.646  1.00  0.00     0.198 A 
ATOM     54  C   UNL     1       5.499  10.864  -1.348  1.00  0.00     0.198 A 
ATOM     55  F   UNL     1       4.478   9.733   0.446  1.00  0.00    -0.203 F 
ATOM     56  F   UNL     1       8.981  11.095  -2.312  1.00  0.00    -0.200 F 
ATOM     57  C   UNL     1       6.639  11.218  -2.054  1.00  0.00     0.200 A 
ATOM     58  F   UNL     1       4.301  11.313  -1.746  1.00  0.00    -0.200 F 
ATOM     59  F   UNL     1       6.547  12.024  -3.121  1.00  0.00    -0.200 F 
ENDBRANCH  25  49
BRANCH  37  60
ATOM     60  C   UNL     1      10.118  10.337   6.315  1.00  0.00     0.064 A 
ATOM     61  C   UNL     1       9.659  11.601   6.707  1.00  0.00     0.173 A 
ATOM     62  C   UNL     1      11.485  10.052   6.472  1.00  0.00     0.173 A 
ATOM     63  F   UNL     1       8.364  11.924   6.564  1.00  0.00    -0.203 F 
ATOM     64  C   UNL     1      10.539  12.554   7.209  1.00  0.00     0.198 A 
ATOM     65  C   UNL     1      12.354  10.993   7.012  1.00  0.00     0.198 A 
ATOM     66  F   UNL     1      11.971   8.852   6.120  1.00  0.00    -0.203 F 
ATOM     67  F   UNL     1      10.090  13.776   7.525  1.00  0.00    -0.200 F 
ATOM     68  C   UNL     1      11.882  12.246   7.371  1.00  0.00     0.200 A 
ATOM     69  F   UNL     1      13.646  10.684   7.188  1.00  0.00    -0.200 F 
ATOM     70  F   UNL     1      12.725  13.161   7.869  1.00  0.00    -0.200 F 
ENDBRANCH  37  60
ENDBRANCH  11  12
ENDBRANCH   4   6
ENDBRANCH   3   4
ENDBRANCH   2   3
ENDBRANCH   1   2
BRANCH   1  71
ATOM     71  O   UNL     1       4.023   1.566  -1.310  1.00  0.00    -0.458 OA
BRANCH  71  72
ATOM     72  C   UNL     1       2.703   1.712  -1.043  1.00  0.00     0.338 C 
ATOM     73  O   UNL     1       1.854   0.856  -1.213  1.00  0.00    -0.246 OA
BRANCH  72  74
ATOM     74  C   UNL     1       2.373   2.994  -0.398  1.00  0.00     0.060 A 
ATOM     75  C   UNL     1       1.444   2.970   0.654  1.00  0.00     0.016 A 
ATOM     76  C   UNL     1       2.819   4.212  -0.893  1.00  0.00     0.023 A 
ATOM     77  C   UNL     1       1.083   4.135   1.324  1.00  0.00     0.001 A 
ATOM     78  C   UNL     1       2.360   5.394  -0.290  1.00  0.00    -0.010 A 
ATOM     79  C   UNL     1       1.566   5.348   0.869  1.00  0.00     0.007 A 
BRANCH  78  80
ATOM     80  C   UNL     1       2.441   6.703  -1.022  1.00  0.00     0.265 C 
BRANCH  80  81
ATOM     81  O   UNL     1       1.101   6.945  -1.490  1.00  0.00    -0.488 OA
BRANCH  81  82
ATOM     82  C   UNL     1       0.907   6.536  -2.786  1.00  0.00     0.127 A 
ATOM     83  C   UNL     1       1.383   7.403  -3.781  1.00  0.00     0.047 A 
ATOM     84  C   UNL     1       0.157   5.385  -3.115  1.00  0.00     0.017 A 
ATOM     85  C   UNL     1       1.124   7.140  -5.121  1.00  0.00     0.004 A 
ATOM     86  C   UNL     1      -0.150   5.197  -4.472  1.00  0.00     0.012 A 
ATOM     87  C   UNL     1       0.347   6.042  -5.465  1.00  0.00     0.001 A 
BRANCH  84  88
ATOM     88  C   UNL     1      -0.393   4.417  -2.132  1.00  0.00     0.028 C 
ATOM     89  C   UNL     1      -0.459   3.075  -2.262  1.00  0.00     0.071 C 
ATOM     90  C   UNL     1       0.079   2.196  -3.346  1.00  0.00     0.197 C 
ATOM     91  C   UNL     1      -1.100   2.174  -1.248  1.00  0.00     0.197 C 
ATOM     92  O   UNL     1       0.798   2.481  -4.288  1.00  0.00    -0.288 OA
ATOM     93  C   UNL     1      -0.340   0.833  -3.018  1.00  0.00     0.034 A 
ATOM     94  C   UNL     1      -0.977   0.806  -1.780  1.00  0.00     0.034 A 
ATOM     95  O   UNL     1      -1.625   2.485  -0.194  1.00  0.00    -0.288 OA
ATOM     96  C   UNL     1      -0.053  -0.324  -3.725  1.00  0.00     0.013 A 
ATOM     97  C   UNL     1      -1.319  -0.397  -1.183  1.00  0.00     0.013 A 
ATOM     98  C   UNL     1      -0.415  -1.542  -3.147  1.00  0.00     0.001 A 
ATOM     99  C   UNL     1      -1.032  -1.579  -1.881  1.00  0.00     0.001 A 
ENDBRANCH  84  88
ENDBRANCH  81  82
ENDBRANCH  80  81
ENDBRANCH  78  80
ENDBRANCH  72  74
ENDBRANCH  71  72
ENDBRANCH   1  71
TORSDOF 15
