REMARK SMILES O=C(OCCOC(=O)c1ccc(-c2c3nc(c(-c4c(F)c(F)c(F)c(F)c4F)c4ccc([nH]4)c(-c4c(F)c(F)c(F)c(F)c4F)c4nc(c(-c5c(F)c(F)c(F)c(F)c5F)c5ccc2[nH]5)C=C4)C=C3)cc1)C1=N[C@@H]2NC=NN2[C@@H]([C@H]2C=NN=C2c2ccc(F)cc2)C1
REMARK SMILES IDX 4 1 3 2 2 3 1 4 72 5 73 6 92 7 74 8 79 9 75 10 78 11 76 12
REMARK SMILES IDX 77 14 80 15 81 16 84 17 82 18 83 19 85 20 86 21 91 22 87 23
REMARK SMILES IDX 90 24 88 25 89 26 5 27 6 28 7 29 8 30 9 31 10 32 71 33 11 34
REMARK SMILES IDX 70 35 12 36 13 37 14 38 64 39 15 40 69 41 63 42 65 43 16 44
REMARK SMILES IDX 68 45 62 46 61 47 17 49 49 50 29 51 48 52 30 53 33 54 47 55
REMARK SMILES IDX 66 56 31 57 32 58 46 60 67 61 34 62 18 63 19 64 27 65 20 66
REMARK SMILES IDX 21 67 25 68 28 69 22 70 23 71 26 72 24 73 50 74 51 75 59 76
REMARK SMILES IDX 52 77 53 78 57 79 60 80 54 81 55 82 58 83 56 84 35 85 36 86
REMARK SMILES IDX 44 87 37 88 38 89 42 90 45 91 39 92 40 93 43 94 41 95
REMARK H PARENT 75 13 65 48 33 59
REMARK Flexibility Score: inf
ROOT
ATOM      1  C   UNL     1       9.716  -5.538  -1.393  1.00  0.00     0.275 C 
ENDROOT
BRANCH   1   2
ATOM      2  O   UNL     1       9.972  -4.533  -0.398  1.00  0.00    -0.458 OA
BRANCH   2   3
ATOM      3  C   UNL     1       9.601  -3.257  -0.324  1.00  0.00     0.352 C 
ATOM      4  O   UNL     1      10.089  -2.548   0.554  1.00  0.00    -0.245 OA
BRANCH   3   5
ATOM      5  C   UNL     1       8.532  -2.564  -1.225  1.00  0.00     0.126 C 
ATOM      6  N   UNL     1       7.882  -1.590  -0.673  1.00  0.00    -0.236 NA
ATOM      7  C   UNL     1       8.400  -2.887  -2.686  1.00  0.00     0.092 C 
ATOM      8  C   UNL     1       7.253  -0.602  -1.526  1.00  0.00     0.319 C 
ATOM      9  C   UNL     1       7.060  -2.329  -3.181  1.00  0.00     0.127 C 
ATOM     10  N   UNL     1       5.966  -0.158  -1.105  1.00  0.00    -0.335 N 
ATOM     11  N   UNL     1       7.069  -0.876  -2.971  1.00  0.00    -0.249 NA
ATOM     12  C   UNL     1       5.276   0.093  -2.243  1.00  0.00     0.217 C 
ATOM     13  H   UNL     1       5.646  -0.055  -0.180  1.00  0.00     0.165 HD
ATOM     14  N   UNL     1       5.856  -0.266  -3.356  1.00  0.00    -0.164 NA
BRANCH   9  15
ATOM     15  C   UNL     1       6.699  -2.649  -4.638  1.00  0.00     0.109 C 
ATOM     16  C   UNL     1       7.761  -2.208  -5.582  1.00  0.00     0.120 C 
ATOM     17  C   UNL     1       6.750  -4.112  -4.951  1.00  0.00     0.081 C 
ATOM     18  N   UNL     1       8.342  -3.193  -6.184  1.00  0.00    -0.162 NA
ATOM     19  N   UNL     1       7.710  -4.406  -5.776  1.00  0.00    -0.155 NA
BRANCH  17  20
ATOM     20  C   UNL     1       5.849  -5.109  -4.337  1.00  0.00    -0.001 A 
ATOM     21  C   UNL     1       4.632  -4.745  -3.746  1.00  0.00     0.013 A 
ATOM     22  C   UNL     1       6.252  -6.451  -4.335  1.00  0.00     0.013 A 
ATOM     23  C   UNL     1       3.840  -5.720  -3.132  1.00  0.00     0.040 A 
ATOM     24  C   UNL     1       5.463  -7.419  -3.711  1.00  0.00     0.040 A 
ATOM     25  C   UNL     1       4.268  -7.044  -3.110  1.00  0.00     0.123 A 
ATOM     26  F   UNL     1       3.519  -7.968  -2.497  1.00  0.00    -0.207 F 
ENDBRANCH  17  20
ENDBRANCH   9  15
ENDBRANCH   3   5
ENDBRANCH   2   3
ENDBRANCH   1   2
BRANCH   1  27
ATOM     27  C   UNL     1       8.430  -6.316  -1.127  1.00  0.00     0.275 C 
BRANCH  27  28
ATOM     28  O   UNL     1       7.373  -5.439  -0.704  1.00  0.00    -0.458 OA
BRANCH  28  29
ATOM     29  C   UNL     1       7.175  -5.407   0.645  1.00  0.00     0.338 C 
ATOM     30  O   UNL     1       7.734  -6.087   1.482  1.00  0.00    -0.246 OA
BRANCH  29  31
ATOM     31  C   UNL     1       6.260  -4.292   0.976  1.00  0.00     0.060 A 
ATOM     32  C   UNL     1       6.499  -3.549   2.138  1.00  0.00     0.016 A 
ATOM     33  C   UNL     1       5.187  -3.966   0.146  1.00  0.00     0.016 A 
ATOM     34  C   UNL     1       5.662  -2.479   2.475  1.00  0.00     0.010 A 
ATOM     35  C   UNL     1       4.368  -2.885   0.471  1.00  0.00     0.010 A 
ATOM     36  C   UNL     1       4.587  -2.138   1.647  1.00  0.00    -0.014 A 
BRANCH  36  37
ATOM     37  C   UNL     1       3.628  -1.054   1.998  1.00  0.00     0.031 A 
ATOM     38  C   UNL     1       2.195  -1.415   2.280  1.00  0.00     0.074 A 
ATOM     39  C   UNL     1       3.983   0.245   1.950  1.00  0.00     0.049 A 
ATOM     40  N   UNL     1       1.156  -0.634   2.429  1.00  0.00    -0.248 NA
ATOM     41  C   UNL     1       1.895  -2.850   2.402  1.00  0.00     0.031 C 
ATOM     42  C   UNL     1       5.331   0.760   1.722  1.00  0.00     0.029 A 
ATOM     43  N   UNL     1       3.204   1.378   2.003  1.00  0.00    -0.354 N 
ATOM     44  C   UNL     1       0.086  -1.480   2.682  1.00  0.00     0.074 A 
ATOM     45  C   UNL     1       0.582  -2.836   2.575  1.00  0.00     0.031 C 
ATOM     46  C   UNL     1       5.265   2.085   1.504  1.00  0.00     0.029 A 
ATOM     47  C   UNL     1       3.880   2.520   1.645  1.00  0.00     0.049 A 
ATOM     48  H   UNL     1       2.257   1.371   2.271  1.00  0.00     0.167 HD
ATOM     49  C   UNL     1      -1.183  -1.160   3.026  1.00  0.00     0.037 A 
ATOM     50  C   UNL     1       3.433   3.774   1.438  1.00  0.00     0.037 A 
ATOM     51  C   UNL     1      -1.674   0.183   3.167  1.00  0.00     0.049 A 
ATOM     52  C   UNL     1       2.000   4.112   1.738  1.00  0.00     0.074 A 
ATOM     53  C   UNL     1      -2.911   0.609   3.618  1.00  0.00     0.029 A 
ATOM     54  N   UNL     1      -0.952   1.321   2.846  1.00  0.00    -0.354 N 
ATOM     55  N   UNL     1       1.024   3.317   2.100  1.00  0.00    -0.248 NA
ATOM     56  C   UNL     1       1.618   5.530   1.655  1.00  0.00     0.031 C 
ATOM     57  C   UNL     1      -2.952   2.005   3.529  1.00  0.00     0.029 A 
ATOM     58  C   UNL     1      -1.728   2.449   3.058  1.00  0.00     0.049 A 
ATOM     59  H   UNL     1      -0.024   1.328   2.516  1.00  0.00     0.167 HD
ATOM     60  C   UNL     1      -0.064   4.141   2.354  1.00  0.00     0.074 A 
ATOM     61  C   UNL     1       0.360   5.496   2.076  1.00  0.00     0.031 C 
ATOM     62  C   UNL     1      -1.295   3.799   2.805  1.00  0.00     0.037 A 
BRANCH  49  63
ATOM     63  C   UNL     1      -2.120  -2.296   3.305  1.00  0.00     0.064 A 
ATOM     64  C   UNL     1      -1.976  -3.094   4.451  1.00  0.00     0.173 A 
ATOM     65  C   UNL     1      -3.167  -2.592   2.422  1.00  0.00     0.173 A 
ATOM     66  F   UNL     1      -0.980  -2.856   5.318  1.00  0.00    -0.203 F 
ATOM     67  C   UNL     1      -2.822  -4.174   4.680  1.00  0.00     0.198 A 
ATOM     68  C   UNL     1      -4.029  -3.656   2.670  1.00  0.00     0.198 A 
ATOM     69  F   UNL     1      -3.348  -1.855   1.316  1.00  0.00    -0.203 F 
ATOM     70  F   UNL     1      -2.627  -4.960   5.748  1.00  0.00    -0.200 F 
ATOM     71  C   UNL     1      -3.849  -4.453   3.792  1.00  0.00     0.200 A 
ATOM     72  F   UNL     1      -5.027  -3.921   1.815  1.00  0.00    -0.200 F 
ATOM     73  F   UNL     1      -4.658  -5.499   4.009  1.00  0.00    -0.200 F 
ENDBRANCH  49  63
BRANCH  50  74
ATOM     74  C   UNL     1       4.367   4.822   0.958  1.00  0.00     0.064 A 
ATOM     75  C   UNL     1       4.882   5.785   1.834  1.00  0.00     0.173 A 
ATOM     76  C   UNL     1       4.741   4.893  -0.392  1.00  0.00     0.173 A 
ATOM     77  F   UNL     1       4.531   5.766   3.128  1.00  0.00    -0.203 F 
ATOM     78  C   UNL     1       5.720   6.798   1.375  1.00  0.00     0.198 A 
ATOM     79  C   UNL     1       5.591   5.899  -0.848  1.00  0.00     0.198 A 
ATOM     80  F   UNL     1       4.270   3.993  -1.267  1.00  0.00    -0.203 F 
ATOM     81  F   UNL     1       6.165   7.733   2.225  1.00  0.00    -0.200 F 
ATOM     82  C   UNL     1       6.075   6.854   0.035  1.00  0.00     0.200 A 
ATOM     83  F   UNL     1       5.932   5.952  -2.143  1.00  0.00    -0.200 F 
ATOM     84  F   UNL     1       6.872   7.837  -0.408  1.00  0.00    -0.200 F 
ENDBRANCH  50  74
BRANCH  62  85
ATOM     85  C   UNL     1      -2.266   4.904   3.095  1.00  0.00     0.064 A 
ATOM     86  C   UNL     1      -2.924   5.595   2.069  1.00  0.00     0.173 A 
ATOM     87  C   UNL     1      -2.597   5.220   4.422  1.00  0.00     0.173 A 
ATOM     88  F   UNL     1      -2.629   5.340   0.786  1.00  0.00    -0.203 F 
ATOM     89  C   UNL     1      -3.878   6.567   2.362  1.00  0.00     0.198 A 
ATOM     90  C   UNL     1      -3.567   6.175   4.710  1.00  0.00     0.198 A 
ATOM     91  F   UNL     1      -1.994   4.584   5.438  1.00  0.00    -0.203 F 
ATOM     92  F   UNL     1      -4.479   7.234   1.367  1.00  0.00    -0.200 F 
ATOM     93  C   UNL     1      -4.206   6.848   3.681  1.00  0.00     0.200 A 
ATOM     94  F   UNL     1      -3.891   6.436   5.984  1.00  0.00    -0.200 F 
ATOM     95  F   UNL     1      -5.138   7.770   3.959  1.00  0.00    -0.200 F 
ENDBRANCH  62  85
ENDBRANCH  36  37
ENDBRANCH  29  31
ENDBRANCH  28  29
ENDBRANCH  27  28
ENDBRANCH   1  27
TORSDOF 13
