REMARK SMILES O=C(OCCOC(=O)c1cc(=O)[nH]c2c(Br)cccc12)c1ccc(-c2c3nc(c(-c4c(F)c(F)c(F)c(F)c4F)c4ccc([nH]4)c(-c4c(F)c(F)c(F)c(F)c4F)c4nc(c(-c5c(F)c(F)c(F)c(F)c5F)c5ccc2[nH]5)C=C4)C=C3)cc1
REMARK SMILES IDX 4 1 3 2 2 3 1 4 21 5 22 6 83 7 23 8 82 9 24 10 25 11 26 12
REMARK SMILES IDX 76 13 27 14 81 15 75 16 77 17 28 18 80 19 74 20 73 21 29 23
REMARK SMILES IDX 61 24 41 25 60 26 42 27 45 28 59 29 78 30 43 31 44 32 58 34
REMARK SMILES IDX 79 35 46 36 30 37 31 38 39 39 32 40 33 41 37 42 40 43 34 44
REMARK SMILES IDX 35 45 38 46 36 47 62 48 63 49 71 50 64 51 65 52 69 53 72 54
REMARK SMILES IDX 66 55 67 56 70 57 68 58 47 59 48 60 56 61 49 62 50 63 54 64
REMARK SMILES IDX 57 65 51 66 52 67 55 68 53 69 5 70 6 71 7 72 8 73 9 74 10 75
REMARK SMILES IDX 20 76 11 77 14 78 19 79 12 80 13 81 15 82 18 83 16 85 17 86
REMARK H PARENT 77 22 45 33 13 84
REMARK Flexibility Score: inf
ROOT
ATOM      1  C   UNL     1       4.274   1.228  -0.673  1.00  0.00     0.275 C 
ENDROOT
BRANCH   1   2
ATOM      2  O   UNL     1       3.198   0.309  -0.931  1.00  0.00    -0.458 OA
BRANCH   2   3
ATOM      3  C   UNL     1       3.241  -1.034  -0.740  1.00  0.00     0.338 C 
ATOM      4  O   UNL     1       2.555  -1.786  -1.425  1.00  0.00    -0.246 OA
BRANCH   3   5
ATOM      5  C   UNL     1       3.874  -1.570   0.496  1.00  0.00     0.060 A 
ATOM      6  C   UNL     1       3.092  -2.437   1.269  1.00  0.00     0.016 A 
ATOM      7  C   UNL     1       5.166  -1.270   0.932  1.00  0.00     0.016 A 
ATOM      8  C   UNL     1       3.525  -2.859   2.526  1.00  0.00     0.010 A 
ATOM      9  C   UNL     1       5.615  -1.708   2.180  1.00  0.00     0.010 A 
ATOM     10  C   UNL     1       4.791  -2.485   2.998  1.00  0.00    -0.014 A 
BRANCH  10  11
ATOM     11  C   UNL     1       5.340  -3.106   4.224  1.00  0.00     0.031 A 
ATOM     12  C   UNL     1       5.603  -2.335   5.482  1.00  0.00     0.074 A 
ATOM     13  C   UNL     1       5.659  -4.410   4.146  1.00  0.00     0.049 A 
ATOM     14  N   UNL     1       5.934  -2.793   6.664  1.00  0.00    -0.248 NA
ATOM     15  C   UNL     1       5.479  -0.874   5.423  1.00  0.00     0.031 C 
ATOM     16  C   UNL     1       5.517  -5.234   2.943  1.00  0.00     0.029 A 
ATOM     17  N   UNL     1       6.184  -5.263   5.077  1.00  0.00    -0.354 N 
ATOM     18  C   UNL     1       5.959  -1.689   7.506  1.00  0.00     0.074 A 
ATOM     19  C   UNL     1       5.688  -0.528   6.689  1.00  0.00     0.031 C 
ATOM     20  C   UNL     1       5.941  -6.475   3.210  1.00  0.00     0.029 A 
ATOM     21  C   UNL     1       6.416  -6.523   4.588  1.00  0.00     0.049 A 
ATOM     22  H   UNL     1       6.376  -4.999   6.006  1.00  0.00     0.167 HD
ATOM     23  C   UNL     1       6.179  -1.663   8.841  1.00  0.00     0.037 A 
ATOM     24  C   UNL     1       6.968  -7.596   5.178  1.00  0.00     0.037 A 
ATOM     25  C   UNL     1       6.594  -2.809   9.607  1.00  0.00     0.049 A 
ATOM     26  C   UNL     1       7.363  -7.500   6.621  1.00  0.00     0.074 A 
ATOM     27  C   UNL     1       6.864  -2.889  10.962  1.00  0.00     0.029 A 
ATOM     28  N   UNL     1       6.861  -4.059   9.069  1.00  0.00    -0.354 N 
ATOM     29  N   UNL     1       7.222  -6.492   7.447  1.00  0.00    -0.248 NA
ATOM     30  C   UNL     1       7.986  -8.687   7.219  1.00  0.00     0.031 C 
ATOM     31  C   UNL     1       7.385  -4.158  11.225  1.00  0.00     0.029 A 
ATOM     32  C   UNL     1       7.366  -4.894  10.050  1.00  0.00     0.049 A 
ATOM     33  H   UNL     1       6.713  -4.313   8.130  1.00  0.00     0.167 HD
ATOM     34  C   UNL     1       7.713  -6.928   8.668  1.00  0.00     0.074 A 
ATOM     35  C   UNL     1       8.147  -8.297   8.477  1.00  0.00     0.031 C 
ATOM     36  C   UNL     1       7.793  -6.254   9.840  1.00  0.00     0.037 A 
BRANCH  23  37
ATOM     37  C   UNL     1       5.992  -0.371   9.581  1.00  0.00     0.064 A 
ATOM     38  C   UNL     1       4.707   0.080   9.920  1.00  0.00     0.173 A 
ATOM     39  C   UNL     1       7.092   0.326  10.102  1.00  0.00     0.173 A 
ATOM     40  F   UNL     1       3.623  -0.574   9.477  1.00  0.00    -0.203 F 
ATOM     41  C   UNL     1       4.532   1.181  10.757  1.00  0.00     0.198 A 
ATOM     42  C   UNL     1       6.913   1.413  10.954  1.00  0.00     0.198 A 
ATOM     43  F   UNL     1       8.341  -0.079   9.826  1.00  0.00    -0.203 F 
ATOM     44  F   UNL     1       3.296   1.589  11.081  1.00  0.00    -0.200 F 
ATOM     45  C   UNL     1       5.634   1.838  11.283  1.00  0.00     0.200 A 
ATOM     46  F   UNL     1       7.978   2.031  11.484  1.00  0.00    -0.200 F 
ATOM     47  F   UNL     1       5.465   2.871  12.121  1.00  0.00    -0.200 F 
ENDBRANCH  23  37
BRANCH  24  48
ATOM     48  C   UNL     1       7.144  -8.839   4.389  1.00  0.00     0.064 A 
ATOM     49  C   UNL     1       6.377  -9.978   4.662  1.00  0.00     0.173 A 
ATOM     50  C   UNL     1       8.028  -8.889   3.300  1.00  0.00     0.173 A 
ATOM     51  F   UNL     1       5.523  -9.978   5.695  1.00  0.00    -0.203 F 
ATOM     52  C   UNL     1       6.494 -11.124   3.879  1.00  0.00     0.198 A 
ATOM     53  C   UNL     1       8.119 -10.024   2.499  1.00  0.00     0.198 A 
ATOM     54  F   UNL     1       8.771  -7.817   2.987  1.00  0.00    -0.203 F 
ATOM     55  F   UNL     1       5.768 -12.210   4.176  1.00  0.00    -0.200 F 
ATOM     56  C   UNL     1       7.356 -11.143   2.793  1.00  0.00     0.200 A 
ATOM     57  F   UNL     1       8.933 -10.026   1.434  1.00  0.00    -0.200 F 
ATOM     58  F   UNL     1       7.449 -12.238   2.028  1.00  0.00    -0.200 F 
ENDBRANCH  24  48
BRANCH  36  59
ATOM     59  C   UNL     1       8.367  -6.977  11.021  1.00  0.00     0.064 A 
ATOM     60  C   UNL     1       9.741  -7.238  11.117  1.00  0.00     0.173 A 
ATOM     61  C   UNL     1       7.552  -7.311  12.113  1.00  0.00     0.173 A 
ATOM     62  F   UNL     1      10.557  -6.949  10.092  1.00  0.00    -0.203 F 
ATOM     63  C   UNL     1      10.278  -7.810  12.266  1.00  0.00     0.198 A 
ATOM     64  C   UNL     1       8.097  -7.853  13.271  1.00  0.00     0.198 A 
ATOM     65  F   UNL     1       6.232  -7.073  12.069  1.00  0.00    -0.203 F 
ATOM     66  F   UNL     1      11.590  -8.074  12.329  1.00  0.00    -0.200 F 
ATOM     67  C   UNL     1       9.459  -8.103  13.347  1.00  0.00     0.200 A 
ATOM     68  F   UNL     1       7.308  -8.116  14.322  1.00  0.00    -0.200 F 
ATOM     69  F   UNL     1       9.984  -8.624  14.464  1.00  0.00    -0.200 F 
ENDBRANCH  36  59
ENDBRANCH  10  11
ENDBRANCH   3   5
ENDBRANCH   2   3
ENDBRANCH   1   2
BRANCH   1  70
ATOM     70  C   UNL     1       4.168   1.990   0.653  1.00  0.00     0.275 C 
BRANCH  70  71
ATOM     71  O   UNL     1       3.636   1.221   1.742  1.00  0.00    -0.458 OA
BRANCH  71  72
ATOM     72  C   UNL     1       2.282   1.268   1.879  1.00  0.00     0.339 C 
ATOM     73  O   UNL     1       1.511   1.888   1.161  1.00  0.00    -0.246 OA
BRANCH  72  74
ATOM     74  C   UNL     1       1.849   0.409   3.006  1.00  0.00     0.074 A 
ATOM     75  C   UNL     1       2.429   0.644   4.193  1.00  0.00     0.088 A 
ATOM     76  C   UNL     1       0.832  -0.653   2.879  1.00  0.00     0.014 A 
ATOM     77  C   UNL     1       2.091  -0.158   5.385  1.00  0.00     0.249 A 
ATOM     78  C   UNL     1       0.584  -1.482   3.989  1.00  0.00     0.063 A 
ATOM     79  C   UNL     1       0.170  -0.931   1.673  1.00  0.00     0.011 A 
ATOM     80  O   UNL     1       2.592   0.114   6.469  1.00  0.00    -0.270 OA
ATOM     81  N   UNL     1       1.233  -1.200   5.204  1.00  0.00    -0.321 N 
ATOM     82  C   UNL     1      -0.284  -2.577   3.881  1.00  0.00     0.042 A 
ATOM     83  C   UNL     1      -0.687  -2.030   1.567  1.00  0.00     0.002 A 
ATOM     84  H   UNL     1       1.058  -1.793   5.970  1.00  0.00     0.170 HD
ATOM     85  Br  UNL     1      -0.613  -3.734   5.349  1.00  0.00    -0.049 Br
ATOM     86  C   UNL     1      -0.910  -2.857   2.666  1.00  0.00     0.018 A 
ENDBRANCH  72  74
ENDBRANCH  71  72
ENDBRANCH  70  71
ENDBRANCH   1  70
TORSDOF 11
