REMARK SMILES O=C(CSc1nc2cc(Br)cnc2n1CCC1CC1)OCCOC(=O)c1ccc(-c2c3nc(c(-c4c(F)c(F)c(F)c(F)c4F)c4ccc([nH]4)c(-c4c(F)c(F)c(F)c(F)c4F)c4nc(c(-c5c(F)c(F)c(F)c(F)c5F)c5ccc2[nH]5)C=C4)C=C3)cc1
REMARK SMILES IDX 20 1 2 2 1 3 3 4 4 5 5 6 6 7 14 8 7 9 13 10 8 11 12 12 9 13
REMARK SMILES IDX 11 14 10 15 15 16 16 17 17 18 18 19 19 20 21 21 22 22 23 23
REMARK SMILES IDX 24 24 25 25 26 26 27 27 88 28 28 29 87 30 29 31 30 32 31 33
REMARK SMILES IDX 81 34 32 35 86 36 80 37 82 38 33 39 85 40 79 41 78 42 34 44
REMARK SMILES IDX 66 45 46 46 65 47 47 48 50 49 64 50 83 51 48 52 49 53 63 55
REMARK SMILES IDX 84 56 51 57 35 58 36 59 44 60 37 61 38 62 42 63 45 64 39 65
REMARK SMILES IDX 40 66 43 67 41 68 67 69 68 70 76 71 69 72 70 73 74 74 77 75
REMARK SMILES IDX 71 76 72 77 75 78 73 79 52 80 53 81 61 82 54 83 55 84 59 85
REMARK SMILES IDX 62 86 56 87 57 88 60 89 58 90
REMARK H PARENT 82 43 50 54
REMARK Flexibility Score: inf
ROOT
ATOM      1  O   UNL     1       2.941  -1.588  -1.158  1.00  0.00    -0.461 OA
ENDROOT
BRANCH   1   2
ATOM      2  C   UNL     1       2.138  -1.350  -0.098  1.00  0.00     0.316 C 
ATOM      3  O   UNL     1       1.022  -1.872  -0.056  1.00  0.00    -0.251 OA
BRANCH   2   4
ATOM      4  C   UNL     1       2.537  -0.366   0.963  1.00  0.00     0.200 C 
BRANCH   4   5
ATOM      5  S   UNL     1       3.874  -0.856   2.057  1.00  0.00    -0.076 SA
BRANCH   5   6
ATOM      6  C   UNL     1       3.007  -1.442   3.415  1.00  0.00     0.170 A 
ATOM      7  N   UNL     1       2.986  -2.726   3.671  1.00  0.00    -0.221 NA
ATOM      8  N   UNL     1       2.274  -0.692   4.308  1.00  0.00    -0.304 N 
ATOM      9  C   UNL     1       2.119  -2.858   4.707  1.00  0.00     0.110 A 
ATOM     10  C   UNL     1       1.655  -1.616   5.133  1.00  0.00     0.160 A 
ATOM     11  C   UNL     1       1.643  -4.015   5.326  1.00  0.00     0.049 A 
ATOM     12  N   UNL     1       0.755  -1.386   6.113  1.00  0.00    -0.235 NA
ATOM     13  C   UNL     1       0.705  -3.836   6.334  1.00  0.00     0.038 A 
ATOM     14  C   UNL     1       0.306  -2.544   6.677  1.00  0.00     0.129 A 
ATOM     15  Br  UNL     1      -0.020  -5.340   7.213  1.00  0.00    -0.049 Br
BRANCH   8  16
ATOM     16  C   UNL     1       1.948   0.727   4.293  1.00  0.00     0.127 C 
BRANCH  16  17
ATOM     17  C   UNL     1       2.937   1.717   4.924  1.00  0.00     0.025 C 
BRANCH  17  18
ATOM     18  C   UNL     1       4.105   2.187   4.089  1.00  0.00    -0.009 C 
ATOM     19  C   UNL     1       4.099   2.325   2.585  1.00  0.00     0.004 C 
ATOM     20  C   UNL     1       4.056   3.555   3.422  1.00  0.00     0.004 C 
ENDBRANCH  17  18
ENDBRANCH  16  17
ENDBRANCH   8  16
ENDBRANCH   5   6
ENDBRANCH   4   5
ENDBRANCH   2   4
ENDBRANCH   1   2
BRANCH   1  21
ATOM     21  C   UNL     1       4.326  -1.222  -1.308  1.00  0.00     0.274 C 
BRANCH  21  22
ATOM     22  C   UNL     1       4.502   0.059  -2.098  1.00  0.00     0.275 C 
BRANCH  22  23
ATOM     23  O   UNL     1       4.222   1.197  -1.290  1.00  0.00    -0.458 OA
BRANCH  23  24
ATOM     24  C   UNL     1       3.018   1.791  -1.469  1.00  0.00     0.338 C 
ATOM     25  O   UNL     1       2.007   1.290  -1.905  1.00  0.00    -0.246 OA
BRANCH  24  26
ATOM     26  C   UNL     1       3.180   3.209  -1.111  1.00  0.00     0.060 A 
ATOM     27  C   UNL     1       2.054   4.037  -1.109  1.00  0.00     0.016 A 
ATOM     28  C   UNL     1       4.479   3.728  -1.014  1.00  0.00     0.016 A 
ATOM     29  C   UNL     1       2.247   5.402  -1.214  1.00  0.00     0.010 A 
ATOM     30  C   UNL     1       4.670   5.076  -1.139  1.00  0.00     0.010 A 
ATOM     31  C   UNL     1       3.556   5.883  -1.333  1.00  0.00    -0.014 A 
BRANCH  31  32
ATOM     32  C   UNL     1       3.800   7.280  -1.612  1.00  0.00     0.031 A 
ATOM     33  C   UNL     1       3.643   8.140  -0.419  1.00  0.00     0.074 A 
ATOM     34  C   UNL     1       4.291   7.678  -2.804  1.00  0.00     0.049 A 
ATOM     35  N   UNL     1       2.733   9.031  -0.217  1.00  0.00    -0.248 NA
ATOM     36  C   UNL     1       4.477   7.858   0.763  1.00  0.00     0.031 C 
ATOM     37  C   UNL     1       4.729   6.853  -3.936  1.00  0.00     0.029 A 
ATOM     38  N   UNL     1       4.584   8.938  -3.226  1.00  0.00    -0.354 N 
ATOM     39  C   UNL     1       3.010   9.574   1.032  1.00  0.00     0.074 A 
ATOM     40  C   UNL     1       3.950   8.689   1.664  1.00  0.00     0.031 C 
ATOM     41  C   UNL     1       5.425   7.615  -4.812  1.00  0.00     0.029 A 
ATOM     42  C   UNL     1       5.363   8.999  -4.382  1.00  0.00     0.049 A 
ATOM     43  H   UNL     1       4.271   9.743  -2.753  1.00  0.00     0.167 HD
ATOM     44  C   UNL     1       2.650  10.852   1.323  1.00  0.00     0.037 A 
ATOM     45  C   UNL     1       5.942  10.121  -4.887  1.00  0.00     0.037 A 
ATOM     46  C   UNL     1       1.661  11.332   0.391  1.00  0.00     0.049 A 
ATOM     47  C   UNL     1       5.209  11.278  -4.307  1.00  0.00     0.074 A 
ATOM     48  C   UNL     1       0.370  10.959   0.073  1.00  0.00     0.029 A 
ATOM     49  N   UNL     1       2.106  12.091  -0.664  1.00  0.00    -0.354 N 
ATOM     50  N   UNL     1       3.962  11.547  -4.581  1.00  0.00    -0.248 NA
ATOM     51  C   UNL     1       5.710  11.820  -3.053  1.00  0.00     0.031 C 
ATOM     52  C   UNL     1       0.278  11.113  -1.341  1.00  0.00     0.029 A 
ATOM     53  C   UNL     1       1.482  11.646  -1.801  1.00  0.00     0.049 A 
ATOM     54  H   UNL     1       2.758  12.826  -0.612  1.00  0.00     0.167 HD
ATOM     55  C   UNL     1       3.406  11.907  -3.363  1.00  0.00     0.074 A 
ATOM     56  C   UNL     1       4.544  12.108  -2.467  1.00  0.00     0.031 C 
ATOM     57  C   UNL     1       2.078  11.709  -3.115  1.00  0.00     0.037 A 
BRANCH  44  58
ATOM     58  C   UNL     1       3.465  11.786   2.179  1.00  0.00     0.064 A 
ATOM     59  C   UNL     1       2.921  13.035   2.533  1.00  0.00     0.173 A 
ATOM     60  C   UNL     1       4.850  11.636   2.411  1.00  0.00     0.173 A 
ATOM     61  F   UNL     1       1.621  13.296   2.329  1.00  0.00    -0.203 F 
ATOM     62  C   UNL     1       3.718  14.075   3.018  1.00  0.00     0.198 A 
ATOM     63  C   UNL     1       5.631  12.656   2.947  1.00  0.00     0.198 A 
ATOM     64  F   UNL     1       5.527  10.548   2.026  1.00  0.00    -0.203 F 
ATOM     65  F   UNL     1       3.180  15.284   3.223  1.00  0.00    -0.200 F 
ATOM     66  C   UNL     1       5.073  13.886   3.222  1.00  0.00     0.200 A 
ATOM     67  F   UNL     1       6.947  12.459   3.113  1.00  0.00    -0.200 F 
ATOM     68  F   UNL     1       5.849  14.897   3.632  1.00  0.00    -0.200 F 
ENDBRANCH  44  58
BRANCH  45  69
ATOM     69  C   UNL     1       7.295  10.281  -5.486  1.00  0.00     0.064 A 
ATOM     70  C   UNL     1       7.658  11.474  -6.139  1.00  0.00     0.173 A 
ATOM     71  C   UNL     1       8.350   9.409  -5.156  1.00  0.00     0.173 A 
ATOM     72  F   UNL     1       6.722  12.383  -6.452  1.00  0.00    -0.203 F 
ATOM     73  C   UNL     1       8.995  11.793  -6.405  1.00  0.00     0.198 A 
ATOM     74  C   UNL     1       9.684   9.727  -5.425  1.00  0.00     0.198 A 
ATOM     75  F   UNL     1       8.119   8.279  -4.474  1.00  0.00    -0.203 F 
ATOM     76  F   UNL     1       9.306  12.972  -6.963  1.00  0.00    -0.200 F 
ATOM     77  C   UNL     1      10.008  10.926  -6.034  1.00  0.00     0.200 A 
ATOM     78  F   UNL     1      10.658   8.897  -5.025  1.00  0.00    -0.200 F 
ATOM     79  F   UNL     1      11.293  11.261  -6.220  1.00  0.00    -0.200 F 
ENDBRANCH  45  69
BRANCH  57  80
ATOM     80  C   UNL     1       1.196  11.321  -4.271  1.00  0.00     0.064 A 
ATOM     81  C   UNL     1       1.295  10.104  -4.969  1.00  0.00     0.173 A 
ATOM     82  C   UNL     1       0.100  12.142  -4.563  1.00  0.00     0.173 A 
ATOM     83  F   UNL     1       2.262   9.223  -4.686  1.00  0.00    -0.203 F 
ATOM     84  C   UNL     1       0.350   9.741  -5.930  1.00  0.00     0.198 A 
ATOM     85  C   UNL     1      -0.861  11.762  -5.496  1.00  0.00     0.198 A 
ATOM     86  F   UNL     1      -0.073  13.291  -3.892  1.00  0.00    -0.203 F 
ATOM     87  F   UNL     1       0.464   8.573  -6.580  1.00  0.00    -0.200 F 
ATOM     88  C   UNL     1      -0.733  10.566  -6.184  1.00  0.00     0.200 A 
ATOM     89  F   UNL     1      -1.932  12.541  -5.700  1.00  0.00    -0.200 F 
ATOM     90  F   UNL     1      -1.669  10.197  -7.068  1.00  0.00    -0.200 F 
ENDBRANCH  57  80
ENDBRANCH  31  32
ENDBRANCH  24  26
ENDBRANCH  23  24
ENDBRANCH  22  23
ENDBRANCH  21  22
ENDBRANCH   1  21
TORSDOF 16
