REMARK SMILES COCCOCC[C@@H]1CCC[C@]1([NH3+])C(=O)OCCOC(=O)c1ccc(-c2c3nc(c(-c4c(F)c(F)c(F)c(F)c4F)c4ccc([nH]4)c(-c4c(F)c(F)c(F)c(F)c4F)c4nc(c(-c5c(F)c(F)c(F)c(F)c5F)c5ccc2[nH]5)C=C4)C=C3)cc1
REMARK SMILES IDX 14 1 15 2 12 3 8 4 9 5 10 6 11 7 7 8 6 9 5 10 4 11 3 12 2 13
REMARK SMILES IDX 1 14 13 15 16 19 17 20 18 21 19 22 20 23 21 24 22 25 23 26
REMARK SMILES IDX 84 27 24 28 83 29 25 30 26 31 27 32 77 33 28 34 82 35 76 36
REMARK SMILES IDX 78 37 29 38 81 39 75 40 74 41 30 43 62 44 42 45 61 46 43 47
REMARK SMILES IDX 46 48 60 49 79 50 44 51 45 52 59 54 80 55 47 56 31 57 32 58
REMARK SMILES IDX 40 59 33 60 34 61 38 62 41 63 35 64 36 65 39 66 37 67 63 68
REMARK SMILES IDX 64 69 72 70 65 71 66 72 70 73 73 74 67 75 68 76 71 77 69 78
REMARK SMILES IDX 48 79 49 80 57 81 50 82 51 83 55 84 58 85 52 86 53 87 56 88
REMARK SMILES IDX 54 89
REMARK H PARENT 13 16 13 17 13 18 78 42 46 53
REMARK Flexibility Score: inf
ROOT
ATOM      1  C   UNL     1       0.532   1.469   3.640  1.00  0.00     0.368 C 
ATOM      2  O   UNL     1       0.558   2.398   4.467  1.00  0.00    -0.245 OA
ENDROOT
BRANCH   1   3
ATOM      3  C   UNL     1      -1.051   1.044   3.035  1.00  0.00     0.195 C 
ATOM      4  C   UNL     1      -1.818   0.223   1.751  1.00  0.00     0.065 C 
ATOM      5  C   UNL     1      -2.199   1.274   0.676  1.00  0.00     0.011 C 
ATOM      6  C   UNL     1      -1.768   2.614   1.210  1.00  0.00     0.008 C 
ATOM      7  C   UNL     1      -1.689   2.462   2.721  1.00  0.00     0.081 C 
BRANCH   4   8
ATOM      8  C   UNL     1      -1.846  -1.289   1.091  1.00  0.00     0.039 C 
BRANCH   8   9
ATOM      9  C   UNL     1      -0.723  -2.331   0.710  1.00  0.00     0.161 C 
BRANCH   9  10
ATOM     10  O   UNL     1       0.435  -2.400   1.509  1.00  0.00    -0.379 OA
BRANCH  10  11
ATOM     11  C   UNL     1       0.626  -1.146   2.076  1.00  0.00     0.188 C 
BRANCH  11  12
ATOM     12  C   UNL     1       0.964  -0.036   1.018  1.00  0.00     0.188 C 
BRANCH  12  13
ATOM     13  O   UNL     1       0.270  -0.066  -0.220  1.00  0.00    -0.382 OA
ATOM     14  C   UNL     1       1.136  -0.287  -1.322  1.00  0.00     0.195 C 
ENDBRANCH  12  13
ENDBRANCH  11  12
ENDBRANCH  10  11
ENDBRANCH   9  10
ENDBRANCH   8   9
ENDBRANCH   4   8
BRANCH   3  15
ATOM     15  N   UNL     1      -1.746   0.642   4.301  1.00  0.00    -0.343 N 
ATOM     16  H   UNL     1      -2.704   0.363   4.090  1.00  0.00     0.345 HD
ATOM     17  H   UNL     1      -1.756   1.431   4.949  1.00  0.00     0.345 HD
ATOM     18  H   UNL     1      -1.250  -0.141   4.728  1.00  0.00     0.345 HD
ENDBRANCH   3  15
ENDBRANCH   1   3
BRANCH   1  19
ATOM     19  O   UNL     1       1.730   0.913   3.438  1.00  0.00    -0.457 OA
BRANCH  19  20
ATOM     20  C   UNL     1       3.114   0.212   3.177  1.00  0.00     0.274 C 
BRANCH  20  21
ATOM     21  C   UNL     1       3.912   0.737   1.969  1.00  0.00     0.275 C 
BRANCH  21  22
ATOM     22  O   UNL     1       3.526   2.091   1.745  1.00  0.00    -0.458 OA
BRANCH  22  23
ATOM     23  C   UNL     1       3.227   2.415   0.469  1.00  0.00     0.338 C 
ATOM     24  O   UNL     1       3.515   1.783  -0.533  1.00  0.00    -0.246 OA
BRANCH  23  25
ATOM     25  C   UNL     1       2.396   3.635   0.445  1.00  0.00     0.060 A 
ATOM     26  C   UNL     1       1.504   3.940   1.470  1.00  0.00     0.016 A 
ATOM     27  C   UNL     1       2.444   4.448  -0.680  1.00  0.00     0.016 A 
ATOM     28  C   UNL     1       0.619   5.007   1.341  1.00  0.00     0.010 A 
ATOM     29  C   UNL     1       1.680   5.615  -0.723  1.00  0.00     0.010 A 
ATOM     30  C   UNL     1       0.763   5.921   0.296  1.00  0.00    -0.014 A 
BRANCH  30  31
ATOM     31  C   UNL     1       0.074   7.243   0.328  1.00  0.00     0.031 A 
ATOM     32  C   UNL     1      -0.603   7.788  -0.899  1.00  0.00     0.074 A 
ATOM     33  C   UNL     1       0.174   8.013   1.435  1.00  0.00     0.049 A 
ATOM     34  N   UNL     1      -0.970   9.017  -1.162  1.00  0.00    -0.248 NA
ATOM     35  C   UNL     1      -0.874   6.837  -1.990  1.00  0.00     0.031 C 
ATOM     36  C   UNL     1       0.774   7.609   2.711  1.00  0.00     0.029 A 
ATOM     37  N   UNL     1      -0.201   9.317   1.662  1.00  0.00    -0.354 N 
ATOM     38  C   UNL     1      -1.464   8.998  -2.459  1.00  0.00     0.074 A 
ATOM     39  C   UNL     1      -1.322   7.641  -2.944  1.00  0.00     0.031 C 
ATOM     40  C   UNL     1       0.700   8.616   3.586  1.00  0.00     0.029 A 
ATOM     41  C   UNL     1       0.173   9.782   2.902  1.00  0.00     0.049 A 
ATOM     42  H   UNL     1      -0.687   9.863   1.003  1.00  0.00     0.167 HD
ATOM     43  C   UNL     1      -1.985  10.024  -3.174  1.00  0.00     0.037 A 
ATOM     44  C   UNL     1       0.171  11.021   3.425  1.00  0.00     0.037 A 
ATOM     45  C   UNL     1      -2.125  11.367  -2.669  1.00  0.00     0.049 A 
ATOM     46  C   UNL     1      -0.324  12.154   2.577  1.00  0.00     0.074 A 
ATOM     47  C   UNL     1      -2.664  12.472  -3.304  1.00  0.00     0.029 A 
ATOM     48  N   UNL     1      -1.713  11.791  -1.413  1.00  0.00    -0.354 N 
ATOM     49  N   UNL     1      -0.783  12.127   1.351  1.00  0.00    -0.248 NA
ATOM     50  C   UNL     1      -0.299  13.489   3.183  1.00  0.00     0.031 C 
ATOM     51  C   UNL     1      -2.490  13.581  -2.474  1.00  0.00     0.029 A 
ATOM     52  C   UNL     1      -1.947  13.150  -1.274  1.00  0.00     0.049 A 
ATOM     53  H   UNL     1      -1.314  11.212  -0.724  1.00  0.00     0.167 HD
ATOM     54  C   UNL     1      -1.146  13.431   1.054  1.00  0.00     0.074 A 
ATOM     55  C   UNL     1      -0.864  14.221   2.235  1.00  0.00     0.031 C 
ATOM     56  C   UNL     1      -1.671  13.926  -0.092  1.00  0.00     0.037 A 
BRANCH  43  57
ATOM     57  C   UNL     1      -2.403   9.756  -4.593  1.00  0.00     0.064 A 
ATOM     58  C   UNL     1      -3.475   8.908  -4.909  1.00  0.00     0.173 A 
ATOM     59  C   UNL     1      -1.745  10.397  -5.656  1.00  0.00     0.173 A 
ATOM     60  F   UNL     1      -4.142   8.269  -3.936  1.00  0.00    -0.203 F 
ATOM     61  C   UNL     1      -3.842   8.678  -6.233  1.00  0.00     0.198 A 
ATOM     62  C   UNL     1      -2.146  10.203  -6.974  1.00  0.00     0.198 A 
ATOM     63  F   UNL     1      -0.720  11.230  -5.415  1.00  0.00    -0.203 F 
ATOM     64  F   UNL     1      -4.824   7.810  -6.512  1.00  0.00    -0.200 F 
ATOM     65  C   UNL     1      -3.184   9.333  -7.263  1.00  0.00     0.200 A 
ATOM     66  F   UNL     1      -1.525  10.859  -7.965  1.00  0.00    -0.200 F 
ATOM     67  F   UNL     1      -3.546   9.119  -8.535  1.00  0.00    -0.200 F 
ENDBRANCH  43  57
BRANCH  44  68
ATOM     68  C   UNL     1       0.689  11.259   4.801  1.00  0.00     0.064 A 
ATOM     69  C   UNL     1      -0.156  11.733   5.813  1.00  0.00     0.173 A 
ATOM     70  C   UNL     1       2.037  11.041   5.129  1.00  0.00     0.173 A 
ATOM     71  F   UNL     1      -1.450  11.968   5.549  1.00  0.00    -0.203 F 
ATOM     72  C   UNL     1       0.335  12.025   7.083  1.00  0.00     0.198 A 
ATOM     73  C   UNL     1       2.515  11.283   6.415  1.00  0.00     0.198 A 
ATOM     74  F   UNL     1       2.891  10.576   4.205  1.00  0.00    -0.203 F 
ATOM     75  F   UNL     1      -0.479  12.557   8.005  1.00  0.00    -0.200 F 
ATOM     76  C   UNL     1       1.668  11.793   7.385  1.00  0.00     0.200 A 
ATOM     77  F   UNL     1       3.798  11.030   6.709  1.00  0.00    -0.200 F 
ATOM     78  F   UNL     1       2.139  12.076   8.607  1.00  0.00    -0.200 F 
ENDBRANCH  44  68
BRANCH  56  79
ATOM     79  C   UNL     1      -2.048  15.379  -0.104  1.00  0.00     0.064 A 
ATOM     80  C   UNL     1      -1.091  16.402  -0.025  1.00  0.00     0.173 A 
ATOM     81  C   UNL     1      -3.396  15.751  -0.227  1.00  0.00     0.173 A 
ATOM     82  F   UNL     1       0.211  16.103   0.102  1.00  0.00    -0.203 F 
ATOM     83  C   UNL     1      -1.475  17.740  -0.022  1.00  0.00     0.198 A 
ATOM     84  C   UNL     1      -3.770  17.089  -0.280  1.00  0.00     0.198 A 
ATOM     85  F   UNL     1      -4.353  14.814  -0.316  1.00  0.00    -0.203 F 
ATOM     86  F   UNL     1      -0.551  18.698   0.133  1.00  0.00    -0.200 F 
ATOM     87  C   UNL     1      -2.811  18.082  -0.161  1.00  0.00     0.200 A 
ATOM     88  F   UNL     1      -5.059  17.416  -0.445  1.00  0.00    -0.200 F 
ATOM     89  F   UNL     1      -3.177  19.371  -0.173  1.00  0.00    -0.200 F 
ENDBRANCH  56  79
ENDBRANCH  30  31
ENDBRANCH  23  25
ENDBRANCH  22  23
ENDBRANCH  21  22
ENDBRANCH  20  21
ENDBRANCH  19  20
ENDBRANCH   1  19
TORSDOF 18
