REMARK SMILES O=C(OCCOC(=O)c1cc(Cl)nc(I)c1C(F)(F)F)c1ccc(-c2c3nc(c(-c4c(F)c(F)c(F)c(F)c4F)c4ccc([nH]4)c(-c4c(F)c(F)c(F)c(F)c4F)c4nc(c(-c5c(F)c(F)c(F)c(F)c5F)c5ccc2[nH]5)C=C4)C=C3)cc1
REMARK SMILES IDX 4 1 3 2 2 3 1 4 21 5 22 6 83 7 23 8 82 9 24 10 25 11 26 12
REMARK SMILES IDX 76 13 27 14 81 15 75 16 77 17 28 18 80 19 74 20 73 21 29 23
REMARK SMILES IDX 61 24 41 25 60 26 42 27 45 28 59 29 78 30 43 31 44 32 58 34
REMARK SMILES IDX 79 35 46 36 30 37 31 38 39 39 32 40 33 41 37 42 40 43 34 44
REMARK SMILES IDX 35 45 38 46 36 47 62 48 63 49 71 50 64 51 65 52 69 53 72 54
REMARK SMILES IDX 66 55 67 56 70 57 68 58 47 59 48 60 56 61 49 62 50 63 54 64
REMARK SMILES IDX 57 65 51 66 52 67 55 68 53 69 5 70 6 71 7 72 8 73 9 74 10 75
REMARK SMILES IDX 16 76 11 77 14 78 12 79 13 80 15 81 17 82 18 83 19 84 20 85
REMARK H PARENT 77 22 45 33
REMARK Flexibility Score: inf
ROOT
ATOM      1  C   UNL     1       4.387  -0.755  -0.975  1.00  0.00     0.275 C 
ENDROOT
BRANCH   1   2
ATOM      2  O   UNL     1       3.296  -1.126  -0.109  1.00  0.00    -0.458 OA
BRANCH   2   3
ATOM      3  C   UNL     1       2.986  -0.731   1.146  1.00  0.00     0.338 C 
ATOM      4  O   UNL     1       2.118  -1.362   1.750  1.00  0.00    -0.246 OA
BRANCH   3   5
ATOM      5  C   UNL     1       3.531   0.490   1.831  1.00  0.00     0.060 A 
ATOM      6  C   UNL     1       4.698   1.179   1.497  1.00  0.00     0.016 A 
ATOM      7  C   UNL     1       2.780   0.980   2.924  1.00  0.00     0.016 A 
ATOM      8  C   UNL     1       5.089   2.324   2.196  1.00  0.00     0.010 A 
ATOM      9  C   UNL     1       3.178   2.111   3.647  1.00  0.00     0.010 A 
ATOM     10  C   UNL     1       4.351   2.775   3.293  1.00  0.00    -0.014 A 
BRANCH  10  11
ATOM     11  C   UNL     1       4.973   3.797   4.161  1.00  0.00     0.031 A 
ATOM     12  C   UNL     1       6.009   3.336   5.137  1.00  0.00     0.074 A 
ATOM     13  C   UNL     1       4.712   5.104   4.004  1.00  0.00     0.049 A 
ATOM     14  N   UNL     1       6.866   4.038   5.826  1.00  0.00    -0.248 NA
ATOM     15  C   UNL     1       6.102   1.881   5.350  1.00  0.00     0.031 C 
ATOM     16  C   UNL     1       3.705   5.647   3.103  1.00  0.00     0.029 A 
ATOM     17  N   UNL     1       5.285   6.211   4.576  1.00  0.00    -0.354 N 
ATOM     18  C   UNL     1       7.618   3.113   6.531  1.00  0.00     0.074 A 
ATOM     19  C   UNL     1       7.107   1.800   6.208  1.00  0.00     0.031 C 
ATOM     20  C   UNL     1       3.756   6.989   3.150  1.00  0.00     0.029 A 
ATOM     21  C   UNL     1       4.796   7.398   4.085  1.00  0.00     0.049 A 
ATOM     22  H   UNL     1       5.980   6.160   5.271  1.00  0.00     0.167 HD
ATOM     23  C   UNL     1       8.646   3.345   7.376  1.00  0.00     0.037 A 
ATOM     24  C   UNL     1       5.160   8.668   4.351  1.00  0.00     0.037 A 
ATOM     25  C   UNL     1       9.101   4.656   7.740  1.00  0.00     0.049 A 
ATOM     26  C   UNL     1       6.277   8.900   5.333  1.00  0.00     0.074 A 
ATOM     27  C   UNL     1      10.111   5.007   8.614  1.00  0.00     0.029 A 
ATOM     28  N   UNL     1       8.546   5.837   7.266  1.00  0.00    -0.354 N 
ATOM     29  N   UNL     1       7.037   8.019   5.939  1.00  0.00    -0.248 NA
ATOM     30  C   UNL     1       6.580  10.295   5.681  1.00  0.00     0.031 C 
ATOM     31  C   UNL     1      10.135   6.402   8.708  1.00  0.00     0.029 A 
ATOM     32  C   UNL     1       9.166   6.920   7.861  1.00  0.00     0.049 A 
ATOM     33  H   UNL     1       7.819   5.895   6.604  1.00  0.00     0.167 HD
ATOM     34  C   UNL     1       7.893   8.748   6.751  1.00  0.00     0.074 A 
ATOM     35  C   UNL     1       7.593  10.147   6.525  1.00  0.00     0.031 C 
ATOM     36  C   UNL     1       8.828   8.301   7.624  1.00  0.00     0.037 A 
BRANCH  23  37
ATOM     37  C   UNL     1       9.302   2.150   7.987  1.00  0.00     0.064 A 
ATOM     38  C   UNL     1      10.174   1.339   7.246  1.00  0.00     0.173 A 
ATOM     39  C   UNL     1       9.046   1.802   9.320  1.00  0.00     0.173 A 
ATOM     40  F   UNL     1      10.424   1.617   5.958  1.00  0.00    -0.203 F 
ATOM     41  C   UNL     1      10.757   0.211   7.817  1.00  0.00     0.198 A 
ATOM     42  C   UNL     1       9.644   0.684   9.893  1.00  0.00     0.198 A 
ATOM     43  F   UNL     1       8.206   2.541  10.061  1.00  0.00    -0.203 F 
ATOM     44  F   UNL     1      11.556  -0.574   7.081  1.00  0.00    -0.200 F 
ATOM     45  C   UNL     1      10.495  -0.112   9.141  1.00  0.00     0.200 A 
ATOM     46  F   UNL     1       9.388   0.370  11.170  1.00  0.00    -0.200 F 
ATOM     47  F   UNL     1      11.053  -1.201   9.688  1.00  0.00    -0.200 F 
ENDBRANCH  23  37
BRANCH  24  48
ATOM     48  C   UNL     1       4.480   9.807   3.675  1.00  0.00     0.064 A 
ATOM     49  C   UNL     1       5.168  10.621   2.763  1.00  0.00     0.173 A 
ATOM     50  C   UNL     1       3.133  10.112   3.926  1.00  0.00     0.173 A 
ATOM     51  F   UNL     1       6.463  10.389   2.504  1.00  0.00    -0.203 F 
ATOM     52  C   UNL     1       4.540  11.700   2.141  1.00  0.00     0.198 A 
ATOM     53  C   UNL     1       2.499  11.174   3.283  1.00  0.00     0.198 A 
ATOM     54  F   UNL     1       2.428   9.370   4.793  1.00  0.00    -0.203 F 
ATOM     55  F   UNL     1       5.234  12.486   1.306  1.00  0.00    -0.200 F 
ATOM     56  C   UNL     1       3.205  11.972   2.396  1.00  0.00     0.200 A 
ATOM     57  F   UNL     1       1.206  11.427   3.527  1.00  0.00    -0.200 F 
ATOM     58  F   UNL     1       2.602  13.007   1.796  1.00  0.00    -0.200 F 
ENDBRANCH  24  48
BRANCH  36  59
ATOM     59  C   UNL     1       9.555   9.326   8.439  1.00  0.00     0.064 A 
ATOM     60  C   UNL     1       8.926   9.960   9.520  1.00  0.00     0.173 A 
ATOM     61  C   UNL     1      10.912   9.594   8.210  1.00  0.00     0.173 A 
ATOM     62  F   UNL     1       7.625   9.741   9.767  1.00  0.00    -0.203 F 
ATOM     63  C   UNL     1       9.632  10.827  10.346  1.00  0.00     0.198 A 
ATOM     64  C   UNL     1      11.621  10.443   9.054  1.00  0.00     0.198 A 
ATOM     65  F   UNL     1      11.556   9.003   7.193  1.00  0.00    -0.203 F 
ATOM     66  F   UNL     1       9.009  11.435  11.364  1.00  0.00    -0.200 F 
ATOM     67  C   UNL     1      10.981  11.058  10.120  1.00  0.00     0.200 A 
ATOM     68  F   UNL     1      12.928  10.653   8.845  1.00  0.00    -0.200 F 
ATOM     69  F   UNL     1      11.667  11.873  10.934  1.00  0.00    -0.200 F 
ENDBRANCH  36  59
ENDBRANCH  10  11
ENDBRANCH   3   5
ENDBRANCH   2   3
ENDBRANCH   1   2
BRANCH   1  70
ATOM     70  C   UNL     1       4.046   0.442  -1.859  1.00  0.00     0.275 C 
BRANCH  70  71
ATOM     71  O   UNL     1       3.525   1.532  -1.077  1.00  0.00    -0.458 OA
BRANCH  71  72
ATOM     72  C   UNL     1       2.263   1.903  -1.358  1.00  0.00     0.339 C 
ATOM     73  O   UNL     1       1.508   1.437  -2.200  1.00  0.00    -0.246 OA
BRANCH  72  74
ATOM     74  C   UNL     1       1.813   2.940  -0.422  1.00  0.00     0.078 A 
ATOM     75  C   UNL     1       0.859   2.527   0.512  1.00  0.00     0.057 A 
ATOM     76  C   UNL     1       2.176   4.289  -0.553  1.00  0.00     0.102 A 
ATOM     77  C   UNL     1       0.295   3.495   1.301  1.00  0.00     0.131 A 
ATOM     78  C   UNL     1       1.433   5.185   0.209  1.00  0.00     0.116 A 
ATOM     79  Cl  UNL     1      -0.800   3.099   2.554  1.00  0.00    -0.062 Cl
ATOM     80  N   UNL     1       0.539   4.806   1.155  1.00  0.00    -0.229 NA
ATOM     81  I   UNL     1       1.495   7.280  -0.102  1.00  0.00    -0.021 I 
BRANCH  76  82
ATOM     82  C   UNL     1       3.288   4.759  -1.436  1.00  0.00     0.419 C 
ATOM     83  F   UNL     1       2.858   5.508  -2.485  1.00  0.00    -0.166 F 
ATOM     84  F   UNL     1       4.181   5.532  -0.753  1.00  0.00    -0.166 F 
ATOM     85  F   UNL     1       4.047   3.776  -1.988  1.00  0.00    -0.166 F 
ENDBRANCH  76  82
ENDBRANCH  72  74
ENDBRANCH  71  72
ENDBRANCH  70  71
ENDBRANCH   1  70
TORSDOF 12
