REMARK SMILES C[C@@H](Oc1cncc(C(=O)OCCOC(=O)c2ccc(-c3c4nc(c(-c5c(F)c(F)c(F)c(F)c5F)c5ccc([nH]5)c(-c5c(F)c(F)c(F)c(F)c5F)c5nc(c(-c6c(F)c(F)c(F)c(F)c6F)c6ccc3[nH]6)C=C5)C=C4)cc2)n1)C(F)(F)F
REMARK SMILES IDX 12 1 11 2 9 3 10 4 8 5 4 6 5 7 80 8 6 9 7 10 3 11 2 12 1 13
REMARK SMILES IDX 81 14 82 15 83 16 84 17 13 18 14 19 15 20 16 21 17 22 18 23
REMARK SMILES IDX 79 24 19 25 78 26 20 27 21 28 22 29 72 30 23 31 77 32 71 33
REMARK SMILES IDX 73 34 24 35 76 36 70 37 69 38 25 40 57 41 37 42 56 43 38 44
REMARK SMILES IDX 41 45 55 46 74 47 39 48 40 49 54 51 75 52 42 53 26 54 27 55
REMARK SMILES IDX 35 56 28 57 29 58 33 59 36 60 30 61 31 62 34 63 32 64 58 65
REMARK SMILES IDX 59 66 67 67 60 68 61 69 65 70 68 71 62 72 63 73 66 74 64 75
REMARK SMILES IDX 43 76 44 77 52 78 45 79 46 80 50 81 53 82 47 83 48 84 51 85
REMARK SMILES IDX 49 86
REMARK H PARENT 73 39 41 50
REMARK Flexibility Score: inf
ROOT
ATOM      1  C   UNL     1       4.094   0.020   7.376  1.00  0.00     0.275 C 
ENDROOT
BRANCH   1   2
ATOM      2  O   UNL     1       3.578  -0.034   6.027  1.00  0.00    -0.457 OA
BRANCH   2   3
ATOM      3  C   UNL     1       4.030   0.947   5.206  1.00  0.00     0.358 C 
ATOM      4  O   UNL     1       4.840   1.815   5.506  1.00  0.00    -0.244 OA
BRANCH   3   5
ATOM      5  C   UNL     1       3.513   0.832   3.823  1.00  0.00     0.170 A 
ATOM      6  C   UNL     1       1.816   0.700   2.306  1.00  0.00     0.233 A 
ATOM      7  C   UNL     1       2.693   1.087   1.294  1.00  0.00     0.179 A 
ATOM      8  N   UNL     1       2.199   0.555   3.596  1.00  0.00    -0.203 NA
ATOM      9  N   UNL     1       4.009   1.293   1.504  1.00  0.00    -0.257 NA
ATOM     10  C   UNL     1       4.386   1.186   2.797  1.00  0.00     0.147 A 
BRANCH   6  11
ATOM     11  O   UNL     1       0.469   0.673   2.057  1.00  0.00    -0.464 OA
BRANCH  11  12
ATOM     12  C   UNL     1       0.038  -0.547   1.420  1.00  0.00     0.277 C 
ATOM     13  C   UNL     1       0.225  -0.454  -0.098  1.00  0.00     0.063 C 
BRANCH  12  14
ATOM     14  C   UNL     1      -1.449  -0.752   1.726  1.00  0.00     0.425 C 
ATOM     15  F   UNL     1      -1.906  -1.887   1.143  1.00  0.00    -0.167 F 
ATOM     16  F   UNL     1      -1.678  -0.865   3.052  1.00  0.00    -0.167 F 
ATOM     17  F   UNL     1      -2.201   0.270   1.258  1.00  0.00    -0.167 F 
ENDBRANCH  12  14
ENDBRANCH  11  12
ENDBRANCH   6  11
ENDBRANCH   3   5
ENDBRANCH   2   3
ENDBRANCH   1   2
BRANCH   1  18
ATOM     18  C   UNL     1       5.294  -0.909   7.569  1.00  0.00     0.275 C 
BRANCH  18  19
ATOM     19  O   UNL     1       6.395  -0.501   6.733  1.00  0.00    -0.458 OA
BRANCH  19  20
ATOM     20  C   UNL     1       6.826  -1.419   5.840  1.00  0.00     0.338 C 
ATOM     21  O   UNL     1       6.403  -2.555   5.681  1.00  0.00    -0.246 OA
BRANCH  20  22
ATOM     22  C   UNL     1       7.902  -0.867   4.997  1.00  0.00     0.060 A 
ATOM     23  C   UNL     1       7.680   0.298   4.270  1.00  0.00     0.016 A 
ATOM     24  C   UNL     1       9.066  -1.603   4.785  1.00  0.00     0.016 A 
ATOM     25  C   UNL     1       8.541   0.650   3.231  1.00  0.00     0.010 A 
ATOM     26  C   UNL     1       9.997  -1.173   3.830  1.00  0.00     0.010 A 
ATOM     27  C   UNL     1       9.723  -0.071   2.999  1.00  0.00    -0.014 A 
BRANCH  27  28
ATOM     28  C   UNL     1      10.642   0.295   1.877  1.00  0.00     0.031 A 
ATOM     29  C   UNL     1      11.050  -0.738   0.853  1.00  0.00     0.074 A 
ATOM     30  C   UNL     1      11.112   1.553   1.747  1.00  0.00     0.049 A 
ATOM     31  N   UNL     1      11.993  -0.681  -0.056  1.00  0.00    -0.248 NA
ATOM     32  C   UNL     1      10.312  -2.011   0.864  1.00  0.00     0.031 C 
ATOM     33  C   UNL     1      10.784   2.679   2.621  1.00  0.00     0.029 A 
ATOM     34  N   UNL     1      11.964   2.101   0.815  1.00  0.00    -0.354 N 
ATOM     35  C   UNL     1      12.013  -1.931  -0.665  1.00  0.00     0.074 A 
ATOM     36  C   UNL     1      10.980  -2.723  -0.034  1.00  0.00     0.031 C 
ATOM     37  C   UNL     1      11.372   3.790   2.154  1.00  0.00     0.029 A 
ATOM     38  C   UNL     1      12.207   3.439   1.011  1.00  0.00     0.049 A 
ATOM     39  H   UNL     1      12.361   1.583   0.078  1.00  0.00     0.167 HD
ATOM     40  C   UNL     1      12.825  -2.377  -1.655  1.00  0.00     0.037 A 
ATOM     41  C   UNL     1      13.042   4.287   0.380  1.00  0.00     0.037 A 
ATOM     42  C   UNL     1      13.793  -1.566  -2.346  1.00  0.00     0.049 A 
ATOM     43  C   UNL     1      13.926   3.772  -0.719  1.00  0.00     0.074 A 
ATOM     44  C   UNL     1      14.644  -1.927  -3.378  1.00  0.00     0.029 A 
ATOM     45  N   UNL     1      14.019  -0.221  -2.096  1.00  0.00    -0.354 N 
ATOM     46  N   UNL     1      14.000   2.566  -1.223  1.00  0.00    -0.248 NA
ATOM     47  C   UNL     1      14.867   4.732  -1.315  1.00  0.00     0.031 C 
ATOM     48  C   UNL     1      15.401  -0.806  -3.736  1.00  0.00     0.029 A 
ATOM     49  C   UNL     1      14.998   0.261  -2.950  1.00  0.00     0.049 A 
ATOM     50  H   UNL     1      13.553   0.312  -1.412  1.00  0.00     0.167 HD
ATOM     51  C   UNL     1      14.993   2.618  -2.191  1.00  0.00     0.074 A 
ATOM     52  C   UNL     1      15.476   3.983  -2.224  1.00  0.00     0.031 C 
ATOM     53  C   UNL     1      15.469   1.620  -2.973  1.00  0.00     0.037 A 
BRANCH  40  54
ATOM     54  C   UNL     1      12.730  -3.826  -2.036  1.00  0.00     0.064 A 
ATOM     55  C   UNL     1      11.664  -4.331  -2.792  1.00  0.00     0.173 A 
ATOM     56  C   UNL     1      13.761  -4.712  -1.680  1.00  0.00     0.173 A 
ATOM     57  F   UNL     1      10.649  -3.529  -3.147  1.00  0.00    -0.203 F 
ATOM     58  C   UNL     1      11.622  -5.674  -3.162  1.00  0.00     0.198 A 
ATOM     59  C   UNL     1      13.728  -6.047  -2.073  1.00  0.00     0.198 A 
ATOM     60  F   UNL     1      14.808  -4.277  -0.964  1.00  0.00    -0.203 F 
ATOM     61  F   UNL     1      10.576  -6.144  -3.855  1.00  0.00    -0.200 F 
ATOM     62  C   UNL     1      12.657  -6.528  -2.809  1.00  0.00     0.200 A 
ATOM     63  F   UNL     1      14.735  -6.867  -1.741  1.00  0.00    -0.200 F 
ATOM     64  F   UNL     1      12.619  -7.817  -3.175  1.00  0.00    -0.200 F 
ENDBRANCH  40  54
BRANCH  41  65
ATOM     65  C   UNL     1      13.113   5.707   0.812  1.00  0.00     0.064 A 
ATOM     66  C   UNL     1      12.624   6.733  -0.006  1.00  0.00     0.173 A 
ATOM     67  C   UNL     1      13.652   6.063   2.058  1.00  0.00     0.173 A 
ATOM     68  F   UNL     1      12.127   6.445  -1.218  1.00  0.00    -0.203 F 
ATOM     69  C   UNL     1      12.671   8.064   0.406  1.00  0.00     0.198 A 
ATOM     70  C   UNL     1      13.671   7.389   2.481  1.00  0.00     0.198 A 
ATOM     71  F   UNL     1      14.136   5.116   2.875  1.00  0.00    -0.203 F 
ATOM     72  F   UNL     1      12.226   9.031  -0.408  1.00  0.00    -0.200 F 
ATOM     73  C   UNL     1      13.184   8.389   1.653  1.00  0.00     0.200 A 
ATOM     74  F   UNL     1      14.154   7.697   3.692  1.00  0.00    -0.200 F 
ATOM     75  F   UNL     1      13.214   9.667   2.055  1.00  0.00    -0.200 F 
ENDBRANCH  41  65
BRANCH  53  76
ATOM     76  C   UNL     1      16.556   1.973  -3.942  1.00  0.00     0.064 A 
ATOM     77  C   UNL     1      17.876   2.173  -3.515  1.00  0.00     0.173 A 
ATOM     78  C   UNL     1      16.279   2.086  -5.312  1.00  0.00     0.173 A 
ATOM     79  F   UNL     1      18.184   2.091  -2.212  1.00  0.00    -0.203 F 
ATOM     80  C   UNL     1      18.880   2.494  -4.425  1.00  0.00     0.198 A 
ATOM     81  C   UNL     1      17.289   2.388  -6.221  1.00  0.00     0.198 A 
ATOM     82  F   UNL     1      15.031   1.901  -5.767  1.00  0.00    -0.203 F 
ATOM     83  F   UNL     1      20.128   2.720  -3.992  1.00  0.00    -0.200 F 
ATOM     84  C   UNL     1      18.586   2.596  -5.777  1.00  0.00     0.200 A 
ATOM     85  F   UNL     1      17.006   2.480  -7.528  1.00  0.00    -0.200 F 
ATOM     86  F   UNL     1      19.553   2.906  -6.652  1.00  0.00    -0.200 F 
ENDBRANCH  53  76
ENDBRANCH  27  28
ENDBRANCH  20  22
ENDBRANCH  19  20
ENDBRANCH  18  19
ENDBRANCH   1  18
TORSDOF 14
