REMARK SMILES C[C@H](Oc1cc2oc(=O)cc(-c3ccccc3)c2cc1Cl)C(=O)OCCOC(=O)c1ccc(-c2c3nc(c(-c4c(F)c(F)c(F)c(F)c4F)c4ccc([nH]4)c(-c4c(F)c(F)c(F)c(F)c4F)c4nc(c(-c5c(F)c(F)c(F)c(F)c5F)c5ccc2[nH]5)C=C4)C=C3)cc1
REMARK SMILES IDX 25 1 24 2 22 3 23 4 2 5 1 6 3 7 4 8 5 9 20 10 6 11 19 12
REMARK SMILES IDX 21 13 7 14 18 15 8 16 11 17 9 18 10 19 12 20 13 21 17 22
REMARK SMILES IDX 14 23 16 24 15 25 26 26 27 27 28 28 29 29 30 30 31 31 92 32
REMARK SMILES IDX 32 33 91 34 33 35 34 36 35 37 85 38 36 39 90 40 84 41 86 42
REMARK SMILES IDX 37 43 89 44 83 45 82 46 38 48 70 49 50 50 69 51 51 52 54 53
REMARK SMILES IDX 68 54 87 55 52 56 53 57 67 59 88 60 55 61 39 62 40 63 48 64
REMARK SMILES IDX 41 65 42 66 46 67 49 68 43 69 44 70 47 71 45 72 71 73 72 74
REMARK SMILES IDX 80 75 73 76 74 77 78 78 81 79 75 80 76 81 79 82 77 83 56 84
REMARK SMILES IDX 57 85 65 86 58 87 59 88 63 89 66 90 60 91 61 92 64 93 62 94
REMARK H PARENT 86 47 54 58
REMARK Flexibility Score: inf
ROOT
ATOM      1  C   UNL     1      -3.234   0.945  -0.643  1.00  0.00     0.274 C 
ENDROOT
BRANCH   1   2
ATOM      2  O   UNL     1      -1.815   0.914  -0.880  1.00  0.00    -0.459 OA
BRANCH   2   3
ATOM      3  C   UNL     1      -1.079   1.935  -0.354  1.00  0.00     0.347 C 
ATOM      4  O   UNL     1      -1.533   2.853   0.321  1.00  0.00    -0.248 OA
BRANCH   3   5
ATOM      5  C   UNL     1       0.385   1.866  -0.797  1.00  0.00     0.279 C 
ATOM      6  C   UNL     1       0.403   2.349  -2.249  1.00  0.00     0.066 C 
BRANCH   5   7
ATOM      7  O   UNL     1       0.860   0.533  -0.595  1.00  0.00    -0.477 OA
BRANCH   7   8
ATOM      8  C   UNL     1       2.123   0.171  -0.970  1.00  0.00     0.142 A 
ATOM      9  C   UNL     1       3.123   1.066  -1.331  1.00  0.00     0.096 A 
ATOM     10  C   UNL     1       2.408  -1.204  -1.032  1.00  0.00     0.084 A 
ATOM     11  C   UNL     1       4.299   0.587  -1.915  1.00  0.00     0.142 A 
ATOM     12  C   UNL     1       3.629  -1.670  -1.546  1.00  0.00     0.037 A 
ATOM     13  Cl  UNL     1       1.250  -2.384  -0.524  1.00  0.00    -0.080 Cl
ATOM     14  O   UNL     1       5.167   1.568  -2.427  1.00  0.00    -0.423 OA
ATOM     15  C   UNL     1       4.572  -0.773  -2.055  1.00  0.00     0.027 A 
ATOM     16  C   UNL     1       6.225   1.210  -3.239  1.00  0.00     0.336 A 
ATOM     17  C   UNL     1       5.805  -1.190  -2.749  1.00  0.00    -0.000 A 
ATOM     18  O   UNL     1       6.900   2.039  -3.837  1.00  0.00    -0.246 OA
ATOM     19  C   UNL     1       6.537  -0.223  -3.329  1.00  0.00     0.103 A 
BRANCH  17  20
ATOM     20  C   UNL     1       6.308  -2.571  -2.934  1.00  0.00    -0.017 A 
ATOM     21  C   UNL     1       7.571  -2.933  -2.438  1.00  0.00     0.009 A 
ATOM     22  C   UNL     1       5.555  -3.530  -3.624  1.00  0.00     0.009 A 
ATOM     23  C   UNL     1       8.071  -4.222  -2.632  1.00  0.00     0.001 A 
ATOM     24  C   UNL     1       6.050  -4.824  -3.804  1.00  0.00     0.001 A 
ATOM     25  C   UNL     1       7.308  -5.168  -3.313  1.00  0.00     0.000 A 
ENDBRANCH  17  20
ENDBRANCH   7   8
ENDBRANCH   5   7
ENDBRANCH   3   5
ENDBRANCH   2   3
ENDBRANCH   1   2
BRANCH   1  26
ATOM     26  C   UNL     1      -3.641   0.080   0.552  1.00  0.00     0.275 C 
BRANCH  26  27
ATOM     27  O   UNL     1      -3.184   0.652   1.790  1.00  0.00    -0.458 OA
BRANCH  27  28
ATOM     28  C   UNL     1      -1.972   0.215   2.198  1.00  0.00     0.338 C 
ATOM     29  O   UNL     1      -1.294  -0.664   1.684  1.00  0.00    -0.246 OA
BRANCH  28  30
ATOM     30  C   UNL     1      -1.476   1.043   3.308  1.00  0.00     0.060 A 
ATOM     31  C   UNL     1      -0.151   1.490   3.240  1.00  0.00     0.016 A 
ATOM     32  C   UNL     1      -2.260   1.313   4.433  1.00  0.00     0.016 A 
ATOM     33  C   UNL     1       0.405   2.183   4.311  1.00  0.00     0.010 A 
ATOM     34  C   UNL     1      -1.698   2.002   5.511  1.00  0.00     0.010 A 
ATOM     35  C   UNL     1      -0.355   2.414   5.465  1.00  0.00    -0.014 A 
BRANCH  35  36
ATOM     36  C   UNL     1       0.309   2.980   6.662  1.00  0.00     0.031 A 
ATOM     37  C   UNL     1       0.768   2.054   7.752  1.00  0.00     0.074 A 
ATOM     38  C   UNL     1       0.548   4.300   6.746  1.00  0.00     0.049 A 
ATOM     39  N   UNL     1       1.398   2.331   8.866  1.00  0.00    -0.248 NA
ATOM     40  C   UNL     1       0.482   0.624   7.561  1.00  0.00     0.031 C 
ATOM     41  C   UNL     1       0.178   5.290   5.737  1.00  0.00     0.029 A 
ATOM     42  N   UNL     1       1.170   5.031   7.726  1.00  0.00    -0.354 N 
ATOM     43  C   UNL     1       1.575   1.114   9.510  1.00  0.00     0.074 A 
ATOM     44  C   UNL     1       0.967   0.099   8.676  1.00  0.00     0.031 C 
ATOM     45  C   UNL     1       0.591   6.502   6.145  1.00  0.00     0.029 A 
ATOM     46  C   UNL     1       1.231   6.374   7.453  1.00  0.00     0.049 A 
ATOM     47  H   UNL     1       1.537   4.630   8.547  1.00  0.00     0.167 HD
ATOM     48  C   UNL     1       2.196   0.866  10.688  1.00  0.00     0.037 A 
ATOM     49  C   UNL     1       1.744   7.384   8.181  1.00  0.00     0.037 A 
ATOM     50  C   UNL     1       2.811   1.873  11.510  1.00  0.00     0.049 A 
ATOM     51  C   UNL     1       2.392   7.084   9.506  1.00  0.00     0.074 A 
ATOM     52  C   UNL     1       3.486   1.717  12.709  1.00  0.00     0.029 A 
ATOM     53  N   UNL     1       2.823   3.228  11.217  1.00  0.00    -0.354 N 
ATOM     54  N   UNL     1       2.580   5.928  10.095  1.00  0.00    -0.248 NA
ATOM     55  C   UNL     1       2.903   8.234  10.266  1.00  0.00     0.031 C 
ATOM     56  C   UNL     1       3.873   2.984  13.161  1.00  0.00     0.029 A 
ATOM     57  C   UNL     1       3.475   3.924  12.223  1.00  0.00     0.049 A 
ATOM     58  H   UNL     1       2.427   3.636  10.414  1.00  0.00     0.167 HD
ATOM     59  C   UNL     1       3.254   6.206  11.277  1.00  0.00     0.074 A 
ATOM     60  C   UNL     1       3.451   7.640  11.318  1.00  0.00     0.031 C 
ATOM     61  C   UNL     1       3.672   5.350  12.241  1.00  0.00     0.037 A 
BRANCH  48  62
ATOM     62  C   UNL     1       2.215  -0.554  11.168  1.00  0.00     0.064 A 
ATOM     63  C   UNL     1       3.039  -1.522  10.575  1.00  0.00     0.173 A 
ATOM     64  C   UNL     1       1.414  -0.946  12.251  1.00  0.00     0.173 A 
ATOM     65  F   UNL     1       3.812  -1.200   9.527  1.00  0.00    -0.203 F 
ATOM     66  C   UNL     1       3.042  -2.837  11.034  1.00  0.00     0.198 A 
ATOM     67  C   UNL     1       1.437  -2.255  12.723  1.00  0.00     0.198 A 
ATOM     68  F   UNL     1       0.610  -0.056  12.854  1.00  0.00    -0.203 F 
ATOM     69  F   UNL     1       3.805  -3.756  10.426  1.00  0.00    -0.200 F 
ATOM     70  C   UNL     1       2.245  -3.201  12.110  1.00  0.00     0.200 A 
ATOM     71  F   UNL     1       0.674  -2.603  13.768  1.00  0.00    -0.200 F 
ATOM     72  F   UNL     1       2.251  -4.466  12.553  1.00  0.00    -0.200 F 
ENDBRANCH  48  62
BRANCH  49  73
ATOM     73  C   UNL     1       1.678   8.775   7.667  1.00  0.00     0.064 A 
ATOM     74  C   UNL     1       2.837   9.444   7.249  1.00  0.00     0.173 A 
ATOM     75  C   UNL     1       0.461   9.468   7.596  1.00  0.00     0.173 A 
ATOM     76  F   UNL     1       4.027   8.830   7.323  1.00  0.00    -0.203 F 
ATOM     77  C   UNL     1       2.783  10.759   6.793  1.00  0.00     0.198 A 
ATOM     78  C   UNL     1       0.405  10.774   7.117  1.00  0.00     0.198 A 
ATOM     79  F   UNL     1      -0.674   8.873   7.989  1.00  0.00    -0.203 F 
ATOM     80  F   UNL     1       3.911  11.390   6.438  1.00  0.00    -0.200 F 
ATOM     81  C   UNL     1       1.566  11.421   6.722  1.00  0.00     0.200 A 
ATOM     82  F   UNL     1      -0.773  11.409   7.043  1.00  0.00    -0.200 F 
ATOM     83  F   UNL     1       1.515  12.686   6.282  1.00  0.00    -0.200 F 
ENDBRANCH  49  73
BRANCH  61  84
ATOM     84  C   UNL     1       4.417   5.939  13.403  1.00  0.00     0.064 A 
ATOM     85  C   UNL     1       3.762   6.678  14.398  1.00  0.00     0.173 A 
ATOM     86  C   UNL     1       5.799   5.733  13.536  1.00  0.00     0.173 A 
ATOM     87  F   UNL     1       2.445   6.914  14.306  1.00  0.00    -0.203 F 
ATOM     88  C   UNL     1       4.469   7.212  15.472  1.00  0.00     0.198 A 
ATOM     89  C   UNL     1       6.497   6.247  14.625  1.00  0.00     0.198 A 
ATOM     90  F   UNL     1       6.470   5.027  12.614  1.00  0.00    -0.203 F 
ATOM     91  F   UNL     1       3.831   7.954  16.388  1.00  0.00    -0.200 F 
ATOM     92  C   UNL     1       5.833   6.992  15.588  1.00  0.00     0.200 A 
ATOM     93  F   UNL     1       7.814   6.025  14.741  1.00  0.00    -0.200 F 
ATOM     94  F   UNL     1       6.511   7.505  16.624  1.00  0.00    -0.200 F 
ENDBRANCH  61  84
ENDBRANCH  35  36
ENDBRANCH  28  30
ENDBRANCH  27  28
ENDBRANCH  26  27
ENDBRANCH   1  26
TORSDOF 14
