REMARK SMILES Cc1ccc([C@@]23C[C@@H]4C[C@@H](C[C@@](C(=O)N5CCC(C(=O)OCCOC(=O)c6ccc(-c7c8nc(c(-c9c(F)c(F)c(F)c(F)c9F)c9ccc([nH]9)c(-c9c(F)c(F)c(F)c(F)c9F)c9nc(c(-c%10c(F)c(F)c(F)c(F)c%10F)c%10ccc7[nH]%10)C=C9)C=C8)cc6)CC5)(C4)C2)C3)cc1
REMARK SMILES IDX 22 1 21 2 19 3 20 4 18 5 13 6 14 7 15 8 16 9 91 10 17 11
REMARK SMILES IDX 90 12 12 13 6 14 7 15 93 16 94 17 8 18 10 19 9 20 92 21
REMARK SMILES IDX 11 22 5 23 1 24 2 25 3 26 96 27 4 28 95 29 23 30 24 31 25 32
REMARK SMILES IDX 26 33 27 34 28 35 89 36 29 37 88 38 30 39 31 40 32 41 82 42
REMARK SMILES IDX 33 43 87 44 81 45 83 46 34 47 86 48 80 49 79 50 35 52 67 53
REMARK SMILES IDX 47 54 66 55 48 56 51 57 65 58 84 59 49 60 50 61 64 63 85 64
REMARK SMILES IDX 52 65 36 66 37 67 45 68 38 69 39 70 43 71 46 72 40 73 41 74
REMARK SMILES IDX 44 75 42 76 68 77 69 78 77 79 70 80 71 81 75 82 78 83 72 84
REMARK SMILES IDX 73 85 76 86 74 87 53 88 54 89 62 90 55 91 56 92 60 93 63 94
REMARK SMILES IDX 57 95 58 96 61 97 59 98
REMARK H PARENT 83 51 51 62
REMARK Flexibility Score: inf
ROOT
ATOM      1  C   UNL     1      -9.031  -2.659  -5.992  1.00  0.00     0.274 C 
ENDROOT
BRANCH   1   2
ATOM      2  O   UNL     1      -7.823  -2.798  -5.246  1.00  0.00    -0.462 OA
BRANCH   2   3
ATOM      3  C   UNL     1      -8.012  -3.106  -3.933  1.00  0.00     0.309 C 
ATOM      4  O   UNL     1      -9.097  -3.064  -3.368  1.00  0.00    -0.252 OA
BRANCH   3   5
ATOM      5  C   UNL     1      -6.692  -3.485  -3.295  1.00  0.00     0.103 C 
ATOM      6  C   UNL     1      -5.712  -1.998  -0.009  1.00  0.00     0.228 C 
ATOM      7  O   UNL     1      -6.516  -2.453   0.809  1.00  0.00    -0.274 OA
ATOM      8  N   UNL     1      -5.191  -2.807  -1.026  1.00  0.00    -0.342 N 
ATOM      9  C   UNL     1      -5.645  -4.182  -1.077  1.00  0.00     0.120 C 
ATOM     10  C   UNL     1      -4.667  -2.364  -2.316  1.00  0.00     0.120 C 
ATOM     11  C   UNL     1      -6.891  -4.208  -1.945  1.00  0.00     0.037 C 
ATOM     12  C   UNL     1      -5.841  -2.220  -3.263  1.00  0.00     0.037 C 
BRANCH   6  13
ATOM     13  C   UNL     1      -5.222  -0.548   0.122  1.00  0.00     0.051 C 
ATOM     14  C   UNL     1      -3.027   0.759   0.315  1.00  0.00    -0.003 C 
ATOM     15  C   UNL     1      -3.523   1.590  -0.907  1.00  0.00     0.015 C 
ATOM     16  C   UNL     1      -3.698  -0.621   0.249  1.00  0.00     0.028 C 
ATOM     17  C   UNL     1      -3.551   1.434   1.609  1.00  0.00     0.015 C 
ATOM     18  C   UNL     1      -5.056   1.754  -0.899  1.00  0.00    -0.009 C 
ATOM     19  C   UNL     1      -5.096   1.523   1.593  1.00  0.00    -0.009 C 
ATOM     20  C   UNL     1      -5.525   2.398   0.406  1.00  0.00     0.007 C 
ATOM     21  C   UNL     1      -5.693   0.372  -1.021  1.00  0.00     0.020 C 
ATOM     22  C   UNL     1      -5.719   0.116   1.437  1.00  0.00     0.020 C 
BRANCH  14  23
ATOM     23  C   UNL     1      -1.496   0.600   0.294  1.00  0.00    -0.042 A 
ATOM     24  C   UNL     1       2.808   0.142  -0.033  1.00  0.00     0.044 C 
ATOM     25  C   UNL     1       1.327   0.319   0.096  1.00  0.00    -0.051 A 
ATOM     26  C   UNL     1       0.514  -0.806   0.196  1.00  0.00     0.004 A 
ATOM     27  C   UNL     1       0.731   1.583   0.113  1.00  0.00     0.004 A 
ATOM     28  C   UNL     1      -0.868  -0.664   0.305  1.00  0.00     0.004 A 
ATOM     29  C   UNL     1      -0.660   1.722   0.214  1.00  0.00     0.004 A 
ENDBRANCH  14  23
ENDBRANCH   6  13
ENDBRANCH   3   5
ENDBRANCH   2   3
ENDBRANCH   1   2
BRANCH   1  30
ATOM     30  C   UNL     1      -8.738  -2.557  -7.497  1.00  0.00     0.275 C 
BRANCH  30  31
ATOM     31  O   UNL     1      -7.854  -3.506  -8.165  1.00  0.00    -0.458 OA
BRANCH  31  32
ATOM     32  C   UNL     1      -6.827  -4.133  -7.538  1.00  0.00     0.338 C 
ATOM     33  O   UNL     1      -5.651  -3.849  -7.689  1.00  0.00    -0.246 OA
BRANCH  32  34
ATOM     34  C   UNL     1      -7.287  -5.268  -6.701  1.00  0.00     0.060 A 
ATOM     35  C   UNL     1      -6.434  -5.822  -5.734  1.00  0.00     0.016 A 
ATOM     36  C   UNL     1      -8.633  -5.619  -6.736  1.00  0.00     0.016 A 
ATOM     37  C   UNL     1      -6.976  -6.574  -4.686  1.00  0.00     0.010 A 
ATOM     38  C   UNL     1      -9.181  -6.255  -5.649  1.00  0.00     0.010 A 
ATOM     39  C   UNL     1      -8.363  -6.720  -4.611  1.00  0.00    -0.014 A 
BRANCH  39  40
ATOM     40  C   UNL     1      -9.052  -7.599  -3.677  1.00  0.00     0.031 A 
ATOM     41  C   UNL     1      -9.477  -7.245  -2.308  1.00  0.00     0.074 A 
ATOM     42  C   UNL     1      -9.413  -8.757  -4.261  1.00  0.00     0.049 A 
ATOM     43  N   UNL     1      -9.539  -8.093  -1.334  1.00  0.00    -0.248 NA
ATOM     44  C   UNL     1      -9.854  -5.896  -1.901  1.00  0.00     0.031 C 
ATOM     45  C   UNL     1     -10.355  -9.765  -3.826  1.00  0.00     0.029 A 
ATOM     46  N   UNL     1      -8.826  -9.293  -5.418  1.00  0.00    -0.354 N 
ATOM     47  C   UNL     1     -10.209  -7.473  -0.295  1.00  0.00     0.074 A 
ATOM     48  C   UNL     1     -10.230  -6.072  -0.628  1.00  0.00     0.031 C 
ATOM     49  C   UNL     1     -10.095 -10.899  -4.504  1.00  0.00     0.029 A 
ATOM     50  C   UNL     1      -8.865 -10.678  -5.260  1.00  0.00     0.049 A 
ATOM     51  H   UNL     1      -8.461  -8.793  -6.184  1.00  0.00     0.167 HD
ATOM     52  C   UNL     1     -10.891  -8.213   0.628  1.00  0.00     0.037 A 
ATOM     53  C   UNL     1      -7.692 -11.356  -5.088  1.00  0.00     0.037 A 
ATOM     54  C   UNL     1     -10.889  -9.611   0.237  1.00  0.00     0.049 A 
ATOM     55  C   UNL     1      -7.688 -12.092  -3.778  1.00  0.00     0.074 A 
ATOM     56  C   UNL     1     -11.793 -10.321  -0.535  1.00  0.00     0.029 A 
ATOM     57  N   UNL     1      -9.724 -10.360   0.293  1.00  0.00    -0.354 N 
ATOM     58  N   UNL     1      -8.227 -11.633  -2.683  1.00  0.00    -0.248 NA
ATOM     59  C   UNL     1      -7.148 -13.437  -3.637  1.00  0.00     0.031 C 
ATOM     60  C   UNL     1     -11.152 -11.493  -0.987  1.00  0.00     0.029 A 
ATOM     61  C   UNL     1      -9.868 -11.501  -0.471  1.00  0.00     0.049 A 
ATOM     62  H   UNL     1      -8.917 -10.116   0.800  1.00  0.00     0.167 HD
ATOM     63  C   UNL     1      -8.205 -12.627  -1.737  1.00  0.00     0.074 A 
ATOM     64  C   UNL     1      -7.492 -13.721  -2.370  1.00  0.00     0.031 C 
ATOM     65  C   UNL     1      -8.828 -12.505  -0.528  1.00  0.00     0.037 A 
BRANCH  52  66
ATOM     66  C   UNL     1     -11.865  -7.644   1.636  1.00  0.00     0.064 A 
ATOM     67  C   UNL     1     -13.055  -8.331   1.975  1.00  0.00     0.173 A 
ATOM     68  C   UNL     1     -11.674  -6.423   2.307  1.00  0.00     0.173 A 
ATOM     69  F   UNL     1     -13.332  -9.544   1.482  1.00  0.00    -0.203 F 
ATOM     70  C   UNL     1     -14.017  -7.795   2.832  1.00  0.00     0.198 A 
ATOM     71  C   UNL     1     -12.652  -5.873   3.148  1.00  0.00     0.198 A 
ATOM     72  F   UNL     1     -10.524  -5.745   2.180  1.00  0.00    -0.203 F 
ATOM     73  F   UNL     1     -15.135  -8.489   3.093  1.00  0.00    -0.200 F 
ATOM     74  C   UNL     1     -13.829  -6.554   3.400  1.00  0.00     0.200 A 
ATOM     75  F   UNL     1     -12.450  -4.674   3.715  1.00  0.00    -0.200 F 
ATOM     76  F   UNL     1     -14.768  -6.026   4.196  1.00  0.00    -0.200 F 
ENDBRANCH  52  66
BRANCH  53  77
ATOM     77  C   UNL     1      -6.499 -10.698  -5.711  1.00  0.00     0.064 A 
ATOM     78  C   UNL     1      -6.529 -10.404  -7.092  1.00  0.00     0.173 A 
ATOM     79  C   UNL     1      -5.488 -10.087  -4.957  1.00  0.00     0.173 A 
ATOM     80  F   UNL     1      -7.475 -10.952  -7.873  1.00  0.00    -0.203 F 
ATOM     81  C   UNL     1      -5.664  -9.472  -7.666  1.00  0.00     0.198 A 
ATOM     82  C   UNL     1      -4.609  -9.166  -5.541  1.00  0.00     0.198 A 
ATOM     83  F   UNL     1      -5.390 -10.310  -3.640  1.00  0.00    -0.203 F 
ATOM     84  F   UNL     1      -5.797  -9.142  -8.959  1.00  0.00    -0.200 F 
ATOM     85  C   UNL     1      -4.715  -8.840  -6.885  1.00  0.00     0.200 A 
ATOM     86  F   UNL     1      -3.702  -8.534  -4.781  1.00  0.00    -0.200 F 
ATOM     87  F   UNL     1      -3.929  -7.891  -7.415  1.00  0.00    -0.200 F 
ENDBRANCH  53  77
BRANCH  65  88
ATOM     88  C   UNL     1      -8.649 -13.400   0.671  1.00  0.00     0.064 A 
ATOM     89  C   UNL     1      -7.486 -14.145   0.912  1.00  0.00     0.173 A 
ATOM     90  C   UNL     1      -9.597 -13.391   1.727  1.00  0.00     0.173 A 
ATOM     91  F   UNL     1      -6.463 -14.143   0.047  1.00  0.00    -0.203 F 
ATOM     92  C   UNL     1      -7.308 -14.872   2.090  1.00  0.00     0.198 A 
ATOM     93  C   UNL     1      -9.386 -14.063   2.927  1.00  0.00     0.198 A 
ATOM     94  F   UNL     1     -10.745 -12.701   1.646  1.00  0.00    -0.203 F 
ATOM     95  F   UNL     1      -6.196 -15.602   2.253  1.00  0.00    -0.200 F 
ATOM     96  C   UNL     1      -8.248 -14.818   3.103  1.00  0.00     0.200 A 
ATOM     97  F   UNL     1     -10.282 -13.952   3.918  1.00  0.00    -0.200 F 
ATOM     98  F   UNL     1      -8.043 -15.471   4.254  1.00  0.00    -0.200 F 
ENDBRANCH  65  88
ENDBRANCH  39  40
ENDBRANCH  32  34
ENDBRANCH  31  32
ENDBRANCH  30  31
ENDBRANCH   1  30
TORSDOF 13
