REMARK SMILES [NH3+][C@@]1(C(=O)OCCOC(=O)c2ccc(-c3c4nc(c(-c5c(F)c(F)c(F)c(F)c5F)c5ccc([nH]5)c(-c5c(F)c(F)c(F)c(F)c5F)c5nc(c(-c6c(F)c(F)c(F)c(F)c6F)c6ccc3[nH]6)C=C5)C=C4)cc2)CCC[C@H]1CCOc1ccccc1
REMARK SMILES IDX 6 1 5 2 3 3 4 4 2 5 74 6 77 7 75 8 76 9 1 10 78 14 79 15
REMARK SMILES IDX 80 16 81 17 82 18 86 19 83 20 85 21 84 22 7 23 8 24 9 25
REMARK SMILES IDX 10 26 11 27 12 28 73 29 13 30 72 31 14 32 15 33 16 34 66 35
REMARK SMILES IDX 17 36 71 37 65 38 67 39 18 40 70 41 64 42 63 43 19 45 51 46
REMARK SMILES IDX 31 47 50 48 32 49 35 50 49 51 68 52 33 53 34 54 48 56 69 57
REMARK SMILES IDX 36 58 20 59 21 60 29 61 22 62 23 63 27 64 30 65 24 66 25 67
REMARK SMILES IDX 28 68 26 69 52 70 53 71 61 72 54 73 55 74 59 75 62 76 56 77
REMARK SMILES IDX 57 78 60 79 58 80 37 81 38 82 46 83 39 84 40 85 44 86 47 87
REMARK SMILES IDX 41 88 42 89 45 90 43 91
REMARK H PARENT 1 11 1 12 1 13 67 44 35 55
REMARK Flexibility Score: inf
ROOT
ATOM      1  C   UNL     1      -2.089   0.669   3.186  1.00  0.00     0.274 C 
ENDROOT
BRANCH   1   2
ATOM      2  O   UNL     1      -1.044   1.315   2.423  1.00  0.00    -0.457 OA
BRANCH   2   3
ATOM      3  C   UNL     1       0.084   0.583   2.196  1.00  0.00     0.368 C 
ATOM      4  O   UNL     1       0.244  -0.551   2.643  1.00  0.00    -0.245 OA
BRANCH   3   5
ATOM      5  C   UNL     1       1.188   1.361   1.377  1.00  0.00     0.195 C 
ATOM      6  C   UNL     1       2.054   2.091   2.425  1.00  0.00     0.081 C 
ATOM      7  C   UNL     1       0.647   2.495   0.435  1.00  0.00     0.066 C 
ATOM      8  C   UNL     1       1.399   3.453   2.559  1.00  0.00     0.008 C 
ATOM      9  C   UNL     1       1.085   3.810   1.119  1.00  0.00     0.011 C 
BRANCH   5  10
ATOM     10  N   UNL     1       2.054   0.374   0.689  1.00  0.00    -0.343 N 
ATOM     11  H   UNL     1       2.367  -0.328   1.359  1.00  0.00     0.345 HD
ATOM     12  H   UNL     1       2.864   0.851   0.292  1.00  0.00     0.345 HD
ATOM     13  H   UNL     1       1.526  -0.079  -0.057  1.00  0.00     0.345 HD
ENDBRANCH   5  10
BRANCH   7  14
ATOM     14  C   UNL     1       1.127   2.524  -1.043  1.00  0.00     0.052 C 
BRANCH  14  15
ATOM     15  C   UNL     1       0.341   1.619  -2.002  1.00  0.00     0.230 C 
BRANCH  15  16
ATOM     16  O   UNL     1      -0.504   2.390  -2.876  1.00  0.00    -0.494 OA
BRANCH  16  17
ATOM     17  C   UNL     1      -1.768   2.531  -2.373  1.00  0.00     0.119 A 
ATOM     18  C   UNL     1      -2.760   1.613  -2.718  1.00  0.00     0.046 A 
ATOM     19  C   UNL     1      -2.068   3.622  -1.560  1.00  0.00     0.046 A 
ATOM     20  C   UNL     1      -4.040   1.745  -2.175  1.00  0.00     0.004 A 
ATOM     21  C   UNL     1      -3.343   3.748  -1.010  1.00  0.00     0.004 A 
ATOM     22  C   UNL     1      -4.326   2.803  -1.308  1.00  0.00     0.000 A 
ENDBRANCH  16  17
ENDBRANCH  15  16
ENDBRANCH  14  15
ENDBRANCH   7  14
ENDBRANCH   3   5
ENDBRANCH   2   3
ENDBRANCH   1   2
BRANCH   1  23
ATOM     23  C   UNL     1      -3.231   0.128   2.311  1.00  0.00     0.275 C 
BRANCH  23  24
ATOM     24  O   UNL     1      -2.841  -1.010   1.515  1.00  0.00    -0.458 OA
BRANCH  24  25
ATOM     25  C   UNL     1      -2.267  -0.659   0.345  1.00  0.00     0.338 C 
ATOM     26  O   UNL     1      -2.063   0.475  -0.044  1.00  0.00    -0.246 OA
BRANCH  25  27
ATOM     27  C   UNL     1      -1.722  -1.806  -0.383  1.00  0.00     0.060 A 
ATOM     28  C   UNL     1      -0.347  -2.005  -0.290  1.00  0.00     0.016 A 
ATOM     29  C   UNL     1      -2.487  -2.561  -1.270  1.00  0.00     0.016 A 
ATOM     30  C   UNL     1       0.286  -2.939  -1.091  1.00  0.00     0.010 A 
ATOM     31  C   UNL     1      -1.863  -3.566  -2.022  1.00  0.00     0.010 A 
ATOM     32  C   UNL     1      -0.475  -3.768  -1.924  1.00  0.00    -0.014 A 
BRANCH  32  33
ATOM     33  C   UNL     1       0.197  -4.933  -2.545  1.00  0.00     0.031 A 
ATOM     34  C   UNL     1       0.425  -5.019  -4.021  1.00  0.00     0.074 A 
ATOM     35  C   UNL     1       0.650  -5.899  -1.723  1.00  0.00     0.049 A 
ATOM     36  N   UNL     1       0.944  -6.002  -4.712  1.00  0.00    -0.248 NA
ATOM     37  C   UNL     1       0.025  -3.858  -4.828  1.00  0.00     0.031 C 
ATOM     38  C   UNL     1       0.516  -5.888  -0.262  1.00  0.00     0.029 A 
ATOM     39  N   UNL     1       1.331  -7.059  -1.983  1.00  0.00    -0.354 N 
ATOM     40  C   UNL     1       0.914  -5.592  -6.037  1.00  0.00     0.074 A 
ATOM     41  C   UNL     1       0.326  -4.268  -6.055  1.00  0.00     0.031 C 
ATOM     42  C   UNL     1       1.129  -6.965   0.245  1.00  0.00     0.029 A 
ATOM     43  C   UNL     1       1.627  -7.782  -0.854  1.00  0.00     0.049 A 
ATOM     44  H   UNL     1       1.584  -7.346  -2.890  1.00  0.00     0.167 HD
ATOM     45  C   UNL     1       1.336  -6.271  -7.130  1.00  0.00     0.037 A 
ATOM     46  C   UNL     1       2.199  -8.991  -0.716  1.00  0.00     0.037 A 
ATOM     47  C   UNL     1       1.933  -7.583  -7.092  1.00  0.00     0.049 A 
ATOM     48  C   UNL     1       2.609  -9.737  -1.948  1.00  0.00     0.074 A 
ATOM     49  C   UNL     1       2.392  -8.356  -8.145  1.00  0.00     0.029 A 
ATOM     50  N   UNL     1       2.156  -8.315  -5.934  1.00  0.00    -0.354 N 
ATOM     51  N   UNL     1       2.531  -9.360  -3.200  1.00  0.00    -0.248 NA
ATOM     52  C   UNL     1       3.161 -11.082  -1.752  1.00  0.00     0.031 C 
ATOM     53  C   UNL     1       2.863  -9.568  -7.628  1.00  0.00     0.029 A 
ATOM     54  C   UNL     1       2.727  -9.539  -6.249  1.00  0.00     0.049 A 
ATOM     55  H   UNL     1       1.940  -8.011  -5.023  1.00  0.00     0.167 HD
ATOM     56  C   UNL     1       3.004 -10.427  -3.946  1.00  0.00     0.074 A 
ATOM     57  C   UNL     1       3.404 -11.452  -3.002  1.00  0.00     0.031 C 
ATOM     58  C   UNL     1       3.086 -10.552  -5.292  1.00  0.00     0.037 A 
BRANCH  45  59
ATOM     59  C   UNL     1       1.143  -5.628  -8.470  1.00  0.00     0.064 A 
ATOM     60  C   UNL     1       1.985  -4.604  -8.923  1.00  0.00     0.173 A 
ATOM     61  C   UNL     1       0.141  -6.090  -9.337  1.00  0.00     0.173 A 
ATOM     62  F   UNL     1       2.950  -4.121  -8.127  1.00  0.00    -0.203 F 
ATOM     63  C   UNL     1       1.828  -4.060 -10.196  1.00  0.00     0.198 A 
ATOM     64  C   UNL     1      -0.003  -5.556 -10.615  1.00  0.00     0.198 A 
ATOM     65  F   UNL     1      -0.688  -7.071  -8.950  1.00  0.00    -0.203 F 
ATOM     66  F   UNL     1       2.631  -3.068 -10.604  1.00  0.00    -0.200 F 
ATOM     67  C   UNL     1       0.840  -4.541 -11.043  1.00  0.00     0.200 A 
ATOM     68  F   UNL     1      -0.952  -6.028 -11.434  1.00  0.00    -0.200 F 
ATOM     69  F   UNL     1       0.697  -4.025 -12.272  1.00  0.00    -0.200 F 
ENDBRANCH  45  59
BRANCH  46  70
ATOM     70  C   UNL     1       2.351  -9.576   0.639  1.00  0.00     0.064 A 
ATOM     71  C   UNL     1       3.612  -9.709   1.233  1.00  0.00     0.173 A 
ATOM     72  C   UNL     1       1.229  -9.973   1.383  1.00  0.00     0.173 A 
ATOM     73  F   UNL     1       4.713  -9.364   0.550  1.00  0.00    -0.203 F 
ATOM     74  C   UNL     1       3.745 -10.218   2.523  1.00  0.00     0.198 A 
ATOM     75  C   UNL     1       1.362 -10.454   2.683  1.00  0.00     0.198 A 
ATOM     76  F   UNL     1       0.001  -9.863   0.857  1.00  0.00    -0.203 F 
ATOM     77  F   UNL     1       4.963 -10.361   3.062  1.00  0.00    -0.200 F 
ATOM     78  C   UNL     1       2.620 -10.580   3.250  1.00  0.00     0.200 A 
ATOM     79  F   UNL     1       0.271 -10.788   3.385  1.00  0.00    -0.200 F 
ATOM     80  F   UNL     1       2.749 -11.053   4.497  1.00  0.00    -0.200 F 
ENDBRANCH  46  70
BRANCH  58  81
ATOM     81  C   UNL     1       3.604 -11.858  -5.809  1.00  0.00     0.064 A 
ATOM     82  C   UNL     1       2.794 -13.003  -5.816  1.00  0.00     0.173 A 
ATOM     83  C   UNL     1       4.911 -11.966  -6.303  1.00  0.00     0.173 A 
ATOM     84  F   UNL     1       1.544 -12.948  -5.332  1.00  0.00    -0.203 F 
ATOM     85  C   UNL     1       3.284 -14.219  -6.282  1.00  0.00     0.198 A 
ATOM     86  C   UNL     1       5.390 -13.180  -6.786  1.00  0.00     0.198 A 
ATOM     87  F   UNL     1       5.721 -10.897  -6.314  1.00  0.00    -0.203 F 
ATOM     88  F   UNL     1       2.508 -15.311  -6.241  1.00  0.00    -0.200 F 
ATOM     89  C   UNL     1       4.579 -14.305  -6.770  1.00  0.00     0.200 A 
ATOM     90  F   UNL     1       6.641 -13.263  -7.260  1.00  0.00    -0.200 F 
ATOM     91  F   UNL     1       5.051 -15.478  -7.215  1.00  0.00    -0.200 F 
ENDBRANCH  58  81
ENDBRANCH  32  33
ENDBRANCH  25  27
ENDBRANCH  24  25
ENDBRANCH  23  24
ENDBRANCH   1  23
TORSDOF 16
