REMARK SMILES COc1ccccc1NC(=O)[C@H](C)c1nc(CC(=O)OCCOC(=O)c2ccc(-c3c4nc(c(-c5c(F)c(F)c(F)c(F)c5F)c5ccc([nH]5)c(-c5c(F)c(F)c(F)c(F)c5F)c5nc(c(-c6c(F)c(F)c(F)c(F)c6F)c6ccc3[nH]6)C=C5)C=C4)cc2)cs1
REMARK SMILES IDX 20 1 18 2 19 3 17 4 16 5 14 6 15 7 90 8 89 9 12 10 13 11
REMARK SMILES IDX 10 12 9 13 11 15 8 16 3 17 4 18 5 19 7 20 6 21 2 22 1 23
REMARK SMILES IDX 21 24 22 25 23 26 24 27 25 28 26 29 27 30 88 31 28 32 87 33
REMARK SMILES IDX 29 34 30 35 31 36 81 37 32 38 86 39 80 40 82 41 33 42 85 43
REMARK SMILES IDX 79 44 78 45 34 47 66 48 46 49 65 50 47 51 50 52 64 53 83 54
REMARK SMILES IDX 48 55 49 56 63 58 84 59 51 60 35 61 36 62 44 63 37 64 38 65
REMARK SMILES IDX 42 66 45 67 39 68 40 69 43 70 41 71 67 72 68 73 76 74 69 75
REMARK SMILES IDX 70 76 74 77 77 78 71 79 72 80 75 81 73 82 52 83 53 84 61 85
REMARK SMILES IDX 54 86 55 87 59 88 62 89 56 90 57 91 60 92 58 93
REMARK H PARENT 9 14 82 46 50 57
REMARK Flexibility Score: inf
ROOT
ATOM      1  O   UNL     1       1.138   7.804   1.113  1.00  0.00    -0.462 OA
ENDROOT
BRANCH   1   2
ATOM      2  C   UNL     1       2.185   8.319   1.804  1.00  0.00     0.312 C 
ATOM      3  O   UNL     1       2.144   9.352   2.466  1.00  0.00    -0.252 OA
BRANCH   2   4
ATOM      4  C   UNL     1       3.459   7.556   1.612  1.00  0.00     0.179 C 
BRANCH   4   5
ATOM      5  C   UNL     1       3.361   6.069   1.644  1.00  0.00     0.063 A 
ATOM      6  C   UNL     1       3.982   4.127   0.763  1.00  0.00     0.105 A 
ATOM      7  N   UNL     1       3.702   5.384   0.492  1.00  0.00    -0.245 NA
ATOM      8  S   UNL     1       3.535   3.633   2.356  1.00  0.00    -0.126 S 
ATOM      9  C   UNL     1       3.143   5.255   2.737  1.00  0.00     0.091 A 
BRANCH   6  10
ATOM     10  C   UNL     1       4.794   3.210  -0.118  1.00  0.00     0.135 C 
ATOM     11  C   UNL     1       4.051   1.893  -0.386  1.00  0.00     0.026 C 
BRANCH  10  12
ATOM     12  C   UNL     1       5.163   3.891  -1.440  1.00  0.00     0.234 C 
ATOM     13  N   UNL     1       5.880   5.048  -1.541  1.00  0.00    -0.322 N 
ATOM     14  H   UNL     1       6.064   5.295  -2.476  1.00  0.00     0.170 HD
ATOM     15  O   UNL     1       4.828   3.380  -2.520  1.00  0.00    -0.274 OA
BRANCH  13  16
ATOM     16  C   UNL     1       6.420   5.972  -0.626  1.00  0.00     0.083 A 
ATOM     17  C   UNL     1       6.589   7.291  -1.091  1.00  0.00     0.142 A 
ATOM     18  C   UNL     1       7.061   8.306  -0.256  1.00  0.00     0.048 A 
ATOM     19  C   UNL     1       7.359   8.018   1.072  1.00  0.00     0.004 A 
ATOM     20  C   UNL     1       6.776   5.691   0.692  1.00  0.00     0.030 A 
ATOM     21  C   UNL     1       7.226   6.712   1.542  1.00  0.00     0.002 A 
BRANCH  17  22
ATOM     22  O   UNL     1       6.314   7.615  -2.399  1.00  0.00    -0.495 OA
ATOM     23  C   UNL     1       4.938   7.972  -2.562  1.00  0.00     0.278 C 
ENDBRANCH  17  22
ENDBRANCH  13  16
ENDBRANCH  10  12
ENDBRANCH   6  10
ENDBRANCH   4   5
ENDBRANCH   2   4
ENDBRANCH   1   2
BRANCH   1  24
ATOM     24  C   UNL     1      -0.085   8.557   1.180  1.00  0.00     0.274 C 
BRANCH  24  25
ATOM     25  C   UNL     1      -1.009   8.041   2.283  1.00  0.00     0.275 C 
BRANCH  25  26
ATOM     26  O   UNL     1      -0.454   8.275   3.592  1.00  0.00    -0.458 OA
BRANCH  26  27
ATOM     27  C   UNL     1       0.144   7.205   4.161  1.00  0.00     0.338 C 
ATOM     28  O   UNL     1       0.237   6.076   3.717  1.00  0.00    -0.246 OA
BRANCH  27  29
ATOM     29  C   UNL     1       0.767   7.594   5.433  1.00  0.00     0.060 A 
ATOM     30  C   UNL     1       2.151   7.783   5.480  1.00  0.00     0.016 A 
ATOM     31  C   UNL     1       0.004   7.625   6.600  1.00  0.00     0.016 A 
ATOM     32  C   UNL     1       2.787   7.971   6.705  1.00  0.00     0.010 A 
ATOM     33  C   UNL     1       0.640   7.843   7.825  1.00  0.00     0.010 A 
ATOM     34  C   UNL     1       2.037   7.995   7.888  1.00  0.00    -0.014 A 
BRANCH  34  35
ATOM     35  C   UNL     1       2.713   8.147   9.197  1.00  0.00     0.031 A 
ATOM     36  C   UNL     1       2.800   6.982  10.139  1.00  0.00     0.074 A 
ATOM     37  C   UNL     1       3.238   9.336   9.544  1.00  0.00     0.049 A 
ATOM     38  N   UNL     1       3.239   6.943  11.372  1.00  0.00    -0.248 NA
ATOM     39  C   UNL     1       2.325   5.687   9.628  1.00  0.00     0.031 C 
ATOM     40  C   UNL     1       3.242  10.533   8.704  1.00  0.00     0.029 A 
ATOM     41  N   UNL     1       3.855   9.735  10.703  1.00  0.00    -0.354 N 
ATOM     42  C   UNL     1       3.067   5.632  11.794  1.00  0.00     0.074 A 
ATOM     43  C   UNL     1       2.477   4.906  10.688  1.00  0.00     0.031 C 
ATOM     44  C   UNL     1       3.824  11.537   9.379  1.00  0.00     0.029 A 
ATOM     45  C   UNL     1       4.192  11.065  10.711  1.00  0.00     0.049 A 
ATOM     46  H   UNL     1       4.038   9.126  11.455  1.00  0.00     0.167 HD
ATOM     47  C   UNL     1       3.374   5.087  12.995  1.00  0.00     0.037 A 
ATOM     48  C   UNL     1       4.709  11.825  11.694  1.00  0.00     0.037 A 
ATOM     49  C   UNL     1       3.981   5.805  14.085  1.00  0.00     0.049 A 
ATOM     50  C   UNL     1       5.013  11.203  13.028  1.00  0.00     0.074 A 
ATOM     51  C   UNL     1       4.356   5.331  15.330  1.00  0.00     0.029 A 
ATOM     52  N   UNL     1       4.304   7.153  14.057  1.00  0.00    -0.354 N 
ATOM     53  N   UNL     1       4.845   9.964  13.419  1.00  0.00    -0.248 NA
ATOM     54  C   UNL     1       5.574  12.088  14.059  1.00  0.00     0.031 C 
ATOM     55  C   UNL     1       4.876   6.401  16.068  1.00  0.00     0.029 A 
ATOM     56  C   UNL     1       4.858   7.533  15.269  1.00  0.00     0.049 A 
ATOM     57  H   UNL     1       4.161   7.753  13.289  1.00  0.00     0.167 HD
ATOM     58  C   UNL     1       5.287   9.916  14.733  1.00  0.00     0.074 A 
ATOM     59  C   UNL     1       5.748  11.248  15.069  1.00  0.00     0.031 C 
ATOM     60  C   UNL     1       5.308   8.863  15.586  1.00  0.00     0.037 A 
BRANCH  47  61
ATOM     61  C   UNL     1       3.034   3.642  13.204  1.00  0.00     0.064 A 
ATOM     62  C   UNL     1       3.786   2.615  12.616  1.00  0.00     0.173 A 
ATOM     63  C   UNL     1       1.959   3.281  14.030  1.00  0.00     0.173 A 
ATOM     64  F   UNL     1       4.814   2.911  11.806  1.00  0.00    -0.203 F 
ATOM     65  C   UNL     1       3.462   1.278  12.832  1.00  0.00     0.198 A 
ATOM     66  C   UNL     1       1.651   1.944  14.261  1.00  0.00     0.198 A 
ATOM     67  F   UNL     1       1.211   4.228  14.617  1.00  0.00    -0.203 F 
ATOM     68  F   UNL     1       4.171   0.313  12.231  1.00  0.00    -0.200 F 
ATOM     69  C   UNL     1       2.399   0.944  13.658  1.00  0.00     0.200 A 
ATOM     70  F   UNL     1       0.628   1.622  15.066  1.00  0.00    -0.200 F 
ATOM     71  F   UNL     1       2.091  -0.344  13.868  1.00  0.00    -0.200 F 
ENDBRANCH  47  61
BRANCH  48  72
ATOM     72  C   UNL     1       4.945  13.270  11.453  1.00  0.00     0.064 A 
ATOM     73  C   UNL     1       6.245  13.774  11.316  1.00  0.00     0.173 A 
ATOM     74  C   UNL     1       3.876  14.170  11.343  1.00  0.00     0.173 A 
ATOM     75  F   UNL     1       7.298  12.953  11.437  1.00  0.00    -0.203 F 
ATOM     76  C   UNL     1       6.466  15.130  11.083  1.00  0.00     0.198 A 
ATOM     77  C   UNL     1       4.098  15.521  11.088  1.00  0.00     0.198 A 
ATOM     78  F   UNL     1       2.614  13.733  11.469  1.00  0.00    -0.203 F 
ATOM     79  F   UNL     1       7.720  15.594  10.986  1.00  0.00    -0.200 F 
ATOM     80  C   UNL     1       5.393  16.000  10.963  1.00  0.00     0.200 A 
ATOM     81  F   UNL     1       3.058  16.357  10.962  1.00  0.00    -0.200 F 
ATOM     82  F   UNL     1       5.608  17.303  10.732  1.00  0.00    -0.200 F 
ENDBRANCH  48  72
BRANCH  60  83
ATOM     83  C   UNL     1       5.863   9.106  16.957  1.00  0.00     0.064 A 
ATOM     84  C   UNL     1       5.126   9.794  17.932  1.00  0.00     0.173 A 
ATOM     85  C   UNL     1       7.131   8.620  17.308  1.00  0.00     0.173 A 
ATOM     86  F   UNL     1       3.916  10.292  17.636  1.00  0.00    -0.203 F 
ATOM     87  C   UNL     1       5.647  10.002  19.206  1.00  0.00     0.198 A 
ATOM     88  C   UNL     1       7.640   8.811  18.590  1.00  0.00     0.198 A 
ATOM     89  F   UNL     1       7.872   7.954  16.410  1.00  0.00    -0.203 F 
ATOM     90  F   UNL     1       4.943  10.695  20.111  1.00  0.00    -0.200 F 
ATOM     91  C   UNL     1       6.901   9.507  19.535  1.00  0.00     0.200 A 
ATOM     92  F   UNL     1       8.848   8.326  18.909  1.00  0.00    -0.200 F 
ATOM     93  F   UNL     1       7.400   9.706  20.762  1.00  0.00    -0.200 F 
ENDBRANCH  60  83
ENDBRANCH  34  35
ENDBRANCH  27  29
ENDBRANCH  26  27
ENDBRANCH  25  26
ENDBRANCH  24  25
ENDBRANCH   1  24
TORSDOF 16
