REMARK SMILES CCN1C(=O)[C@H](CC(=O)Nc2ccc(C(=O)OCCOC(=O)c3ccc(-c4c5nc(c(-c6c(F)c(F)c(F)c(F)c6F)c6ccc([nH]6)c(-c6c(F)c(F)c(F)c(F)c6F)c6nc(c(-c7c(F)c(F)c(F)c(F)c7F)c7ccc4[nH]7)C=C6)C=C5)cc3)cc2)S/C1=[NH+]\c1ccc(Cl)cc1
REMARK SMILES IDX 18 1 17 2 15 3 16 4 14 5 11 6 12 7 87 8 13 9 86 10 10 11
REMARK SMILES IDX 8 12 9 13 7 15 6 16 3 17 4 18 89 19 5 20 88 21 90 22 2 24
REMARK SMILES IDX 1 25 91 26 92 27 97 28 93 29 96 30 94 31 95 32 19 33 20 34
REMARK SMILES IDX 21 35 22 36 23 37 24 38 85 39 25 40 84 41 26 42 27 43 28 44
REMARK SMILES IDX 78 45 29 46 83 47 77 48 79 49 30 50 82 51 76 52 75 53 31 55
REMARK SMILES IDX 63 56 43 57 62 58 44 59 47 60 61 61 80 62 45 63 46 64 60 66
REMARK SMILES IDX 81 67 48 68 32 69 33 70 41 71 34 72 35 73 39 74 42 75 36 76
REMARK SMILES IDX 37 77 40 78 38 79 64 80 65 81 73 82 66 83 67 84 71 85 74 86
REMARK SMILES IDX 68 87 69 88 72 89 70 90 49 91 50 92 58 93 51 94 52 95 56 96
REMARK SMILES IDX 59 97 53 98 54 99 57 100 55 101
REMARK H PARENT 10 14 90 23 79 54 47 65
REMARK Flexibility Score: inf
ROOT
ATOM      1  C   UNL     1      -2.294   0.724  -0.950  1.00  0.00     0.275 C 
ENDROOT
BRANCH   1   2
ATOM      2  O   UNL     1      -1.845  -0.414  -0.191  1.00  0.00    -0.458 OA
BRANCH   2   3
ATOM      3  C   UNL     1      -2.742  -0.945   0.670  1.00  0.00     0.338 C 
ATOM      4  O   UNL     1      -3.909  -0.626   0.842  1.00  0.00    -0.246 OA
BRANCH   3   5
ATOM      5  C   UNL     1      -2.053  -1.956   1.477  1.00  0.00     0.060 A 
ATOM      6  C   UNL     1      -0.583  -3.740   3.064  1.00  0.00     0.041 A 
ATOM      7  C   UNL     1      -1.482  -4.220   2.104  1.00  0.00     0.027 A 
ATOM      8  C   UNL     1      -0.526  -2.365   3.277  1.00  0.00     0.027 A 
ATOM      9  C   UNL     1      -2.222  -3.332   1.315  1.00  0.00     0.018 A 
ATOM     10  C   UNL     1      -1.225  -1.472   2.474  1.00  0.00     0.018 A 
BRANCH   6  11
ATOM     11  N   UNL     1       0.241  -4.689   3.693  1.00  0.00    -0.326 N 
ATOM     12  C   UNL     1       1.310  -4.612   4.535  1.00  0.00     0.226 C 
ATOM     13  O   UNL     1       1.884  -5.665   4.832  1.00  0.00    -0.275 OA
ATOM     14  H   UNL     1      -0.009  -5.616   3.477  1.00  0.00     0.169 HD
BRANCH  12  15
ATOM     15  C   UNL     1       1.801  -3.314   5.134  1.00  0.00     0.128 C 
BRANCH  15  16
ATOM     16  C   UNL     1       2.794  -2.525   4.277  1.00  0.00     0.183 C 
ATOM     17  N   UNL     1       2.370  -1.384   2.181  1.00  0.00    -0.190 N 
ATOM     18  C   UNL     1       2.636  -2.612   2.771  1.00  0.00     0.324 C 
ATOM     19  C   UNL     1       2.360  -0.289   3.007  1.00  0.00     0.319 C 
ATOM     20  O   UNL     1       2.751  -3.665   2.151  1.00  0.00    -0.245 OA
ATOM     21  S   UNL     1       2.730  -0.743   4.654  1.00  0.00    -0.022 SA
ATOM     22  N   UNL     1       2.096   0.897   2.575  1.00  0.00    -0.235 N 
ATOM     23  H   UNL     1       1.789   0.988   1.644  1.00  0.00     0.313 HD
BRANCH  17  24
ATOM     24  C   UNL     1       2.128  -1.383   0.732  1.00  0.00     0.243 C 
ATOM     25  C   UNL     1       2.051  -0.061  -0.015  1.00  0.00     0.054 C 
ENDBRANCH  17  24
BRANCH  22  26
ATOM     26  C   UNL     1       2.215   2.063   3.338  1.00  0.00     0.125 A 
ATOM     27  C   UNL     1       1.123   2.931   3.448  1.00  0.00     0.053 A 
ATOM     28  C   UNL     1       3.461   2.485   3.818  1.00  0.00     0.053 A 
ATOM     29  C   UNL     1       1.268   4.189   4.046  1.00  0.00     0.025 A 
ATOM     30  C   UNL     1       3.610   3.734   4.425  1.00  0.00     0.025 A 
ATOM     31  C   UNL     1       2.513   4.584   4.531  1.00  0.00     0.041 A 
ATOM     32  Cl  UNL     1       2.707   6.143   5.232  1.00  0.00    -0.084 Cl
ENDBRANCH  22  26
ENDBRANCH  15  16
ENDBRANCH  12  15
ENDBRANCH   6  11
ENDBRANCH   3   5
ENDBRANCH   2   3
ENDBRANCH   1   2
BRANCH   1  33
ATOM     33  C   UNL     1      -2.554   0.342  -2.404  1.00  0.00     0.275 C 
BRANCH  33  34
ATOM     34  O   UNL     1      -3.605  -0.639  -2.461  1.00  0.00    -0.458 OA
BRANCH  34  35
ATOM     35  C   UNL     1      -3.241  -1.859  -2.914  1.00  0.00     0.338 C 
ATOM     36  O   UNL     1      -2.168  -2.193  -3.387  1.00  0.00    -0.246 OA
BRANCH  35  37
ATOM     37  C   UNL     1      -4.313  -2.831  -2.644  1.00  0.00     0.060 A 
ATOM     38  C   UNL     1      -4.623  -3.102  -1.319  1.00  0.00     0.016 A 
ATOM     39  C   UNL     1      -4.849  -3.625  -3.651  1.00  0.00     0.016 A 
ATOM     40  C   UNL     1      -5.326  -4.247  -0.976  1.00  0.00     0.010 A 
ATOM     41  C   UNL     1      -5.695  -4.691  -3.309  1.00  0.00     0.010 A 
ATOM     42  C   UNL     1      -5.903  -5.050  -1.962  1.00  0.00    -0.014 A 
BRANCH  42  43
ATOM     43  C   UNL     1      -6.651  -6.282  -1.572  1.00  0.00     0.031 A 
ATOM     44  C   UNL     1      -6.290  -7.606  -2.197  1.00  0.00     0.074 A 
ATOM     45  C   UNL     1      -7.606  -6.248  -0.617  1.00  0.00     0.049 A 
ATOM     46  N   UNL     1      -6.962  -8.729  -2.204  1.00  0.00    -0.248 NA
ATOM     47  C   UNL     1      -5.011  -7.672  -2.921  1.00  0.00     0.031 C 
ATOM     48  C   UNL     1      -8.006  -5.066   0.152  1.00  0.00     0.029 A 
ATOM     49  N   UNL     1      -8.405  -7.246  -0.109  1.00  0.00    -0.354 N 
ATOM     50  C   UNL     1      -6.231  -9.603  -3.001  1.00  0.00     0.074 A 
ATOM     51  C   UNL     1      -5.056  -8.888  -3.447  1.00  0.00     0.031 C 
ATOM     52  C   UNL     1      -8.909  -5.419   1.077  1.00  0.00     0.029 A 
ATOM     53  C   UNL     1      -9.268  -6.814   0.871  1.00  0.00     0.049 A 
ATOM     54  H   UNL     1      -8.362  -8.180  -0.417  1.00  0.00     0.167 HD
ATOM     55  C   UNL     1      -6.527 -10.882  -3.333  1.00  0.00     0.037 A 
ATOM     56  C   UNL     1     -10.288  -7.443   1.486  1.00  0.00     0.037 A 
ATOM     57  C   UNL     1      -7.660 -11.606  -2.817  1.00  0.00     0.049 A 
ATOM     58  C   UNL     1     -10.628  -8.844   1.063  1.00  0.00     0.074 A 
ATOM     59  C   UNL     1      -8.074 -12.893  -3.112  1.00  0.00     0.029 A 
ATOM     60  N   UNL     1      -8.540 -11.110  -1.866  1.00  0.00    -0.354 N 
ATOM     61  N   UNL     1     -10.018  -9.617   0.199  1.00  0.00    -0.248 NA
ATOM     62  C   UNL     1     -11.823  -9.444   1.671  1.00  0.00     0.031 C 
ATOM     63  C   UNL     1      -9.219 -13.168  -2.356  1.00  0.00     0.029 A 
ATOM     64  C   UNL     1      -9.494 -12.067  -1.561  1.00  0.00     0.049 A 
ATOM     65  H   UNL     1      -8.494 -10.211  -1.467  1.00  0.00     0.167 HD
ATOM     66  C   UNL     1     -10.747 -10.797   0.164  1.00  0.00     0.074 A 
ATOM     67  C   UNL     1     -11.829 -10.647   1.115  1.00  0.00     0.031 C 
ATOM     68  C   UNL     1     -10.549 -11.900  -0.597  1.00  0.00     0.037 A 
BRANCH  55  69
ATOM     69  C   UNL     1      -5.641 -11.571  -4.330  1.00  0.00     0.064 A 
ATOM     70  C   UNL     1      -4.353 -12.016  -4.004  1.00  0.00     0.173 A 
ATOM     71  C   UNL     1      -6.115 -11.831  -5.627  1.00  0.00     0.173 A 
ATOM     72  F   UNL     1      -3.846 -11.778  -2.785  1.00  0.00    -0.203 F 
ATOM     73  C   UNL     1      -3.566 -12.680  -4.942  1.00  0.00     0.198 A 
ATOM     74  C   UNL     1      -5.337 -12.519  -6.553  1.00  0.00     0.198 A 
ATOM     75  F   UNL     1      -7.343 -11.429  -5.990  1.00  0.00    -0.203 F 
ATOM     76  F   UNL     1      -2.322 -13.063  -4.621  1.00  0.00    -0.200 F 
ATOM     77  C   UNL     1      -4.061 -12.938  -6.212  1.00  0.00     0.200 A 
ATOM     78  F   UNL     1      -5.823 -12.777  -7.775  1.00  0.00    -0.200 F 
ATOM     79  F   UNL     1      -3.306 -13.588  -7.109  1.00  0.00    -0.200 F 
ENDBRANCH  55  69
BRANCH  56  80
ATOM     80  C   UNL     1     -11.117  -6.726   2.494  1.00  0.00     0.064 A 
ATOM     81  C   UNL     1     -11.153  -7.144   3.831  1.00  0.00     0.173 A 
ATOM     82  C   UNL     1     -11.906  -5.620   2.139  1.00  0.00     0.173 A 
ATOM     83  F   UNL     1     -10.443  -8.215   4.217  1.00  0.00    -0.203 F 
ATOM     84  C   UNL     1     -11.953  -6.492   4.769  1.00  0.00     0.198 A 
ATOM     85  C   UNL     1     -12.673  -4.945   3.085  1.00  0.00     0.198 A 
ATOM     86  F   UNL     1     -11.918  -5.181   0.872  1.00  0.00    -0.203 F 
ATOM     87  F   UNL     1     -12.008  -6.946   6.029  1.00  0.00    -0.200 F 
ATOM     88  C   UNL     1     -12.704  -5.388   4.398  1.00  0.00     0.200 A 
ATOM     89  F   UNL     1     -13.384  -3.868   2.723  1.00  0.00    -0.200 F 
ATOM     90  F   UNL     1     -13.467  -4.758   5.301  1.00  0.00    -0.200 F 
ENDBRANCH  56  80
BRANCH  68  91
ATOM     91  C   UNL     1     -11.496 -13.043  -0.391  1.00  0.00     0.064 A 
ATOM     92  C   UNL     1     -12.814 -12.998  -0.866  1.00  0.00     0.173 A 
ATOM     93  C   UNL     1     -11.070 -14.202   0.273  1.00  0.00     0.173 A 
ATOM     94  F   UNL     1     -13.271 -11.901  -1.489  1.00  0.00    -0.203 F 
ATOM     95  C   UNL     1     -13.682 -14.066  -0.658  1.00  0.00     0.198 A 
ATOM     96  C   UNL     1     -11.933 -15.278   0.454  1.00  0.00     0.198 A 
ATOM     97  F   UNL     1      -9.816 -14.291   0.742  1.00  0.00    -0.203 F 
ATOM     98  F   UNL     1     -14.953 -13.983  -1.075  1.00  0.00    -0.200 F 
ATOM     99  C   UNL     1     -13.239 -15.206  -0.005  1.00  0.00     0.200 A 
ATOM    100  F   UNL     1     -11.501 -16.383   1.078  1.00  0.00    -0.200 F 
ATOM    101  F   UNL     1     -14.077 -16.234   0.193  1.00  0.00    -0.200 F 
ENDBRANCH  68  91
ENDBRANCH  42  43
ENDBRANCH  35  37
ENDBRANCH  34  35
ENDBRANCH  33  34
ENDBRANCH   1  33
TORSDOF 16
