REMARK SMILES C[C@H]1C[N@H+]2CCCC[C@@H]2CN1c1ccc(C(=O)OCCOC(=O)c2ccc(-c3c4nc(c(-c5c(F)c(F)c(F)c(F)c5F)c5ccc([nH]5)c(-c5c(F)c(F)c(F)c(F)c5F)c5nc(c(-c6c(F)c(F)c(F)c(F)c6F)c6ccc3[nH]6)C=C5)C=C4)cc2)cc1Cl
REMARK SMILES IDX 20 1 19 2 18 3 16 4 17 5 15 6 12 7 13 8 88 9 14 10 87 11
REMARK SMILES IDX 89 12 11 13 1 14 2 15 3 16 4 17 10 18 5 19 9 20 6 22 8 23
REMARK SMILES IDX 7 24 21 25 22 26 23 27 24 28 25 29 86 30 26 31 85 32 27 33
REMARK SMILES IDX 28 34 29 35 79 36 30 37 84 38 78 39 80 40 31 41 83 42 77 43
REMARK SMILES IDX 76 44 32 46 64 47 44 48 63 49 45 50 48 51 62 52 81 53 46 54
REMARK SMILES IDX 47 55 61 57 82 58 49 59 33 60 34 61 42 62 35 63 36 64 40 65
REMARK SMILES IDX 43 66 37 67 38 68 41 69 39 70 65 71 66 72 74 73 67 74 68 75
REMARK SMILES IDX 72 76 75 77 69 78 70 79 73 80 71 81 50 82 51 83 59 84 52 85
REMARK SMILES IDX 53 86 57 87 60 88 54 89 55 90 58 91 56 92
REMARK H PARENT 4 21 80 45 48 56
REMARK Flexibility Score: inf
ROOT
ATOM      1  C   UNL     1       5.731   1.274   7.065  1.00  0.00     0.275 C 
ENDROOT
BRANCH   1   2
ATOM      2  C   UNL     1       5.328  -0.166   7.378  1.00  0.00     0.275 C 
BRANCH   2   3
ATOM      3  O   UNL     1       4.682  -0.762   6.236  1.00  0.00    -0.458 OA
BRANCH   3   4
ATOM      4  C   UNL     1       3.327  -0.805   6.269  1.00  0.00     0.338 C 
ATOM      5  O   UNL     1       2.608  -0.436   7.182  1.00  0.00    -0.246 OA
BRANCH   4   6
ATOM      6  C   UNL     1       2.796  -1.267   4.962  1.00  0.00     0.061 A 
ATOM      7  C   UNL     1       1.727  -2.011   2.451  1.00  0.00     0.056 A 
ATOM      8  C   UNL     1       0.966  -1.270   3.361  1.00  0.00     0.028 A 
ATOM      9  C   UNL     1       3.033  -2.391   2.843  1.00  0.00     0.065 A 
ATOM     10  C   UNL     1       1.484  -0.919   4.610  1.00  0.00     0.018 A 
ATOM     11  C   UNL     1       3.568  -2.016   4.077  1.00  0.00     0.038 A 
ATOM     12  Cl  UNL     1       4.053  -3.327   1.796  1.00  0.00    -0.082 Cl
BRANCH   7  13
ATOM     13  N   UNL     1       1.193  -2.411   1.241  1.00  0.00    -0.356 N 
ATOM     14  C   UNL     1       1.199  -0.122   0.207  1.00  0.00     0.037 C 
ATOM     15  C   UNL     1       0.582  -1.523   0.231  1.00  0.00     0.134 C 
ATOM     16  C   UNL     1       0.775  -2.176  -1.180  1.00  0.00     0.287 C 
ATOM     17  N   UNL     1       0.337  -3.592  -1.283  1.00  0.00    -0.329 N 
ATOM     18  C   UNL     1       0.680  -3.790   1.202  1.00  0.00     0.182 C 
ATOM     19  C   UNL     1       0.720  -4.144  -2.593  1.00  0.00     0.262 C 
ATOM     20  C   UNL     1       0.957  -4.392  -0.193  1.00  0.00     0.203 C 
ATOM     21  H   UNL     1      -0.678  -3.635  -1.192  1.00  0.00     0.348 HD
ATOM     22  C   UNL     1       0.281  -5.604  -2.739  1.00  0.00     0.062 C 
ATOM     23  C   UNL     1       0.448  -5.838  -0.249  1.00  0.00     0.067 C 
ATOM     24  C   UNL     1       0.792  -6.470  -1.592  1.00  0.00     0.012 C 
ENDBRANCH   7  13
ENDBRANCH   4   6
ENDBRANCH   3   4
ENDBRANCH   2   3
ENDBRANCH   1   2
BRANCH   1  25
ATOM     25  O   UNL     1       4.546   2.061   6.845  1.00  0.00    -0.458 OA
BRANCH  25  26
ATOM     26  C   UNL     1       4.526   2.802   5.714  1.00  0.00     0.338 C 
ATOM     27  O   UNL     1       5.414   2.943   4.894  1.00  0.00    -0.246 OA
BRANCH  26  28
ATOM     28  C   UNL     1       3.210   3.452   5.592  1.00  0.00     0.060 A 
ATOM     29  C   UNL     1       2.070   2.669   5.426  1.00  0.00     0.016 A 
ATOM     30  C   UNL     1       3.120   4.842   5.538  1.00  0.00     0.016 A 
ATOM     31  C   UNL     1       0.840   3.266   5.152  1.00  0.00     0.010 A 
ATOM     32  C   UNL     1       1.873   5.443   5.333  1.00  0.00     0.010 A 
ATOM     33  C   UNL     1       0.723   4.662   5.109  1.00  0.00    -0.014 A 
BRANCH  33  34
ATOM     34  C   UNL     1      -0.581   5.304   4.778  1.00  0.00     0.031 A 
ATOM     35  C   UNL     1      -0.705   6.169   3.551  1.00  0.00     0.074 A 
ATOM     36  C   UNL     1      -1.661   5.113   5.562  1.00  0.00     0.049 A 
ATOM     37  N   UNL     1      -1.690   6.950   3.182  1.00  0.00    -0.248 NA
ATOM     38  C   UNL     1       0.435   6.165   2.621  1.00  0.00     0.031 C 
ATOM     39  C   UNL     1      -1.702   4.273   6.759  1.00  0.00     0.029 A 
ATOM     40  N   UNL     1      -2.937   5.616   5.467  1.00  0.00    -0.354 N 
ATOM     41  C   UNL     1      -1.263   7.575   2.017  1.00  0.00     0.074 A 
ATOM     42  C   UNL     1       0.066   7.077   1.732  1.00  0.00     0.031 C 
ATOM     43  C   UNL     1      -2.942   4.298   7.273  1.00  0.00     0.029 A 
ATOM     44  C   UNL     1      -3.764   5.213   6.487  1.00  0.00     0.049 A 
ATOM     45  H   UNL     1      -3.229   6.208   4.737  1.00  0.00     0.167 HD
ATOM     46  C   UNL     1      -1.919   8.484   1.257  1.00  0.00     0.037 A 
ATOM     47  C   UNL     1      -5.030   5.569   6.783  1.00  0.00     0.037 A 
ATOM     48  C   UNL     1      -3.268   8.927   1.496  1.00  0.00     0.049 A 
ATOM     49  C   UNL     1      -5.738   6.575   5.918  1.00  0.00     0.074 A 
ATOM     50  C   UNL     1      -4.026   9.819   0.757  1.00  0.00     0.029 A 
ATOM     51  N   UNL     1      -4.067   8.495   2.542  1.00  0.00    -0.354 N 
ATOM     52  N   UNL     1      -5.308   7.191   4.845  1.00  0.00    -0.248 NA
ATOM     53  C   UNL     1      -7.103   6.949   6.317  1.00  0.00     0.031 C 
ATOM     54  C   UNL     1      -5.276   9.948   1.372  1.00  0.00     0.029 A 
ATOM     55  C   UNL     1      -5.307   9.109   2.473  1.00  0.00     0.049 A 
ATOM     56  H   UNL     1      -3.795   7.847   3.232  1.00  0.00     0.167 HD
ATOM     57  C   UNL     1      -6.346   8.019   4.439  1.00  0.00     0.074 A 
ATOM     58  C   UNL     1      -7.438   7.807   5.365  1.00  0.00     0.031 C 
ATOM     59  C   UNL     1      -6.386   8.885   3.398  1.00  0.00     0.037 A 
BRANCH  46  60
ATOM     60  C   UNL     1      -1.184   9.091   0.100  1.00  0.00     0.064 A 
ATOM     61  C   UNL     1      -0.968   8.388  -1.093  1.00  0.00     0.173 A 
ATOM     62  C   UNL     1      -0.752  10.425   0.167  1.00  0.00     0.173 A 
ATOM     63  F   UNL     1      -1.352   7.107  -1.200  1.00  0.00    -0.203 F 
ATOM     64  C   UNL     1      -0.336   8.996  -2.175  1.00  0.00     0.198 A 
ATOM     65  C   UNL     1      -0.142  11.036  -0.924  1.00  0.00     0.198 A 
ATOM     66  F   UNL     1      -0.942  11.142   1.285  1.00  0.00    -0.203 F 
ATOM     67  F   UNL     1      -0.114   8.299  -3.297  1.00  0.00    -0.200 F 
ATOM     68  C   UNL     1       0.069  10.321  -2.093  1.00  0.00     0.200 A 
ATOM     69  F   UNL     1       0.237  12.320  -0.847  1.00  0.00    -0.200 F 
ATOM     70  F   UNL     1       0.663  10.908  -3.141  1.00  0.00    -0.200 F 
ENDBRANCH  46  60
BRANCH  47  71
ATOM     71  C   UNL     1      -5.698   5.002   7.984  1.00  0.00     0.064 A 
ATOM     72  C   UNL     1      -6.777   4.116   7.861  1.00  0.00     0.173 A 
ATOM     73  C   UNL     1      -5.279   5.348   9.278  1.00  0.00     0.173 A 
ATOM     74  F   UNL     1      -7.232   3.780   6.646  1.00  0.00    -0.203 F 
ATOM     75  C   UNL     1      -7.420   3.608   8.988  1.00  0.00     0.198 A 
ATOM     76  C   UNL     1      -5.904   4.815  10.402  1.00  0.00     0.198 A 
ATOM     77  F   UNL     1      -4.255   6.196   9.448  1.00  0.00    -0.203 F 
ATOM     78  F   UNL     1      -8.479   2.799   8.843  1.00  0.00    -0.200 F 
ATOM     79  C   UNL     1      -6.979   3.952  10.257  1.00  0.00     0.200 A 
ATOM     80  F   UNL     1      -5.467   5.141  11.626  1.00  0.00    -0.200 F 
ATOM     81  F   UNL     1      -7.596   3.459  11.339  1.00  0.00    -0.200 F 
ENDBRANCH  47  71
BRANCH  59  82
ATOM     82  C   UNL     1      -7.657   9.652   3.194  1.00  0.00     0.064 A 
ATOM     83  C   UNL     1      -8.004  10.726   4.025  1.00  0.00     0.173 A 
ATOM     84  C   UNL     1      -8.520   9.330   2.136  1.00  0.00     0.173 A 
ATOM     85  F   UNL     1      -7.216  11.060   5.059  1.00  0.00    -0.203 F 
ATOM     86  C   UNL     1      -9.181  11.439   3.818  1.00  0.00     0.198 A 
ATOM     87  C   UNL     1      -9.686  10.059   1.918  1.00  0.00     0.198 A 
ATOM     88  F   UNL     1      -8.229   8.313   1.311  1.00  0.00    -0.203 F 
ATOM     89  F   UNL     1      -9.514  12.437   4.648  1.00  0.00    -0.200 F 
ATOM     90  C   UNL     1     -10.018  11.109   2.762  1.00  0.00     0.200 A 
ATOM     91  F   UNL     1     -10.489   9.745   0.892  1.00  0.00    -0.200 F 
ATOM     92  F   UNL     1     -11.150  11.798   2.562  1.00  0.00    -0.200 F 
ENDBRANCH  59  82
ENDBRANCH  33  34
ENDBRANCH  26  28
ENDBRANCH  25  26
ENDBRANCH   1  25
TORSDOF 12
