REMARK SMILES COc1cc(/C=C2/S/C(=[NH+]\C(C)=O)NC2=O)cc(Br)c1OCC(=O)OCCOC(=O)c1ccc(-c2c3nc(c(-c4c(F)c(F)c(F)c(F)c4F)c4ccc([nH]4)c(-c4c(F)c(F)c(F)c(F)c4F)c4nc(c(-c5c(F)c(F)c(F)c(F)c5F)c5ccc2[nH]5)C=C4)C=C3)cc1
REMARK SMILES IDX 26 1 25 2 23 3 24 4 22 5 21 6 20 7 3 8 4 9 5 10 18 11 17 12
REMARK SMILES IDX 19 13 2 14 1 15 6 16 7 17 8 18 15 19 9 20 14 21 16 22 10 23
REMARK SMILES IDX 11 25 12 27 13 28 27 29 28 30 29 31 30 32 31 33 32 34 93 35
REMARK SMILES IDX 33 36 92 37 34 38 35 39 36 40 86 41 37 42 91 43 85 44 87 45
REMARK SMILES IDX 38 46 90 47 84 48 83 49 39 51 71 52 51 53 70 54 52 55 55 56
REMARK SMILES IDX 69 57 88 58 53 59 54 60 68 62 89 63 56 64 40 65 41 66 49 67
REMARK SMILES IDX 42 68 43 69 47 70 50 71 44 72 45 73 48 74 46 75 72 76 73 77
REMARK SMILES IDX 81 78 74 79 75 80 79 81 82 82 76 83 77 84 80 85 78 86 57 87
REMARK SMILES IDX 58 88 66 89 59 90 60 91 64 92 67 93 61 94 62 95 65 96 63 97
REMARK H PARENT 14 24 10 26 87 50 55 61
REMARK Flexibility Score: inf
ROOT
ATOM      1  C   UNL     1      -2.918   2.585  -4.247  1.00  0.00     0.274 C 
ENDROOT
BRANCH   1   2
ATOM      2  O   UNL     1      -2.429   1.376  -3.617  1.00  0.00    -0.460 OA
BRANCH   2   3
ATOM      3  C   UNL     1      -2.939   0.219  -4.103  1.00  0.00     0.344 C 
ATOM      4  O   UNL     1      -3.781   0.167  -5.000  1.00  0.00    -0.248 OA
BRANCH   3   5
ATOM      5  C   UNL     1      -2.437  -1.070  -3.424  1.00  0.00     0.352 C 
BRANCH   5   6
ATOM      6  O   UNL     1      -1.356  -1.251  -2.532  1.00  0.00    -0.477 OA
BRANCH   6   7
ATOM      7  C   UNL     1      -0.096  -0.942  -2.971  1.00  0.00     0.176 A 
ATOM      8  C   UNL     1       0.656  -0.107  -2.121  1.00  0.00     0.162 A 
ATOM      9  C   UNL     1       1.921   0.354  -2.513  1.00  0.00     0.058 A 
ATOM     10  C   UNL     1       2.477  -0.055  -3.728  1.00  0.00    -0.019 A 
ATOM     11  C   UNL     1       0.546  -1.491  -4.088  1.00  0.00     0.064 A 
ATOM     12  C   UNL     1       1.806  -1.017  -4.488  1.00  0.00     0.028 A 
ATOM     13  Br  UNL     1      -0.081  -3.045  -4.989  1.00  0.00    -0.047 Br
BRANCH   8  14
ATOM     14  O   UNL     1       0.078   0.201  -0.911  1.00  0.00    -0.493 OA
ATOM     15  C   UNL     1       0.971   0.520   0.150  1.00  0.00     0.278 C 
ENDBRANCH   8  14
BRANCH  10  16
ATOM     16  C   UNL     1       3.787   0.438  -4.166  1.00  0.00     0.032 C 
ATOM     17  C   UNL     1       4.045   1.630  -4.725  1.00  0.00     0.110 C 
ATOM     18  S   UNL     1       5.626   2.064  -5.304  1.00  0.00     0.007 SA
ATOM     19  C   UNL     1       3.115   2.757  -5.014  1.00  0.00     0.346 C 
ATOM     20  C   UNL     1       5.068   3.513  -6.076  1.00  0.00     0.324 C 
ATOM     21  N   UNL     1       3.741   3.659  -5.828  1.00  0.00    -0.199 N 
ATOM     22  O   UNL     1       2.007   2.939  -4.547  1.00  0.00    -0.240 OA
ATOM     23  N   UNL     1       5.629   4.426  -6.772  1.00  0.00    -0.204 N 
ATOM     24  H   UNL     1       3.237   4.404  -6.228  1.00  0.00     0.316 HD
ATOM     25  C   UNL     1       6.931   4.623  -7.142  1.00  0.00     0.304 C 
ATOM     26  H   UNL     1       5.009   5.115  -7.103  1.00  0.00     0.316 HD
ATOM     27  C   UNL     1       8.017   3.594  -7.015  1.00  0.00     0.144 C 
ATOM     28  O   UNL     1       7.247   5.700  -7.652  1.00  0.00    -0.247 OA
ENDBRANCH  10  16
ENDBRANCH   6   7
ENDBRANCH   5   6
ENDBRANCH   3   5
ENDBRANCH   2   3
ENDBRANCH   1   2
BRANCH   1  29
ATOM     29  C   UNL     1      -1.945   3.156  -5.285  1.00  0.00     0.275 C 
BRANCH  29  30
ATOM     30  O   UNL     1      -1.776   2.275  -6.414  1.00  0.00    -0.458 OA
BRANCH  30  31
ATOM     31  C   UNL     1      -0.775   1.388  -6.245  1.00  0.00     0.338 C 
ATOM     32  O   UNL     1      -0.048   1.271  -5.278  1.00  0.00    -0.246 OA
BRANCH  31  33
ATOM     33  C   UNL     1      -0.669   0.444  -7.354  1.00  0.00     0.060 A 
ATOM     34  C   UNL     1      -1.445  -0.710  -7.306  1.00  0.00     0.016 A 
ATOM     35  C   UNL     1       0.364   0.574  -8.282  1.00  0.00     0.016 A 
ATOM     36  C   UNL     1      -1.165  -1.763  -8.168  1.00  0.00     0.010 A 
ATOM     37  C   UNL     1       0.590  -0.453  -9.202  1.00  0.00     0.010 A 
ATOM     38  C   UNL     1      -0.170  -1.634  -9.148  1.00  0.00    -0.014 A 
BRANCH  38  39
ATOM     39  C   UNL     1       0.004  -2.702 -10.163  1.00  0.00     0.031 A 
ATOM     40  C   UNL     1       1.298  -3.449 -10.301  1.00  0.00     0.074 A 
ATOM     41  C   UNL     1      -1.026  -2.975 -10.987  1.00  0.00     0.049 A 
ATOM     42  N   UNL     1       1.678  -4.272 -11.247  1.00  0.00    -0.248 NA
ATOM     43  C   UNL     1       2.300  -3.246  -9.244  1.00  0.00     0.031 C 
ATOM     44  C   UNL     1      -2.347  -2.345 -10.922  1.00  0.00     0.029 A 
ATOM     45  N   UNL     1      -1.125  -3.844 -12.044  1.00  0.00    -0.354 N 
ATOM     46  C   UNL     1       2.971  -4.659 -10.921  1.00  0.00     0.074 A 
ATOM     47  C   UNL     1       3.315  -3.977  -9.690  1.00  0.00     0.031 C 
ATOM     48  C   UNL     1      -3.128  -2.859 -11.880  1.00  0.00     0.029 A 
ATOM     49  C   UNL     1      -2.336  -3.775 -12.689  1.00  0.00     0.049 A 
ATOM     50  H   UNL     1      -0.402  -4.455 -12.313  1.00  0.00     0.167 HD
ATOM     51  C   UNL     1       3.788  -5.505 -11.596  1.00  0.00     0.037 A 
ATOM     52  C   UNL     1      -2.748  -4.333 -13.840  1.00  0.00     0.037 A 
ATOM     53  C   UNL     1       3.416  -6.199 -12.805  1.00  0.00     0.049 A 
ATOM     54  C   UNL     1      -1.794  -5.195 -14.611  1.00  0.00     0.074 A 
ATOM     55  C   UNL     1       4.158  -7.106 -13.543  1.00  0.00     0.029 A 
ATOM     56  N   UNL     1       2.197  -6.061 -13.455  1.00  0.00    -0.354 N 
ATOM     57  N   UNL     1      -0.567  -5.540 -14.310  1.00  0.00    -0.248 NA
ATOM     58  C   UNL     1      -2.275  -5.729 -15.891  1.00  0.00     0.031 C 
ATOM     59  C   UNL     1       3.411  -7.473 -14.667  1.00  0.00     0.029 A 
ATOM     60  C   UNL     1       2.182  -6.838 -14.604  1.00  0.00     0.049 A 
ATOM     61  H   UNL     1       1.453  -5.496 -13.146  1.00  0.00     0.167 HD
ATOM     62  C   UNL     1      -0.129  -6.337 -15.356  1.00  0.00     0.074 A 
ATOM     63  C   UNL     1      -1.232  -6.443 -16.289  1.00  0.00     0.031 C 
ATOM     64  C   UNL     1       1.080  -6.923 -15.529  1.00  0.00     0.037 A 
BRANCH  51  65
ATOM     65  C   UNL     1       5.181  -5.709 -11.073  1.00  0.00     0.064 A 
ATOM     66  C   UNL     1       5.440  -6.448  -9.911  1.00  0.00     0.173 A 
ATOM     67  C   UNL     1       6.282  -5.213 -11.792  1.00  0.00     0.173 A 
ATOM     68  F   UNL     1       4.426  -6.938  -9.182  1.00  0.00    -0.203 F 
ATOM     69  C   UNL     1       6.746  -6.667  -9.476  1.00  0.00     0.198 A 
ATOM     70  C   UNL     1       7.586  -5.457 -11.370  1.00  0.00     0.198 A 
ATOM     71  F   UNL     1       6.093  -4.506 -12.916  1.00  0.00    -0.203 F 
ATOM     72  F   UNL     1       6.968  -7.345  -8.341  1.00  0.00    -0.200 F 
ATOM     73  C   UNL     1       7.818  -6.179 -10.209  1.00  0.00     0.200 A 
ATOM     74  F   UNL     1       8.620  -4.996 -12.088  1.00  0.00    -0.200 F 
ATOM     75  F   UNL     1       9.073  -6.400  -9.795  1.00  0.00    -0.200 F 
ENDBRANCH  51  65
BRANCH  52  76
ATOM     76  C   UNL     1      -4.109  -4.033 -14.351  1.00  0.00     0.064 A 
ATOM     77  C   UNL     1      -5.098  -5.023 -14.390  1.00  0.00     0.173 A 
ATOM     78  C   UNL     1      -4.457  -2.742 -14.779  1.00  0.00     0.173 A 
ATOM     79  F   UNL     1      -4.806  -6.276 -14.011  1.00  0.00    -0.203 F 
ATOM     80  C   UNL     1      -6.383  -4.735 -14.843  1.00  0.00     0.198 A 
ATOM     81  C   UNL     1      -5.751  -2.447 -15.200  1.00  0.00     0.198 A 
ATOM     82  F   UNL     1      -3.546  -1.758 -14.757  1.00  0.00    -0.203 F 
ATOM     83  F   UNL     1      -7.302  -5.708 -14.905  1.00  0.00    -0.200 F 
ATOM     84  C   UNL     1      -6.711  -3.446 -15.238  1.00  0.00     0.200 A 
ATOM     85  F   UNL     1      -6.067  -1.196 -15.561  1.00  0.00    -0.200 F 
ATOM     86  F   UNL     1      -7.952  -3.167 -15.659  1.00  0.00    -0.200 F 
ENDBRANCH  52  76
BRANCH  64  87
ATOM     87  C   UNL     1       1.265  -7.743 -16.771  1.00  0.00     0.064 A 
ATOM     88  C   UNL     1       1.398  -7.141 -18.031  1.00  0.00     0.173 A 
ATOM     89  C   UNL     1       1.338  -9.142 -16.698  1.00  0.00     0.173 A 
ATOM     90  F   UNL     1       1.314  -5.808 -18.154  1.00  0.00    -0.203 F 
ATOM     91  C   UNL     1       1.577  -7.912 -19.176  1.00  0.00     0.198 A 
ATOM     92  C   UNL     1       1.545  -9.908 -17.841  1.00  0.00     0.198 A 
ATOM     93  F   UNL     1       1.218  -9.765 -15.516  1.00  0.00    -0.203 F 
ATOM     94  F   UNL     1       1.655  -7.319 -20.375  1.00  0.00    -0.200 F 
ATOM     95  C   UNL     1       1.658  -9.294 -19.079  1.00  0.00     0.200 A 
ATOM     96  F   UNL     1       1.634 -11.242 -17.745  1.00  0.00    -0.200 F 
ATOM     97  F   UNL     1       1.837 -10.034 -20.182  1.00  0.00    -0.200 F 
ENDBRANCH  64  87
ENDBRANCH  38  39
ENDBRANCH  31  33
ENDBRANCH  30  31
ENDBRANCH  29  30
ENDBRANCH   1  29
TORSDOF 15
