REMARK SMILES CCNC(=O)NC(=O)[C@@H](C)[NH2+][C@](C)(CC)C(=O)OCCOC(=O)c1ccc(-c2c3nc(c(-c4c(F)c(F)c(F)c(F)c4F)c4ccc([nH]4)c(-c4c(F)c(F)c(F)c(F)c4F)c4nc(c(-c5c(F)c(F)c(F)c(F)c5F)c5ccc2[nH]5)C=C4)C=C3)cc1
REMARK SMILES IDX 19 1 18 2 16 3 17 4 12 5 13 6 11 7 9 10 10 11 7 12 3 13 4 14
REMARK SMILES IDX 5 16 6 17 8 19 2 20 1 21 14 22 15 23 20 24 21 25 22 26 23 27
REMARK SMILES IDX 24 28 25 29 86 30 26 31 85 32 27 33 28 34 29 35 79 36 30 37
REMARK SMILES IDX 84 38 78 39 80 40 31 41 83 42 77 43 76 44 32 46 64 47 44 48
REMARK SMILES IDX 63 49 45 50 48 51 62 52 81 53 46 54 47 55 61 57 82 58 49 59
REMARK SMILES IDX 33 60 34 61 42 62 35 63 36 64 40 65 43 66 37 67 38 68 41 69
REMARK SMILES IDX 39 70 65 71 66 72 74 73 67 74 68 75 72 76 75 77 69 78 70 79
REMARK SMILES IDX 73 80 71 81 50 82 51 83 59 84 52 85 53 86 57 87 60 88 54 89
REMARK SMILES IDX 55 90 58 91 56 92
REMARK H PARENT 11 8 11 9 3 15 6 18 80 45 48 56
REMARK Flexibility Score: inf
ROOT
ATOM      1  C   UNL     1      -0.084  -4.662  -2.458  1.00  0.00     0.274 C 
ENDROOT
BRANCH   1   2
ATOM      2  O   UNL     1       0.650  -4.181  -1.310  1.00  0.00    -0.457 OA
BRANCH   2   3
ATOM      3  C   UNL     1       0.213  -3.013  -0.753  1.00  0.00     0.367 C 
ATOM      4  O   UNL     1      -0.797  -2.427  -1.130  1.00  0.00    -0.245 OA
BRANCH   3   5
ATOM      5  C   UNL     1       1.175  -2.461   0.350  1.00  0.00     0.191 C 
ATOM      6  C   UNL     1       0.386  -1.729   1.454  1.00  0.00     0.092 C 
BRANCH   5   7
ATOM      7  N   UNL     1       2.176  -1.554  -0.301  1.00  0.00    -0.322 N 
ATOM      8  H   UNL     1       2.998  -1.538   0.301  1.00  0.00     0.347 HD
ATOM      9  H   UNL     1       2.293  -1.956  -1.232  1.00  0.00     0.347 HD
BRANCH   7  10
ATOM     10  C   UNL     1       1.813  -0.148  -0.573  1.00  0.00     0.270 C 
ATOM     11  C   UNL     1       0.602   0.196  -1.449  1.00  0.00     0.086 C 
BRANCH  10  12
ATOM     12  C   UNL     1       3.022   0.606  -1.163  1.00  0.00     0.285 C 
ATOM     13  N   UNL     1       3.827  -2.054  -3.041  1.00  0.00    -0.338 N 
ATOM     14  C   UNL     1       4.389  -0.960  -2.486  1.00  0.00     0.321 C 
ATOM     15  H   UNL     1       4.470  -2.760  -3.278  1.00  0.00     0.165 HD
ATOM     16  O   UNL     1       5.611  -0.949  -2.332  1.00  0.00    -0.248 OA
ATOM     17  N   UNL     1       3.669   0.181  -2.304  1.00  0.00    -0.273 N 
ATOM     18  H   UNL     1       3.601   0.777  -3.085  1.00  0.00     0.175 HD
ATOM     19  O   UNL     1       3.372   1.685  -0.669  1.00  0.00    -0.268 OA
BRANCH  13  20
ATOM     20  C   UNL     1       2.457  -2.376  -3.348  1.00  0.00     0.114 C 
ATOM     21  C   UNL     1       2.045  -2.071  -4.770  1.00  0.00     0.027 C 
ENDBRANCH  13  20
ENDBRANCH  10  12
ENDBRANCH   7  10
ENDBRANCH   5   7
BRANCH   5  22
ATOM     22  C   UNL     1       2.012  -3.604   1.008  1.00  0.00     0.077 C 
ATOM     23  C   UNL     1       1.227  -4.726   1.687  1.00  0.00     0.011 C 
ENDBRANCH   5  22
ENDBRANCH   3   5
ENDBRANCH   2   3
ENDBRANCH   1   2
BRANCH   1  24
ATOM     24  C   UNL     1      -1.142  -5.691  -2.075  1.00  0.00     0.275 C 
BRANCH  24  25
ATOM     25  O   UNL     1      -2.129  -5.062  -1.247  1.00  0.00    -0.458 OA
BRANCH  25  26
ATOM     26  C   UNL     1      -2.488  -5.744  -0.140  1.00  0.00     0.338 C 
ATOM     27  O   UNL     1      -2.161  -6.870   0.187  1.00  0.00    -0.246 OA
BRANCH  26  28
ATOM     28  C   UNL     1      -3.328  -4.875   0.696  1.00  0.00     0.060 A 
ATOM     29  C   UNL     1      -2.790  -3.686   1.188  1.00  0.00     0.016 A 
ATOM     30  C   UNL     1      -4.587  -5.303   1.106  1.00  0.00     0.016 A 
ATOM     31  C   UNL     1      -3.471  -2.946   2.146  1.00  0.00     0.010 A 
ATOM     32  C   UNL     1      -5.298  -4.535   2.030  1.00  0.00     0.010 A 
ATOM     33  C   UNL     1      -4.723  -3.378   2.590  1.00  0.00    -0.014 A 
BRANCH  33  34
ATOM     34  C   UNL     1      -5.365  -2.715   3.748  1.00  0.00     0.031 A 
ATOM     35  C   UNL     1      -5.490  -3.479   5.035  1.00  0.00     0.074 A 
ATOM     36  C   UNL     1      -5.790  -1.442   3.673  1.00  0.00     0.049 A 
ATOM     37  N   UNL     1      -6.194  -3.206   6.101  1.00  0.00    -0.248 NA
ATOM     38  C   UNL     1      -4.721  -4.732   5.125  1.00  0.00     0.031 C 
ATOM     39  C   UNL     1      -5.628  -0.560   2.518  1.00  0.00     0.029 A 
ATOM     40  N   UNL     1      -6.442  -0.668   4.598  1.00  0.00    -0.354 N 
ATOM     41  C   UNL     1      -6.015  -4.286   6.955  1.00  0.00     0.074 A 
ATOM     42  C   UNL     1      -5.117  -5.209   6.295  1.00  0.00     0.031 C 
ATOM     43  C   UNL     1      -6.147   0.643   2.811  1.00  0.00     0.029 A 
ATOM     44  C   UNL     1      -6.748   0.589   4.140  1.00  0.00     0.049 A 
ATOM     45  H   UNL     1      -6.668  -0.983   5.503  1.00  0.00     0.167 HD
ATOM     46  C   UNL     1      -6.567  -4.489   8.174  1.00  0.00     0.037 A 
ATOM     47  C   UNL     1      -7.473   1.567   4.715  1.00  0.00     0.037 A 
ATOM     48  C   UNL     1      -7.406  -3.531   8.842  1.00  0.00     0.049 A 
ATOM     49  C   UNL     1      -8.103   1.310   6.056  1.00  0.00     0.074 A 
ATOM     50  C   UNL     1      -8.020  -3.626  10.077  1.00  0.00     0.029 A 
ATOM     51  N   UNL     1      -7.731  -2.283   8.327  1.00  0.00    -0.354 N 
ATOM     52  N   UNL     1      -8.018   0.248   6.821  1.00  0.00    -0.248 NA
ATOM     53  C   UNL     1      -8.955   2.375   6.600  1.00  0.00     0.031 C 
ATOM     54  C   UNL     1      -8.737  -2.444  10.300  1.00  0.00     0.029 A 
ATOM     55  C   UNL     1      -8.543  -1.601   9.217  1.00  0.00     0.049 A 
ATOM     56  H   UNL     1      -7.428  -1.935   7.458  1.00  0.00     0.167 HD
ATOM     57  C   UNL     1      -8.799   0.515   7.936  1.00  0.00     0.074 A 
ATOM     58  C   UNL     1      -9.334   1.851   7.757  1.00  0.00     0.031 C 
ATOM     59  C   UNL     1      -9.059  -0.273   9.008  1.00  0.00     0.037 A 
BRANCH  46  60
ATOM     60  C   UNL     1      -6.329  -5.819   8.823  1.00  0.00     0.064 A 
ATOM     61  C   UNL     1      -5.093  -6.167   9.385  1.00  0.00     0.173 A 
ATOM     62  C   UNL     1      -7.365  -6.766   8.873  1.00  0.00     0.173 A 
ATOM     63  F   UNL     1      -4.065  -5.307   9.341  1.00  0.00    -0.203 F 
ATOM     64  C   UNL     1      -4.894  -7.426   9.949  1.00  0.00     0.198 A 
ATOM     65  C   UNL     1      -7.170  -8.012   9.460  1.00  0.00     0.198 A 
ATOM     66  F   UNL     1      -8.566  -6.482   8.347  1.00  0.00    -0.203 F 
ATOM     67  F   UNL     1      -3.689  -7.758  10.434  1.00  0.00    -0.200 F 
ATOM     68  C   UNL     1      -5.933  -8.345   9.991  1.00  0.00     0.200 A 
ATOM     69  F   UNL     1      -8.176  -8.896   9.503  1.00  0.00    -0.200 F 
ATOM     70  F   UNL     1      -5.738  -9.556  10.531  1.00  0.00    -0.200 F 
ENDBRANCH  46  60
BRANCH  47  71
ATOM     71  C   UNL     1      -7.673   2.856   4.005  1.00  0.00     0.064 A 
ATOM     72  C   UNL     1      -7.069   4.032   4.470  1.00  0.00     0.173 A 
ATOM     73  C   UNL     1      -8.453   2.937   2.842  1.00  0.00     0.173 A 
ATOM     74  F   UNL     1      -6.337   4.010   5.593  1.00  0.00    -0.203 F 
ATOM     75  C   UNL     1      -7.239   5.240   3.797  1.00  0.00     0.198 A 
ATOM     76  C   UNL     1      -8.600   4.140   2.156  1.00  0.00     0.198 A 
ATOM     77  F   UNL     1      -9.056   1.840   2.361  1.00  0.00    -0.203 F 
ATOM     78  F   UNL     1      -6.675   6.357   4.278  1.00  0.00    -0.200 F 
ATOM     79  C   UNL     1      -7.996   5.292   2.636  1.00  0.00     0.200 A 
ATOM     80  F   UNL     1      -9.324   4.182   1.029  1.00  0.00    -0.200 F 
ATOM     81  F   UNL     1      -8.148   6.452   1.983  1.00  0.00    -0.200 F 
ENDBRANCH  47  71
BRANCH  59  82
ATOM     82  C   UNL     1      -9.944   0.304  10.070  1.00  0.00     0.064 A 
ATOM     83  C   UNL     1     -11.331   0.398   9.892  1.00  0.00     0.173 A 
ATOM     84  C   UNL     1      -9.399   0.744  11.285  1.00  0.00     0.173 A 
ATOM     85  F   UNL     1     -11.892   0.004   8.739  1.00  0.00    -0.203 F 
ATOM     86  C   UNL     1     -12.142   0.935  10.887  1.00  0.00     0.198 A 
ATOM     87  C   UNL     1     -10.216   1.260  12.286  1.00  0.00     0.198 A 
ATOM     88  F   UNL     1      -8.078   0.669  11.500  1.00  0.00    -0.203 F 
ATOM     89  F   UNL     1     -13.460   1.055  10.682  1.00  0.00    -0.200 F 
ATOM     90  C   UNL     1     -11.585   1.361  12.084  1.00  0.00     0.200 A 
ATOM     91  F   UNL     1      -9.678   1.666  13.444  1.00  0.00    -0.200 F 
ATOM     92  F   UNL     1     -12.367   1.880  13.041  1.00  0.00    -0.200 F 
ENDBRANCH  59  82
ENDBRANCH  33  34
ENDBRANCH  26  28
ENDBRANCH  25  26
ENDBRANCH  24  25
ENDBRANCH   1  24
TORSDOF 16
