REMARK SMILES O=C(OCCOC(=O)c1cc(Br)cc2c1OCC2)c1ccc(-c2c3nc(c(-c4c(F)c(F)c(F)c(F)c4F)c4ccc([nH]4)c(-c4c(F)c(F)c(F)c(F)c4F)c4nc(c(-c5c(F)c(F)c(F)c(F)c5F)c5ccc2[nH]5)C=C4)C=C3)cc1
REMARK SMILES IDX 4 1 3 2 2 3 1 4 19 5 20 6 81 7 21 8 80 9 22 10 23 11 24 12
REMARK SMILES IDX 74 13 25 14 79 15 73 16 75 17 26 18 78 19 72 20 71 21 27 23
REMARK SMILES IDX 59 24 39 25 58 26 40 27 43 28 57 29 76 30 41 31 42 32 56 34
REMARK SMILES IDX 77 35 44 36 28 37 29 38 37 39 30 40 31 41 35 42 38 43 32 44
REMARK SMILES IDX 33 45 36 46 34 47 60 48 61 49 69 50 62 51 63 52 67 53 70 54
REMARK SMILES IDX 64 55 65 56 68 57 66 58 45 59 46 60 54 61 47 62 48 63 52 64
REMARK SMILES IDX 55 65 49 66 50 67 53 68 51 69 5 70 6 71 7 72 8 73 9 74 10 75
REMARK SMILES IDX 15 76 11 77 14 78 16 79 12 80 13 81 18 82 17 83
REMARK H PARENT 75 22 43 33
REMARK Flexibility Score: inf
ROOT
ATOM      1  C   UNL     1       4.052  -1.271  -0.826  1.00  0.00     0.275 C 
ENDROOT
BRANCH   1   2
ATOM      2  O   UNL     1       3.051  -1.097   0.190  1.00  0.00    -0.458 OA
BRANCH   2   3
ATOM      3  C   UNL     1       3.043  -0.210   1.213  1.00  0.00     0.338 C 
ATOM      4  O   UNL     1       2.353  -0.433   2.206  1.00  0.00    -0.246 OA
BRANCH   3   5
ATOM      5  C   UNL     1       3.713   1.124   1.122  1.00  0.00     0.060 A 
ATOM      6  C   UNL     1       4.932   1.392   0.500  1.00  0.00     0.016 A 
ATOM      7  C   UNL     1       3.043   2.193   1.740  1.00  0.00     0.016 A 
ATOM      8  C   UNL     1       5.427   2.694   0.418  1.00  0.00     0.010 A 
ATOM      9  C   UNL     1       3.511   3.504   1.636  1.00  0.00     0.010 A 
ATOM     10  C   UNL     1       4.721   3.756   0.984  1.00  0.00    -0.014 A 
BRANCH  10  11
ATOM     11  C   UNL     1       5.371   5.079   1.079  1.00  0.00     0.031 A 
ATOM     12  C   UNL     1       5.913   5.497   2.412  1.00  0.00     0.074 A 
ATOM     13  C   UNL     1       5.560   5.843  -0.012  1.00  0.00     0.049 A 
ATOM     14  N   UNL     1       6.559   6.584   2.741  1.00  0.00    -0.248 NA
ATOM     15  C   UNL     1       5.725   4.548   3.522  1.00  0.00     0.031 C 
ATOM     16  C   UNL     1       5.180   5.477  -1.374  1.00  0.00     0.029 A 
ATOM     17  N   UNL     1       6.125   7.085  -0.146  1.00  0.00    -0.354 N 
ATOM     18  C   UNL     1       6.883   6.428   4.080  1.00  0.00     0.074 A 
ATOM     19  C   UNL     1       6.285   5.193   4.529  1.00  0.00     0.031 C 
ATOM     20  C   UNL     1       5.484   6.491  -2.202  1.00  0.00     0.029 A 
ATOM     21  C   UNL     1       6.055   7.581  -1.424  1.00  0.00     0.049 A 
ATOM     22  H   UNL     1       6.540   7.573   0.601  1.00  0.00     0.167 HD
ATOM     23  C   UNL     1       7.657   7.223   4.853  1.00  0.00     0.037 A 
ATOM     24  C   UNL     1       6.401   8.790  -1.904  1.00  0.00     0.037 A 
ATOM     25  C   UNL     1       8.230   8.457   4.394  1.00  0.00     0.049 A 
ATOM     26  C   UNL     1       7.093   9.750  -0.979  1.00  0.00     0.074 A 
ATOM     27  C   UNL     1       9.022   9.354   5.085  1.00  0.00     0.029 A 
ATOM     28  N   UNL     1       8.052   8.976   3.117  1.00  0.00    -0.354 N 
ATOM     29  N   UNL     1       7.421   9.588   0.280  1.00  0.00    -0.248 NA
ATOM     30  C   UNL     1       7.503  11.039  -1.549  1.00  0.00     0.031 C 
ATOM     31  C   UNL     1       9.267  10.447   4.247  1.00  0.00     0.029 A 
ATOM     32  C   UNL     1       8.687  10.201   3.011  1.00  0.00     0.049 A 
ATOM     33  H   UNL     1       7.549   8.536   2.394  1.00  0.00     0.167 HD
ATOM     34  C   UNL     1       8.127  10.726   0.641  1.00  0.00     0.074 A 
ATOM     35  C   UNL     1       8.165  11.577  -0.533  1.00  0.00     0.031 C 
ATOM     36  C   UNL     1       8.711  11.026   1.827  1.00  0.00     0.037 A 
BRANCH  23  37
ATOM     37  C   UNL     1       7.877   6.775   6.268  1.00  0.00     0.064 A 
ATOM     38  C   UNL     1       8.623   5.623   6.571  1.00  0.00     0.173 A 
ATOM     39  C   UNL     1       7.278   7.465   7.331  1.00  0.00     0.173 A 
ATOM     40  F   UNL     1       9.194   4.910   5.587  1.00  0.00    -0.203 F 
ATOM     41  C   UNL     1       8.715   5.151   7.877  1.00  0.00     0.198 A 
ATOM     42  C   UNL     1       7.402   7.009   8.640  1.00  0.00     0.198 A 
ATOM     43  F   UNL     1       6.550   8.567   7.097  1.00  0.00    -0.203 F 
ATOM     44  F   UNL     1       9.359   4.003   8.130  1.00  0.00    -0.200 F 
ATOM     45  C   UNL     1       8.106   5.846   8.911  1.00  0.00     0.200 A 
ATOM     46  F   UNL     1       6.816   7.684   9.639  1.00  0.00    -0.200 F 
ATOM     47  F   UNL     1       8.180   5.382  10.166  1.00  0.00    -0.200 F 
ENDBRANCH  23  37
BRANCH  24  48
ATOM     48  C   UNL     1       6.106   9.145  -3.316  1.00  0.00     0.064 A 
ATOM     49  C   UNL     1       7.122   9.249  -4.273  1.00  0.00     0.173 A 
ATOM     50  C   UNL     1       4.788   9.393  -3.733  1.00  0.00     0.173 A 
ATOM     51  F   UNL     1       8.399   9.045  -3.918  1.00  0.00    -0.203 F 
ATOM     52  C   UNL     1       6.836   9.599  -5.592  1.00  0.00     0.198 A 
ATOM     53  C   UNL     1       4.500   9.721  -5.057  1.00  0.00     0.198 A 
ATOM     54  F   UNL     1       3.781   9.321  -2.852  1.00  0.00    -0.203 F 
ATOM     55  F   UNL     1       7.831   9.727  -6.480  1.00  0.00    -0.200 F 
ATOM     56  C   UNL     1       5.525   9.829  -5.984  1.00  0.00     0.200 A 
ATOM     57  F   UNL     1       3.233   9.941  -5.432  1.00  0.00    -0.200 F 
ATOM     58  F   UNL     1       5.252  10.165  -7.253  1.00  0.00    -0.200 F 
ENDBRANCH  24  48
BRANCH  36  59
ATOM     59  C   UNL     1       9.488  12.307   1.898  1.00  0.00     0.064 A 
ATOM     60  C   UNL     1       8.858  13.558   1.891  1.00  0.00     0.173 A 
ATOM     61  C   UNL     1      10.886  12.272   2.023  1.00  0.00     0.173 A 
ATOM     62  F   UNL     1       7.526  13.643   1.757  1.00  0.00    -0.203 F 
ATOM     63  C   UNL     1       9.601  14.731   1.981  1.00  0.00     0.198 A 
ATOM     64  C   UNL     1      11.622  13.445   2.150  1.00  0.00     0.198 A 
ATOM     65  F   UNL     1      11.536  11.098   2.040  1.00  0.00    -0.203 F 
ATOM     66  F   UNL     1       8.983  15.919   1.920  1.00  0.00    -0.200 F 
ATOM     67  C   UNL     1      10.980  14.673   2.121  1.00  0.00     0.200 A 
ATOM     68  F   UNL     1      12.952  13.386   2.303  1.00  0.00    -0.200 F 
ATOM     69  F   UNL     1      11.692  15.804   2.222  1.00  0.00    -0.200 F 
ENDBRANCH  36  59
ENDBRANCH  10  11
ENDBRANCH   3   5
ENDBRANCH   2   3
ENDBRANCH   1   2
BRANCH   1  70
ATOM     70  C   UNL     1       3.799  -0.491  -2.120  1.00  0.00     0.275 C 
BRANCH  70  71
ATOM     71  O   UNL     1       3.316   0.847  -1.912  1.00  0.00    -0.458 OA
BRANCH  71  72
ATOM     72  C   UNL     1       1.966   0.987  -1.958  1.00  0.00     0.342 C 
ATOM     73  O   UNL     1       1.150   0.113  -2.213  1.00  0.00    -0.246 OA
BRANCH  72  74
ATOM     74  C   UNL     1       1.609   2.379  -1.644  1.00  0.00     0.103 A 
ATOM     75  C   UNL     1       2.068   3.433  -2.444  1.00  0.00     0.035 A 
ATOM     76  C   UNL     1       0.764   2.671  -0.583  1.00  0.00     0.137 A 
ATOM     77  C   UNL     1       1.668   4.747  -2.154  1.00  0.00     0.019 A 
ATOM     78  C   UNL     1       0.425   3.979  -0.271  1.00  0.00    -0.000 A 
ATOM     79  O   UNL     1       0.206   1.753   0.264  1.00  0.00    -0.492 OA
ATOM     80  Br  UNL     1       2.120   6.148  -3.344  1.00  0.00    -0.051 Br
ATOM     81  C   UNL     1       0.876   5.037  -1.041  1.00  0.00     0.023 A 
ATOM     82  C   UNL     1      -0.472   4.008   0.904  1.00  0.00     0.081 C 
ATOM     83  C   UNL     1      -0.514   2.520   1.255  1.00  0.00     0.234 C 
ENDBRANCH  72  74
ENDBRANCH  71  72
ENDBRANCH  70  71
ENDBRANCH   1  70
TORSDOF 11
