REMARK SMILES O=C(CCC(=O)OCCOC(=O)c1ccc(-c2c3nc(c(-c4c(F)c(F)c(F)c(F)c4F)c4ccc([nH]4)c(-c4c(F)c(F)c(F)c(F)c4F)c4nc(c(-c5c(F)c(F)c(F)c(F)c5F)c5ccc2[nH]5)C=C4)C=C3)cc1)Nc1nncs1
REMARK SMILES IDX 8 1 7 2 5 3 6 4 4 5 3 6 2 7 1 8 76 9 77 11 78 12 81 13 79 14
REMARK SMILES IDX 80 15 9 16 10 17 11 18 12 19 13 20 14 21 75 22 15 23 74 24
REMARK SMILES IDX 16 25 17 26 18 27 68 28 19 29 73 30 67 31 69 32 20 33 72 34
REMARK SMILES IDX 66 35 65 36 21 38 53 39 33 40 52 41 34 42 37 43 51 44 70 45
REMARK SMILES IDX 35 46 36 47 50 49 71 50 38 51 22 52 23 53 31 54 24 55 25 56
REMARK SMILES IDX 29 57 32 58 26 59 27 60 30 61 28 62 54 63 55 64 63 65 56 66
REMARK SMILES IDX 57 67 61 68 64 69 58 70 59 71 62 72 60 73 39 74 40 75 48 76
REMARK SMILES IDX 41 77 42 78 46 79 49 80 43 81 44 82 47 83 45 84
REMARK H PARENT 76 10 69 37 37 48
REMARK Flexibility Score: inf
ROOT
ATOM      1  C   UNL     1       5.842  -2.450  -0.341  1.00  0.00     0.274 C 
ENDROOT
BRANCH   1   2
ATOM      2  O   UNL     1       4.659  -1.771   0.143  1.00  0.00    -0.462 OA
BRANCH   2   3
ATOM      3  C   UNL     1       4.673  -1.357   1.440  1.00  0.00     0.306 C 
ATOM      4  O   UNL     1       5.627  -1.473   2.198  1.00  0.00    -0.252 OA
BRANCH   3   5
ATOM      5  C   UNL     1       3.340  -0.781   1.869  1.00  0.00     0.132 C 
BRANCH   5   6
ATOM      6  C   UNL     1       2.842   0.385   1.022  1.00  0.00     0.112 C 
BRANCH   6   7
ATOM      7  C   UNL     1       1.844  -0.078  -0.022  1.00  0.00     0.226 C 
ATOM      8  O   UNL     1       0.648   0.147   0.117  1.00  0.00    -0.275 OA
ATOM      9  N   UNL     1       2.437  -0.784  -1.038  1.00  0.00    -0.301 N 
ATOM     10  H   UNL     1       3.418  -0.772  -1.114  1.00  0.00     0.172 HD
BRANCH   9  11
ATOM     11  C   UNL     1       1.715  -1.502  -1.948  1.00  0.00     0.212 A 
ATOM     12  N   UNL     1       0.422  -1.591  -2.134  1.00  0.00    -0.120 NA
ATOM     13  S   UNL     1       2.661  -2.518  -2.948  1.00  0.00    -0.083 S 
ATOM     14  N   UNL     1       0.106  -2.527  -3.104  1.00  0.00    -0.145 NA
ATOM     15  C   UNL     1       1.182  -3.104  -3.590  1.00  0.00     0.204 A 
ENDBRANCH   9  11
ENDBRANCH   6   7
ENDBRANCH   5   6
ENDBRANCH   3   5
ENDBRANCH   2   3
ENDBRANCH   1   2
BRANCH   1  16
ATOM     16  C   UNL     1       6.702  -1.536  -1.220  1.00  0.00     0.275 C 
BRANCH  16  17
ATOM     17  O   UNL     1       7.398  -0.562  -0.424  1.00  0.00    -0.458 OA
BRANCH  17  18
ATOM     18  C   UNL     1       6.712   0.583  -0.206  1.00  0.00     0.338 C 
ATOM     19  O   UNL     1       5.633   0.885  -0.686  1.00  0.00    -0.246 OA
BRANCH  18  20
ATOM     20  C   UNL     1       7.387   1.372   0.838  1.00  0.00     0.060 A 
ATOM     21  C   UNL     1       6.661   1.710   1.984  1.00  0.00     0.016 A 
ATOM     22  C   UNL     1       8.696   1.826   0.666  1.00  0.00     0.016 A 
ATOM     23  C   UNL     1       7.233   2.526   2.956  1.00  0.00     0.010 A 
ATOM     24  C   UNL     1       9.269   2.646   1.643  1.00  0.00     0.010 A 
ATOM     25  C   UNL     1       8.533   3.020   2.781  1.00  0.00    -0.014 A 
BRANCH  25  26
ATOM     26  C   UNL     1       9.072   4.014   3.739  1.00  0.00     0.031 A 
ATOM     27  C   UNL     1       9.117   5.463   3.344  1.00  0.00     0.074 A 
ATOM     28  C   UNL     1       9.481   3.631   4.962  1.00  0.00     0.049 A 
ATOM     29  N   UNL     1       9.589   6.491   4.003  1.00  0.00    -0.248 NA
ATOM     30  C   UNL     1       8.555   5.801   2.026  1.00  0.00     0.031 C 
ATOM     31  C   UNL     1       9.453   2.261   5.472  1.00  0.00     0.029 A 
ATOM     32  N   UNL     1      10.004   4.365   5.998  1.00  0.00    -0.354 N 
ATOM     33  C   UNL     1       9.383   7.592   3.182  1.00  0.00     0.074 A 
ATOM     34  C   UNL     1       8.777   7.105   1.962  1.00  0.00     0.031 C 
ATOM     35  C   UNL     1       9.945   2.251   6.722  1.00  0.00     0.029 A 
ATOM     36  C   UNL     1      10.350   3.606   7.088  1.00  0.00     0.049 A 
ATOM     37  H   UNL     1      10.119   5.342   5.962  1.00  0.00     0.167 HD
ATOM     38  C   UNL     1       9.660   8.895   3.431  1.00  0.00     0.037 A 
ATOM     39  C   UNL     1      10.943   3.966   8.243  1.00  0.00     0.037 A 
ATOM     40  C   UNL     1      10.265   9.377   4.645  1.00  0.00     0.049 A 
ATOM     41  C   UNL     1      11.280   5.416   8.475  1.00  0.00     0.074 A 
ATOM     42  C   UNL     1      10.625  10.671   4.978  1.00  0.00     0.029 A 
ATOM     43  N   UNL     1      10.592   8.579   5.731  1.00  0.00    -0.354 N 
ATOM     44  N   UNL     1      11.091   6.449   7.689  1.00  0.00    -0.248 NA
ATOM     45  C   UNL     1      11.901   5.753   9.764  1.00  0.00     0.031 C 
ATOM     46  C   UNL     1      11.194  10.653   6.257  1.00  0.00     0.029 A 
ATOM     47  C   UNL     1      11.145   9.355   6.738  1.00  0.00     0.049 A 
ATOM     48  H   UNL     1      10.453   7.606   5.780  1.00  0.00     0.167 HD
ATOM     49  C   UNL     1      11.534   7.557   8.400  1.00  0.00     0.074 A 
ATOM     50  C   UNL     1      11.987   7.073   9.686  1.00  0.00     0.031 C 
ATOM     51  C   UNL     1      11.564   8.859   8.022  1.00  0.00     0.037 A 
BRANCH  38  52
ATOM     52  C   UNL     1       9.318   9.891   2.363  1.00  0.00     0.064 A 
ATOM     53  C   UNL     1       7.987  10.242   2.090  1.00  0.00     0.173 A 
ATOM     54  C   UNL     1      10.329  10.529   1.630  1.00  0.00     0.173 A 
ATOM     55  F   UNL     1       6.983   9.646   2.751  1.00  0.00    -0.203 F 
ATOM     56  C   UNL     1       7.681  11.182   1.110  1.00  0.00     0.198 A 
ATOM     57  C   UNL     1      10.020  11.489   0.670  1.00  0.00     0.198 A 
ATOM     58  F   UNL     1      11.617  10.230   1.853  1.00  0.00    -0.203 F 
ATOM     59  F   UNL     1       6.401  11.472   0.839  1.00  0.00    -0.200 F 
ATOM     60  C   UNL     1       8.697  11.811   0.407  1.00  0.00     0.200 A 
ATOM     61  F   UNL     1      11.004  12.103  -0.002  1.00  0.00    -0.200 F 
ATOM     62  F   UNL     1       8.402  12.722  -0.530  1.00  0.00    -0.200 F 
ENDBRANCH  38  52
BRANCH  39  63
ATOM     63  C   UNL     1      11.270   2.941   9.269  1.00  0.00     0.064 A 
ATOM     64  C   UNL     1      10.623   2.926  10.513  1.00  0.00     0.173 A 
ATOM     65  C   UNL     1      12.269   1.983   9.042  1.00  0.00     0.173 A 
ATOM     66  F   UNL     1       9.678   3.837  10.787  1.00  0.00    -0.203 F 
ATOM     67  C   UNL     1      10.988   2.015  11.503  1.00  0.00     0.198 A 
ATOM     68  C   UNL     1      12.610   1.052  10.021  1.00  0.00     0.198 A 
ATOM     69  F   UNL     1      12.918   1.953   7.869  1.00  0.00    -0.203 F 
ATOM     70  F   UNL     1      10.399   2.065  12.705  1.00  0.00    -0.200 F 
ATOM     71  C   UNL     1      11.978   1.077  11.255  1.00  0.00     0.200 A 
ATOM     72  F   UNL     1      13.560   0.140   9.773  1.00  0.00    -0.200 F 
ATOM     73  F   UNL     1      12.333   0.206  12.209  1.00  0.00    -0.200 F 
ENDBRANCH  39  63
BRANCH  51  74
ATOM     74  C   UNL     1      12.043   9.856   9.037  1.00  0.00     0.064 A 
ATOM     75  C   UNL     1      13.391   9.939   9.417  1.00  0.00     0.173 A 
ATOM     76  C   UNL     1      11.138  10.753   9.625  1.00  0.00     0.173 A 
ATOM     77  F   UNL     1      14.293   9.095   8.894  1.00  0.00    -0.203 F 
ATOM     78  C   UNL     1      13.808  10.858  10.377  1.00  0.00     0.198 A 
ATOM     79  C   UNL     1      11.564  11.691  10.561  1.00  0.00     0.198 A 
ATOM     80  F   UNL     1       9.840  10.722   9.289  1.00  0.00    -0.203 F 
ATOM     81  F   UNL     1      15.089  10.879  10.768  1.00  0.00    -0.200 F 
ATOM     82  C   UNL     1      12.896  11.735  10.944  1.00  0.00     0.200 A 
ATOM     83  F   UNL     1      10.684  12.547  11.098  1.00  0.00    -0.200 F 
ATOM     84  F   UNL     1      13.299  12.618  11.868  1.00  0.00    -0.200 F 
ENDBRANCH  51  74
ENDBRANCH  25  26
ENDBRANCH  18  20
ENDBRANCH  17  18
ENDBRANCH  16  17
ENDBRANCH   1  16
TORSDOF 14
