REMARK SMILES COc1ccccc1[C@@H]1CN(C(=O)c2cnn3ccccc23)C[C@H]1C(=O)OCCOC(=O)c1ccc(-c2c3nc(c(-c4c(F)c(F)c(F)c(F)c4F)c4ccc([nH]4)c(-c4c(F)c(F)c(F)c(F)c4F)c4nc(c(-c5c(F)c(F)c(F)c(F)c5F)c5ccc2[nH]5)C=C4)C=C3)cc1
REMARK SMILES IDX 28 1 27 2 25 3 26 4 24 5 9 6 10 7 11 8 23 9 8 10 3 11 4 12
REMARK SMILES IDX 5 13 7 14 6 15 2 16 1 17 12 18 13 19 14 20 15 21 22 22 16 23
REMARK SMILES IDX 17 24 21 25 18 26 20 27 19 28 29 29 30 30 31 31 32 32 33 33
REMARK SMILES IDX 34 34 95 35 35 36 94 37 36 38 37 39 38 40 88 41 39 42 93 43
REMARK SMILES IDX 87 44 89 45 40 46 92 47 86 48 85 49 41 51 73 52 53 53 72 54
REMARK SMILES IDX 54 55 57 56 71 57 90 58 55 59 56 60 70 62 91 63 58 64 42 65
REMARK SMILES IDX 43 66 51 67 44 68 45 69 49 70 52 71 46 72 47 73 50 74 48 75
REMARK SMILES IDX 74 76 75 77 83 78 76 79 77 80 81 81 84 82 78 83 79 84 82 85
REMARK SMILES IDX 80 86 59 87 60 88 68 89 61 90 62 91 66 92 69 93 63 94 64 95
REMARK SMILES IDX 67 96 65 97
REMARK H PARENT 89 50 57 61
REMARK Flexibility Score: inf
ROOT
ATOM      1  C   UNL     1       5.185   1.081   3.957  1.00  0.00     0.274 C 
ENDROOT
BRANCH   1   2
ATOM      2  O   UNL     1       4.685   0.958   2.602  1.00  0.00    -0.462 OA
BRANCH   2   3
ATOM      3  C   UNL     1       3.486   0.330   2.476  1.00  0.00     0.311 C 
ATOM      4  O   UNL     1       2.887  -0.202   3.409  1.00  0.00    -0.252 OA
BRANCH   3   5
ATOM      5  C   UNL     1       2.953   0.233   1.064  1.00  0.00     0.128 C 
ATOM      6  C   UNL     1       3.150   1.375   0.032  1.00  0.00     0.058 C 
ATOM      7  C   UNL     1       3.442   0.625  -1.267  1.00  0.00     0.129 C 
ATOM      8  N   UNL     1       4.141  -0.565  -0.837  1.00  0.00    -0.337 N 
ATOM      9  C   UNL     1       3.664  -0.982   0.463  1.00  0.00     0.135 C 
BRANCH   6  10
ATOM     10  C   UNL     1       2.069   2.424  -0.218  1.00  0.00    -0.000 A 
ATOM     11  C   UNL     1       0.788   2.200  -0.761  1.00  0.00     0.122 A 
ATOM     12  C   UNL     1      -0.092   3.271  -1.002  1.00  0.00     0.047 A 
ATOM     13  C   UNL     1       0.286   4.585  -0.734  1.00  0.00     0.004 A 
ATOM     14  C   UNL     1       2.433   3.774  -0.000  1.00  0.00     0.008 A 
ATOM     15  C   UNL     1       1.559   4.838  -0.246  1.00  0.00     0.001 A 
BRANCH  11  16
ATOM     16  O   UNL     1       0.397   1.009  -1.314  1.00  0.00    -0.496 OA
ATOM     17  C   UNL     1      -0.063   0.035  -0.389  1.00  0.00     0.278 C 
ENDBRANCH  11  16
ENDBRANCH   6  10
BRANCH   8  18
ATOM     18  C   UNL     1       4.939  -1.395  -1.595  1.00  0.00     0.257 C 
ATOM     19  O   UNL     1       5.242  -2.525  -1.207  1.00  0.00    -0.269 OA
BRANCH  18  20
ATOM     20  C   UNL     1       5.368  -0.917  -2.889  1.00  0.00     0.085 A 
ATOM     21  C   UNL     1       5.285  -1.622  -4.105  1.00  0.00     0.150 A 
ATOM     22  C   UNL     1       5.992   0.269  -3.232  1.00  0.00     0.079 A 
ATOM     23  N   UNL     1       5.724  -0.922  -5.151  1.00  0.00    -0.176 NA
ATOM     24  N   UNL     1       6.142   0.256  -4.623  1.00  0.00    -0.240 N 
ATOM     25  C   UNL     1       6.451   1.425  -2.527  1.00  0.00     0.029 A 
ATOM     26  C   UNL     1       6.652   1.352  -5.321  1.00  0.00     0.113 A 
ATOM     27  C   UNL     1       6.923   2.482  -3.214  1.00  0.00     0.004 A 
ATOM     28  C   UNL     1       7.029   2.460  -4.662  1.00  0.00     0.020 A 
ENDBRANCH  18  20
ENDBRANCH   8  18
ENDBRANCH   3   5
ENDBRANCH   2   3
ENDBRANCH   1   2
BRANCH   1  29
ATOM     29  C   UNL     1       4.683   2.334   4.679  1.00  0.00     0.275 C 
BRANCH  29  30
ATOM     30  O   UNL     1       3.266   2.307   4.862  1.00  0.00    -0.458 OA
BRANCH  30  31
ATOM     31  C   UNL     1       2.611   2.765   3.774  1.00  0.00     0.338 C 
ATOM     32  O   UNL     1       3.116   3.103   2.718  1.00  0.00    -0.246 OA
BRANCH  31  33
ATOM     33  C   UNL     1       1.200   3.011   4.054  1.00  0.00     0.060 A 
ATOM     34  C   UNL     1       0.381   3.154   2.929  1.00  0.00     0.016 A 
ATOM     35  C   UNL     1       0.959   3.683   5.250  1.00  0.00     0.016 A 
ATOM     36  C   UNL     1      -0.487   4.218   2.887  1.00  0.00     0.010 A 
ATOM     37  C   UNL     1       0.108   4.754   5.203  1.00  0.00     0.010 A 
ATOM     38  C   UNL     1      -0.518   5.065   3.991  1.00  0.00    -0.014 A 
BRANCH  38  39
ATOM     39  C   UNL     1      -1.288   6.287   3.910  1.00  0.00     0.031 A 
ATOM     40  C   UNL     1      -2.743   6.049   4.082  1.00  0.00     0.074 A 
ATOM     41  C   UNL     1      -0.643   7.472   3.898  1.00  0.00     0.049 A 
ATOM     42  N   UNL     1      -3.728   6.426   3.334  1.00  0.00    -0.248 NA
ATOM     43  C   UNL     1      -3.138   5.123   5.163  1.00  0.00     0.031 C 
ATOM     44  C   UNL     1       0.805   7.704   4.002  1.00  0.00     0.029 A 
ATOM     45  N   UNL     1      -1.148   8.732   3.936  1.00  0.00    -0.354 N 
ATOM     46  C   UNL     1      -4.872   5.929   3.959  1.00  0.00     0.074 A 
ATOM     47  C   UNL     1      -4.438   4.974   4.935  1.00  0.00     0.031 C 
ATOM     48  C   UNL     1       1.031   8.994   4.337  1.00  0.00     0.029 A 
ATOM     49  C   UNL     1      -0.239   9.697   4.352  1.00  0.00     0.049 A 
ATOM     50  H   UNL     1      -2.078   8.944   3.690  1.00  0.00     0.167 HD
ATOM     51  C   UNL     1      -6.075   6.547   3.833  1.00  0.00     0.037 A 
ATOM     52  C   UNL     1      -0.548  10.947   4.775  1.00  0.00     0.037 A 
ATOM     53  C   UNL     1      -6.100   7.392   2.673  1.00  0.00     0.049 A 
ATOM     54  C   UNL     1      -1.948  11.215   4.360  1.00  0.00     0.074 A 
ATOM     55  C   UNL     1      -6.088   7.180   1.312  1.00  0.00     0.029 A 
ATOM     56  N   UNL     1      -5.774   8.709   2.869  1.00  0.00    -0.354 N 
ATOM     57  N   UNL     1      -2.327  11.344   3.119  1.00  0.00    -0.248 NA
ATOM     58  C   UNL     1      -3.010  10.912   5.308  1.00  0.00     0.031 C 
ATOM     59  C   UNL     1      -5.382   8.289   0.762  1.00  0.00     0.029 A 
ATOM     60  C   UNL     1      -5.030   9.146   1.807  1.00  0.00     0.049 A 
ATOM     61  H   UNL     1      -6.033   9.253   3.648  1.00  0.00     0.167 HD
ATOM     62  C   UNL     1      -3.581  10.751   3.066  1.00  0.00     0.074 A 
ATOM     63  C   UNL     1      -3.996  10.612   4.457  1.00  0.00     0.031 C 
ATOM     64  C   UNL     1      -4.022  10.177   1.910  1.00  0.00     0.037 A 
BRANCH  51  65
ATOM     65  C   UNL     1      -7.058   6.701   4.973  1.00  0.00     0.064 A 
ATOM     66  C   UNL     1      -8.318   7.272   4.710  1.00  0.00     0.173 A 
ATOM     67  C   UNL     1      -6.721   6.590   6.342  1.00  0.00     0.173 A 
ATOM     68  F   UNL     1      -8.739   7.446   3.448  1.00  0.00    -0.203 F 
ATOM     69  C   UNL     1      -9.137   7.759   5.732  1.00  0.00     0.198 A 
ATOM     70  C   UNL     1      -7.566   7.024   7.361  1.00  0.00     0.198 A 
ATOM     71  F   UNL     1      -5.522   6.167   6.758  1.00  0.00    -0.203 F 
ATOM     72  F   UNL     1     -10.269   8.407   5.425  1.00  0.00    -0.200 F 
ATOM     73  C   UNL     1      -8.758   7.639   7.057  1.00  0.00     0.200 A 
ATOM     74  F   UNL     1      -7.168   6.912   8.637  1.00  0.00    -0.200 F 
ATOM     75  F   UNL     1      -9.513   8.158   8.034  1.00  0.00    -0.200 F 
ENDBRANCH  51  65
BRANCH  52  76
ATOM     76  C   UNL     1       0.139  11.768   5.800  1.00  0.00     0.064 A 
ATOM     77  C   UNL     1      -0.022  13.162   5.844  1.00  0.00     0.173 A 
ATOM     78  C   UNL     1       0.751  11.172   6.919  1.00  0.00     0.173 A 
ATOM     79  F   UNL     1      -0.640  13.800   4.839  1.00  0.00    -0.203 F 
ATOM     80  C   UNL     1       0.392  13.914   6.950  1.00  0.00     0.198 A 
ATOM     81  C   UNL     1       1.168  11.922   8.020  1.00  0.00     0.198 A 
ATOM     82  F   UNL     1       0.869   9.839   7.006  1.00  0.00    -0.203 F 
ATOM     83  F   UNL     1       0.173  15.236   6.981  1.00  0.00    -0.200 F 
ATOM     84  C   UNL     1       0.979  13.291   8.040  1.00  0.00     0.200 A 
ATOM     85  F   UNL     1       1.697  11.303   9.084  1.00  0.00    -0.200 F 
ATOM     86  F   UNL     1       1.322  14.002   9.124  1.00  0.00    -0.200 F 
ENDBRANCH  52  76
BRANCH  64  87
ATOM     87  C   UNL     1      -3.245  10.482   0.660  1.00  0.00     0.064 A 
ATOM     88  C   UNL     1      -1.942  10.016   0.416  1.00  0.00     0.173 A 
ATOM     89  C   UNL     1      -3.901  11.147  -0.382  1.00  0.00     0.173 A 
ATOM     90  F   UNL     1      -1.288   9.291   1.331  1.00  0.00    -0.203 F 
ATOM     91  C   UNL     1      -1.313  10.238  -0.807  1.00  0.00     0.198 A 
ATOM     92  C   UNL     1      -3.285  11.335  -1.615  1.00  0.00     0.198 A 
ATOM     93  F   UNL     1      -5.166  11.563  -0.220  1.00  0.00    -0.203 F 
ATOM     94  F   UNL     1      -0.066   9.787  -1.015  1.00  0.00    -0.200 F 
ATOM     95  C   UNL     1      -1.989  10.889  -1.825  1.00  0.00     0.200 A 
ATOM     96  F   UNL     1      -3.961  11.919  -2.614  1.00  0.00    -0.200 F 
ATOM     97  F   UNL     1      -1.405  11.060  -3.019  1.00  0.00    -0.200 F 
ENDBRANCH  64  87
ENDBRANCH  38  39
ENDBRANCH  31  33
ENDBRANCH  30  31
ENDBRANCH  29  30
ENDBRANCH   1  29
TORSDOF 15
