REMARK SMILES O=C(OCCOC(=O)[C@@H]1C[N@@H+](CC(=O)c2ccc[nH]2)CC[NH2+]1)c1ccc(-c2c3nc(c(-c4c(F)c(F)c(F)c(F)c4F)c4ccc([nH]4)c(-c4c(F)c(F)c(F)c(F)c4F)c4nc(c(-c5c(F)c(F)c(F)c(F)c5F)c5ccc2[nH]5)C=C4)C=C3)cc1
REMARK SMILES IDX 5 1 4 2 3 3 2 4 1 5 23 6 24 7 85 8 25 9 84 10 26 11 27 12
REMARK SMILES IDX 28 13 78 14 29 15 83 16 77 17 79 18 30 19 82 20 76 21 75 22
REMARK SMILES IDX 31 24 63 25 43 26 62 27 44 28 47 29 61 30 80 31 45 32 46 33
REMARK SMILES IDX 60 35 81 36 48 37 32 38 33 39 41 40 34 41 35 42 39 43 42 44
REMARK SMILES IDX 36 45 37 46 40 47 38 48 64 49 65 50 73 51 66 52 67 53 71 54
REMARK SMILES IDX 74 55 68 56 69 57 72 58 70 59 49 60 50 61 58 62 51 63 52 64
REMARK SMILES IDX 56 65 59 66 53 67 54 68 57 69 55 70 6 71 7 72 8 73 9 74
REMARK SMILES IDX 10 75 22 76 11 77 21 78 20 81 12 83 13 84 14 85 15 86 16 87
REMARK SMILES IDX 19 88 17 89 18 90
REMARK H PARENT 79 23 47 34 22 79 22 80 11 82 19 91
REMARK Flexibility Score: inf
ROOT
ATOM      1  C   UNL     1       4.173   1.146   0.660  1.00  0.00     0.274 C 
ENDROOT
BRANCH   1   2
ATOM      2  C   UNL     1       4.468   1.302  -0.829  1.00  0.00     0.275 C 
BRANCH   2   3
ATOM      3  O   UNL     1       3.369   1.178  -1.752  1.00  0.00    -0.458 OA
BRANCH   3   4
ATOM      4  C   UNL     1       2.316   0.343  -1.549  1.00  0.00     0.338 C 
ATOM      5  O   UNL     1       1.190   0.738  -1.416  1.00  0.00    -0.246 OA
BRANCH   4   6
ATOM      6  C   UNL     1       2.593  -1.106  -1.805  1.00  0.00     0.060 A 
ATOM      7  C   UNL     1       3.877  -1.639  -1.935  1.00  0.00     0.016 A 
ATOM      8  C   UNL     1       1.476  -1.941  -1.990  1.00  0.00     0.016 A 
ATOM      9  C   UNL     1       4.054  -2.957  -2.315  1.00  0.00     0.010 A 
ATOM     10  C   UNL     1       1.645  -3.260  -2.398  1.00  0.00     0.010 A 
ATOM     11  C   UNL     1       2.939  -3.745  -2.593  1.00  0.00    -0.014 A 
BRANCH  11  12
ATOM     12  C   UNL     1       3.201  -5.096  -3.113  1.00  0.00     0.031 A 
ATOM     13  C   UNL     1       3.486  -6.092  -1.983  1.00  0.00     0.074 A 
ATOM     14  C   UNL     1       3.250  -5.177  -4.480  1.00  0.00     0.049 A 
ATOM     15  N   UNL     1       4.266  -7.129  -1.959  1.00  0.00    -0.248 NA
ATOM     16  C   UNL     1       2.878  -5.855  -0.647  1.00  0.00     0.031 C 
ATOM     17  C   UNL     1       2.934  -4.055  -5.396  1.00  0.00     0.029 A 
ATOM     18  N   UNL     1       3.585  -6.167  -5.381  1.00  0.00    -0.354 N 
ATOM     19  C   UNL     1       4.067  -7.783  -0.719  1.00  0.00     0.074 A 
ATOM     20  C   UNL     1       3.323  -6.872   0.095  1.00  0.00     0.031 C 
ATOM     21  C   UNL     1       3.167  -4.393  -6.681  1.00  0.00     0.029 A 
ATOM     22  C   UNL     1       3.641  -5.758  -6.745  1.00  0.00     0.049 A 
ATOM     23  H   UNL     1       3.773  -7.091  -5.101  1.00  0.00     0.167 HD
ATOM     24  C   UNL     1       4.380  -9.100  -0.520  1.00  0.00     0.037 A 
ATOM     25  C   UNL     1       4.085  -6.458  -7.838  1.00  0.00     0.037 A 
ATOM     26  C   UNL     1       4.971  -9.630  -1.704  1.00  0.00     0.049 A 
ATOM     27  C   UNL     1       4.345  -7.811  -7.330  1.00  0.00     0.074 A 
ATOM     28  C   UNL     1       6.190  -9.436  -2.295  1.00  0.00     0.029 A 
ATOM     29  N   UNL     1       4.114 -10.200  -2.614  1.00  0.00    -0.354 N 
ATOM     30  N   UNL     1       3.421  -8.654  -6.981  1.00  0.00    -0.248 NA
ATOM     31  C   UNL     1       5.733  -8.222  -7.089  1.00  0.00     0.031 C 
ATOM     32  C   UNL     1       5.883  -9.437  -3.671  1.00  0.00     0.029 A 
ATOM     33  C   UNL     1       4.561  -9.859  -3.863  1.00  0.00     0.049 A 
ATOM     34  H   UNL     1       3.324 -10.751  -2.406  1.00  0.00     0.167 HD
ATOM     35  C   UNL     1       4.111  -9.523  -6.173  1.00  0.00     0.074 A 
ATOM     36  C   UNL     1       5.507  -9.410  -6.535  1.00  0.00     0.031 C 
ATOM     37  C   UNL     1       3.608  -9.825  -4.948  1.00  0.00     0.037 A 
BRANCH  24  38
ATOM     38  C   UNL     1       3.973 -10.106   0.529  1.00  0.00     0.064 A 
ATOM     39  C   UNL     1       4.661 -11.349   0.558  1.00  0.00     0.173 A 
ATOM     40  C   UNL     1       2.754 -10.067   1.216  1.00  0.00     0.173 A 
ATOM     41  F   UNL     1       5.870 -11.480  -0.012  1.00  0.00    -0.203 F 
ATOM     42  C   UNL     1       4.086 -12.505   1.081  1.00  0.00     0.198 A 
ATOM     43  C   UNL     1       2.205 -11.220   1.790  1.00  0.00     0.198 A 
ATOM     44  F   UNL     1       2.017  -8.952   1.266  1.00  0.00    -0.203 F 
ATOM     45  F   UNL     1       4.705 -13.685   0.934  1.00  0.00    -0.200 F 
ATOM     46  C   UNL     1       2.844 -12.443   1.678  1.00  0.00     0.200 A 
ATOM     47  F   UNL     1       1.006 -11.153   2.385  1.00  0.00    -0.200 F 
ATOM     48  F   UNL     1       2.249 -13.562   2.112  1.00  0.00    -0.200 F 
ENDBRANCH  24  38
BRANCH  25  49
ATOM     49  C   UNL     1       4.441  -6.207  -9.291  1.00  0.00     0.064 A 
ATOM     50  C   UNL     1       4.266  -5.011  -9.997  1.00  0.00     0.173 A 
ATOM     51  C   UNL     1       5.119  -7.220 -10.036  1.00  0.00     0.173 A 
ATOM     52  F   UNL     1       3.541  -4.008  -9.493  1.00  0.00    -0.203 F 
ATOM     53  C   UNL     1       4.831  -4.803 -11.271  1.00  0.00     0.198 A 
ATOM     54  C   UNL     1       5.726  -6.998 -11.271  1.00  0.00     0.198 A 
ATOM     55  F   UNL     1       5.229  -8.475  -9.580  1.00  0.00    -0.203 F 
ATOM     56  F   UNL     1       4.646  -3.632 -11.897  1.00  0.00    -0.200 F 
ATOM     57  C   UNL     1       5.599  -5.778 -11.885  1.00  0.00     0.200 A 
ATOM     58  F   UNL     1       6.453  -7.972 -11.838  1.00  0.00    -0.200 F 
ATOM     59  F   UNL     1       6.200  -5.547 -13.059  1.00  0.00    -0.200 F 
ENDBRANCH  25  49
BRANCH  37  60
ATOM     60  C   UNL     1       2.098  -9.647  -4.838  1.00  0.00     0.064 A 
ATOM     61  C   UNL     1       1.241 -10.323  -5.723  1.00  0.00     0.173 A 
ATOM     62  C   UNL     1       1.472  -8.730  -3.978  1.00  0.00     0.173 A 
ATOM     63  F   UNL     1       1.737 -11.253  -6.553  1.00  0.00    -0.203 F 
ATOM     64  C   UNL     1      -0.133 -10.056  -5.775  1.00  0.00     0.198 A 
ATOM     65  C   UNL     1       0.102  -8.457  -4.025  1.00  0.00     0.198 A 
ATOM     66  F   UNL     1       2.171  -8.086  -3.051  1.00  0.00    -0.203 F 
ATOM     67  F   UNL     1      -0.908 -10.719  -6.643  1.00  0.00    -0.200 F 
ATOM     68  C   UNL     1      -0.700  -9.115  -4.933  1.00  0.00     0.200 A 
ATOM     69  F   UNL     1      -0.432  -7.561  -3.180  1.00  0.00    -0.200 F 
ATOM     70  F   UNL     1      -2.016  -8.862  -4.979  1.00  0.00    -0.200 F 
ENDBRANCH  37  60
ENDBRANCH  11  12
ENDBRANCH   4   6
ENDBRANCH   3   4
ENDBRANCH   2   3
ENDBRANCH   1   2
BRANCH   1  71
ATOM     71  O   UNL     1       3.618  -0.137   0.998  1.00  0.00    -0.457 OA
BRANCH  71  72
ATOM     72  C   UNL     1       2.360  -0.111   1.540  1.00  0.00     0.371 C 
ATOM     73  O   UNL     1       1.664   0.895   1.595  1.00  0.00    -0.245 OA
BRANCH  72  74
ATOM     74  C   UNL     1       1.983  -1.441   2.196  1.00  0.00     0.348 C 
ATOM     75  C   UNL     1       2.990  -2.592   1.974  1.00  0.00     0.341 C 
ATOM     76  N   UNL     1       0.607  -1.895   1.873  1.00  0.00    -0.325 N 
ATOM     77  N   UNL     1       2.744  -3.775   2.816  1.00  0.00    -0.318 N 
ATOM     78  C   UNL     1       0.277  -3.009   2.785  1.00  0.00     0.323 C 
ATOM     79  H   UNL     1       0.565  -2.214   0.905  1.00  0.00     0.347 HD
ATOM     80  H   UNL     1      -0.058  -1.130   1.987  1.00  0.00     0.347 HD
ATOM     81  C   UNL     1       1.320  -4.159   2.809  1.00  0.00     0.324 C 
ATOM     82  H   UNL     1       3.238  -4.550   2.375  1.00  0.00     0.348 HD
BRANCH  77  83
ATOM     83  C   UNL     1       3.391  -3.737   4.150  1.00  0.00     0.346 C 
BRANCH  83  84
ATOM     84  C   UNL     1       2.895  -2.674   5.137  1.00  0.00     0.232 C 
ATOM     85  O   UNL     1       1.962  -2.928   5.902  1.00  0.00    -0.286 OA
BRANCH  84  86
ATOM     86  C   UNL     1       3.493  -1.341   5.110  1.00  0.00     0.088 A 
ATOM     87  C   UNL     1       4.550  -0.803   4.390  1.00  0.00     0.031 A 
ATOM     88  N   UNL     1       2.942  -0.294   5.824  1.00  0.00    -0.359 N 
ATOM     89  C   UNL     1       4.509   0.606   4.540  1.00  0.00     0.020 A 
ATOM     90  C   UNL     1       3.501   0.891   5.428  1.00  0.00     0.083 A 
ATOM     91  H   UNL     1       2.248  -0.387   6.517  1.00  0.00     0.166 HD
ENDBRANCH  84  86
ENDBRANCH  83  84
ENDBRANCH  77  83
ENDBRANCH  72  74
ENDBRANCH  71  72
ENDBRANCH   1  71
TORSDOF 14
