REMARK SMILES CC1(C)CCCN(c2cncc(C(=O)OCCOC(=O)c3ccc(-c4c5nc(c(-c6c(F)c(F)c(F)c(F)c6F)c6ccc([nH]6)c(-c6c(F)c(F)c(F)c(F)c6F)c6nc(c(-c7c(F)c(F)c(F)c(F)c7F)c7ccc4[nH]7)C=C6)C=C5)cc3)n2)CC1
REMARK SMILES IDX 15 1 13 2 14 3 12 4 8 5 9 6 84 7 10 8 11 9 7 10 85 11 86 12
REMARK SMILES IDX 2 13 1 14 3 15 4 16 6 18 5 19 16 21 17 22 18 23 19 24 20 25
REMARK SMILES IDX 21 26 22 27 83 28 23 29 82 30 24 31 25 32 26 33 76 34 27 35
REMARK SMILES IDX 81 36 75 37 77 38 28 39 80 40 74 41 73 42 29 44 61 45 41 46
REMARK SMILES IDX 60 47 42 48 45 49 59 50 78 51 43 52 44 53 58 55 79 56 46 57
REMARK SMILES IDX 30 58 31 59 39 60 32 61 33 62 37 63 40 64 34 65 35 66 38 67
REMARK SMILES IDX 36 68 62 69 63 70 71 71 64 72 65 73 69 74 72 75 66 76 67 77
REMARK SMILES IDX 70 78 68 79 47 80 48 81 56 82 49 83 50 84 54 85 57 86 51 87
REMARK SMILES IDX 52 88 55 89 53 90
REMARK H PARENT 77 43 45 54
REMARK Flexibility Score: 80.00
ROOT
ATOM      1  O   UNL     1       3.815  -8.177  -0.863  1.00  0.00    -0.457 OA
ENDROOT
BRANCH   1   2
ATOM      2  C   UNL     1       2.660  -8.699  -1.355  1.00  0.00     0.358 C 
ATOM      3  O   UNL     1       2.533  -9.772  -1.919  1.00  0.00    -0.244 OA
BRANCH   2   4
ATOM      4  C   UNL     1       1.506  -7.841  -0.998  1.00  0.00     0.169 A 
ATOM      5  C   UNL     1       0.569  -5.768  -0.664  1.00  0.00     0.148 A 
ATOM      6  C   UNL     1      -0.602  -6.410  -0.237  1.00  0.00     0.157 A 
ATOM      7  N   UNL     1       1.652  -6.493  -1.028  1.00  0.00    -0.221 NA
ATOM      8  N   UNL     1      -0.768  -7.754  -0.225  1.00  0.00    -0.258 NA
ATOM      9  C   UNL     1       0.310  -8.450  -0.647  1.00  0.00     0.147 A 
BRANCH   5  10
ATOM     10  N   UNL     1       0.616  -4.385  -0.783  1.00  0.00    -0.355 N 
BRANCH  10  11
ATOM     11  C   UNL     1       0.424  -3.626   0.443  1.00  0.00     0.118 C 
BRANCH  11  12
ATOM     12  C   UNL     1       1.054  -2.233   0.450  1.00  0.00     0.028 C 
BRANCH  12  13
ATOM     13  C   UNL     1       0.428  -1.163  -0.479  1.00  0.00    -0.034 C 
ATOM     14  C   UNL     1       1.002   0.210  -0.055  1.00  0.00     0.011 C 
ATOM     15  C   UNL     1      -1.102  -1.097  -0.317  1.00  0.00     0.011 C 
BRANCH  13  16
ATOM     16  C   UNL     1       0.811  -1.370  -1.962  1.00  0.00     0.008 CG0
ATOM     17  G   UNL     1       0.487  -2.728  -2.574  1.00  0.00     0.000 G0
ENDBRANCH  13  16
ENDBRANCH  12  13
ENDBRANCH  11  12
ENDBRANCH  10  11
BRANCH  10  18
ATOM     18  C   UNL     1       1.293  -3.870  -1.960  1.00  0.00     0.118 C 
BRANCH  18  19
ATOM     19  C   UNL     1       0.487  -2.728  -2.574  1.00  0.00     0.022 CG0
ATOM     20  G   UNL     1       0.811  -1.370  -1.962  1.00  0.00     0.000 G0
ENDBRANCH  18  19
ENDBRANCH  10  18
ENDBRANCH   5  10
ENDBRANCH   2   4
ENDBRANCH   1   2
BRANCH   1  21
ATOM     21  C   UNL     1       5.002  -8.979  -1.031  1.00  0.00     0.275 C 
BRANCH  21  22
ATOM     22  C   UNL     1       5.337  -9.738   0.253  1.00  0.00     0.275 C 
BRANCH  22  23
ATOM     23  O   UNL     1       4.310 -10.711   0.518  1.00  0.00    -0.458 OA
BRANCH  23  24
ATOM     24  C   UNL     1       3.766 -10.679   1.755  1.00  0.00     0.338 C 
ATOM     25  O   UNL     1       4.084  -9.967   2.693  1.00  0.00    -0.246 OA
BRANCH  24  26
ATOM     26  C   UNL     1       2.648 -11.636   1.829  1.00  0.00     0.060 A 
ATOM     27  C   UNL     1       1.587 -11.514   0.938  1.00  0.00     0.016 A 
ATOM     28  C   UNL     1       2.577 -12.557   2.871  1.00  0.00     0.016 A 
ATOM     29  C   UNL     1       0.405 -12.220   1.147  1.00  0.00     0.010 A 
ATOM     30  C   UNL     1       1.432 -13.352   3.012  1.00  0.00     0.010 A 
ATOM     31  C   UNL     1       0.311 -13.160   2.182  1.00  0.00    -0.014 A 
BRANCH  31  32
ATOM     32  C   UNL     1      -0.967 -13.889   2.433  1.00  0.00     0.031 A 
ATOM     33  C   UNL     1      -1.630 -13.808   3.785  1.00  0.00     0.074 A 
ATOM     34  C   UNL     1      -1.562 -14.606   1.458  1.00  0.00     0.049 A 
ATOM     35  N   UNL     1      -2.617 -14.518   4.272  1.00  0.00    -0.248 NA
ATOM     36  C   UNL     1      -1.100 -12.804   4.721  1.00  0.00     0.031 C 
ATOM     37  C   UNL     1      -1.076 -14.740   0.085  1.00  0.00     0.029 A 
ATOM     38  N   UNL     1      -2.716 -15.353   1.472  1.00  0.00    -0.354 N 
ATOM     39  C   UNL     1      -2.775 -14.100   5.588  1.00  0.00     0.074 A 
ATOM     40  C   UNL     1      -1.786 -13.069   5.824  1.00  0.00     0.031 C 
ATOM     41  C   UNL     1      -1.946 -15.475  -0.623  1.00  0.00     0.029 A 
ATOM     42  C   UNL     1      -3.001 -15.949   0.267  1.00  0.00     0.049 A 
ATOM     43  H   UNL     1      -3.285 -15.451   2.269  1.00  0.00     0.167 HD
ATOM     44  C   UNL     1      -3.660 -14.539   6.515  1.00  0.00     0.037 A 
ATOM     45  C   UNL     1      -3.972 -16.816  -0.078  1.00  0.00     0.037 A 
ATOM     46  C   UNL     1      -4.694 -15.508   6.259  1.00  0.00     0.049 A 
ATOM     47  C   UNL     1      -4.946 -17.287   0.964  1.00  0.00     0.074 A 
ATOM     48  C   UNL     1      -5.641 -16.014   7.133  1.00  0.00     0.029 A 
ATOM     49  N   UNL     1      -4.934 -16.096   5.026  1.00  0.00    -0.354 N 
ATOM     50  N   UNL     1      -5.026 -16.956   2.229  1.00  0.00    -0.248 NA
ATOM     51  C   UNL     1      -5.949 -18.272   0.536  1.00  0.00     0.031 C 
ATOM     52  C   UNL     1      -6.441 -16.926   6.434  1.00  0.00     0.029 A 
ATOM     53  C   UNL     1      -6.014 -16.960   5.117  1.00  0.00     0.049 A 
ATOM     54  H   UNL     1      -4.414 -15.926   4.208  1.00  0.00     0.167 HD
ATOM     55  C   UNL     1      -6.084 -17.687   2.748  1.00  0.00     0.074 A 
ATOM     56  C   UNL     1      -6.635 -18.461   1.655  1.00  0.00     0.031 C 
ATOM     57  C   UNL     1      -6.551 -17.721   4.020  1.00  0.00     0.037 A 
BRANCH  44  58
ATOM     58  C   UNL     1      -3.529 -14.001   7.911  1.00  0.00     0.064 A 
ATOM     59  C   UNL     1      -3.909 -12.694   8.245  1.00  0.00     0.173 A 
ATOM     60  C   UNL     1      -3.045 -14.827   8.938  1.00  0.00     0.173 A 
ATOM     61  F   UNL     1      -4.364 -11.861   7.297  1.00  0.00    -0.203 F 
ATOM     62  C   UNL     1      -3.785 -12.225   9.551  1.00  0.00     0.198 A 
ATOM     63  C   UNL     1      -2.948 -14.364  10.247  1.00  0.00     0.198 A 
ATOM     64  F   UNL     1      -2.674 -16.089   8.673  1.00  0.00    -0.203 F 
ATOM     65  F   UNL     1      -4.112 -10.957   9.839  1.00  0.00    -0.200 F 
ATOM     66  C   UNL     1      -3.312 -13.061  10.551  1.00  0.00     0.200 A 
ATOM     67  F   UNL     1      -2.502 -15.178  11.214  1.00  0.00    -0.200 F 
ATOM     68  F   UNL     1      -3.200 -12.609  11.808  1.00  0.00    -0.200 F 
ENDBRANCH  44  58
BRANCH  45  69
ATOM     69  C   UNL     1      -4.038 -17.328  -1.472  1.00  0.00     0.064 A 
ATOM     70  C   UNL     1      -5.081 -16.954  -2.330  1.00  0.00     0.173 A 
ATOM     71  C   UNL     1      -3.050 -18.186  -1.979  1.00  0.00     0.173 A 
ATOM     72  F   UNL     1      -6.064 -16.160  -1.882  1.00  0.00    -0.203 F 
ATOM     73  C   UNL     1      -5.134 -17.420  -3.642  1.00  0.00     0.198 A 
ATOM     74  C   UNL     1      -3.088 -18.626  -3.299  1.00  0.00     0.198 A 
ATOM     75  F   UNL     1      -2.033 -18.576  -1.196  1.00  0.00    -0.203 F 
ATOM     76  F   UNL     1      -6.159 -17.075  -4.432  1.00  0.00    -0.200 F 
ATOM     77  C   UNL     1      -4.132 -18.247  -4.129  1.00  0.00     0.200 A 
ATOM     78  F   UNL     1      -2.110 -19.413  -3.769  1.00  0.00    -0.200 F 
ATOM     79  F   UNL     1      -4.176 -18.683  -5.395  1.00  0.00    -0.200 F 
ENDBRANCH  45  69
BRANCH  57  80
ATOM     80  C   UNL     1      -7.728 -18.609   4.291  1.00  0.00     0.064 A 
ATOM     81  C   UNL     1      -7.591 -20.003   4.365  1.00  0.00     0.173 A 
ATOM     82  C   UNL     1      -8.999 -18.058   4.506  1.00  0.00     0.173 A 
ATOM     83  F   UNL     1      -6.397 -20.576   4.150  1.00  0.00    -0.203 F 
ATOM     84  C   UNL     1      -8.691 -20.815   4.625  1.00  0.00     0.198 A 
ATOM     85  C   UNL     1     -10.093 -18.872   4.788  1.00  0.00     0.198 A 
ATOM     86  F   UNL     1      -9.179 -16.730   4.449  1.00  0.00    -0.203 F 
ATOM     87  F   UNL     1      -8.546 -22.147   4.652  1.00  0.00    -0.200 F 
ATOM     88  C   UNL     1      -9.939 -20.249   4.841  1.00  0.00     0.200 A 
ATOM     89  F   UNL     1     -11.296 -18.324   5.004  1.00  0.00    -0.200 F 
ATOM     90  F   UNL     1     -10.997 -21.033   5.092  1.00  0.00    -0.200 F 
ENDBRANCH  57  80
ENDBRANCH  31  32
ENDBRANCH  24  26
ENDBRANCH  23  24
ENDBRANCH  22  23
ENDBRANCH  21  22
ENDBRANCH   1  21
TORSDOF 12
