REMARK SMILES Cc1cccc(CN(C)c2ccc(C(=O)OCCOC(=O)c3ccc(-c4c5nc(c(-c6c(F)c(F)c(F)c(F)c6F)c6ccc([nH]6)c(-c6c(F)c(F)c(F)c(F)c6F)c6nc(c(-c7c(F)c(F)c(F)c(F)c7F)c7ccc4[nH]7)C=C6)C=C5)cc3)cc2N)n1
REMARK SMILES IDX 17 1 16 2 14 3 15 4 13 5 10 6 11 7 86 8 12 9 85 10 8 11 9 12
REMARK SMILES IDX 7 13 6 14 1 15 2 16 3 17 88 18 4 19 5 20 87 21 18 24 19 25
REMARK SMILES IDX 20 26 21 27 22 28 23 29 84 30 24 31 83 32 25 33 26 34 27 35
REMARK SMILES IDX 77 36 28 37 82 38 76 39 78 40 29 41 81 42 75 43 74 44 30 46
REMARK SMILES IDX 62 47 42 48 61 49 43 50 46 51 60 52 79 53 44 54 45 55 59 57
REMARK SMILES IDX 80 58 47 59 31 60 32 61 40 62 33 63 34 64 38 65 41 66 35 67
REMARK SMILES IDX 36 68 39 69 37 70 63 71 64 72 72 73 65 74 66 75 70 76 73 77
REMARK SMILES IDX 67 78 68 79 71 80 69 81 48 82 49 83 57 84 50 85 51 86 55 87
REMARK SMILES IDX 58 88 52 89 53 90 56 91 54 92
REMARK H PARENT 87 22 87 23 78 45 46 56
REMARK Flexibility Score: inf
ROOT
ATOM      1  C   UNL     1       1.176  -1.255   7.001  1.00  0.00     0.275 C 
ENDROOT
BRANCH   1   2
ATOM      2  O   UNL     1       0.796  -0.550   5.800  1.00  0.00    -0.458 OA
BRANCH   2   3
ATOM      3  C   UNL     1      -0.134   0.424   5.952  1.00  0.00     0.338 C 
ATOM      4  O   UNL     1      -0.666   0.765   7.000  1.00  0.00    -0.246 OA
BRANCH   3   5
ATOM      5  C   UNL     1      -0.414   1.093   4.664  1.00  0.00     0.062 A 
ATOM      6  C   UNL     1      -1.190   2.368   2.207  1.00  0.00     0.060 A 
ATOM      7  C   UNL     1      -0.901   3.091   3.376  1.00  0.00     0.029 A 
ATOM      8  C   UNL     1      -1.265   0.961   2.412  1.00  0.00     0.056 A 
ATOM      9  C   UNL     1      -0.597   2.469   4.592  1.00  0.00     0.018 A 
ATOM     10  C   UNL     1      -0.723   0.336   3.553  1.00  0.00     0.043 A 
BRANCH   6  11
ATOM     11  N   UNL     1      -1.347   3.026   0.982  1.00  0.00    -0.367 N 
ATOM     12  C   UNL     1      -1.324   4.494   0.918  1.00  0.00     0.144 C 
BRANCH  11  13
ATOM     13  C   UNL     1      -1.606   2.396  -0.337  1.00  0.00     0.172 C 
BRANCH  13  14
ATOM     14  C   UNL     1      -0.824   1.143  -0.704  1.00  0.00     0.060 A 
ATOM     15  C   UNL     1       2.574  -0.141  -0.176  1.00  0.00     0.067 C 
ATOM     16  C   UNL     1       1.120  -0.110  -0.532  1.00  0.00     0.038 A 
ATOM     17  C   UNL     1       0.450  -1.273  -0.901  1.00  0.00     0.023 A 
ATOM     18  N   UNL     1       0.508   1.095  -0.455  1.00  0.00    -0.256 NA
ATOM     19  C   UNL     1      -0.889  -1.191  -1.260  1.00  0.00     0.004 A 
ATOM     20  C   UNL     1      -1.528   0.039  -1.199  1.00  0.00     0.026 A 
ENDBRANCH  13  14
ENDBRANCH  11  13
ENDBRANCH   6  11
BRANCH   8  21
ATOM     21  N   UNL     1      -2.107   0.134   1.666  1.00  0.00    -0.397 N 
ATOM     22  H   UNL     1      -2.536   0.476   0.849  1.00  0.00     0.156 HD
ATOM     23  H   UNL     1      -2.272  -0.792   1.957  1.00  0.00     0.156 HD
ENDBRANCH   8  21
ENDBRANCH   3   5
ENDBRANCH   2   3
ENDBRANCH   1   2
BRANCH   1  24
ATOM     24  C   UNL     1       2.529  -0.775   7.530  1.00  0.00     0.275 C 
BRANCH  24  25
ATOM     25  O   UNL     1       2.439   0.587   7.989  1.00  0.00    -0.458 OA
BRANCH  25  26
ATOM     26  C   UNL     1       3.021   1.502   7.181  1.00  0.00     0.338 C 
ATOM     27  O   UNL     1       3.658   1.301   6.162  1.00  0.00    -0.246 OA
BRANCH  26  28
ATOM     28  C   UNL     1       2.686   2.861   7.631  1.00  0.00     0.060 A 
ATOM     29  C   UNL     1       1.432   3.346   7.299  1.00  0.00     0.016 A 
ATOM     30  C   UNL     1       3.638   3.723   8.160  1.00  0.00     0.016 A 
ATOM     31  C   UNL     1       1.161   4.707   7.330  1.00  0.00     0.010 A 
ATOM     32  C   UNL     1       3.309   5.076   8.343  1.00  0.00     0.010 A 
ATOM     33  C   UNL     1       2.084   5.598   7.881  1.00  0.00    -0.014 A 
BRANCH  33  34
ATOM     34  C   UNL     1       1.772   7.059   7.928  1.00  0.00     0.031 A 
ATOM     35  C   UNL     1       2.736   8.059   7.341  1.00  0.00     0.074 A 
ATOM     36  C   UNL     1       0.614   7.501   8.465  1.00  0.00     0.049 A 
ATOM     37  N   UNL     1       2.751   9.365   7.453  1.00  0.00    -0.248 NA
ATOM     38  C   UNL     1       3.844   7.519   6.536  1.00  0.00     0.031 C 
ATOM     39  C   UNL     1      -0.448   6.655   9.014  1.00  0.00     0.029 A 
ATOM     40  N   UNL     1       0.128   8.777   8.631  1.00  0.00    -0.354 N 
ATOM     41  C   UNL     1       3.899   9.791   6.796  1.00  0.00     0.074 A 
ATOM     42  C   UNL     1       4.562   8.607   6.295  1.00  0.00     0.031 C 
ATOM     43  C   UNL     1      -1.472   7.423   9.408  1.00  0.00     0.029 A 
ATOM     44  C   UNL     1      -1.096   8.822   9.256  1.00  0.00     0.049 A 
ATOM     45  H   UNL     1       0.611   9.581   8.331  1.00  0.00     0.167 HD
ATOM     46  C   UNL     1       4.356  11.056   6.627  1.00  0.00     0.037 A 
ATOM     47  C   UNL     1      -1.815   9.864   9.716  1.00  0.00     0.037 A 
ATOM     48  C   UNL     1       3.659  12.235   7.076  1.00  0.00     0.049 A 
ATOM     49  C   UNL     1      -1.261  11.252   9.565  1.00  0.00     0.074 A 
ATOM     50  C   UNL     1       4.028  13.562   6.937  1.00  0.00     0.029 A 
ATOM     51  N   UNL     1       2.440  12.229   7.739  1.00  0.00    -0.354 N 
ATOM     52  N   UNL     1      -0.148  11.642   8.993  1.00  0.00    -0.248 NA
ATOM     53  C   UNL     1      -2.055  12.345  10.140  1.00  0.00     0.031 C 
ATOM     54  C   UNL     1       3.062  14.354   7.564  1.00  0.00     0.029 A 
ATOM     55  C   UNL     1       2.055  13.527   8.035  1.00  0.00     0.049 A 
ATOM     56  H   UNL     1       1.924  11.421   7.966  1.00  0.00     0.167 HD
ATOM     57  C   UNL     1      -0.119  13.023   9.117  1.00  0.00     0.074 A 
ATOM     58  C   UNL     1      -1.337  13.406   9.801  1.00  0.00     0.031 C 
ATOM     59  C   UNL     1       0.834  13.895   8.706  1.00  0.00     0.037 A 
BRANCH  46  60
ATOM     60  C   UNL     1       5.696  11.236   5.967  1.00  0.00     0.064 A 
ATOM     61  C   UNL     1       5.902  10.975   4.604  1.00  0.00     0.173 A 
ATOM     62  C   UNL     1       6.786  11.715   6.712  1.00  0.00     0.173 A 
ATOM     63  F   UNL     1       4.899  10.506   3.847  1.00  0.00    -0.203 F 
ATOM     64  C   UNL     1       7.154  11.156   4.021  1.00  0.00     0.198 A 
ATOM     65  C   UNL     1       8.027  11.929   6.117  1.00  0.00     0.198 A 
ATOM     66  F   UNL     1       6.646  11.990   8.017  1.00  0.00    -0.203 F 
ATOM     67  F   UNL     1       7.340  10.849   2.729  1.00  0.00    -0.200 F 
ATOM     68  C   UNL     1       8.213  11.640   4.775  1.00  0.00     0.200 A 
ATOM     69  F   UNL     1       9.043  12.415   6.845  1.00  0.00    -0.200 F 
ATOM     70  F   UNL     1       9.414  11.823   4.209  1.00  0.00    -0.200 F 
ENDBRANCH  46  60
BRANCH  47  71
ATOM     71  C   UNL     1      -3.109   9.628  10.414  1.00  0.00     0.064 A 
ATOM     72  C   UNL     1      -4.319  10.079   9.868  1.00  0.00     0.173 A 
ATOM     73  C   UNL     1      -3.163   8.954  11.645  1.00  0.00     0.173 A 
ATOM     74  F   UNL     1      -4.320  10.752   8.708  1.00  0.00    -0.203 F 
ATOM     75  C   UNL     1      -5.527   9.880  10.533  1.00  0.00     0.198 A 
ATOM     76  C   UNL     1      -4.376   8.722  12.289  1.00  0.00     0.198 A 
ATOM     77  F   UNL     1      -2.036   8.503  12.215  1.00  0.00    -0.203 F 
ATOM     78  F   UNL     1      -6.662  10.370  10.015  1.00  0.00    -0.200 F 
ATOM     79  C   UNL     1      -5.556   9.194  11.738  1.00  0.00     0.200 A 
ATOM     80  F   UNL     1      -4.399   8.042  13.443  1.00  0.00    -0.200 F 
ATOM     81  F   UNL     1      -6.720   8.998  12.372  1.00  0.00    -0.200 F 
ENDBRANCH  47  71
BRANCH  59  82
ATOM     82  C   UNL     1       0.570  15.356   8.936  1.00  0.00     0.064 A 
ATOM     83  C   UNL     1       0.588  15.919  10.221  1.00  0.00     0.173 A 
ATOM     84  C   UNL     1       0.317  16.207   7.850  1.00  0.00     0.173 A 
ATOM     85  F   UNL     1       0.807  15.145  11.295  1.00  0.00    -0.203 F 
ATOM     86  C   UNL     1       0.329  17.274  10.411  1.00  0.00     0.198 A 
ATOM     87  C   UNL     1       0.096  17.568   8.041  1.00  0.00     0.198 A 
ATOM     88  F   UNL     1       0.294  15.721   6.599  1.00  0.00    -0.203 F 
ATOM     89  F   UNL     1       0.292  17.779  11.652  1.00  0.00    -0.200 F 
ATOM     90  C   UNL     1       0.091  18.098   9.322  1.00  0.00     0.200 A 
ATOM     91  F   UNL     1      -0.118  18.365   6.985  1.00  0.00    -0.200 F 
ATOM     92  F   UNL     1      -0.151  19.403   9.507  1.00  0.00    -0.200 F 
ENDBRANCH  59  82
ENDBRANCH  33  34
ENDBRANCH  26  28
ENDBRANCH  25  26
ENDBRANCH  24  25
ENDBRANCH   1  24
TORSDOF 15
