REMARK SMILES COc1ccc(N[C@H](C)[C@H](C)C(=O)OCCOC(=O)c2ccc(-c3c4nc(c(-c5c(F)c(F)c(F)c(F)c5F)c5ccc([nH]5)c(-c5c(F)c(F)c(F)c(F)c5F)c5nc(c(-c6c(F)c(F)c(F)c(F)c6F)c6ccc3[nH]6)C=C5)C=C4)cc2)c(OC)c1
REMARK SMILES IDX 15 1 14 2 12 3 13 4 10 5 11 6 8 7 9 8 7 9 6 11 3 12 4 13
REMARK SMILES IDX 86 14 5 15 83 16 2 17 1 18 84 19 85 20 16 21 17 22 18 23
REMARK SMILES IDX 19 24 20 25 21 26 82 27 22 28 81 29 23 30 24 31 25 32 75 33
REMARK SMILES IDX 26 34 80 35 74 36 76 37 27 38 79 39 73 40 72 41 28 43 60 44
REMARK SMILES IDX 40 45 59 46 41 47 44 48 58 49 77 50 42 51 43 52 57 54 78 55
REMARK SMILES IDX 45 56 29 57 30 58 38 59 31 60 32 61 36 62 39 63 33 64 34 65
REMARK SMILES IDX 37 66 35 67 61 68 62 69 70 70 63 71 64 72 68 73 71 74 65 75
REMARK SMILES IDX 66 76 69 77 67 78 46 79 47 80 55 81 48 82 49 83 53 84 56 85
REMARK SMILES IDX 50 86 51 87 54 88 52 89
REMARK H PARENT 7 10 76 42 44 53
REMARK Flexibility Score: inf
ROOT
ATOM      1  C   UNL     1      -1.704   2.952 -10.144  1.00  0.00     0.274 C 
ENDROOT
BRANCH   1   2
ATOM      2  O   UNL     1      -0.984   2.539  -8.967  1.00  0.00    -0.462 OA
BRANCH   2   3
ATOM      3  C   UNL     1       0.332   2.251  -9.138  1.00  0.00     0.310 C 
ATOM      4  O   UNL     1       0.902   2.281 -10.226  1.00  0.00    -0.252 OA
BRANCH   3   5
ATOM      5  C   UNL     1       1.081   2.037  -7.830  1.00  0.00     0.118 C 
ATOM      6  C   UNL     1       0.213   1.975  -6.571  1.00  0.00     0.022 C 
BRANCH   5   7
ATOM      7  C   UNL     1       2.081   0.873  -7.993  1.00  0.00     0.090 C 
ATOM      8  C   UNL     1       3.270   1.043  -7.035  1.00  0.00     0.031 C 
BRANCH   7   9
ATOM      9  N   UNL     1       1.470  -0.416  -7.719  1.00  0.00    -0.379 N 
ATOM     10  H   UNL     1       1.355  -0.647  -6.769  1.00  0.00     0.160 HD
BRANCH   9  11
ATOM     11  C   UNL     1       1.031  -1.359  -8.632  1.00  0.00     0.077 A 
ATOM     12  C   UNL     1       0.079  -3.355 -10.389  1.00  0.00     0.122 A 
ATOM     13  C   UNL     1       0.511  -2.127 -10.881  1.00  0.00     0.049 A 
ATOM     14  C   UNL     1       0.160  -3.618  -9.023  1.00  0.00     0.095 A 
ATOM     15  C   UNL     1       0.976  -1.138 -10.010  1.00  0.00     0.033 A 
ATOM     16  C   UNL     1       0.638  -2.632  -8.150  1.00  0.00     0.145 A 
BRANCH  12  17
ATOM     17  O   UNL     1      -0.365  -4.244 -11.331  1.00  0.00    -0.497 OA
ATOM     18  C   UNL     1      -1.417  -5.100 -10.896  1.00  0.00     0.278 C 
ENDBRANCH  12  17
BRANCH  16  19
ATOM     19  O   UNL     1       0.752  -2.796  -6.784  1.00  0.00    -0.494 OA
ATOM     20  C   UNL     1       0.774  -4.134  -6.304  1.00  0.00     0.278 C 
ENDBRANCH  16  19
ENDBRANCH   9  11
ENDBRANCH   7   9
ENDBRANCH   5   7
ENDBRANCH   3   5
ENDBRANCH   2   3
ENDBRANCH   1   2
BRANCH   1  21
ATOM     21  C   UNL     1      -1.770   4.479 -10.248  1.00  0.00     0.275 C 
BRANCH  21  22
ATOM     22  O   UNL     1      -0.498   5.061 -10.598  1.00  0.00    -0.458 OA
BRANCH  22  23
ATOM     23  C   UNL     1       0.299   5.376  -9.550  1.00  0.00     0.338 C 
ATOM     24  O   UNL     1       0.055   5.243  -8.363  1.00  0.00    -0.246 OA
BRANCH  23  25
ATOM     25  C   UNL     1       1.610   5.834 -10.033  1.00  0.00     0.060 A 
ATOM     26  C   UNL     1       2.739   5.080  -9.703  1.00  0.00     0.016 A 
ATOM     27  C   UNL     1       1.743   7.053 -10.699  1.00  0.00     0.016 A 
ATOM     28  C   UNL     1       4.010   5.554 -10.004  1.00  0.00     0.010 A 
ATOM     29  C   UNL     1       3.021   7.520 -11.021  1.00  0.00     0.010 A 
ATOM     30  C   UNL     1       4.162   6.783 -10.657  1.00  0.00    -0.014 A 
BRANCH  30  31
ATOM     31  C   UNL     1       5.524   7.305 -10.920  1.00  0.00     0.031 A 
ATOM     32  C   UNL     1       6.048   8.468 -10.129  1.00  0.00     0.074 A 
ATOM     33  C   UNL     1       6.296   6.714 -11.848  1.00  0.00     0.049 A 
ATOM     34  N   UNL     1       7.181   9.112 -10.254  1.00  0.00    -0.248 NA
ATOM     35  C   UNL     1       5.181   8.975  -9.054  1.00  0.00     0.031 C 
ATOM     36  C   UNL     1       5.915   5.546 -12.642  1.00  0.00     0.029 A 
ATOM     37  N   UNL     1       7.565   7.011 -12.275  1.00  0.00    -0.354 N 
ATOM     38  C   UNL     1       7.150  10.118  -9.299  1.00  0.00     0.074 A 
ATOM     39  C   UNL     1       5.884  10.006  -8.605  1.00  0.00     0.031 C 
ATOM     40  C   UNL     1       6.936   5.214 -13.448  1.00  0.00     0.029 A 
ATOM     41  C   UNL     1       8.019   6.176 -13.265  1.00  0.00     0.049 A 
ATOM     42  H   UNL     1       8.099   7.753 -11.907  1.00  0.00     0.167 HD
ATOM     43  C   UNL     1       8.095  11.050  -9.028  1.00  0.00     0.037 A 
ATOM     44  C   UNL     1       9.170   6.200 -13.961  1.00  0.00     0.037 A 
ATOM     45  C   UNL     1       9.367  11.136  -9.698  1.00  0.00     0.049 A 
ATOM     46  C   UNL     1      10.178   7.279 -13.679  1.00  0.00     0.074 A 
ATOM     47  C   UNL     1      10.407  12.019  -9.467  1.00  0.00     0.029 A 
ATOM     48  N   UNL     1       9.770  10.306 -10.734  1.00  0.00    -0.354 N 
ATOM     49  N   UNL     1      10.140   8.230 -12.779  1.00  0.00    -0.248 NA
ATOM     50  C   UNL     1      11.382   7.294 -14.521  1.00  0.00     0.031 C 
ATOM     51  C   UNL     1      11.423  11.749 -10.392  1.00  0.00     0.029 A 
ATOM     52  C   UNL     1      11.033  10.672 -11.171  1.00  0.00     0.049 A 
ATOM     53  H   UNL     1       9.237   9.565 -11.104  1.00  0.00     0.167 HD
ATOM     54  C   UNL     1      11.320   8.945 -12.930  1.00  0.00     0.074 A 
ATOM     55  C   UNL     1      12.057   8.311 -14.004  1.00  0.00     0.031 C 
ATOM     56  C   UNL     1      11.752  10.029 -12.241  1.00  0.00     0.037 A 
BRANCH  43  57
ATOM     57  C   UNL     1       7.772  12.077  -7.984  1.00  0.00     0.064 A 
ATOM     58  C   UNL     1       7.753  11.765  -6.617  1.00  0.00     0.173 A 
ATOM     59  C   UNL     1       7.498  13.401  -8.361  1.00  0.00     0.173 A 
ATOM     60  F   UNL     1       7.994  10.511  -6.207  1.00  0.00    -0.203 F 
ATOM     61  C   UNL     1       7.445  12.736  -5.667  1.00  0.00     0.198 A 
ATOM     62  C   UNL     1       7.215  14.374  -7.407  1.00  0.00     0.198 A 
ATOM     63  F   UNL     1       7.508  13.751  -9.656  1.00  0.00    -0.203 F 
ATOM     64  F   UNL     1       7.389  12.407  -4.369  1.00  0.00    -0.200 F 
ATOM     65  C   UNL     1       7.182  14.040  -6.062  1.00  0.00     0.200 A 
ATOM     66  F   UNL     1       6.969  15.634  -7.790  1.00  0.00    -0.200 F 
ATOM     67  F   UNL     1       6.886  14.972  -5.146  1.00  0.00    -0.200 F 
ENDBRANCH  43  57
BRANCH  44  68
ATOM     68  C   UNL     1       9.422   5.170 -14.999  1.00  0.00     0.064 A 
ATOM     69  C   UNL     1      10.384   4.172 -14.799  1.00  0.00     0.173 A 
ATOM     70  C   UNL     1       8.700   5.153 -16.201  1.00  0.00     0.173 A 
ATOM     71  F   UNL     1      11.117   4.164 -13.676  1.00  0.00    -0.203 F 
ATOM     72  C   UNL     1      10.617   3.196 -15.765  1.00  0.00     0.198 A 
ATOM     73  C   UNL     1       8.917   4.163 -17.156  1.00  0.00     0.198 A 
ATOM     74  F   UNL     1       7.771   6.091 -16.440  1.00  0.00    -0.203 F 
ATOM     75  F   UNL     1      11.565   2.270 -15.563  1.00  0.00    -0.200 F 
ATOM     76  C   UNL     1       9.878   3.187 -16.939  1.00  0.00     0.200 A 
ATOM     77  F   UNL     1       8.194   4.153 -18.284  1.00  0.00    -0.200 F 
ATOM     78  F   UNL     1      10.097   2.243 -17.864  1.00  0.00    -0.200 F 
ENDBRANCH  44  68
BRANCH  56  79
ATOM     79  C   UNL     1      13.097  10.580 -12.609  1.00  0.00     0.064 A 
ATOM     80  C   UNL     1      13.288  11.321 -13.784  1.00  0.00     0.173 A 
ATOM     81  C   UNL     1      14.198  10.392 -11.761  1.00  0.00     0.173 A 
ATOM     82  F   UNL     1      12.268  11.511 -14.635  1.00  0.00    -0.203 F 
ATOM     83  C   UNL     1      14.540  11.838 -14.107  1.00  0.00     0.198 A 
ATOM     84  C   UNL     1      15.443  10.931 -12.076  1.00  0.00     0.198 A 
ATOM     85  F   UNL     1      14.065   9.694 -10.624  1.00  0.00    -0.203 F 
ATOM     86  F   UNL     1      14.710  12.508 -15.255  1.00  0.00    -0.200 F 
ATOM     87  C   UNL     1      15.614  11.647 -13.250  1.00  0.00     0.200 A 
ATOM     88  F   UNL     1      16.478  10.754 -11.243  1.00  0.00    -0.200 F 
ATOM     89  F   UNL     1      16.817  12.149 -13.561  1.00  0.00    -0.200 F 
ENDBRANCH  56  79
ENDBRANCH  30  31
ENDBRANCH  23  25
ENDBRANCH  22  23
ENDBRANCH  21  22
ENDBRANCH   1  21
TORSDOF 16
