REMARK SMILES Cc1cc(C)n(C)c(=O)c1C(=O)[NH+]1CCC2(CC1)C[NH2+][C@@H](C(=O)OCCOC(=O)c1ccc(-c3c4nc(c(-c5c(F)c(F)c(F)c(F)c5F)c5ccc([nH]5)c(-c5c(F)c(F)c(F)c(F)c5F)c5nc(c(-c6c(F)c(F)c(F)c(F)c6F)c6ccc3[nH]6)C=C5)C=C4)cc1)C2
REMARK SMILES IDX 25 1 24 2 22 3 23 4 21 5 13 6 14 7 18 8 15 10 17 11 16 12
REMARK SMILES IDX 19 13 93 14 20 15 11 18 12 19 10 20 1 21 2 22 3 23 4 24 8 25
REMARK SMILES IDX 5 26 6 27 9 28 7 29 26 30 27 31 28 32 29 33 30 34 31 35
REMARK SMILES IDX 92 36 32 37 91 38 33 39 34 40 35 41 85 42 36 43 90 44 84 45
REMARK SMILES IDX 86 46 37 47 89 48 83 49 82 50 38 52 70 53 50 54 69 55 51 56
REMARK SMILES IDX 54 57 68 58 87 59 52 60 53 61 67 63 88 64 55 65 39 66 40 67
REMARK SMILES IDX 48 68 41 69 42 70 46 71 49 72 43 73 44 74 47 75 45 76 71 77
REMARK SMILES IDX 72 78 80 79 73 80 74 81 78 82 81 83 75 84 76 85 79 86 77 87
REMARK SMILES IDX 56 88 57 89 65 90 58 91 59 92 63 93 66 94 60 95 61 96 64 97
REMARK SMILES IDX 62 98
REMARK H PARENT 13 9 20 16 20 17 86 51 54 62
REMARK Flexibility Score: inf
ROOT
ATOM      1  C   UNL     1       0.688   7.757  -3.024  1.00  0.00     0.274 C 
ENDROOT
BRANCH   1   2
ATOM      2  O   UNL     1       0.760   6.548  -2.249  1.00  0.00    -0.458 OA
BRANCH   2   3
ATOM      3  C   UNL     1       1.219   6.673  -0.979  1.00  0.00     0.364 C 
ATOM      4  O   UNL     1       1.692   7.699  -0.499  1.00  0.00    -0.245 OA
BRANCH   3   5
ATOM      5  C   UNL     1       1.067   5.396  -0.162  1.00  0.00     0.294 C 
ATOM      6  N   UNL     1      -1.183   0.666  -0.130  1.00  0.00    -0.267 N 
ATOM      7  C   UNL     1      -1.674   1.818   0.610  1.00  0.00     0.271 C 
ATOM      8  C   UNL     1      -0.530   1.019  -1.382  1.00  0.00     0.271 C 
ATOM      9  H   UNL     1      -0.613   0.091  -0.690  1.00  0.00     0.357 HD
ATOM     10  C   UNL     1      -0.458   2.571   1.131  1.00  0.00     0.075 C 
ATOM     11  C   UNL     1       0.637   1.995  -1.165  1.00  0.00     0.075 C 
ATOM     12  C   UNL     1       0.476   3.040  -0.013  1.00  0.00     0.036 C 
ATOM     13  C   UNL     1       1.868   3.387   0.576  1.00  0.00     0.268 C 
ATOM     14  C   UNL     1      -0.015   4.402  -0.576  1.00  0.00     0.090 C 
ATOM     15  N   UNL     1       2.291   4.576  -0.162  1.00  0.00    -0.334 N 
ATOM     16  H   UNL     1       2.577   4.338  -1.112  1.00  0.00     0.347 HD
ATOM     17  H   UNL     1       3.098   5.046   0.248  1.00  0.00     0.347 HD
BRANCH   6  18
ATOM     18  C   UNL     1      -1.291  -0.584   0.466  1.00  0.00     0.350 C 
ATOM     19  O   UNL     1      -1.960  -0.758   1.489  1.00  0.00    -0.225 OA
BRANCH  18  20
ATOM     20  C   UNL     1      -0.494  -1.742  -0.033  1.00  0.00     0.147 A 
ATOM     21  C   UNL     1       1.730  -0.699   0.661  1.00  0.00     0.045 C 
ATOM     22  C   UNL     1       0.848  -1.784   0.119  1.00  0.00    -0.027 A 
ATOM     23  C   UNL     1       1.566  -3.022  -0.104  1.00  0.00     0.026 A 
ATOM     24  C   UNL     1       0.927  -4.194  -0.227  1.00  0.00     0.018 A 
ATOM     25  C   UNL     1      -1.219  -3.022  -0.347  1.00  0.00     0.267 A 
ATOM     26  C   UNL     1       1.742  -5.459  -0.271  1.00  0.00     0.064 C 
ATOM     27  N   UNL     1      -0.464  -4.209  -0.299  1.00  0.00    -0.315 N 
ATOM     28  O   UNL     1      -2.421  -3.002  -0.615  1.00  0.00    -0.268 OA
ATOM     29  C   UNL     1      -1.191  -5.471  -0.338  1.00  0.00     0.153 C 
ENDBRANCH  18  20
ENDBRANCH   6  18
ENDBRANCH   3   5
ENDBRANCH   2   3
ENDBRANCH   1   2
BRANCH   1  30
ATOM     30  C   UNL     1      -0.772   8.187  -3.184  1.00  0.00     0.275 C 
BRANCH  30  31
ATOM     31  O   UNL     1      -1.351   8.560  -1.917  1.00  0.00    -0.458 OA
BRANCH  31  32
ATOM     32  C   UNL     1      -2.072   7.593  -1.303  1.00  0.00     0.338 C 
ATOM     33  O   UNL     1      -2.302   6.466  -1.703  1.00  0.00    -0.246 OA
BRANCH  32  34
ATOM     34  C   UNL     1      -2.461   8.046   0.041  1.00  0.00     0.060 A 
ATOM     35  C   UNL     1      -1.818   7.470   1.138  1.00  0.00     0.016 A 
ATOM     36  C   UNL     1      -3.513   8.942   0.229  1.00  0.00     0.016 A 
ATOM     37  C   UNL     1      -2.227   7.773   2.431  1.00  0.00     0.010 A 
ATOM     38  C   UNL     1      -3.916   9.260   1.532  1.00  0.00     0.010 A 
ATOM     39  C   UNL     1      -3.282   8.668   2.640  1.00  0.00    -0.014 A 
BRANCH  39  40
ATOM     40  C   UNL     1      -3.733   8.939   4.026  1.00  0.00     0.031 A 
ATOM     41  C   UNL     1      -5.013   8.340   4.530  1.00  0.00     0.074 A 
ATOM     42  C   UNL     1      -2.955   9.665   4.849  1.00  0.00     0.049 A 
ATOM     43  N   UNL     1      -5.588   8.479   5.698  1.00  0.00    -0.248 NA
ATOM     44  C   UNL     1      -5.742   7.461   3.601  1.00  0.00     0.031 C 
ATOM     45  C   UNL     1      -1.659  10.242   4.490  1.00  0.00     0.029 A 
ATOM     46  N   UNL     1      -3.131  10.027   6.161  1.00  0.00    -0.354 N 
ATOM     47  C   UNL     1      -6.746   7.716   5.642  1.00  0.00     0.074 A 
ATOM     48  C   UNL     1      -6.806   7.132   4.319  1.00  0.00     0.031 C 
ATOM     49  C   UNL     1      -1.145  10.863   5.563  1.00  0.00     0.029 A 
ATOM     50  C   UNL     1      -2.096  10.772   6.668  1.00  0.00     0.049 A 
ATOM     51  H   UNL     1      -3.924   9.776   6.688  1.00  0.00     0.167 HD
ATOM     52  C   UNL     1      -7.668   7.516   6.613  1.00  0.00     0.037 A 
ATOM     53  C   UNL     1      -1.940  11.333   7.883  1.00  0.00     0.037 A 
ATOM     54  C   UNL     1      -7.597   8.087   7.932  1.00  0.00     0.049 A 
ATOM     55  C   UNL     1      -3.022  11.166   8.914  1.00  0.00     0.074 A 
ATOM     56  C   UNL     1      -8.489   7.949   8.981  1.00  0.00     0.029 A 
ATOM     57  N   UNL     1      -6.569   8.902   8.385  1.00  0.00    -0.354 N 
ATOM     58  N   UNL     1      -4.130  10.470   8.842  1.00  0.00    -0.248 NA
ATOM     59  C   UNL     1      -2.840  11.876  10.188  1.00  0.00     0.031 C 
ATOM     60  C   UNL     1      -8.020   8.710  10.057  1.00  0.00     0.029 A 
ATOM     61  C   UNL     1      -6.816   9.290   9.691  1.00  0.00     0.049 A 
ATOM     62  H   UNL     1      -5.782   9.165   7.856  1.00  0.00     0.167 HD
ATOM     63  C   UNL     1      -4.771  10.645  10.060  1.00  0.00     0.074 A 
ATOM     64  C   UNL     1      -3.921  11.502  10.861  1.00  0.00     0.031 C 
ATOM     65  C   UNL     1      -5.959  10.143  10.474  1.00  0.00     0.037 A 
BRANCH  52  66
ATOM     66  C   UNL     1      -8.849   6.655   6.282  1.00  0.00     0.064 A 
ATOM     67  C   UNL     1      -8.738   5.260   6.191  1.00  0.00     0.173 A 
ATOM     68  C   UNL     1     -10.118   7.227   6.109  1.00  0.00     0.173 A 
ATOM     69  F   UNL     1      -7.543   4.669   6.337  1.00  0.00    -0.203 F 
ATOM     70  C   UNL     1      -9.853   4.470   5.926  1.00  0.00     0.198 A 
ATOM     71  C   UNL     1     -11.235   6.432   5.866  1.00  0.00     0.198 A 
ATOM     72  F   UNL     1     -10.278   8.557   6.191  1.00  0.00    -0.203 F 
ATOM     73  F   UNL     1      -9.719   3.141   5.814  1.00  0.00    -0.200 F 
ATOM     74  C   UNL     1     -11.101   5.055   5.771  1.00  0.00     0.200 A 
ATOM     75  F   UNL     1     -12.442   6.998   5.728  1.00  0.00    -0.200 F 
ATOM     76  F   UNL     1     -12.175   4.292   5.526  1.00  0.00    -0.200 F 
ENDBRANCH  52  66
BRANCH  53  77
ATOM     77  C   UNL     1      -0.710  12.110   8.183  1.00  0.00     0.064 A 
ATOM     78  C   UNL     1       0.248  11.619   9.079  1.00  0.00     0.173 A 
ATOM     79  C   UNL     1      -0.460  13.345   7.567  1.00  0.00     0.173 A 
ATOM     80  F   UNL     1       0.041  10.455   9.710  1.00  0.00    -0.203 F 
ATOM     81  C   UNL     1       1.412  12.336   9.349  1.00  0.00     0.198 A 
ATOM     82  C   UNL     1       0.715  14.049   7.819  1.00  0.00     0.198 A 
ATOM     83  F   UNL     1      -1.349  13.858   6.704  1.00  0.00    -0.203 F 
ATOM     84  F   UNL     1       2.301  11.859  10.231  1.00  0.00    -0.200 F 
ATOM     85  C   UNL     1       1.649  13.546   8.713  1.00  0.00     0.200 A 
ATOM     86  F   UNL     1       0.945  15.212   7.194  1.00  0.00    -0.200 F 
ATOM     87  F   UNL     1       2.774  14.229   8.964  1.00  0.00    -0.200 F 
ENDBRANCH  53  77
BRANCH  65  88
ATOM     88  C   UNL     1      -6.415  10.495  11.857  1.00  0.00     0.064 A 
ATOM     89  C   UNL     1      -6.939  11.762  12.150  1.00  0.00     0.173 A 
ATOM     90  C   UNL     1      -6.404   9.533  12.878  1.00  0.00     0.173 A 
ATOM     91  F   UNL     1      -6.958  12.719  11.210  1.00  0.00    -0.203 F 
ATOM     92  C   UNL     1      -7.430  12.056  13.419  1.00  0.00     0.198 A 
ATOM     93  C   UNL     1      -6.916   9.823  14.139  1.00  0.00     0.198 A 
ATOM     94  F   UNL     1      -5.918   8.305  12.644  1.00  0.00    -0.203 F 
ATOM     95  F   UNL     1      -7.904  13.281  13.686  1.00  0.00    -0.200 F 
ATOM     96  C   UNL     1      -7.427  11.084  14.409  1.00  0.00     0.200 A 
ATOM     97  F   UNL     1      -6.923   8.880  15.091  1.00  0.00    -0.200 F 
ATOM     98  F   UNL     1      -7.915  11.363  15.626  1.00  0.00    -0.200 F 
ENDBRANCH  65  88
ENDBRANCH  39  40
ENDBRANCH  32  34
ENDBRANCH  31  32
ENDBRANCH  30  31
ENDBRANCH   1  30
TORSDOF 13
