REMARK SMILES O=C(OCCOC(=O)[C@H](c1c[nH]c2ccc(Cl)cc12)[NH+]1CCN(c2ncc(Br)cn2)CC1)c1ccc(-c2c3nc(c(-c4c(F)c(F)c(F)c(F)c4F)c4ccc([nH]4)c(-c4c(F)c(F)c(F)c(F)c4F)c4nc(c(-c5c(F)c(F)c(F)c(F)c5F)c5ccc2[nH]5)C=C4)C=C3)cc1
REMARK SMILES IDX 4 1 3 2 2 3 1 4 33 5 34 6 95 7 35 8 94 9 36 10 37 11 38 12
REMARK SMILES IDX 88 13 39 14 93 15 87 16 89 17 40 18 92 19 86 20 85 21 41 23
REMARK SMILES IDX 73 24 53 25 72 26 54 27 57 28 71 29 90 30 55 31 56 32 70 34
REMARK SMILES IDX 91 35 58 36 42 37 43 38 51 39 44 40 45 41 49 42 52 43 46 44
REMARK SMILES IDX 47 45 50 46 48 47 74 48 75 49 83 50 76 51 77 52 81 53 84 54
REMARK SMILES IDX 78 55 79 56 82 57 80 58 59 59 60 60 68 61 61 62 62 63 66 64
REMARK SMILES IDX 69 65 63 66 64 67 67 68 65 69 5 70 6 71 7 72 8 73 9 74 20 75
REMARK SMILES IDX 21 76 32 77 22 79 31 80 23 81 24 82 25 83 30 84 26 85 29 86
REMARK SMILES IDX 27 87 28 88 10 89 11 90 19 91 12 92 13 93 18 94 14 96 16 97
REMARK SMILES IDX 15 98 17 99
REMARK H PARENT 89 22 57 33 20 78 12 95
REMARK Flexibility Score: inf
ROOT
ATOM      1  C   UNL     1       5.518  -3.996   2.175  1.00  0.00     0.275 C 
ENDROOT
BRANCH   1   2
ATOM      2  O   UNL     1       6.011  -3.281   1.032  1.00  0.00    -0.458 OA
BRANCH   2   3
ATOM      3  C   UNL     1       5.357  -2.345   0.310  1.00  0.00     0.338 C 
ATOM      4  O   UNL     1       5.990  -1.411  -0.166  1.00  0.00    -0.246 OA
BRANCH   3   5
ATOM      5  C   UNL     1       3.890  -2.454   0.019  1.00  0.00     0.060 A 
ATOM      6  C   UNL     1       3.042  -3.523   0.312  1.00  0.00     0.016 A 
ATOM      7  C   UNL     1       3.324  -1.357  -0.626  1.00  0.00     0.016 A 
ATOM      8  C   UNL     1       1.669  -3.468   0.022  1.00  0.00     0.010 A 
ATOM      9  C   UNL     1       1.950  -1.276  -0.853  1.00  0.00     0.010 A 
ATOM     10  C   UNL     1       1.097  -2.335  -0.562  1.00  0.00    -0.014 A 
BRANCH  10  11
ATOM     11  C   UNL     1      -0.332  -2.332  -0.988  1.00  0.00     0.031 A 
ATOM     12  C   UNL     1      -0.689  -2.054  -2.431  1.00  0.00     0.074 A 
ATOM     13  C   UNL     1      -1.311  -2.628  -0.106  1.00  0.00     0.049 A 
ATOM     14  N   UNL     1      -1.850  -2.146  -3.033  1.00  0.00    -0.248 NA
ATOM     15  C   UNL     1       0.383  -1.558  -3.312  1.00  0.00     0.031 C 
ATOM     16  C   UNL     1      -1.141  -2.775   1.342  1.00  0.00     0.029 A 
ATOM     17  N   UNL     1      -2.642  -2.907  -0.307  1.00  0.00    -0.354 N 
ATOM     18  C   UNL     1      -1.632  -1.703  -4.332  1.00  0.00     0.074 A 
ATOM     19  C   UNL     1      -0.284  -1.199  -4.393  1.00  0.00     0.031 C 
ATOM     20  C   UNL     1      -2.295  -3.205   1.882  1.00  0.00     0.029 A 
ATOM     21  C   UNL     1      -3.287  -3.358   0.822  1.00  0.00     0.049 A 
ATOM     22  H   UNL     1      -3.091  -2.795  -1.175  1.00  0.00     0.167 HD
ATOM     23  C   UNL     1      -2.432  -1.805  -5.418  1.00  0.00     0.037 A 
ATOM     24  C   UNL     1      -4.522  -3.883   0.967  1.00  0.00     0.037 A 
ATOM     25  C   UNL     1      -3.740  -2.387  -5.382  1.00  0.00     0.049 A 
ATOM     26  C   UNL     1      -5.378  -4.060  -0.265  1.00  0.00     0.074 A 
ATOM     27  C   UNL     1      -4.630  -2.591  -6.419  1.00  0.00     0.029 A 
ATOM     28  N   UNL     1      -4.334  -2.882  -4.231  1.00  0.00    -0.354 N 
ATOM     29  N   UNL     1      -5.113  -3.753  -1.513  1.00  0.00    -0.248 NA
ATOM     30  C   UNL     1      -6.696  -4.683  -0.073  1.00  0.00     0.031 C 
ATOM     31  C   UNL     1      -5.772  -3.202  -5.891  1.00  0.00     0.029 A 
ATOM     32  C   UNL     1      -5.576  -3.406  -4.533  1.00  0.00     0.049 A 
ATOM     33  H   UNL     1      -3.930  -2.864  -3.333  1.00  0.00     0.167 HD
ATOM     34  C   UNL     1      -6.214  -4.163  -2.253  1.00  0.00     0.074 A 
ATOM     35  C   UNL     1      -7.136  -4.775  -1.320  1.00  0.00     0.031 C 
ATOM     36  C   UNL     1      -6.455  -4.034  -3.581  1.00  0.00     0.037 A 
BRANCH  23  37
ATOM     37  C   UNL     1      -1.859  -1.345  -6.728  1.00  0.00     0.064 A 
ATOM     38  C   UNL     1      -0.782  -2.025  -7.326  1.00  0.00     0.173 A 
ATOM     39  C   UNL     1      -2.341  -0.196  -7.367  1.00  0.00     0.173 A 
ATOM     40  F   UNL     1      -0.268  -3.120  -6.744  1.00  0.00    -0.203 F 
ATOM     41  C   UNL     1      -0.171  -1.534  -8.476  1.00  0.00     0.198 A 
ATOM     42  C   UNL     1      -1.751   0.271  -8.540  1.00  0.00     0.198 A 
ATOM     43  F   UNL     1      -3.370   0.488  -6.844  1.00  0.00    -0.203 F 
ATOM     44  F   UNL     1       0.912  -2.149  -8.971  1.00  0.00    -0.200 F 
ATOM     45  C   UNL     1      -0.657  -0.388  -9.083  1.00  0.00     0.200 A 
ATOM     46  F   UNL     1      -2.226   1.374  -9.134  1.00  0.00    -0.200 F 
ATOM     47  F   UNL     1      -0.060   0.092 -10.182  1.00  0.00    -0.200 F 
ENDBRANCH  23  37
BRANCH  24  48
ATOM     48  C   UNL     1      -5.004  -4.352   2.298  1.00  0.00     0.064 A 
ATOM     49  C   UNL     1      -5.244  -5.713   2.546  1.00  0.00     0.173 A 
ATOM     50  C   UNL     1      -5.285  -3.450   3.334  1.00  0.00     0.173 A 
ATOM     51  F   UNL     1      -5.004  -6.621   1.587  1.00  0.00    -0.203 F 
ATOM     52  C   UNL     1      -5.788  -6.146   3.755  1.00  0.00     0.198 A 
ATOM     53  C   UNL     1      -5.799  -3.887   4.555  1.00  0.00     0.198 A 
ATOM     54  F   UNL     1      -5.064  -2.139   3.160  1.00  0.00    -0.203 F 
ATOM     55  F   UNL     1      -6.069  -7.444   3.935  1.00  0.00    -0.200 F 
ATOM     56  C   UNL     1      -6.064  -5.232   4.760  1.00  0.00     0.200 A 
ATOM     57  F   UNL     1      -6.048  -3.002   5.530  1.00  0.00    -0.200 F 
ATOM     58  F   UNL     1      -6.595  -5.646   5.918  1.00  0.00    -0.200 F 
ENDBRANCH  24  48
BRANCH  36  59
ATOM     59  C   UNL     1      -7.744  -4.590  -4.105  1.00  0.00     0.064 A 
ATOM     60  C   UNL     1      -8.972  -3.971  -3.830  1.00  0.00     0.173 A 
ATOM     61  C   UNL     1      -7.743  -5.715  -4.942  1.00  0.00     0.173 A 
ATOM     62  F   UNL     1      -9.023  -2.898  -3.026  1.00  0.00    -0.203 F 
ATOM     63  C   UNL     1     -10.157  -4.476  -4.356  1.00  0.00     0.198 A 
ATOM     64  C   UNL     1      -8.926  -6.197  -5.491  1.00  0.00     0.198 A 
ATOM     65  F   UNL     1      -6.591  -6.335  -5.242  1.00  0.00    -0.203 F 
ATOM     66  F   UNL     1     -11.325  -3.896  -4.045  1.00  0.00    -0.200 F 
ATOM     67  C   UNL     1     -10.133  -5.582  -5.192  1.00  0.00     0.200 A 
ATOM     68  F   UNL     1      -8.899  -7.255  -6.313  1.00  0.00    -0.200 F 
ATOM     69  F   UNL     1     -11.274  -6.058  -5.708  1.00  0.00    -0.200 F 
ENDBRANCH  36  59
ENDBRANCH  10  11
ENDBRANCH   3   5
ENDBRANCH   2   3
ENDBRANCH   1   2
BRANCH   1  70
ATOM     70  C   UNL     1       4.994  -3.141   3.331  1.00  0.00     0.274 C 
BRANCH  70  71
ATOM     71  O   UNL     1       4.026  -2.140   2.957  1.00  0.00    -0.457 OA
BRANCH  71  72
ATOM     72  C   UNL     1       4.253  -0.890   3.487  1.00  0.00     0.370 C 
ATOM     73  O   UNL     1       5.255  -0.612   4.142  1.00  0.00    -0.245 OA
BRANCH  72  74
ATOM     74  C   UNL     1       3.083   0.108   3.187  1.00  0.00     0.328 C 
BRANCH  74  75
ATOM     75  N   UNL     1       2.966   0.983   4.379  1.00  0.00    -0.316 N 
ATOM     76  C   UNL     1       3.688   2.264   4.361  1.00  0.00     0.285 C 
ATOM     77  C   UNL     1       1.638   1.141   4.978  1.00  0.00     0.285 C 
ATOM     78  H   UNL     1       3.488   0.376   5.011  1.00  0.00     0.349 HD
ATOM     79  C   UNL     1       2.920   3.431   3.702  1.00  0.00     0.181 C 
ATOM     80  C   UNL     1       0.779   2.305   4.444  1.00  0.00     0.181 C 
ATOM     81  N   UNL     1       1.568   3.499   4.223  1.00  0.00    -0.330 N 
BRANCH  81  82
ATOM     82  C   UNL     1       1.116   4.738   4.552  1.00  0.00     0.225 A 
ATOM     83  N   UNL     1       0.919   4.995   5.854  1.00  0.00    -0.220 NA
ATOM     84  N   UNL     1       1.115   5.683   3.596  1.00  0.00    -0.220 NA
ATOM     85  C   UNL     1       0.793   6.291   6.204  1.00  0.00     0.132 A 
ATOM     86  C   UNL     1       0.925   6.958   3.988  1.00  0.00     0.132 A 
ATOM     87  C   UNL     1       0.793   7.326   5.302  1.00  0.00     0.054 A 
ATOM     88  Br  UNL     1       0.664   9.120   5.830  1.00  0.00    -0.047 Br
ENDBRANCH  81  82
ENDBRANCH  74  75
BRANCH  74  89
ATOM     89  C   UNL     1       3.325   0.879   1.902  1.00  0.00     0.046 A 
ATOM     90  C   UNL     1       4.564   1.254   1.401  1.00  0.00     0.094 A 
ATOM     91  C   UNL     1       2.352   1.384   0.958  1.00  0.00     0.011 A 
ATOM     92  N   UNL     1       4.390   1.965   0.249  1.00  0.00    -0.361 N 
ATOM     93  C   UNL     1       3.054   2.036  -0.064  1.00  0.00     0.046 A 
ATOM     94  C   UNL     1       0.943   1.324   0.849  1.00  0.00     0.031 A 
ATOM     95  H   UNL     1       5.116   2.369  -0.280  1.00  0.00     0.166 HD
ATOM     96  C   UNL     1       2.434   2.601  -1.187  1.00  0.00     0.028 A 
ATOM     97  C   UNL     1       0.312   1.884  -0.271  1.00  0.00     0.041 A 
ATOM     98  C   UNL     1       1.044   2.507  -1.278  1.00  0.00     0.022 A 
ATOM     99  Cl  UNL     1      -1.393   1.724  -0.448  1.00  0.00    -0.084 Cl
ENDBRANCH  74  89
ENDBRANCH  72  74
ENDBRANCH  71  72
ENDBRANCH  70  71
ENDBRANCH   1  70
TORSDOF 14
