REMARK SMILES O=C(OCCOC(=O)[C@H]1Cc2ccc(Cl)cc2C[N@@H+]1Cc1ccc(Cl)cc1)c1ccc(-c2c3nc(c(-c4c(F)c(F)c(F)c(F)c4F)c4ccc([nH]4)c(-c4c(F)c(F)c(F)c(F)c4F)c4nc(c(-c5c(F)c(F)c(F)c(F)c5F)c5ccc2[nH]5)C=C4)C=C3)cc1
REMARK SMILES IDX 4 1 3 2 2 3 1 4 28 5 29 6 90 7 30 8 89 9 31 10 32 11 33 12
REMARK SMILES IDX 83 13 34 14 88 15 82 16 84 17 35 18 87 19 81 20 80 21 36 23
REMARK SMILES IDX 68 24 48 25 67 26 49 27 52 28 66 29 85 30 50 31 51 32 65 34
REMARK SMILES IDX 86 35 53 36 37 37 38 38 46 39 39 40 40 41 44 42 47 43 41 44
REMARK SMILES IDX 42 45 45 46 43 47 69 48 70 49 78 50 71 51 72 52 76 53 79 54
REMARK SMILES IDX 73 55 74 56 77 57 75 58 54 59 55 60 63 61 56 62 57 63 61 64
REMARK SMILES IDX 64 65 58 66 59 67 62 68 60 69 5 70 6 71 7 72 8 73 9 74 10 75
REMARK SMILES IDX 19 76 11 77 18 78 12 80 17 81 13 82 16 83 14 84 15 85 20 86
REMARK SMILES IDX 21 87 22 88 27 89 23 90 26 91 24 92 25 93
REMARK H PARENT 84 22 52 33 19 79
REMARK Flexibility Score: inf
ROOT
ATOM      1  C   UNL     1       4.164   1.406  -0.493  1.00  0.00     0.275 C 
ENDROOT
BRANCH   1   2
ATOM      2  O   UNL     1       3.260   0.383  -0.923  1.00  0.00    -0.458 OA
BRANCH   2   3
ATOM      3  C   UNL     1       3.518  -0.946  -0.983  1.00  0.00     0.338 C 
ATOM      4  O   UNL     1       2.864  -1.657  -1.742  1.00  0.00    -0.246 OA
BRANCH   3   5
ATOM      5  C   UNL     1       4.368  -1.605   0.055  1.00  0.00     0.060 A 
ATOM      6  C   UNL     1       3.872  -2.816   0.535  1.00  0.00     0.016 A 
ATOM      7  C   UNL     1       5.537  -1.102   0.640  1.00  0.00     0.016 A 
ATOM      8  C   UNL     1       4.397  -3.364   1.705  1.00  0.00     0.010 A 
ATOM      9  C   UNL     1       6.073  -1.668   1.812  1.00  0.00     0.010 A 
ATOM     10  C   UNL     1       5.463  -2.768   2.409  1.00  0.00    -0.014 A 
BRANCH  10  11
ATOM     11  C   UNL     1       5.925  -3.365   3.701  1.00  0.00     0.031 A 
ATOM     12  C   UNL     1       5.983  -2.606   5.013  1.00  0.00     0.074 A 
ATOM     13  C   UNL     1       6.207  -4.683   3.702  1.00  0.00     0.049 A 
ATOM     14  N   UNL     1       6.268  -3.063   6.214  1.00  0.00    -0.248 NA
ATOM     15  C   UNL     1       5.690  -1.165   4.998  1.00  0.00     0.031 C 
ATOM     16  C   UNL     1       6.202  -5.530   2.508  1.00  0.00     0.029 A 
ATOM     17  N   UNL     1       6.501  -5.551   4.721  1.00  0.00    -0.354 N 
ATOM     18  C   UNL     1       6.148  -1.987   7.088  1.00  0.00     0.074 A 
ATOM     19  C   UNL     1       5.817  -0.834   6.282  1.00  0.00     0.031 C 
ATOM     20  C   UNL     1       6.363  -6.804   2.872  1.00  0.00     0.029 A 
ATOM     21  C   UNL     1       6.653  -6.848   4.299  1.00  0.00     0.049 A 
ATOM     22  H   UNL     1       6.595  -5.273   5.661  1.00  0.00     0.167 HD
ATOM     23  C   UNL     1       6.282  -1.974   8.439  1.00  0.00     0.037 A 
ATOM     24  C   UNL     1       7.049  -7.955   4.951  1.00  0.00     0.037 A 
ATOM     25  C   UNL     1       6.656  -3.119   9.237  1.00  0.00     0.049 A 
ATOM     26  C   UNL     1       7.383  -7.862   6.404  1.00  0.00     0.074 A 
ATOM     27  C   UNL     1       6.834  -3.189  10.611  1.00  0.00     0.029 A 
ATOM     28  N   UNL     1       6.940  -4.380   8.738  1.00  0.00    -0.354 N 
ATOM     29  N   UNL     1       7.242  -6.843   7.213  1.00  0.00    -0.248 NA
ATOM     30  C   UNL     1       7.964  -9.056   7.027  1.00  0.00     0.031 C 
ATOM     31  C   UNL     1       7.316  -4.460  10.929  1.00  0.00     0.029 A 
ATOM     32  C   UNL     1       7.370  -5.207   9.765  1.00  0.00     0.049 A 
ATOM     33  H   UNL     1       6.850  -4.649   7.795  1.00  0.00     0.167 HD
ATOM     34  C   UNL     1       7.716  -7.269   8.442  1.00  0.00     0.074 A 
ATOM     35  C   UNL     1       8.131  -8.647   8.278  1.00  0.00     0.031 C 
ATOM     36  C   UNL     1       7.801  -6.571   9.598  1.00  0.00     0.037 A 
BRANCH  23  37
ATOM     37  C   UNL     1       6.049  -0.696   9.200  1.00  0.00     0.064 A 
ATOM     38  C   UNL     1       4.753  -0.279   9.540  1.00  0.00     0.173 A 
ATOM     39  C   UNL     1       7.129  -0.021   9.794  1.00  0.00     0.173 A 
ATOM     40  F   UNL     1       3.684  -0.890   9.009  1.00  0.00    -0.203 F 
ATOM     41  C   UNL     1       4.548   0.747  10.463  1.00  0.00     0.198 A 
ATOM     42  C   UNL     1       6.920   0.991  10.730  1.00  0.00     0.198 A 
ATOM     43  F   UNL     1       8.388  -0.395   9.522  1.00  0.00    -0.203 F 
ATOM     44  F   UNL     1       3.301   1.114  10.789  1.00  0.00    -0.200 F 
ATOM     45  C   UNL     1       5.630   1.368  11.070  1.00  0.00     0.200 A 
ATOM     46  F   UNL     1       7.967   1.572  11.333  1.00  0.00    -0.200 F 
ATOM     47  F   UNL     1       5.429   2.319  11.993  1.00  0.00    -0.200 F 
ENDBRANCH  23  37
BRANCH  24  48
ATOM     48  C   UNL     1       7.227  -9.207   4.174  1.00  0.00     0.064 A 
ATOM     49  C   UNL     1       6.384 -10.307   4.362  1.00  0.00     0.173 A 
ATOM     50  C   UNL     1       8.179  -9.277   3.141  1.00  0.00     0.173 A 
ATOM     51  F   UNL     1       5.478 -10.297   5.350  1.00  0.00    -0.203 F 
ATOM     52  C   UNL     1       6.467 -11.419   3.527  1.00  0.00     0.198 A 
ATOM     53  C   UNL     1       8.228 -10.367   2.280  1.00  0.00     0.198 A 
ATOM     54  F   UNL     1       9.008  -8.245   2.920  1.00  0.00    -0.203 F 
ATOM     55  F   UNL     1       5.657 -12.467   3.729  1.00  0.00    -0.200 F 
ATOM     56  C   UNL     1       7.372 -11.438   2.474  1.00  0.00     0.200 A 
ATOM     57  F   UNL     1       9.078 -10.360   1.244  1.00  0.00    -0.200 F 
ATOM     58  F   UNL     1       7.414 -12.487   1.641  1.00  0.00    -0.200 F 
ENDBRANCH  24  48
BRANCH  36  59
ATOM     59  C   UNL     1       8.374  -7.276  10.789  1.00  0.00     0.064 A 
ATOM     60  C   UNL     1       9.748  -7.538  10.886  1.00  0.00     0.173 A 
ATOM     61  C   UNL     1       7.555  -7.640  11.868  1.00  0.00     0.173 A 
ATOM     62  F   UNL     1      10.569  -7.223   9.873  1.00  0.00    -0.203 F 
ATOM     63  C   UNL     1      10.280  -8.151  12.017  1.00  0.00     0.198 A 
ATOM     64  C   UNL     1       8.094  -8.227  13.008  1.00  0.00     0.198 A 
ATOM     65  F   UNL     1       6.235  -7.404  11.825  1.00  0.00    -0.203 F 
ATOM     66  F   UNL     1      11.591  -8.423  12.076  1.00  0.00    -0.200 F 
ATOM     67  C   UNL     1       9.455  -8.486  13.081  1.00  0.00     0.200 A 
ATOM     68  F   UNL     1       7.298  -8.536  14.041  1.00  0.00    -0.200 F 
ATOM     69  F   UNL     1       9.971  -9.061  14.175  1.00  0.00    -0.200 F 
ENDBRANCH  36  59
ENDBRANCH  10  11
ENDBRANCH   3   5
ENDBRANCH   2   3
ENDBRANCH   1   2
BRANCH   1  70
ATOM     70  C   UNL     1       3.998   1.858   0.965  1.00  0.00     0.274 C 
BRANCH  70  71
ATOM     71  O   UNL     1       3.581   0.858   1.917  1.00  0.00    -0.458 OA
BRANCH  71  72
ATOM     72  C   UNL     1       2.228   0.747   2.090  1.00  0.00     0.365 C 
ATOM     73  O   UNL     1       1.411   1.272   1.337  1.00  0.00    -0.245 OA
BRANCH  72  74
ATOM     74  C   UNL     1       1.814  -0.077   3.337  1.00  0.00     0.300 C 
ATOM     75  C   UNL     1       1.881  -1.559   2.963  1.00  0.00     0.113 C 
ATOM     76  N   UNL     1       2.605   0.293   4.556  1.00  0.00    -0.315 N 
ATOM     77  C   UNL     1       2.024  -2.539   4.095  1.00  0.00    -0.033 A 
ATOM     78  C   UNL     1       2.271  -0.608   5.678  1.00  0.00     0.300 C 
ATOM     79  H   UNL     1       3.590   0.186   4.314  1.00  0.00     0.349 HD
ATOM     80  C   UNL     1       1.936  -3.921   3.862  1.00  0.00     0.006 A 
ATOM     81  C   UNL     1       2.363  -2.078   5.369  1.00  0.00     0.011 A 
ATOM     82  C   UNL     1       2.252  -4.834   4.869  1.00  0.00     0.021 A 
ATOM     83  C   UNL     1       2.647  -3.002   6.388  1.00  0.00     0.030 A 
ATOM     84  C   UNL     1       2.621  -4.370   6.126  1.00  0.00     0.041 A 
ATOM     85  Cl  UNL     1       3.028  -5.488   7.368  1.00  0.00    -0.084 Cl
BRANCH  76  86
ATOM     86  C   UNL     1       2.404   1.717   4.962  1.00  0.00     0.300 C 
BRANCH  86  87
ATOM     87  C   UNL     1       0.950   2.166   4.980  1.00  0.00     0.006 A 
ATOM     88  C   UNL     1       0.082   1.736   5.994  1.00  0.00     0.011 A 
ATOM     89  C   UNL     1       0.406   2.794   3.848  1.00  0.00     0.011 A 
ATOM     90  C   UNL     1      -1.296   1.720   5.777  1.00  0.00     0.021 A 
ATOM     91  C   UNL     1      -0.972   2.789   3.636  1.00  0.00     0.021 A 
ATOM     92  C   UNL     1      -1.813   2.208   4.581  1.00  0.00     0.041 A 
ATOM     93  Cl  UNL     1      -3.491   2.045   4.247  1.00  0.00    -0.084 Cl
ENDBRANCH  86  87
ENDBRANCH  76  86
ENDBRANCH  72  74
ENDBRANCH  71  72
ENDBRANCH  70  71
ENDBRANCH   1  70
TORSDOF 13
