REMARK SMILES CC[C@H](Oc1ccc(C)nc1C[NH3+])C(=O)OCCOC(=O)c1ccc(-c2c3nc(c(-c4c(F)c(F)c(F)c(F)c4F)c4ccc([nH]4)c(-c4c(F)c(F)c(F)c(F)c4F)c4nc(c(-c5c(F)c(F)c(F)c(F)c5F)c5ccc2[nH]5)C=C4)C=C3)cc1
REMARK SMILES IDX 17 1 16 2 14 3 15 4 3 5 2 6 1 7 4 8 5 9 6 10 11 11 7 12
REMARK SMILES IDX 10 13 8 14 9 15 12 16 13 17 18 21 19 22 20 23 21 24 22 25
REMARK SMILES IDX 23 26 84 27 24 28 83 29 25 30 26 31 27 32 77 33 28 34 82 35
REMARK SMILES IDX 76 36 78 37 29 38 81 39 75 40 74 41 30 43 62 44 42 45 61 46
REMARK SMILES IDX 43 47 46 48 60 49 79 50 44 51 45 52 59 54 80 55 47 56 31 57
REMARK SMILES IDX 32 58 40 59 33 60 34 61 38 62 41 63 35 64 36 65 39 66 37 67
REMARK SMILES IDX 63 68 64 69 72 70 65 71 66 72 70 73 73 74 67 75 68 76 71 77
REMARK SMILES IDX 69 78 48 79 49 80 57 81 50 82 51 83 55 84 58 85 52 86 53 87
REMARK SMILES IDX 56 88 54 89
REMARK H PARENT 13 18 13 19 13 20 78 42 46 53
REMARK Flexibility Score: inf
ROOT
ATOM      1  C   UNL     1      -1.015  -1.729   4.881  1.00  0.00     0.274 C 
ENDROOT
BRANCH   1   2
ATOM      2  O   UNL     1      -0.629  -1.121   3.631  1.00  0.00    -0.459 OA
BRANCH   2   3
ATOM      3  C   UNL     1       0.377  -0.207   3.684  1.00  0.00     0.347 C 
ATOM      4  O   UNL     1       0.976   0.113   4.706  1.00  0.00    -0.248 OA
BRANCH   3   5
ATOM      5  C   UNL     1       0.683   0.435   2.321  1.00  0.00     0.282 C 
BRANCH   5   6
ATOM      6  C   UNL     1      -0.178   1.693   2.140  1.00  0.00     0.054 C 
ATOM      7  C   UNL     1      -1.615   1.412   1.721  1.00  0.00     0.008 C 
ENDBRANCH   5   6
BRANCH   5   8
ATOM      8  O   UNL     1       0.493  -0.429   1.211  1.00  0.00    -0.477 OA
BRANCH   8   9
ATOM      9  C   UNL     1       1.517  -0.811   0.393  1.00  0.00     0.147 A 
ATOM     10  C   UNL     1       2.867  -0.509   0.560  1.00  0.00     0.050 A 
ATOM     11  C   UNL     1       1.176  -1.597  -0.720  1.00  0.00     0.136 A 
ATOM     12  C   UNL     1       3.820  -1.016  -0.327  1.00  0.00     0.027 A 
ATOM     13  N   UNL     1       2.103  -2.095  -1.591  1.00  0.00    -0.248 NA
ATOM     14  C   UNL     1       3.405  -1.815  -1.380  1.00  0.00     0.038 A 
ATOM     15  C   UNL     1       4.382  -2.364  -2.373  1.00  0.00     0.067 C 
BRANCH  11  16
ATOM     16  C   UNL     1      -0.274  -1.885  -1.068  1.00  0.00     0.320 C 
BRANCH  16  17
ATOM     17  N   UNL     1      -0.746  -1.101  -2.220  1.00  0.00    -0.352 N 
ATOM     18  H   UNL     1      -0.689  -0.106  -2.000  1.00  0.00     0.344 HD
ATOM     19  H   UNL     1      -1.713  -1.349  -2.427  1.00  0.00     0.344 HD
ATOM     20  H   UNL     1      -0.161  -1.303  -3.031  1.00  0.00     0.344 HD
ENDBRANCH  16  17
ENDBRANCH  11  16
ENDBRANCH   8   9
ENDBRANCH   5   8
ENDBRANCH   3   5
ENDBRANCH   2   3
ENDBRANCH   1   2
BRANCH   1  21
ATOM     21  C   UNL     1      -0.541  -3.181   4.971  1.00  0.00     0.275 C 
BRANCH  21  22
ATOM     22  O   UNL     1       0.894  -3.246   5.044  1.00  0.00    -0.458 OA
BRANCH  22  23
ATOM     23  C   UNL     1       1.511  -3.477   3.864  1.00  0.00     0.338 C 
ATOM     24  O   UNL     1       0.998  -3.690   2.781  1.00  0.00    -0.246 OA
BRANCH  23  25
ATOM     25  C   UNL     1       2.956  -3.294   4.039  1.00  0.00     0.060 A 
ATOM     26  C   UNL     1       3.514  -2.094   3.601  1.00  0.00     0.016 A 
ATOM     27  C   UNL     1       3.765  -4.318   4.527  1.00  0.00     0.016 A 
ATOM     28  C   UNL     1       4.893  -1.922   3.594  1.00  0.00     0.010 A 
ATOM     29  C   UNL     1       5.152  -4.133   4.554  1.00  0.00     0.010 A 
ATOM     30  C   UNL     1       5.724  -2.945   4.064  1.00  0.00    -0.014 A 
BRANCH  30  31
ATOM     31  C   UNL     1       7.196  -2.785   3.985  1.00  0.00     0.031 A 
ATOM     32  C   UNL     1       7.980  -3.594   2.992  1.00  0.00     0.074 A 
ATOM     33  C   UNL     1       7.820  -1.893   4.774  1.00  0.00     0.049 A 
ATOM     34  N   UNL     1       9.277  -3.687   2.841  1.00  0.00    -0.248 NA
ATOM     35  C   UNL     1       7.202  -4.404   2.043  1.00  0.00     0.031 C 
ATOM     36  C   UNL     1       7.159  -1.008   5.734  1.00  0.00     0.029 A 
ATOM     37  N   UNL     1       9.151  -1.584   4.895  1.00  0.00    -0.354 N 
ATOM     38  C   UNL     1       9.471  -4.591   1.805  1.00  0.00     0.074 A 
ATOM     39  C   UNL     1       8.160  -5.020   1.365  1.00  0.00     0.031 C 
ATOM     40  C   UNL     1       8.087  -0.252   6.342  1.00  0.00     0.029 A 
ATOM     41  C   UNL     1       9.409  -0.639   5.856  1.00  0.00     0.049 A 
ATOM     42  H   UNL     1       9.854  -2.000   4.345  1.00  0.00     0.167 HD
ATOM     43  C   UNL     1      10.639  -5.022   1.274  1.00  0.00     0.037 A 
ATOM     44  C   UNL     1      10.581  -0.165   6.319  1.00  0.00     0.037 A 
ATOM     45  C   UNL     1      11.940  -4.574   1.698  1.00  0.00     0.049 A 
ATOM     46  C   UNL     1      11.865  -0.692   5.741  1.00  0.00     0.074 A 
ATOM     47  C   UNL     1      13.184  -4.956   1.227  1.00  0.00     0.029 A 
ATOM     48  N   UNL     1      12.161  -3.634   2.694  1.00  0.00    -0.354 N 
ATOM     49  N   UNL     1      12.042  -1.578   4.792  1.00  0.00    -0.248 NA
ATOM     50  C   UNL     1      13.113  -0.162   6.308  1.00  0.00     0.031 C 
ATOM     51  C   UNL     1      14.159  -4.267   1.956  1.00  0.00     0.029 A 
ATOM     52  C   UNL     1      13.521  -3.429   2.858  1.00  0.00     0.049 A 
ATOM     53  H   UNL     1      11.456  -3.178   3.208  1.00  0.00     0.167 HD
ATOM     54  C   UNL     1      13.415  -1.706   4.640  1.00  0.00     0.074 A 
ATOM     55  C   UNL     1      14.027  -0.791   5.582  1.00  0.00     0.031 C 
ATOM     56  C   UNL     1      14.108  -2.513   3.800  1.00  0.00     0.037 A 
BRANCH  43  57
ATOM     57  C   UNL     1      10.564  -6.058   0.193  1.00  0.00     0.064 A 
ATOM     58  C   UNL     1      10.164  -5.734  -1.112  1.00  0.00     0.173 A 
ATOM     59  C   UNL     1      10.925  -7.387   0.461  1.00  0.00     0.173 A 
ATOM     60  F   UNL     1       9.793  -4.481  -1.413  1.00  0.00    -0.203 F 
ATOM     61  C   UNL     1      10.110  -6.710  -2.105  1.00  0.00     0.198 A 
ATOM     62  C   UNL     1      10.891  -8.354  -0.539  1.00  0.00     0.198 A 
ATOM     63  F   UNL     1      11.317  -7.745   1.693  1.00  0.00    -0.203 F 
ATOM     64  F   UNL     1       9.689  -6.387  -3.336  1.00  0.00    -0.200 F 
ATOM     65  C   UNL     1      10.478  -8.016  -1.819  1.00  0.00     0.200 A 
ATOM     66  F   UNL     1      11.255  -9.614  -0.264  1.00  0.00    -0.200 F 
ATOM     67  F   UNL     1      10.429  -8.952  -2.777  1.00  0.00    -0.200 F 
ENDBRANCH  43  57
BRANCH  44  68
ATOM     68  C   UNL     1      10.590   0.841   7.410  1.00  0.00     0.064 A 
ATOM     69  C   UNL     1      10.974   2.166   7.168  1.00  0.00     0.173 A 
ATOM     70  C   UNL     1      10.208   0.497   8.716  1.00  0.00     0.173 A 
ATOM     71  F   UNL     1      11.371   2.535   5.941  1.00  0.00    -0.203 F 
ATOM     72  C   UNL     1      10.984   3.109   8.194  1.00  0.00     0.198 A 
ATOM     73  C   UNL     1      10.194   1.447   9.734  1.00  0.00     0.198 A 
ATOM     74  F   UNL     1       9.834  -0.759   8.997  1.00  0.00    -0.203 F 
ATOM     75  F   UNL     1      11.389   4.362   7.945  1.00  0.00    -0.200 F 
ATOM     76  C   UNL     1      10.587   2.751   9.474  1.00  0.00     0.200 A 
ATOM     77  F   UNL     1       9.800   1.099  10.967  1.00  0.00    -0.200 F 
ATOM     78  F   UNL     1      10.590   3.660  10.458  1.00  0.00    -0.200 F 
ENDBRANCH  44  68
BRANCH  56  79
ATOM     79  C   UNL     1      15.603  -2.426   3.851  1.00  0.00     0.064 A 
ATOM     80  C   UNL     1      16.333  -3.005   4.899  1.00  0.00     0.173 A 
ATOM     81  C   UNL     1      16.314  -1.790   2.823  1.00  0.00     0.173 A 
ATOM     82  F   UNL     1      15.695  -3.610   5.912  1.00  0.00    -0.203 F 
ATOM     83  C   UNL     1      17.723  -2.932   4.926  1.00  0.00     0.198 A 
ATOM     84  C   UNL     1      17.704  -1.738   2.842  1.00  0.00     0.198 A 
ATOM     85  F   UNL     1      15.659  -1.224   1.798  1.00  0.00    -0.203 F 
ATOM     86  F   UNL     1      18.400  -3.458   5.955  1.00  0.00    -0.200 F 
ATOM     87  C   UNL     1      18.407  -2.304   3.895  1.00  0.00     0.200 A 
ATOM     88  F   UNL     1      18.365  -1.137   1.843  1.00  0.00    -0.200 F 
ATOM     89  F   UNL     1      19.745  -2.238   3.921  1.00  0.00    -0.200 F 
ENDBRANCH  56  79
ENDBRANCH  30  31
ENDBRANCH  23  25
ENDBRANCH  22  23
ENDBRANCH  21  22
ENDBRANCH   1  21
TORSDOF 16
