REMARK SMILES O=C(OCCOC(=O)[C@H]1O[C@@H](Oc2c(-c3cc(O)c(O)c(O)c3)oc3cc(O)cc(O)c3c2=O)[C@H](O)[C@@H](O)[C@@H]1O)c1ccc(-c2c3nc(c(-c4c(F)c(F)c(F)c(F)c4F)c4ccc([nH]4)c(-c4c(F)c(F)c(F)c(F)c4F)c4nc(c(-c5c(F)c(F)c(F)c(F)c5F)c5ccc2[nH]5)C=C4)C=C3)cc1
REMARK SMILES IDX 5 1 4 2 3 3 2 4 1 5 41 6 42 7 103 8 43 9 102 10 44 11 45 12
REMARK SMILES IDX 46 13 96 14 47 15 101 16 95 17 97 18 48 19 100 20 94 21
REMARK SMILES IDX 93 22 49 24 81 25 61 26 80 27 62 28 65 29 79 30 98 31 63 32
REMARK SMILES IDX 64 33 78 35 99 36 66 37 50 38 51 39 59 40 52 41 53 42 57 43
REMARK SMILES IDX 60 44 54 45 55 46 58 47 56 48 82 49 83 50 91 51 84 52 85 53
REMARK SMILES IDX 89 54 92 55 86 56 87 57 90 58 88 59 67 60 68 61 76 62 69 63
REMARK SMILES IDX 70 64 74 65 77 66 71 67 72 68 75 69 73 70 6 71 7 72 8 73
REMARK SMILES IDX 9 74 10 75 39 76 11 77 37 78 35 79 40 80 12 82 13 83 14 84
REMARK SMILES IDX 33 85 24 86 32 87 34 88 25 89 30 90 26 91 29 92 27 93 15 94
REMARK SMILES IDX 16 95 23 96 17 97 21 98 19 99 18 100 22 102 20 104 31 106
REMARK SMILES IDX 28 108 38 110 36 112
REMARK H PARENT 97 23 65 34 40 81 18 101 22 103 20 105 31 107 28 109 38 111
REMARK H PARENT 36 113
REMARK Flexibility Score: inf
ROOT
ATOM      1  C   UNL     1       0.429   0.232   5.440  1.00  0.00     0.274 C 
ENDROOT
BRANCH   1   2
ATOM      2  C   UNL     1      -0.936   0.613   4.868  1.00  0.00     0.275 C 
BRANCH   2   3
ATOM      3  O   UNL     1      -1.477  -0.368   3.970  1.00  0.00    -0.458 OA
BRANCH   3   4
ATOM      4  C   UNL     1      -1.436  -0.400   2.616  1.00  0.00     0.338 C 
ATOM      5  O   UNL     1      -2.264  -1.084   2.016  1.00  0.00    -0.246 OA
BRANCH   4   6
ATOM      6  C   UNL     1      -0.339   0.230   1.808  1.00  0.00     0.060 A 
ATOM      7  C   UNL     1       0.402   1.364   2.136  1.00  0.00     0.016 A 
ATOM      8  C   UNL     1      -0.017  -0.421   0.604  1.00  0.00     0.016 A 
ATOM      9  C   UNL     1       1.478   1.780   1.344  1.00  0.00     0.010 A 
ATOM     10  C   UNL     1       1.107  -0.065  -0.145  1.00  0.00     0.010 A 
ATOM     11  C   UNL     1       1.855   1.059   0.208  1.00  0.00    -0.014 A 
BRANCH  11  12
ATOM     12  C   UNL     1       2.920   1.594  -0.674  1.00  0.00     0.031 A 
ATOM     13  C   UNL     1       2.535   2.090  -2.041  1.00  0.00     0.074 A 
ATOM     14  C   UNL     1       4.187   1.714  -0.229  1.00  0.00     0.049 A 
ATOM     15  N   UNL     1       3.266   2.696  -2.941  1.00  0.00    -0.248 NA
ATOM     16  C   UNL     1       1.140   1.866  -2.460  1.00  0.00     0.031 C 
ATOM     17  C   UNL     1       4.679   1.251   1.070  1.00  0.00     0.029 A 
ATOM     18  N   UNL     1       5.291   2.288  -0.810  1.00  0.00    -0.354 N 
ATOM     19  C   UNL     1       2.415   2.933  -4.011  1.00  0.00     0.074 A 
ATOM     20  C   UNL     1       1.149   2.316  -3.702  1.00  0.00     0.031 C 
ATOM     21  C   UNL     1       5.975   1.584   1.200  1.00  0.00     0.029 A 
ATOM     22  C   UNL     1       6.408   2.281  -0.006  1.00  0.00     0.049 A 
ATOM     23  H   UNL     1       5.284   2.670  -1.718  1.00  0.00     0.167 HD
ATOM     24  C   UNL     1       2.643   3.659  -5.130  1.00  0.00     0.037 A 
ATOM     25  C   UNL     1       7.632   2.804  -0.219  1.00  0.00     0.037 A 
ATOM     26  C   UNL     1       3.895   4.291  -5.426  1.00  0.00     0.049 A 
ATOM     27  C   UNL     1       7.871   3.573  -1.495  1.00  0.00     0.074 A 
ATOM     28  C   UNL     1       4.248   5.038  -6.533  1.00  0.00     0.029 A 
ATOM     29  N   UNL     1       5.004   4.249  -4.593  1.00  0.00    -0.354 N 
ATOM     30  N   UNL     1       7.037   3.842  -2.472  1.00  0.00    -0.248 NA
ATOM     31  C   UNL     1       9.216   4.132  -1.689  1.00  0.00     0.031 C 
ATOM     32  C   UNL     1       5.585   5.421  -6.386  1.00  0.00     0.029 A 
ATOM     33  C   UNL     1       6.048   4.952  -5.165  1.00  0.00     0.049 A 
ATOM     34  H   UNL     1       5.042   3.788  -3.724  1.00  0.00     0.167 HD
ATOM     35  C   UNL     1       7.744   4.624  -3.376  1.00  0.00     0.074 A 
ATOM     36  C   UNL     1       9.066   4.812  -2.816  1.00  0.00     0.031 C 
ATOM     37  C   UNL     1       7.346   5.134  -4.568  1.00  0.00     0.037 A 
BRANCH  24  38
ATOM     38  C   UNL     1       1.495   3.809  -6.084  1.00  0.00     0.064 A 
ATOM     39  C   UNL     1       0.364   4.573  -5.748  1.00  0.00     0.173 A 
ATOM     40  C   UNL     1       1.501   3.156  -7.323  1.00  0.00     0.173 A 
ATOM     41  F   UNL     1       0.298   5.195  -4.560  1.00  0.00    -0.203 F 
ATOM     42  C   UNL     1      -0.734   4.642  -6.600  1.00  0.00     0.198 A 
ATOM     43  C   UNL     1       0.414   3.254  -8.188  1.00  0.00     0.198 A 
ATOM     44  F   UNL     1       2.554   2.410  -7.689  1.00  0.00    -0.203 F 
ATOM     45  F   UNL     1      -1.829   5.317  -6.226  1.00  0.00    -0.200 F 
ATOM     46  C   UNL     1      -0.706   3.986  -7.821  1.00  0.00     0.200 A 
ATOM     47  F   UNL     1       0.442   2.623  -9.370  1.00  0.00    -0.200 F 
ATOM     48  F   UNL     1      -1.767   4.046  -8.638  1.00  0.00    -0.200 F 
ENDBRANCH  24  38
BRANCH  25  49
ATOM     49  C   UNL     1       8.720   2.652   0.790  1.00  0.00     0.064 A 
ATOM     50  C   UNL     1       9.268   3.764   1.448  1.00  0.00     0.173 A 
ATOM     51  C   UNL     1       9.288   1.398   1.062  1.00  0.00     0.173 A 
ATOM     52  F   UNL     1       8.777   4.990   1.213  1.00  0.00    -0.203 F 
ATOM     53  C   UNL     1      10.368   3.635   2.296  1.00  0.00     0.198 A 
ATOM     54  C   UNL     1      10.367   1.265   1.936  1.00  0.00     0.198 A 
ATOM     55  F   UNL     1       8.806   0.299   0.463  1.00  0.00    -0.203 F 
ATOM     56  F   UNL     1      10.920   4.726   2.845  1.00  0.00    -0.200 F 
ATOM     57  C   UNL     1      10.918   2.385   2.538  1.00  0.00     0.200 A 
ATOM     58  F   UNL     1      10.891   0.055   2.173  1.00  0.00    -0.200 F 
ATOM     59  F   UNL     1      11.989   2.265   3.335  1.00  0.00    -0.200 F 
ENDBRANCH  25  49
BRANCH  37  60
ATOM     60  C   UNL     1       8.341   5.966  -5.323  1.00  0.00     0.064 A 
ATOM     61  C   UNL     1       9.470   5.393  -5.926  1.00  0.00     0.173 A 
ATOM     62  C   UNL     1       8.134   7.344  -5.486  1.00  0.00     0.173 A 
ATOM     63  F   UNL     1       9.716   4.081  -5.789  1.00  0.00    -0.203 F 
ATOM     64  C   UNL     1      10.373   6.176  -6.638  1.00  0.00     0.198 A 
ATOM     65  C   UNL     1       9.020   8.117  -6.229  1.00  0.00     0.198 A 
ATOM     66  F   UNL     1       7.062   7.938  -4.938  1.00  0.00    -0.203 F 
ATOM     67  F   UNL     1      11.473   5.617  -7.160  1.00  0.00    -0.200 F 
ATOM     68  C   UNL     1      10.143   7.534  -6.796  1.00  0.00     0.200 A 
ATOM     69  F   UNL     1       8.786   9.426  -6.398  1.00  0.00    -0.200 F 
ATOM     70  F   UNL     1      11.008   8.284  -7.492  1.00  0.00    -0.200 F 
ENDBRANCH  37  60
ENDBRANCH  11  12
ENDBRANCH   4   6
ENDBRANCH   3   4
ENDBRANCH   2   3
ENDBRANCH   1   2
BRANCH   1  71
ATOM     71  O   UNL     1       1.349  -0.228   4.440  1.00  0.00    -0.460 OA
BRANCH  71  72
ATOM     72  C   UNL     1       1.542  -1.582   4.360  1.00  0.00     0.338 C 
ATOM     73  O   UNL     1       0.963  -2.420   5.046  1.00  0.00    -0.249 OA
BRANCH  72  74
ATOM     74  C   UNL     1       2.641  -1.887   3.349  1.00  0.00     0.263 C 
ATOM     75  O   UNL     1       3.760  -2.437   4.027  1.00  0.00    -0.322 OA
ATOM     76  C   UNL     1       2.213  -2.901   2.298  1.00  0.00     0.186 C 
ATOM     77  C   UNL     1       4.904  -2.747   3.230  1.00  0.00     0.340 C 
ATOM     78  C   UNL     1       3.272  -2.793   1.204  1.00  0.00     0.181 C 
ATOM     79  C   UNL     1       4.636  -3.185   1.757  1.00  0.00     0.214 C 
BRANCH  76  80
ATOM     80  O   UNL     1       0.938  -2.675   1.738  1.00  0.00    -0.387 OA
ATOM     81  H   UNL     1       0.925  -1.809   1.301  1.00  0.00     0.211 HD
ENDBRANCH  76  80
BRANCH  77  82
ATOM     82  O   UNL     1       5.719  -3.788   3.838  1.00  0.00    -0.454 OA
BRANCH  82  83
ATOM     83  C   UNL     1       5.026  -4.617   4.715  1.00  0.00     0.214 A 
ATOM     84  C   UNL     1       4.576  -5.847   4.383  1.00  0.00     0.181 A 
ATOM     85  C   UNL     1       4.833  -4.145   6.123  1.00  0.00     0.239 A 
ATOM     86  O   UNL     1       3.859  -6.673   5.223  1.00  0.00    -0.452 OA
ATOM     87  C   UNL     1       4.126  -5.071   7.042  1.00  0.00     0.111 A 
ATOM     88  O   UNL     1       5.270  -3.055   6.476  1.00  0.00    -0.285 OA
ATOM     89  C   UNL     1       3.678  -6.289   6.526  1.00  0.00     0.146 A 
ATOM     90  C   UNL     1       3.913  -4.795   8.402  1.00  0.00     0.134 A 
ATOM     91  C   UNL     1       3.026  -7.215   7.343  1.00  0.00     0.094 A 
ATOM     92  C   UNL     1       3.276  -5.728   9.230  1.00  0.00     0.093 A 
ATOM     93  C   UNL     1       2.842  -6.934   8.689  1.00  0.00     0.123 A 
BRANCH  84  94
ATOM     94  C   UNL     1       4.719  -6.402   3.022  1.00  0.00     0.029 A 
ATOM     95  C   UNL     1       3.563  -6.690   2.270  1.00  0.00     0.062 A 
ATOM     96  C   UNL     1       5.979  -6.501   2.409  1.00  0.00     0.062 A 
ATOM     97  C   UNL     1       3.669  -6.949   0.905  1.00  0.00     0.162 A 
ATOM     98  C   UNL     1       6.063  -6.786   1.050  1.00  0.00     0.162 A 
ATOM     99  C   UNL     1       4.916  -7.000   0.293  1.00  0.00     0.200 A 
BRANCH  97 100
ATOM    100  O   UNL     1       2.514  -7.012   0.179  1.00  0.00    -0.504 OA
ATOM    101  H   UNL     1       1.685  -6.975   0.615  1.00  0.00     0.293 HD
ENDBRANCH  97 100
BRANCH  98 102
ATOM    102  O   UNL     1       7.291  -6.790   0.454  1.00  0.00    -0.504 OA
ATOM    103  H   UNL     1       7.367  -6.979  -0.461  1.00  0.00     0.293 HD
ENDBRANCH  98 102
BRANCH  99 104
ATOM    104  O   UNL     1       5.051  -7.212  -1.050  1.00  0.00    -0.502 OA
ATOM    105  H   UNL     1       4.293  -7.359  -1.580  1.00  0.00     0.293 HD
ENDBRANCH  99 104
ENDBRANCH  84  94
BRANCH  90 106
ATOM    106  O   UNL     1       4.335  -3.619   8.954  1.00  0.00    -0.507 OA
ATOM    107  H   UNL     1       4.186  -3.448   9.863  1.00  0.00     0.293 HD
ENDBRANCH  90 106
BRANCH  93 108
ATOM    108  O   UNL     1       2.238  -7.885   9.456  1.00  0.00    -0.508 OA
ATOM    109  H   UNL     1       1.954  -8.689   9.068  1.00  0.00     0.293 HD
ENDBRANCH  93 108
ENDBRANCH  82  83
ENDBRANCH  77  82
BRANCH  78 110
ATOM    110  O   UNL     1       2.911  -3.621   0.082  1.00  0.00    -0.387 OA
ATOM    111  H   UNL     1       2.856  -4.546   0.368  1.00  0.00     0.211 HD
ENDBRANCH  78 110
BRANCH  79 112
ATOM    112  O   UNL     1       5.659  -2.691   0.877  1.00  0.00    -0.384 OA
ATOM    113  H   UNL     1       5.628  -1.722   0.859  1.00  0.00     0.211 HD
ENDBRANCH  79 112
ENDBRANCH  72  74
ENDBRANCH  71  72
ENDBRANCH   1  71
TORSDOF 22
