REMARK SMILES O=C(OCCOC(=O)[C@@H](Cc1ccccc1)/N=C1\C(=O)c2ccccc2C(=O)[C@H]1Cl)c1ccc(-c2c3nc(c(-c4c(F)c(F)c(F)c(F)c4F)c4ccc([nH]4)c(-c4c(F)c(F)c(F)c(F)c4F)c4nc(c(-c5c(F)c(F)c(F)c(F)c5F)c5ccc2[nH]5)C=C4)C=C3)cc1
REMARK SMILES IDX 4 1 3 2 2 3 1 4 31 5 32 6 93 7 33 8 92 9 34 10 35 11 36 12
REMARK SMILES IDX 86 13 37 14 91 15 85 16 87 17 38 18 90 19 84 20 83 21 39 23
REMARK SMILES IDX 71 24 51 25 70 26 52 27 55 28 69 29 88 30 53 31 54 32 68 34
REMARK SMILES IDX 89 35 56 36 40 37 41 38 49 39 42 40 43 41 47 42 50 43 44 44
REMARK SMILES IDX 45 45 48 46 46 47 72 48 73 49 81 50 74 51 75 52 79 53 82 54
REMARK SMILES IDX 76 55 77 56 80 57 78 58 57 59 58 60 66 61 59 62 60 63 64 64
REMARK SMILES IDX 67 65 61 66 62 67 65 68 63 69 5 70 6 71 7 72 8 73 9 74 10 75
REMARK SMILES IDX 11 76 12 77 16 78 13 79 15 80 14 81 17 82 18 83 19 84 29 85
REMARK SMILES IDX 20 86 21 87 27 88 30 89 22 90 26 91 28 92 23 93 25 94 24 95
REMARK H PARENT 87 22 55 33
REMARK Flexibility Score: inf
ROOT
ATOM      1  C   UNL     1       4.502   1.349   1.162  1.00  0.00     0.275 C 
ENDROOT
BRANCH   1   2
ATOM      2  O   UNL     1       3.469   1.613   0.215  1.00  0.00    -0.458 OA
BRANCH   2   3
ATOM      3  C   UNL     1       3.099   0.833  -0.807  1.00  0.00     0.338 C 
ATOM      4  O   UNL     1       2.192   1.218  -1.545  1.00  0.00    -0.246 OA
BRANCH   3   5
ATOM      5  C   UNL     1       3.668  -0.511  -1.119  1.00  0.00     0.060 A 
ATOM      6  C   UNL     1       4.805  -1.607  -0.190  1.00  0.00     0.016 A 
ATOM      7  C   UNL     1       2.897  -1.160  -2.646  1.00  0.00     0.016 A 
ATOM      8  C   UNL     1       4.935  -3.394  -0.668  1.00  0.00     0.010 A 
ATOM      9  C   UNL     1       3.124  -2.845  -3.154  1.00  0.00     0.010 A 
ATOM     10  C   UNL     1       4.125  -3.985  -2.214  1.00  0.00    -0.014 A 
BRANCH  10  11
ATOM     11  C   UNL     1       4.516  -5.296  -2.808  1.00  0.00     0.031 A 
ATOM     12  C   UNL     1       5.378  -5.299  -4.048  1.00  0.00     0.074 A 
ATOM     13  C   UNL     1       4.423  -6.362  -2.000  1.00  0.00     0.049 A 
ATOM     14  N   UNL     1       6.349  -6.122  -4.356  1.00  0.00    -0.248 NA
ATOM     15  C   UNL     1       5.241  -4.176  -4.992  1.00  0.00     0.031 C 
ATOM     16  C   UNL     1       3.617  -6.411  -0.784  1.00  0.00     0.029 A 
ATOM     17  N   UNL     1       5.101  -7.552  -2.009  1.00  0.00    -0.354 N 
ATOM     18  C   UNL     1       6.958  -5.579  -5.482  1.00  0.00     0.074 A 
ATOM     19  C   UNL     1       6.282  -4.347  -5.792  1.00  0.00     0.031 C 
ATOM     20  C   UNL     1       3.957  -7.502  -0.084  1.00  0.00     0.029 A 
ATOM     21  C   UNL     1       4.969  -8.247  -0.826  1.00  0.00     0.049 A 
ATOM     22  H   UNL     1       5.627  -7.876  -2.776  1.00  0.00     0.167 HD
ATOM     23  C   UNL     1       7.976  -6.082  -6.215  1.00  0.00     0.037 A 
ATOM     24  C   UNL     1       5.622  -9.341  -0.388  1.00  0.00     0.037 A 
ATOM     25  C   UNL     1       8.542  -7.376  -5.975  1.00  0.00     0.049 A 
ATOM     26  C   UNL     1       6.652  -9.944  -1.307  1.00  0.00     0.074 A 
ATOM     27  C   UNL     1       9.414  -8.098  -6.766  1.00  0.00     0.029 A 
ATOM     28  N   UNL     1       8.237  -8.162  -4.875  1.00  0.00    -0.354 N 
ATOM     29  N   UNL     1       7.203  -9.438  -2.386  1.00  0.00    -0.248 NA
ATOM     30  C   UNL     1       7.110 -11.299  -0.975  1.00  0.00     0.031 C 
ATOM     31  C   UNL     1       9.566  -9.361  -6.186  1.00  0.00     0.029 A 
ATOM     32  C   UNL     1       8.851  -9.393  -4.997  1.00  0.00     0.049 A 
ATOM     33  H   UNL     1       7.669  -7.885  -4.120  1.00  0.00     0.167 HD
ATOM     34  C   UNL     1       8.034 -10.431  -2.886  1.00  0.00     0.074 A 
ATOM     35  C   UNL     1       7.988 -11.528  -1.940  1.00  0.00     0.031 C 
ATOM     36  C   UNL     1       8.735 -10.467  -4.047  1.00  0.00     0.037 A 
BRANCH  23  37
ATOM     37  C   UNL     1       8.405  -5.315  -7.428  1.00  0.00     0.064 A 
ATOM     38  C   UNL     1       9.287  -4.228  -7.357  1.00  0.00     0.173 A 
ATOM     39  C   UNL     1       7.927  -5.697  -8.691  1.00  0.00     0.173 A 
ATOM     40  F   UNL     1       9.749  -3.807  -6.170  1.00  0.00    -0.203 F 
ATOM     41  C   UNL     1       9.681  -3.555  -8.513  1.00  0.00     0.198 A 
ATOM     42  C   UNL     1       8.333  -5.031  -9.843  1.00  0.00     0.198 A 
ATOM     43  F   UNL     1       7.067  -6.719  -8.803  1.00  0.00    -0.203 F 
ATOM     44  F   UNL     1      10.512  -2.506  -8.429  1.00  0.00    -0.200 F 
ATOM     45  C   UNL     1       9.210  -3.962  -9.754  1.00  0.00     0.200 A 
ATOM     46  F   UNL     1       7.873  -5.427 -11.038  1.00  0.00    -0.200 F 
ATOM     47  F   UNL     1       9.595  -3.318 -10.865  1.00  0.00    -0.200 F 
ENDBRANCH  23  37
BRANCH  24  48
ATOM     48  C   UNL     1       5.318  -9.949   0.942  1.00  0.00     0.064 A 
ATOM     49  C   UNL     1       6.325 -10.181   1.893  1.00  0.00     0.173 A 
ATOM     50  C   UNL     1       4.017 -10.357   1.280  1.00  0.00     0.173 A 
ATOM     51  F   UNL     1       7.599  -9.863   1.617  1.00  0.00    -0.203 F 
ATOM     52  C   UNL     1       6.043 -10.801   3.112  1.00  0.00     0.198 A 
ATOM     53  C   UNL     1       3.728 -10.930   2.516  1.00  0.00     0.198 A 
ATOM     54  F   UNL     1       3.012 -10.201   0.405  1.00  0.00    -0.203 F 
ATOM     55  F   UNL     1       7.037 -11.078   3.967  1.00  0.00    -0.200 F 
ATOM     56  C   UNL     1       4.743 -11.164   3.427  1.00  0.00     0.200 A 
ATOM     57  F   UNL     1       2.466 -11.265   2.815  1.00  0.00    -0.200 F 
ATOM     58  F   UNL     1       4.472 -11.760   4.596  1.00  0.00    -0.200 F 
ENDBRANCH  24  48
BRANCH  36  59
ATOM     59  C   UNL     1       9.412 -11.759  -4.385  1.00  0.00     0.064 A 
ATOM     60  C   UNL     1       8.660 -12.891  -4.737  1.00  0.00     0.173 A 
ATOM     61  C   UNL     1      10.809 -11.857  -4.418  1.00  0.00     0.173 A 
ATOM     62  F   UNL     1       7.319 -12.844  -4.716  1.00  0.00    -0.203 F 
ATOM     63  C   UNL     1       9.284 -14.085  -5.078  1.00  0.00     0.198 A 
ATOM     64  C   UNL     1      11.430 -13.043  -4.795  1.00  0.00     0.198 A 
ATOM     65  F   UNL     1      11.570 -10.796  -4.107  1.00  0.00    -0.203 F 
ATOM     66  F   UNL     1       8.546 -15.166  -5.361  1.00  0.00    -0.200 F 
ATOM     67  C   UNL     1      10.668 -14.157  -5.115  1.00  0.00     0.200 A 
ATOM     68  F   UNL     1      12.767 -13.107  -4.852  1.00  0.00    -0.200 F 
ATOM     69  F   UNL     1      11.269 -15.306  -5.455  1.00  0.00    -0.200 F 
ENDBRANCH  36  59
ENDBRANCH  10  11
ENDBRANCH   3   5
ENDBRANCH   2   3
ENDBRANCH   1   2
BRANCH   1  70
ATOM     70  C   UNL     1       3.932   0.619   2.379  1.00  0.00     0.274 C 
BRANCH  70  71
ATOM     71  O   UNL     1       3.779  -0.786   2.100  1.00  0.00    -0.460 OA
BRANCH  71  72
ATOM     72  C   UNL     1       2.641  -1.275   1.562  1.00  0.00     0.331 C 
ATOM     73  O   UNL     1       1.581  -0.665   1.521  1.00  0.00    -0.250 OA
BRANCH  72  74
ATOM     74  C   UNL     1       2.905  -2.610   0.816  1.00  0.00     0.219 C 
BRANCH  74  75
ATOM     75  C   UNL     1       3.203  -2.498  -1.030  1.00  0.00     0.074 C 
BRANCH  75  76
ATOM     76  C   UNL     1       4.928  -1.951  -2.222  1.00  0.00    -0.045 A 
ATOM     77  C   UNL     1       6.273  -2.748  -2.390  1.00  0.00     0.004 A 
ATOM     78  C   UNL     1       5.367  -0.612  -2.748  1.00  0.00     0.004 A 
ATOM     79  C   UNL     1       7.591  -2.314  -2.638  1.00  0.00     0.000 A 
ATOM     80  C   UNL     1       6.719  -0.159  -2.941  1.00  0.00     0.000 A 
ATOM     81  C   UNL     1       7.821  -0.986  -2.819  1.00  0.00     0.000 A 
ENDBRANCH  75  76
ENDBRANCH  74  75
BRANCH  74  82
ATOM     82  N   UNL     1       3.592  -3.703   1.578  1.00  0.00    -0.268 NA
ATOM     83  C   UNL     1       4.674  -3.838   2.263  1.00  0.00     0.110 C 
ATOM     84  C   UNL     1       5.796  -2.857   2.534  1.00  0.00     0.209 C 
ATOM     85  C   UNL     1       5.090  -5.224   2.695  1.00  0.00     0.205 C 
ATOM     86  O   UNL     1       5.678  -1.898   3.272  1.00  0.00    -0.287 OA
ATOM     87  C   UNL     1       7.107  -3.225   1.961  1.00  0.00     0.035 A 
ATOM     88  C   UNL     1       6.412  -5.639   2.068  1.00  0.00     0.187 C 
ATOM     89  Cl  UNL     1       5.275  -5.281   4.461  1.00  0.00    -0.107 Cl
ATOM     90  C   UNL     1       8.037  -2.224   1.649  1.00  0.00     0.013 A 
ATOM     91  C   UNL     1       7.387  -4.570   1.696  1.00  0.00     0.031 A 
ATOM     92  O   UNL     1       6.708  -6.819   1.896  1.00  0.00    -0.292 OA
ATOM     93  C   UNL     1       9.241  -2.568   1.033  1.00  0.00     0.001 A 
ATOM     94  C   UNL     1       8.595  -4.905   1.070  1.00  0.00     0.012 A 
ATOM     95  C   UNL     1       9.516  -3.904   0.739  1.00  0.00     0.001 A 
ENDBRANCH  74  82
ENDBRANCH  72  74
ENDBRANCH  71  72
ENDBRANCH  70  71
ENDBRANCH   1  70
TORSDOF 14
