REMARK SMILES Cc1nsc(NC(=O)CC2([NH3+])CCC2)c1C(=O)OCCOC(=O)c1ccc(-c2c3nc(c(-c4c(F)c(F)c(F)c(F)c4F)c4ccc([nH]4)c(-c4c(F)c(F)c(F)c(F)c4F)c4nc(c(-c5c(F)c(F)c(F)c(F)c5F)c5ccc2[nH]5)C=C4)C=C3)cc1
REMARK SMILES IDX 19 1 18 2 16 3 17 4 15 5 1 6 2 7 3 8 4 9 5 10 6 11 7 12 8 14
REMARK SMILES IDX 9 15 10 16 12 17 14 18 13 19 11 20 20 24 21 25 22 26 23 27
REMARK SMILES IDX 24 28 25 29 86 30 26 31 85 32 27 33 28 34 29 35 79 36 30 37
REMARK SMILES IDX 84 38 78 39 80 40 31 41 83 42 77 43 76 44 32 46 64 47 44 48
REMARK SMILES IDX 63 49 45 50 48 51 62 52 81 53 46 54 47 55 61 57 82 58 49 59
REMARK SMILES IDX 33 60 34 61 42 62 35 63 36 64 40 65 43 66 37 67 38 68 41 69
REMARK SMILES IDX 39 70 65 71 66 72 74 73 67 74 68 75 72 76 75 77 69 78 70 79
REMARK SMILES IDX 73 80 71 81 50 82 51 83 59 84 52 85 53 86 57 87 60 88 54 89
REMARK SMILES IDX 55 90 58 91 56 92
REMARK H PARENT 6 13 11 21 11 22 11 23 80 45 48 56
REMARK Flexibility Score: inf
ROOT
ATOM      1  C   UNL     1      -0.093   3.499   1.913  1.00  0.00     0.275 C 
ENDROOT
BRANCH   1   2
ATOM      2  O   UNL     1       0.358   2.143   1.744  1.00  0.00    -0.458 OA
BRANCH   2   3
ATOM      3  C   UNL     1       0.321   1.322   2.831  1.00  0.00     0.343 C 
ATOM      4  O   UNL     1       0.015   1.695   3.963  1.00  0.00    -0.246 OA
BRANCH   3   5
ATOM      5  C   UNL     1       0.682  -0.059   2.541  1.00  0.00     0.117 A 
ATOM      6  C   UNL     1       1.108  -0.028  -0.075  1.00  0.00     0.069 C 
ATOM      7  C   UNL     1       1.122  -0.636   1.286  1.00  0.00     0.068 A 
ATOM      8  N   UNL     1       1.604  -1.880   1.368  1.00  0.00    -0.195 NA
ATOM      9  S   UNL     1       1.475  -2.393   2.926  1.00  0.00    -0.017 S 
ATOM     10  C   UNL     1       0.527  -1.095   3.460  1.00  0.00     0.130 A 
BRANCH  10  11
ATOM     11  N   UNL     1      -0.168  -1.090   4.653  1.00  0.00    -0.315 N 
ATOM     12  C   UNL     1      -0.686  -2.087   5.425  1.00  0.00     0.231 C 
ATOM     13  H   UNL     1      -0.319  -0.188   5.017  1.00  0.00     0.170 HD
ATOM     14  O   UNL     1      -1.320  -1.726   6.428  1.00  0.00    -0.274 OA
BRANCH  12  15
ATOM     15  C   UNL     1      -0.577  -3.572   5.137  1.00  0.00     0.168 C 
BRANCH  15  16
ATOM     16  C   UNL     1      -1.546  -4.152   4.111  1.00  0.00     0.103 C 
ATOM     17  C   UNL     1      -2.077  -5.597   4.387  1.00  0.00     0.069 C 
ATOM     18  C   UNL     1      -3.039  -3.717   4.061  1.00  0.00     0.069 C 
ATOM     19  C   UNL     1      -3.410  -5.181   3.724  1.00  0.00     0.013 C 
BRANCH  16  20
ATOM     20  N   UNL     1      -1.046  -4.171   2.727  1.00  0.00    -0.352 N 
ATOM     21  H   UNL     1      -0.066  -4.453   2.723  1.00  0.00     0.344 HD
ATOM     22  H   UNL     1      -1.134  -3.240   2.321  1.00  0.00     0.344 HD
ATOM     23  H   UNL     1      -1.593  -4.835   2.178  1.00  0.00     0.344 HD
ENDBRANCH  16  20
ENDBRANCH  15  16
ENDBRANCH  12  15
ENDBRANCH  10  11
ENDBRANCH   3   5
ENDBRANCH   2   3
ENDBRANCH   1   2
BRANCH   1  24
ATOM     24  C   UNL     1      -1.598   3.633   1.719  1.00  0.00     0.275 C 
BRANCH  24  25
ATOM     25  O   UNL     1      -2.302   3.067   2.818  1.00  0.00    -0.458 OA
BRANCH  25  26
ATOM     26  C   UNL     1      -2.636   1.762   2.702  1.00  0.00     0.338 C 
ATOM     27  O   UNL     1      -2.267   0.980   1.844  1.00  0.00    -0.246 OA
BRANCH  26  28
ATOM     28  C   UNL     1      -3.680   1.469   3.688  1.00  0.00     0.060 A 
ATOM     29  C   UNL     1      -4.318   0.231   3.578  1.00  0.00     0.016 A 
ATOM     30  C   UNL     1      -4.194   2.504   4.483  1.00  0.00     0.016 A 
ATOM     31  C   UNL     1      -5.590   0.108   4.086  1.00  0.00     0.010 A 
ATOM     32  C   UNL     1      -5.471   2.390   4.967  1.00  0.00     0.010 A 
ATOM     33  C   UNL     1      -6.179   1.227   4.683  1.00  0.00    -0.014 A 
BRANCH  33  34
ATOM     34  C   UNL     1      -7.560   1.134   5.095  1.00  0.00     0.031 A 
ATOM     35  C   UNL     1      -7.724   0.347   6.337  1.00  0.00     0.074 A 
ATOM     36  C   UNL     1      -8.528   1.809   4.448  1.00  0.00     0.049 A 
ATOM     37  N   UNL     1      -8.332  -0.782   6.482  1.00  0.00    -0.248 NA
ATOM     38  C   UNL     1      -6.957   0.773   7.521  1.00  0.00     0.031 C 
ATOM     39  C   UNL     1      -8.383   2.814   3.390  1.00  0.00     0.029 A 
ATOM     40  N   UNL     1      -9.867   1.807   4.682  1.00  0.00    -0.354 N 
ATOM     41  C   UNL     1      -8.194  -1.105   7.828  1.00  0.00     0.074 A 
ATOM     42  C   UNL     1      -7.176  -0.240   8.356  1.00  0.00     0.031 C 
ATOM     43  C   UNL     1      -9.551   3.482   3.244  1.00  0.00     0.029 A 
ATOM     44  C   UNL     1     -10.550   2.870   4.099  1.00  0.00     0.049 A 
ATOM     45  H   UNL     1     -10.315   1.113   5.218  1.00  0.00     0.167 HD
ATOM     46  C   UNL     1      -9.140  -1.850   8.458  1.00  0.00     0.037 A 
ATOM     47  C   UNL     1     -11.814   3.252   4.413  1.00  0.00     0.037 A 
ATOM     48  C   UNL     1      -9.917  -2.603   7.506  1.00  0.00     0.049 A 
ATOM     49  C   UNL     1     -12.466   2.093   5.085  1.00  0.00     0.074 A 
ATOM     50  C   UNL     1      -9.620  -3.579   6.574  1.00  0.00     0.029 A 
ATOM     51  N   UNL     1     -11.149  -2.110   7.153  1.00  0.00    -0.354 N 
ATOM     52  N   UNL     1     -12.735   0.967   4.479  1.00  0.00    -0.248 NA
ATOM     53  C   UNL     1     -12.347   2.010   6.534  1.00  0.00     0.031 C 
ATOM     54  C   UNL     1     -10.452  -3.284   5.454  1.00  0.00     0.029 A 
ATOM     55  C   UNL     1     -11.258  -2.196   5.791  1.00  0.00     0.049 A 
ATOM     56  H   UNL     1     -11.831  -1.757   7.769  1.00  0.00     0.167 HD
ATOM     57  C   UNL     1     -12.401  -0.018   5.399  1.00  0.00     0.074 A 
ATOM     58  C   UNL     1     -12.215   0.688   6.665  1.00  0.00     0.031 C 
ATOM     59  C   UNL     1     -12.017  -1.263   4.992  1.00  0.00     0.037 A 
BRANCH  46  60
ATOM     60  C   UNL     1      -9.637  -1.554   9.855  1.00  0.00     0.064 A 
ATOM     61  C   UNL     1     -10.598  -2.415  10.421  1.00  0.00     0.173 A 
ATOM     62  C   UNL     1      -9.465  -0.319  10.521  1.00  0.00     0.173 A 
ATOM     63  F   UNL     1     -10.850  -3.613   9.871  1.00  0.00    -0.203 F 
ATOM     64  C   UNL     1     -11.397  -2.023  11.496  1.00  0.00     0.198 A 
ATOM     65  C   UNL     1     -10.228   0.046  11.627  1.00  0.00     0.198 A 
ATOM     66  F   UNL     1      -8.643   0.637  10.076  1.00  0.00    -0.203 F 
ATOM     67  F   UNL     1     -12.395  -2.818  11.905  1.00  0.00    -0.200 F 
ATOM     68  C   UNL     1     -11.220  -0.788  12.091  1.00  0.00     0.200 A 
ATOM     69  F   UNL     1     -10.049   1.256  12.177  1.00  0.00    -0.200 F 
ATOM     70  F   UNL     1     -12.032  -0.379  13.073  1.00  0.00    -0.200 F 
ENDBRANCH  46  60
BRANCH  47  71
ATOM     71  C   UNL     1     -12.314   4.644   4.555  1.00  0.00     0.064 A 
ATOM     72  C   UNL     1     -13.688   4.930   4.588  1.00  0.00     0.173 A 
ATOM     73  C   UNL     1     -11.451   5.696   4.929  1.00  0.00     0.173 A 
ATOM     74  F   UNL     1     -14.582   3.971   4.306  1.00  0.00    -0.203 F 
ATOM     75  C   UNL     1     -14.169   6.189   4.973  1.00  0.00     0.198 A 
ATOM     76  C   UNL     1     -11.930   6.951   5.308  1.00  0.00     0.198 A 
ATOM     77  F   UNL     1     -10.129   5.499   5.026  1.00  0.00    -0.203 F 
ATOM     78  F   UNL     1     -15.489   6.410   5.041  1.00  0.00    -0.200 F 
ATOM     79  C   UNL     1     -13.289   7.195   5.339  1.00  0.00     0.200 A 
ATOM     80  F   UNL     1     -11.068   7.900   5.699  1.00  0.00    -0.200 F 
ATOM     81  F   UNL     1     -13.749   8.382   5.758  1.00  0.00    -0.200 F 
ENDBRANCH  47  71
BRANCH  59  82
ATOM     82  C   UNL     1     -12.193  -1.623   3.545  1.00  0.00     0.064 A 
ATOM     83  C   UNL     1     -11.477  -1.024   2.494  1.00  0.00     0.173 A 
ATOM     84  C   UNL     1     -12.969  -2.749   3.241  1.00  0.00     0.173 A 
ATOM     85  F   UNL     1     -10.645  -0.000   2.723  1.00  0.00    -0.203 F 
ATOM     86  C   UNL     1     -11.553  -1.524   1.194  1.00  0.00     0.198 A 
ATOM     87  C   UNL     1     -13.015  -3.266   1.951  1.00  0.00     0.198 A 
ATOM     88  F   UNL     1     -13.631  -3.389   4.217  1.00  0.00    -0.203 F 
ATOM     89  F   UNL     1     -10.855  -0.943   0.206  1.00  0.00    -0.200 F 
ATOM     90  C   UNL     1     -12.312  -2.652   0.927  1.00  0.00     0.200 A 
ATOM     91  F   UNL     1     -13.711  -4.386   1.709  1.00  0.00    -0.200 F 
ATOM     92  F   UNL     1     -12.342  -3.167  -0.310  1.00  0.00    -0.200 F 
ENDBRANCH  59  82
ENDBRANCH  33  34
ENDBRANCH  26  28
ENDBRANCH  25  26
ENDBRANCH  24  25
ENDBRANCH   1  24
TORSDOF 15
