REMARK SMILES CC(C)N(CC1CC[NH2+]CC1)S(=O)(=O)[C@H](C)C(=O)OCCOC(=O)c1ccc(-c2c3nc(c(-c4c(F)c(F)c(F)c(F)c4F)c4ccc([nH]4)c(-c4c(F)c(F)c(F)c(F)c4F)c4nc(c(-c5c(F)c(F)c(F)c(F)c5F)c5ccc2[nH]5)C=C4)C=C3)cc1
REMARK SMILES IDX 20 1 19 2 17 3 18 4 15 5 16 6 12 7 13 8 14 9 4 10 2 11 1 12
REMARK SMILES IDX 3 13 5 14 6 15 7 16 11 17 8 18 10 19 9 20 21 23 22 24 23 25
REMARK SMILES IDX 24 26 25 27 26 28 87 29 27 30 86 31 28 32 29 33 30 34 80 35
REMARK SMILES IDX 31 36 85 37 79 38 81 39 32 40 84 41 78 42 77 43 33 45 65 46
REMARK SMILES IDX 45 47 64 48 46 49 49 50 63 51 82 52 47 53 48 54 62 56 83 57
REMARK SMILES IDX 50 58 34 59 35 60 43 61 36 62 37 63 41 64 44 65 38 66 39 67
REMARK SMILES IDX 42 68 40 69 66 70 67 71 75 72 68 73 69 74 73 75 76 76 70 77
REMARK SMILES IDX 71 78 74 79 72 80 51 81 52 82 60 83 53 84 54 85 58 86 61 87
REMARK SMILES IDX 55 88 56 89 59 90 57 91
REMARK H PARENT 9 21 9 22 81 44 49 55
REMARK Flexibility Score: inf
ROOT
ATOM      1  C   UNL     1      -4.041   2.881   3.072  1.00  0.00     0.274 C 
ENDROOT
BRANCH   1   2
ATOM      2  O   UNL     1      -3.355   2.128   2.048  1.00  0.00    -0.461 OA
BRANCH   2   3
ATOM      3  C   UNL     1      -4.075   1.726   0.961  1.00  0.00     0.325 C 
ATOM      4  O   UNL     1      -5.272   1.946   0.826  1.00  0.00    -0.251 OA
BRANCH   3   5
ATOM      5  C   UNL     1      -3.220   1.049  -0.084  1.00  0.00     0.230 C 
ATOM      6  C   UNL     1      -1.713   1.238   0.033  1.00  0.00     0.039 C 
BRANCH   5   7
ATOM      7  S   UNL     1      -3.758  -0.635  -0.319  1.00  0.00     0.227 S 
ATOM      8  O   UNL     1      -2.655  -1.411  -0.845  1.00  0.00    -0.211 OA
ATOM      9  O   UNL     1      -4.970  -0.556  -1.109  1.00  0.00    -0.211 OA
BRANCH   7  10
ATOM     10  N   UNL     1      -4.127  -1.250   1.209  1.00  0.00    -0.198 NA
BRANCH  10  11
ATOM     11  C   UNL     1      -5.144  -2.359   1.357  1.00  0.00     0.066 C 
ATOM     12  C   UNL     1      -6.487  -2.049   0.690  1.00  0.00     0.025 C 
ATOM     13  C   UNL     1      -4.631  -3.715   0.868  1.00  0.00     0.025 C 
ENDBRANCH  10  11
BRANCH  10  14
ATOM     14  C   UNL     1      -3.180  -1.078   2.358  1.00  0.00     0.106 C 
BRANCH  14  15
ATOM     15  C   UNL     1      -2.197  -2.231   2.613  1.00  0.00     0.015 C 
ATOM     16  C   UNL     1      -1.883  -2.377   4.118  1.00  0.00     0.066 C 
ATOM     17  C   UNL     1      -0.940  -2.185   1.719  1.00  0.00     0.066 C 
ATOM     18  C   UNL     1      -0.560  -1.776   4.566  1.00  0.00     0.260 C 
ATOM     19  C   UNL     1       0.352  -1.710   2.374  1.00  0.00     0.260 C 
ATOM     20  N   UNL     1       0.514  -2.260   3.711  1.00  0.00    -0.346 N 
ATOM     21  H   UNL     1       0.481  -3.279   3.667  1.00  0.00     0.346 HD
ATOM     22  H   UNL     1       1.413  -1.967   4.094  1.00  0.00     0.346 HD
ENDBRANCH  14  15
ENDBRANCH  10  14
ENDBRANCH   7  10
ENDBRANCH   5   7
ENDBRANCH   3   5
ENDBRANCH   2   3
ENDBRANCH   1   2
BRANCH   1  23
ATOM     23  C   UNL     1      -3.583   4.342   3.071  1.00  0.00     0.275 C 
BRANCH  23  24
ATOM     24  O   UNL     1      -4.042   5.021   1.888  1.00  0.00    -0.458 OA
BRANCH  24  25
ATOM     25  C   UNL     1      -3.198   4.962   0.834  1.00  0.00     0.338 C 
ATOM     26  O   UNL     1      -2.084   4.471   0.794  1.00  0.00    -0.246 OA
BRANCH  25  27
ATOM     27  C   UNL     1      -3.905   5.435  -0.360  1.00  0.00     0.060 A 
ATOM     28  C   UNL     1      -4.308   4.485  -1.299  1.00  0.00     0.016 A 
ATOM     29  C   UNL     1      -4.128   6.791  -0.577  1.00  0.00     0.016 A 
ATOM     30  C   UNL     1      -4.934   4.876  -2.472  1.00  0.00     0.010 A 
ATOM     31  C   UNL     1      -4.782   7.186  -1.746  1.00  0.00     0.010 A 
ATOM     32  C   UNL     1      -5.187   6.230  -2.695  1.00  0.00    -0.014 A 
BRANCH  32  33
ATOM     33  C   UNL     1      -5.874   6.648  -3.933  1.00  0.00     0.031 A 
ATOM     34  C   UNL     1      -5.112   7.397  -4.980  1.00  0.00     0.074 A 
ATOM     35  C   UNL     1      -7.177   6.357  -4.096  1.00  0.00     0.049 A 
ATOM     36  N   UNL     1      -5.556   8.018  -6.040  1.00  0.00    -0.248 NA
ATOM     37  C   UNL     1      -3.653   7.465  -4.804  1.00  0.00     0.031 C 
ATOM     38  C   UNL     1      -7.988   5.569  -3.166  1.00  0.00     0.029 A 
ATOM     39  N   UNL     1      -8.052   6.704  -5.092  1.00  0.00    -0.354 N 
ATOM     40  C   UNL     1      -4.438   8.579  -6.641  1.00  0.00     0.074 A 
ATOM     41  C   UNL     1      -3.295   8.233  -5.824  1.00  0.00     0.031 C 
ATOM     42  C   UNL     1      -9.246   5.504  -3.628  1.00  0.00     0.029 A 
ATOM     43  C   UNL     1      -9.341   6.303  -4.845  1.00  0.00     0.049 A 
ATOM     44  H   UNL     1      -7.782   7.192  -5.903  1.00  0.00     0.167 HD
ATOM     45  C   UNL     1      -4.386   9.320  -7.771  1.00  0.00     0.037 A 
ATOM     46  C   UNL     1     -10.479   6.598  -5.499  1.00  0.00     0.037 A 
ATOM     47  C   UNL     1      -5.538   9.632  -8.576  1.00  0.00     0.049 A 
ATOM     48  C   UNL     1     -10.404   7.492  -6.706  1.00  0.00     0.074 A 
ATOM     49  C   UNL     1      -5.599  10.353  -9.754  1.00  0.00     0.029 A 
ATOM     50  N   UNL     1      -6.835   9.237  -8.279  1.00  0.00    -0.354 N 
ATOM     51  N   UNL     1      -9.350   8.037  -7.266  1.00  0.00    -0.248 NA
ATOM     52  C   UNL     1     -11.673   7.825  -7.364  1.00  0.00     0.031 C 
ATOM     53  C   UNL     1      -6.940  10.440 -10.142  1.00  0.00     0.029 A 
ATOM     54  C   UNL     1      -7.710   9.728  -9.234  1.00  0.00     0.049 A 
ATOM     55  H   UNL     1      -7.096   8.688  -7.504  1.00  0.00     0.167 HD
ATOM     56  C   UNL     1      -9.824   8.764  -8.348  1.00  0.00     0.074 A 
ATOM     57  C   UNL     1     -11.261   8.575  -8.377  1.00  0.00     0.031 C 
ATOM     58  C   UNL     1      -9.136   9.523  -9.235  1.00  0.00     0.037 A 
BRANCH  45  59
ATOM     59  C   UNL     1      -3.055   9.879  -8.178  1.00  0.00     0.064 A 
ATOM     60  C   UNL     1      -2.030   9.066  -8.684  1.00  0.00     0.173 A 
ATOM     61  C   UNL     1      -2.813  11.258  -8.085  1.00  0.00     0.173 A 
ATOM     62  F   UNL     1      -2.203   7.739  -8.776  1.00  0.00    -0.203 F 
ATOM     63  C   UNL     1      -0.804   9.612  -9.061  1.00  0.00     0.198 A 
ATOM     64  C   UNL     1      -1.597  11.803  -8.489  1.00  0.00     0.198 A 
ATOM     65  F   UNL     1      -3.759  12.080  -7.607  1.00  0.00    -0.203 F 
ATOM     66  F   UNL     1       0.177   8.811  -9.500  1.00  0.00    -0.200 F 
ATOM     67  C   UNL     1      -0.592  10.979  -8.970  1.00  0.00     0.200 A 
ATOM     68  F   UNL     1      -1.398  13.126  -8.409  1.00  0.00    -0.200 F 
ATOM     69  F   UNL     1       0.585  11.502  -9.340  1.00  0.00    -0.200 F 
ENDBRANCH  45  59
BRANCH  46  70
ATOM     70  C   UNL     1     -11.780   6.089  -4.993  1.00  0.00     0.064 A 
ATOM     71  C   UNL     1     -12.519   5.146  -5.718  1.00  0.00     0.173 A 
ATOM     72  C   UNL     1     -12.310   6.532  -3.771  1.00  0.00     0.173 A 
ATOM     73  F   UNL     1     -12.068   4.710  -6.904  1.00  0.00    -0.203 F 
ATOM     74  C   UNL     1     -13.744   4.675  -5.248  1.00  0.00     0.198 A 
ATOM     75  C   UNL     1     -13.519   6.038  -3.287  1.00  0.00     0.198 A 
ATOM     76  F   UNL     1     -11.644   7.436  -3.037  1.00  0.00    -0.203 F 
ATOM     77  F   UNL     1     -14.451   3.806  -5.983  1.00  0.00    -0.200 F 
ATOM     78  C   UNL     1     -14.239   5.115  -4.029  1.00  0.00     0.200 A 
ATOM     79  F   UNL     1     -13.986   6.457  -2.103  1.00  0.00    -0.200 F 
ATOM     80  F   UNL     1     -15.414   4.658  -3.576  1.00  0.00    -0.200 F 
ENDBRANCH  46  70
BRANCH  58  81
ATOM     81  C   UNL     1      -9.928  10.188 -10.321  1.00  0.00     0.064 A 
ATOM     82  C   UNL     1     -10.745  11.296 -10.056  1.00  0.00     0.173 A 
ATOM     83  C   UNL     1      -9.826   9.744 -11.648  1.00  0.00     0.173 A 
ATOM     84  F   UNL     1     -10.888  11.745  -8.800  1.00  0.00    -0.203 F 
ATOM     85  C   UNL     1     -11.445  11.927 -11.081  1.00  0.00     0.198 A 
ATOM     86  C   UNL     1     -10.504  10.395 -12.673  1.00  0.00     0.198 A 
ATOM     87  F   UNL     1      -9.053   8.691 -11.951  1.00  0.00    -0.203 F 
ATOM     88  F   UNL     1     -12.252  12.960 -10.801  1.00  0.00    -0.200 F 
ATOM     89  C   UNL     1     -11.316  11.482 -12.388  1.00  0.00     0.200 A 
ATOM     90  F   UNL     1     -10.368   9.974 -13.938  1.00  0.00    -0.200 F 
ATOM     91  F   UNL     1     -11.981  12.100 -13.375  1.00  0.00    -0.200 F 
ENDBRANCH  58  81
ENDBRANCH  32  33
ENDBRANCH  25  27
ENDBRANCH  24  25
ENDBRANCH  23  24
ENDBRANCH   1  23
TORSDOF 16
