REMARK SMILES CC1(C)CCC[C@H]([N@H+](CC(=O)OCCOC(=O)c2ccc(-c3c4nc(c(-c5c(F)c(F)c(F)c(F)c5F)c5ccc([nH]5)c(-c5c(F)c(F)c(F)c(F)c5F)c5nc(c(-c6c(F)c(F)c(F)c(F)c6F)c6ccc3[nH]6)C=C5)C=C4)cc2)C(C)(C)C)C1
REMARK SMILES IDX 13 1 12 2 10 3 11 4 9 5 8 6 7 8 1 9 2 10 3 11 4 12 85 13
REMARK SMILES IDX 5 14 6 15 81 16 82 17 83 18 84 19 14 20 15 21 16 22 17 23
REMARK SMILES IDX 18 24 19 25 80 26 20 27 79 28 21 29 22 30 23 31 73 32 24 33
REMARK SMILES IDX 78 34 72 35 74 36 25 37 77 38 71 39 70 40 26 42 58 43 38 44
REMARK SMILES IDX 57 45 39 46 42 47 56 48 75 49 40 50 41 51 55 53 76 54 43 55
REMARK SMILES IDX 27 56 28 57 36 58 29 59 30 60 34 61 37 62 31 63 32 64 35 65
REMARK SMILES IDX 33 66 59 67 60 68 68 69 61 70 62 71 66 72 69 73 63 74 64 75
REMARK SMILES IDX 67 76 65 77 44 78 45 79 53 80 46 81 47 82 51 83 54 84 48 85
REMARK SMILES IDX 49 86 52 87 50 88
REMARK H PARENT 8 7 74 41 42 52
REMARK Flexibility Score: inf
ROOT
ATOM      1  C   UNL     1       6.027   5.686  -3.587  1.00  0.00     0.274 C 
ENDROOT
BRANCH   1   2
ATOM      2  O   UNL     1       4.825   5.272  -2.919  1.00  0.00    -0.458 OA
BRANCH   2   3
ATOM      3  C   UNL     1       4.442   3.976  -2.985  1.00  0.00     0.361 C 
ATOM      4  O   UNL     1       4.768   3.216  -3.890  1.00  0.00    -0.245 OA
BRANCH   3   5
ATOM      5  C   UNL     1       3.782   3.511  -1.675  1.00  0.00     0.387 C 
BRANCH   5   6
ATOM      6  N   UNL     1       2.442   4.097  -1.267  1.00  0.00    -0.319 N 
ATOM      7  H   UNL     1       1.955   4.486  -2.075  1.00  0.00     0.349 HD
BRANCH   6   8
ATOM      8  C   UNL     1       1.593   2.954  -0.706  1.00  0.00     0.185 C 
ATOM      9  C   UNL     1       1.106  -0.172  -0.384  1.00  0.00     0.011 C 
ATOM     10  C   UNL     1       0.315   0.747  -1.339  1.00  0.00    -0.030 C 
ATOM     11  C   UNL     1      -0.115  -0.101  -2.551  1.00  0.00     0.011 C 
ATOM     12  C   UNL     1      -0.950   1.282  -0.650  1.00  0.00     0.007 C 
ATOM     13  C   UNL     1       1.185   1.942  -1.827  1.00  0.00     0.071 C 
ATOM     14  C   UNL     1      -0.617   2.233   0.482  1.00  0.00     0.007 C 
ATOM     15  C   UNL     1       0.294   3.366   0.027  1.00  0.00     0.065 C 
ENDBRANCH   6   8
BRANCH   6  16
ATOM     16  C   UNL     1       2.575   5.323  -0.362  1.00  0.00     0.090 C 
ATOM     17  C   UNL     1       3.535   6.396  -0.922  1.00  0.00     0.078 C 
ATOM     18  C   UNL     1       1.257   6.138  -0.238  1.00  0.00     0.078 C 
ATOM     19  C   UNL     1       3.113   4.979   1.046  1.00  0.00     0.078 C 
ENDBRANCH   6  16
ENDBRANCH   5   6
ENDBRANCH   3   5
ENDBRANCH   2   3
ENDBRANCH   1   2
BRANCH   1  20
ATOM     20  C   UNL     1       6.719   6.748  -2.701  1.00  0.00     0.275 C 
BRANCH  20  21
ATOM     21  O   UNL     1       6.943   6.426  -1.298  1.00  0.00    -0.458 OA
BRANCH  21  22
ATOM     22  C   UNL     1       7.271   5.164  -0.954  1.00  0.00     0.338 C 
ATOM     23  O   UNL     1       7.507   4.238  -1.714  1.00  0.00    -0.246 OA
BRANCH  22  24
ATOM     24  C   UNL     1       7.167   4.950   0.510  1.00  0.00     0.060 A 
ATOM     25  C   UNL     1       6.631   3.726   0.919  1.00  0.00     0.016 A 
ATOM     26  C   UNL     1       7.640   5.850   1.471  1.00  0.00     0.016 A 
ATOM     27  C   UNL     1       6.554   3.399   2.267  1.00  0.00     0.010 A 
ATOM     28  C   UNL     1       7.670   5.467   2.828  1.00  0.00     0.010 A 
ATOM     29  C   UNL     1       7.160   4.220   3.229  1.00  0.00    -0.014 A 
BRANCH  29  30
ATOM     30  C   UNL     1       7.402   3.626   4.576  1.00  0.00     0.031 A 
ATOM     31  C   UNL     1       6.734   4.138   5.816  1.00  0.00     0.074 A 
ATOM     32  C   UNL     1       8.192   2.532   4.640  1.00  0.00     0.049 A 
ATOM     33  N   UNL     1       6.812   3.677   7.040  1.00  0.00    -0.248 NA
ATOM     34  C   UNL     1       5.873   5.319   5.672  1.00  0.00     0.031 C 
ATOM     35  C   UNL     1       8.896   1.943   3.495  1.00  0.00     0.029 A 
ATOM     36  N   UNL     1       8.502   1.690   5.679  1.00  0.00    -0.354 N 
ATOM     37  C   UNL     1       6.035   4.524   7.819  1.00  0.00     0.074 A 
ATOM     38  C   UNL     1       5.493   5.530   6.927  1.00  0.00     0.031 C 
ATOM     39  C   UNL     1       9.480   0.799   3.873  1.00  0.00     0.029 A 
ATOM     40  C   UNL     1       9.279   0.618   5.303  1.00  0.00     0.049 A 
ATOM     41  H   UNL     1       8.197   1.838   6.603  1.00  0.00     0.167 HD
ATOM     42  C   UNL     1       5.806   4.464   9.155  1.00  0.00     0.037 A 
ATOM     43  C   UNL     1       9.798  -0.390   6.029  1.00  0.00     0.037 A 
ATOM     44  C   UNL     1       6.333   3.440  10.027  1.00  0.00     0.049 A 
ATOM     45  C   UNL     1       9.524  -0.427   7.503  1.00  0.00     0.074 A 
ATOM     46  C   UNL     1       6.138   3.280  11.389  1.00  0.00     0.029 A 
ATOM     47  N   UNL     1       7.162   2.401   9.623  1.00  0.00    -0.354 N 
ATOM     48  N   UNL     1       8.792   0.385   8.225  1.00  0.00    -0.248 NA
ATOM     49  C   UNL     1      10.158  -1.509   8.265  1.00  0.00     0.031 C 
ATOM     50  C   UNL     1       6.886   2.177  11.816  1.00  0.00     0.029 A 
ATOM     51  C   UNL     1       7.505   1.613  10.713  1.00  0.00     0.049 A 
ATOM     52  H   UNL     1       7.461   2.246   8.698  1.00  0.00     0.167 HD
ATOM     53  C   UNL     1       8.880  -0.080   9.527  1.00  0.00     0.074 A 
ATOM     54  C   UNL     1       9.703  -1.274   9.487  1.00  0.00     0.031 C 
ATOM     55  C   UNL     1       8.343   0.442  10.657  1.00  0.00     0.037 A 
BRANCH  42  56
ATOM     56  C   UNL     1       4.984   5.559   9.776  1.00  0.00     0.064 A 
ATOM     57  C   UNL     1       3.599   5.655   9.580  1.00  0.00     0.173 A 
ATOM     58  C   UNL     1       5.591   6.497  10.627  1.00  0.00     0.173 A 
ATOM     59  F   UNL     1       2.970   4.792   8.769  1.00  0.00    -0.203 F 
ATOM     60  C   UNL     1       2.856   6.661  10.197  1.00  0.00     0.198 A 
ATOM     61  C   UNL     1       4.841   7.483  11.263  1.00  0.00     0.198 A 
ATOM     62  F   UNL     1       6.912   6.447  10.855  1.00  0.00    -0.203 F 
ATOM     63  F   UNL     1       1.539   6.758   9.964  1.00  0.00    -0.200 F 
ATOM     64  C   UNL     1       3.476   7.569  11.042  1.00  0.00     0.200 A 
ATOM     65  F   UNL     1       5.442   8.351  12.089  1.00  0.00    -0.200 F 
ATOM     66  F   UNL     1       2.758   8.529  11.641  1.00  0.00    -0.200 F 
ENDBRANCH  42  56
BRANCH  43  67
ATOM     67  C   UNL     1      10.662  -1.409   5.373  1.00  0.00     0.064 A 
ATOM     68  C   UNL     1      10.265  -2.749   5.271  1.00  0.00     0.173 A 
ATOM     69  C   UNL     1      11.902  -1.054   4.817  1.00  0.00     0.173 A 
ATOM     70  F   UNL     1       9.102  -3.146   5.807  1.00  0.00    -0.203 F 
ATOM     71  C   UNL     1      11.079  -3.695   4.648  1.00  0.00     0.198 A 
ATOM     72  C   UNL     1      12.696  -1.991   4.162  1.00  0.00     0.198 A 
ATOM     73  F   UNL     1      12.331   0.215   4.887  1.00  0.00    -0.203 F 
ATOM     74  F   UNL     1      10.696  -4.978   4.603  1.00  0.00    -0.200 F 
ATOM     75  C   UNL     1      12.287  -3.313   4.085  1.00  0.00     0.200 A 
ATOM     76  F   UNL     1      13.853  -1.612   3.603  1.00  0.00    -0.200 F 
ATOM     77  F   UNL     1      13.061  -4.220   3.473  1.00  0.00    -0.200 F 
ENDBRANCH  43  67
BRANCH  55  78
ATOM     78  C   UNL     1       8.634  -0.290  11.935  1.00  0.00     0.064 A 
ATOM     79  C   UNL     1       9.916  -0.284  12.506  1.00  0.00     0.173 A 
ATOM     80  C   UNL     1       7.627  -1.017  12.585  1.00  0.00     0.173 A 
ATOM     81  F   UNL     1      10.918   0.380  11.910  1.00  0.00    -0.203 F 
ATOM     82  C   UNL     1      10.188  -1.014  13.659  1.00  0.00     0.198 A 
ATOM     83  C   UNL     1       7.896  -1.720  13.757  1.00  0.00     0.198 A 
ATOM     84  F   UNL     1       6.384  -1.052  12.082  1.00  0.00    -0.203 F 
ATOM     85  F   UNL     1      11.436  -1.049  14.149  1.00  0.00    -0.200 F 
ATOM     86  C   UNL     1       9.178  -1.728  14.286  1.00  0.00     0.200 A 
ATOM     87  F   UNL     1       6.916  -2.401  14.367  1.00  0.00    -0.200 F 
ATOM     88  F   UNL     1       9.443  -2.436  15.392  1.00  0.00    -0.200 F 
ENDBRANCH  55  78
ENDBRANCH  29  30
ENDBRANCH  22  24
ENDBRANCH  21  22
ENDBRANCH  20  21
ENDBRANCH   1  20
TORSDOF 14
