REMARK SMILES O=C(OCCOC(=O)c1cccnc1C(=O)Nc1ccc(Cl)cn1)c1ccc(-c2c3nc(c(-c4c(F)c(F)c(F)c(F)c4F)c4ccc([nH]4)c(-c4c(F)c(F)c(F)c(F)c4F)c4nc(c(-c5c(F)c(F)c(F)c(F)c5F)c5ccc2[nH]5)C=C4)C=C3)cc1
REMARK SMILES IDX 4 1 3 2 2 3 1 4 25 5 26 6 87 7 27 8 86 9 28 10 29 11 30 12
REMARK SMILES IDX 80 13 31 14 85 15 79 16 81 17 32 18 84 19 78 20 77 21 33 23
REMARK SMILES IDX 65 24 45 25 64 26 46 27 49 28 63 29 82 30 47 31 48 32 62 34
REMARK SMILES IDX 83 35 50 36 34 37 35 38 43 39 36 40 37 41 41 42 44 43 38 44
REMARK SMILES IDX 39 45 42 46 40 47 66 48 67 49 75 50 68 51 69 52 73 53 76 54
REMARK SMILES IDX 70 55 71 56 74 57 72 58 51 59 52 60 60 61 53 62 54 63 58 64
REMARK SMILES IDX 61 65 55 66 56 67 59 68 57 69 5 70 6 71 7 72 8 73 9 74 10 75
REMARK SMILES IDX 14 76 11 77 13 78 12 79 15 80 16 81 17 82 18 84 19 85 24 86
REMARK SMILES IDX 20 87 23 88 21 89 22 90
REMARK H PARENT 81 22 49 33 17 83
REMARK Flexibility Score: inf
ROOT
ATOM      1  C   UNL     1       5.227  -0.390   0.674  1.00  0.00     0.275 C 
ENDROOT
BRANCH   1   2
ATOM      2  O   UNL     1       4.050   0.350   1.072  1.00  0.00    -0.458 OA
BRANCH   2   3
ATOM      3  C   UNL     1       3.903   1.693   0.897  1.00  0.00     0.338 C 
ATOM      4  O   UNL     1       3.358   2.419   1.714  1.00  0.00    -0.246 OA
BRANCH   3   5
ATOM      5  C   UNL     1       4.241   2.188  -0.450  1.00  0.00     0.060 A 
ATOM      6  C   UNL     1       5.556   2.155  -0.910  1.00  0.00     0.016 A 
ATOM      7  C   UNL     1       3.206   2.616  -1.289  1.00  0.00     0.016 A 
ATOM      8  C   UNL     1       5.816   2.372  -2.255  1.00  0.00     0.010 A 
ATOM      9  C   UNL     1       3.465   2.877  -2.632  1.00  0.00     0.010 A 
ATOM     10  C   UNL     1       4.773   2.742  -3.114  1.00  0.00    -0.014 A 
BRANCH  10  11
ATOM     11  C   UNL     1       5.154   3.326  -4.408  1.00  0.00     0.031 A 
ATOM     12  C   UNL     1       5.606   4.747  -4.367  1.00  0.00     0.074 A 
ATOM     13  C   UNL     1       5.221   2.601  -5.534  1.00  0.00     0.049 A 
ATOM     14  N   UNL     1       6.211   5.439  -5.289  1.00  0.00    -0.248 NA
ATOM     15  C   UNL     1       5.443   5.449  -3.081  1.00  0.00     0.031 C 
ATOM     16  C   UNL     1       4.939   1.176  -5.638  1.00  0.00     0.029 A 
ATOM     17  N   UNL     1       5.538   2.971  -6.812  1.00  0.00    -0.354 N 
ATOM     18  C   UNL     1       6.603   6.606  -4.658  1.00  0.00     0.074 A 
ATOM     19  C   UNL     1       6.109   6.567  -3.303  1.00  0.00     0.031 C 
ATOM     20  C   UNL     1       4.974   0.811  -6.932  1.00  0.00     0.029 A 
ATOM     21  C   UNL     1       5.327   1.978  -7.735  1.00  0.00     0.049 A 
ATOM     22  H   UNL     1       5.883   3.863  -7.046  1.00  0.00     0.167 HD
ATOM     23  C   UNL     1       7.345   7.611  -5.169  1.00  0.00     0.037 A 
ATOM     24  C   UNL     1       5.399   2.034  -9.077  1.00  0.00     0.037 A 
ATOM     25  C   UNL     1       7.688   7.694  -6.556  1.00  0.00     0.049 A 
ATOM     26  C   UNL     1       5.950   3.293  -9.694  1.00  0.00     0.074 A 
ATOM     27  C   UNL     1       8.331   8.709  -7.233  1.00  0.00     0.029 A 
ATOM     28  N   UNL     1       7.346   6.727  -7.495  1.00  0.00    -0.354 N 
ATOM     29  N   UNL     1       6.386   4.375  -9.092  1.00  0.00    -0.248 NA
ATOM     30  C   UNL     1       6.063   3.333 -11.157  1.00  0.00     0.031 C 
ATOM     31  C   UNL     1       8.315   8.386  -8.595  1.00  0.00     0.029 A 
ATOM     32  C   UNL     1       7.715   7.144  -8.758  1.00  0.00     0.049 A 
ATOM     33  H   UNL     1       6.905   5.871  -7.289  1.00  0.00     0.167 HD
ATOM     34  C   UNL     1       6.882   5.199 -10.091  1.00  0.00     0.074 A 
ATOM     35  C   UNL     1       6.662   4.503 -11.345  1.00  0.00     0.031 C 
ATOM     36  C   UNL     1       7.489   6.407  -9.979  1.00  0.00     0.037 A 
BRANCH  23  37
ATOM     37  C   UNL     1       7.721   8.687  -4.204  1.00  0.00     0.064 A 
ATOM     38  C   UNL     1       8.685   8.459  -3.208  1.00  0.00     0.173 A 
ATOM     39  C   UNL     1       7.004   9.889  -4.169  1.00  0.00     0.173 A 
ATOM     40  F   UNL     1       9.362   7.300  -3.175  1.00  0.00    -0.203 F 
ATOM     41  C   UNL     1       8.886   9.382  -2.186  1.00  0.00     0.198 A 
ATOM     42  C   UNL     1       7.221  10.817  -3.155  1.00  0.00     0.198 A 
ATOM     43  F   UNL     1       6.052  10.133  -5.082  1.00  0.00    -0.203 F 
ATOM     44  F   UNL     1       9.752   9.110  -1.199  1.00  0.00    -0.200 F 
ATOM     45  C   UNL     1       8.150  10.557  -2.158  1.00  0.00     0.200 A 
ATOM     46  F   UNL     1       6.498  11.944  -3.118  1.00  0.00    -0.200 F 
ATOM     47  F   UNL     1       8.314  11.426  -1.151  1.00  0.00    -0.200 F 
ENDBRANCH  23  37
BRANCH  24  48
ATOM     48  C   UNL     1       4.918   0.894  -9.898  1.00  0.00     0.064 A 
ATOM     49  C   UNL     1       5.787   0.085 -10.638  1.00  0.00     0.173 A 
ATOM     50  C   UNL     1       3.546   0.597  -9.956  1.00  0.00     0.173 A 
ATOM     51  F   UNL     1       7.105   0.332 -10.625  1.00  0.00    -0.203 F 
ATOM     52  C   UNL     1       5.304  -0.967 -11.418  1.00  0.00     0.198 A 
ATOM     53  C   UNL     1       3.065  -0.462 -10.723  1.00  0.00     0.198 A 
ATOM     54  F   UNL     1       2.668   1.334  -9.258  1.00  0.00    -0.203 F 
ATOM     55  F   UNL     1       6.155  -1.710 -12.139  1.00  0.00    -0.200 F 
ATOM     56  C   UNL     1       3.944  -1.241 -11.459  1.00  0.00     0.200 A 
ATOM     57  F   UNL     1       1.751  -0.727 -10.748  1.00  0.00    -0.200 F 
ATOM     58  F   UNL     1       3.481  -2.250 -12.209  1.00  0.00    -0.200 F 
ENDBRANCH  24  48
BRANCH  36  59
ATOM     59  C   UNL     1       8.013   7.031 -11.234  1.00  0.00     0.064 A 
ATOM     60  C   UNL     1       7.164   7.667 -12.147  1.00  0.00     0.173 A 
ATOM     61  C   UNL     1       9.397   7.093 -11.454  1.00  0.00     0.173 A 
ATOM     62  F   UNL     1       5.834   7.618 -11.980  1.00  0.00    -0.203 F 
ATOM     63  C   UNL     1       7.686   8.351 -13.240  1.00  0.00     0.198 A 
ATOM     64  C   UNL     1       9.915   7.799 -12.533  1.00  0.00     0.198 A 
ATOM     65  F   UNL     1      10.245   6.501 -10.599  1.00  0.00    -0.203 F 
ATOM     66  F   UNL     1       6.859   8.943 -14.114  1.00  0.00    -0.200 F 
ATOM     67  C   UNL     1       9.059   8.428 -13.424  1.00  0.00     0.200 A 
ATOM     68  F   UNL     1      11.242   7.886 -12.699  1.00  0.00    -0.200 F 
ATOM     69  F   UNL     1       9.559   9.114 -14.461  1.00  0.00    -0.200 F 
ENDBRANCH  36  59
ENDBRANCH  10  11
ENDBRANCH   3   5
ENDBRANCH   2   3
ENDBRANCH   1   2
BRANCH   1  70
ATOM     70  C   UNL     1       5.249  -0.913  -0.778  1.00  0.00     0.275 C 
BRANCH  70  71
ATOM     71  O   UNL     1       4.055  -0.536  -1.490  1.00  0.00    -0.458 OA
BRANCH  71  72
ATOM     72  C   UNL     1       3.597  -1.400  -2.426  1.00  0.00     0.340 C 
ATOM     73  O   UNL     1       4.134  -2.424  -2.786  1.00  0.00    -0.246 OA
BRANCH  72  74
ATOM     74  C   UNL     1       2.415  -0.815  -3.075  1.00  0.00     0.091 A 
ATOM     75  C   UNL     1       2.456  -0.790  -4.478  1.00  0.00     0.020 A 
ATOM     76  C   UNL     1       1.367  -0.167  -2.436  1.00  0.00     0.143 A 
ATOM     77  C   UNL     1       1.559  -0.003  -5.191  1.00  0.00     0.021 A 
ATOM     78  N   UNL     1       0.474   0.605  -3.136  1.00  0.00    -0.250 NA
ATOM     79  C   UNL     1       0.612   0.699  -4.476  1.00  0.00     0.112 A 
BRANCH  76  80
ATOM     80  C   UNL     1       1.036  -0.197  -0.963  1.00  0.00     0.276 C 
ATOM     81  O   UNL     1       0.924   0.864  -0.353  1.00  0.00    -0.267 OA
ATOM     82  N   UNL     1       0.446  -1.335  -0.460  1.00  0.00    -0.305 N 
ATOM     83  H   UNL     1      -0.531  -1.290  -0.344  1.00  0.00     0.171 HD
BRANCH  82  84
ATOM     84  C   UNL     1       1.037  -2.540  -0.092  1.00  0.00     0.132 A 
ATOM     85  C   UNL     1       2.403  -2.663   0.062  1.00  0.00     0.049 A 
ATOM     86  N   UNL     1       0.207  -3.558   0.188  1.00  0.00    -0.238 NA
ATOM     87  C   UNL     1       2.982  -3.899   0.329  1.00  0.00     0.026 A 
ATOM     88  C   UNL     1       0.779  -4.750   0.511  1.00  0.00     0.134 A 
ATOM     89  C   UNL     1       2.147  -4.975   0.552  1.00  0.00     0.059 A 
ATOM     90  Cl  UNL     1       2.796  -6.519   0.909  1.00  0.00    -0.083 Cl
ENDBRANCH  82  84
ENDBRANCH  76  80
ENDBRANCH  72  74
ENDBRANCH  71  72
ENDBRANCH  70  71
ENDBRANCH   1  70
TORSDOF 13
