REMARK SMILES O=C(N/N=C/c1ccc(C(=O)OCCOC(=O)c2ccc(-c3c4nc(c(-c5c(F)c(F)c(F)c(F)c5F)c5ccc([nH]5)c(-c5c(F)c(F)c(F)c(F)c5F)c5nc(c(-c6c(F)c(F)c(F)c(F)c6F)c6ccc3[nH]6)C=C5)C=C4)cc2)cc1)C(=O)Nc1ccc2c(c1)OCO2
REMARK SMILES IDX 13 1 12 2 10 3 11 4 9 5 6 6 7 7 82 8 8 9 81 10 5 11 4 12
REMARK SMILES IDX 3 13 1 14 2 15 83 17 84 18 85 19 86 21 87 22 91 23 88 24
REMARK SMILES IDX 90 25 89 26 92 27 94 28 93 29 14 30 15 31 16 32 17 33 18 34
REMARK SMILES IDX 19 35 80 36 20 37 79 38 21 39 22 40 23 41 73 42 24 43 78 44
REMARK SMILES IDX 72 45 74 46 25 47 77 48 71 49 70 50 26 52 58 53 38 54 57 55
REMARK SMILES IDX 39 56 42 57 56 58 75 59 40 60 41 61 55 63 76 64 43 65 27 66
REMARK SMILES IDX 28 67 36 68 29 69 30 70 34 71 37 72 31 73 32 74 35 75 33 76
REMARK SMILES IDX 59 77 60 78 68 79 61 80 62 81 66 82 69 83 63 84 64 85 67 86
REMARK SMILES IDX 65 87 44 88 45 89 53 90 46 91 47 92 51 93 54 94 48 95 49 96
REMARK SMILES IDX 52 97 50 98
REMARK H PARENT 3 16 85 20 74 51 42 62
REMARK Flexibility Score: inf
ROOT
ATOM      1  C   UNL     1      13.257  -0.406  -1.236  1.00  0.00     0.275 C 
ENDROOT
BRANCH   1   2
ATOM      2  O   UNL     1      11.846  -0.419  -1.534  1.00  0.00    -0.458 OA
BRANCH   2   3
ATOM      3  C   UNL     1      11.048  -0.479  -0.446  1.00  0.00     0.338 C 
ATOM      4  O   UNL     1      11.408  -0.619   0.714  1.00  0.00    -0.246 OA
BRANCH   3   5
ATOM      5  C   UNL     1       9.625  -0.323  -0.792  1.00  0.00     0.060 A 
ATOM      6  C   UNL     1       6.558  -0.613  -0.774  1.00  0.00    -0.005 A 
ATOM      7  C   UNL     1       7.410   0.384  -0.047  1.00  0.00     0.010 A 
ATOM      8  C   UNL     1       7.593  -1.177  -1.755  1.00  0.00     0.010 A 
ATOM      9  C   UNL     1       8.821   0.496  -0.033  1.00  0.00     0.016 A 
ATOM     10  C   UNL     1       9.014  -1.082  -1.748  1.00  0.00     0.016 A 
BRANCH   6  11
ATOM     11  C   UNL     1       4.527  -1.162  -0.419  1.00  0.00     0.141 C 
ATOM     12  N   UNL     1       3.325  -1.050  -1.086  1.00  0.00    -0.180 NA
BRANCH  12  13
ATOM     13  N   UNL     1       2.251  -0.998  -0.271  1.00  0.00    -0.239 N 
ATOM     14  O   UNL     1       0.822   0.116   1.080  1.00  0.00    -0.262 OA
ATOM     15  C   UNL     1       1.865   0.142   0.425  1.00  0.00     0.329 C 
ATOM     16  H   UNL     1       1.710  -1.814  -0.162  1.00  0.00     0.194 HD
BRANCH  15  17
ATOM     17  C   UNL     1       2.653   1.484   0.353  1.00  0.00     0.315 C 
ATOM     18  O   UNL     1       2.010   2.529   0.237  1.00  0.00    -0.263 OA
ATOM     19  N   UNL     1       4.021   1.580   0.604  1.00  0.00    -0.318 N 
ATOM     20  H   UNL     1       4.337   2.300   1.196  1.00  0.00     0.170 HD
BRANCH  19  21
ATOM     21  C   UNL     1       4.973   0.706   0.058  1.00  0.00     0.045 A 
ATOM     22  C   UNL     1       5.593  -0.598   1.207  1.00  0.00     0.030 A 
ATOM     23  C   UNL     1       4.907   0.395  -1.746  1.00  0.00     0.076 A 
ATOM     24  C   UNL     1       6.002  -2.258   0.547  1.00  0.00     0.053 A 
ATOM     25  C   UNL     1       5.209  -1.294  -2.334  1.00  0.00     0.167 A 
ATOM     26  C   UNL     1       5.698  -2.597  -1.193  1.00  0.00     0.165 A 
ATOM     27  O   UNL     1       4.952  -1.903  -3.518  1.00  0.00    -0.454 OA
ATOM     28  O   UNL     1       5.690  -3.749  -1.901  1.00  0.00    -0.454 OA
ATOM     29  C   UNL     1       5.005  -3.332  -3.145  1.00  0.00     0.468 C 
ENDBRANCH  19  21
ENDBRANCH  15  17
ENDBRANCH  12  13
ENDBRANCH   6  11
ENDBRANCH   3   5
ENDBRANCH   2   3
ENDBRANCH   1   2
BRANCH   1  30
ATOM     30  C   UNL     1      13.782   1.028  -1.126  1.00  0.00     0.275 C 
BRANCH  30  31
ATOM     31  O   UNL     1      13.356   1.665   0.099  1.00  0.00    -0.458 OA
BRANCH  31  32
ATOM     32  C   UNL     1      12.281   2.473  -0.022  1.00  0.00     0.338 C 
ATOM     33  O   UNL     1      11.642   2.713  -1.034  1.00  0.00    -0.246 OA
BRANCH  32  34
ATOM     34  C   UNL     1      11.885   3.034   1.279  1.00  0.00     0.060 A 
ATOM     35  C   UNL     1      11.010   2.308   2.079  1.00  0.00     0.016 A 
ATOM     36  C   UNL     1      12.160   4.364   1.582  1.00  0.00     0.016 A 
ATOM     37  C   UNL     1      10.278   2.947   3.072  1.00  0.00     0.010 A 
ATOM     38  C   UNL     1      11.546   4.958   2.692  1.00  0.00     0.010 A 
ATOM     39  C   UNL     1      10.561   4.271   3.426  1.00  0.00    -0.014 A 
BRANCH  39  40
ATOM     40  C   UNL     1       9.840   4.920   4.561  1.00  0.00     0.031 A 
ATOM     41  C   UNL     1       9.153   6.250   4.378  1.00  0.00     0.074 A 
ATOM     42  C   UNL     1       9.806   4.322   5.771  1.00  0.00     0.049 A 
ATOM     43  N   UNL     1       8.676   7.070   5.282  1.00  0.00    -0.248 NA
ATOM     44  C   UNL     1       8.996   6.731   2.996  1.00  0.00     0.031 C 
ATOM     45  C   UNL     1      10.385   3.014   6.089  1.00  0.00     0.029 A 
ATOM     46  N   UNL     1       9.264   4.735   6.965  1.00  0.00    -0.354 N 
ATOM     47  C   UNL     1       8.225   8.186   4.587  1.00  0.00     0.074 A 
ATOM     48  C   UNL     1       8.487   7.941   3.184  1.00  0.00     0.031 C 
ATOM     49  C   UNL     1      10.132   2.714   7.369  1.00  0.00     0.029 A 
ATOM     50  C   UNL     1       9.486   3.856   7.998  1.00  0.00     0.049 A 
ATOM     51  H   UNL     1       8.766   5.577   7.069  1.00  0.00     0.167 HD
ATOM     52  C   UNL     1       7.651   9.312   5.078  1.00  0.00     0.037 A 
ATOM     53  C   UNL     1       9.261   3.974   9.320  1.00  0.00     0.037 A 
ATOM     54  C   UNL     1       7.349   9.523   6.472  1.00  0.00     0.049 A 
ATOM     55  C   UNL     1       8.674   5.250   9.847  1.00  0.00     0.074 A 
ATOM     56  C   UNL     1       6.746  10.617   7.070  1.00  0.00     0.029 A 
ATOM     57  N   UNL     1       7.618   8.615   7.487  1.00  0.00    -0.354 N 
ATOM     58  N   UNL     1       8.297   6.319   9.189  1.00  0.00    -0.248 NA
ATOM     59  C   UNL     1       8.499   5.345  11.301  1.00  0.00     0.031 C 
ATOM     60  C   UNL     1       6.698  10.394   8.450  1.00  0.00     0.029 A 
ATOM     61  C   UNL     1       7.214   9.134   8.708  1.00  0.00     0.049 A 
ATOM     62  H   UNL     1       8.035   7.732   7.359  1.00  0.00     0.167 HD
ATOM     63  C   UNL     1       7.821   7.205  10.144  1.00  0.00     0.074 A 
ATOM     64  C   UNL     1       7.941   6.540  11.426  1.00  0.00     0.031 C 
ATOM     65  C   UNL     1       7.332   8.457   9.974  1.00  0.00     0.037 A 
BRANCH  52  66
ATOM     66  C   UNL     1       7.345  10.425   4.114  1.00  0.00     0.064 A 
ATOM     67  C   UNL     1       6.327  10.326   3.154  1.00  0.00     0.173 A 
ATOM     68  C   UNL     1       8.061  11.632   4.183  1.00  0.00     0.173 A 
ATOM     69  F   UNL     1       5.618   9.194   3.036  1.00  0.00    -0.203 F 
ATOM     70  C   UNL     1       6.058  11.380   2.282  1.00  0.00     0.198 A 
ATOM     71  C   UNL     1       7.767  12.695   3.332  1.00  0.00     0.198 A 
ATOM     72  F   UNL     1       9.040  11.787   5.087  1.00  0.00    -0.203 F 
ATOM     73  F   UNL     1       5.115  11.243   1.339  1.00  0.00    -0.200 F 
ATOM     74  C   UNL     1       6.772  12.565   2.377  1.00  0.00     0.200 A 
ATOM     75  F   UNL     1       8.448  13.844   3.438  1.00  0.00    -0.200 F 
ATOM     76  F   UNL     1       6.506  13.579   1.542  1.00  0.00    -0.200 F 
ENDBRANCH  52  66
BRANCH  53  77
ATOM     77  C   UNL     1       9.647   2.868  10.237  1.00  0.00     0.064 A 
ATOM     78  C   UNL     1       8.675   2.130  10.924  1.00  0.00     0.173 A 
ATOM     79  C   UNL     1      10.992   2.515  10.432  1.00  0.00     0.173 A 
ATOM     80  F   UNL     1       7.378   2.442  10.789  1.00  0.00    -0.203 F 
ATOM     81  C   UNL     1       9.033   1.089  11.780  1.00  0.00     0.198 A 
ATOM     82  C   UNL     1      11.346   1.451  11.258  1.00  0.00     0.198 A 
ATOM     83  F   UNL     1      11.963   3.186   9.795  1.00  0.00    -0.203 F 
ATOM     84  F   UNL     1       8.086   0.427  12.458  1.00  0.00    -0.200 F 
ATOM     85  C   UNL     1      10.367   0.744  11.938  1.00  0.00     0.200 A 
ATOM     86  F   UNL     1      12.635   1.108  11.389  1.00  0.00    -0.200 F 
ATOM     87  F   UNL     1      10.709  -0.266  12.749  1.00  0.00    -0.200 F 
ENDBRANCH  53  77
BRANCH  65  88
ATOM     88  C   UNL     1       6.843   9.171  11.200  1.00  0.00     0.064 A 
ATOM     89  C   UNL     1       7.728   9.655  12.175  1.00  0.00     0.173 A 
ATOM     90  C   UNL     1       5.471   9.397  11.386  1.00  0.00     0.173 A 
ATOM     91  F   UNL     1       9.047   9.447  12.053  1.00  0.00    -0.203 F 
ATOM     92  C   UNL     1       7.253  10.316  13.305  1.00  0.00     0.198 A 
ATOM     93  C   UNL     1       5.003  10.087  12.500  1.00  0.00     0.198 A 
ATOM     94  F   UNL     1       4.584   8.956  10.481  1.00  0.00    -0.203 F 
ATOM     95  F   UNL     1       8.112  10.724  14.250  1.00  0.00    -0.200 F 
ATOM     96  C   UNL     1       5.893  10.539  13.462  1.00  0.00     0.200 A 
ATOM     97  F   UNL     1       3.690  10.312  12.644  1.00  0.00    -0.200 F 
ATOM     98  F   UNL     1       5.439  11.181  14.547  1.00  0.00    -0.200 F 
ENDBRANCH  65  88
ENDBRANCH  39  40
ENDBRANCH  32  34
ENDBRANCH  31  32
ENDBRANCH  30  31
ENDBRANCH   1  30
TORSDOF 15
