REMARK SMILES O=C(OCCOC(=O)c1ccc(-c2c3nc(c(-c4c(F)c(F)c(F)c(F)c4F)c4ccc([nH]4)c(-c4c(F)c(F)c(F)c(F)c4F)c4nc(c(-c5c(F)c(F)c(F)c(F)c5F)c5ccc2[nH]5)C=C4)C=C3)cc1)C1=Cc2c(Cl)ccc(Cl)c2O[C@@H]1C(F)(F)F
REMARK SMILES IDX 5 1 4 2 3 3 2 4 1 5 72 6 73 7 83 8 74 9 82 10 75 11 81 12
REMARK SMILES IDX 76 13 77 14 79 15 78 16 80 17 84 18 85 19 86 20 87 21 6 22
REMARK SMILES IDX 7 23 8 24 9 25 10 26 71 27 11 28 70 29 12 30 13 31 14 32
REMARK SMILES IDX 64 33 15 34 69 35 63 36 65 37 16 38 68 39 62 40 61 41 17 43
REMARK SMILES IDX 49 44 29 45 48 46 30 47 33 48 47 49 66 50 31 51 32 52 46 54
REMARK SMILES IDX 67 55 34 56 18 57 19 58 27 59 20 60 21 61 25 62 28 63 22 64
REMARK SMILES IDX 23 65 26 66 24 67 50 68 51 69 59 70 52 71 53 72 57 73 60 74
REMARK SMILES IDX 54 75 55 76 58 77 56 78 35 79 36 80 44 81 37 82 38 83 42 84
REMARK SMILES IDX 45 85 39 86 40 87 43 88 41 89
REMARK H PARENT 65 42 33 53
REMARK Flexibility Score: inf
ROOT
ATOM      1  C   UNL     1       4.768   0.118  -0.778  1.00  0.00     0.275 C 
ENDROOT
BRANCH   1   2
ATOM      2  C   UNL     1       3.944   0.465   1.193  1.00  0.00     0.275 C 
BRANCH   2   3
ATOM      3  O   UNL     1       3.076   1.672   1.635  1.00  0.00    -0.459 OA
BRANCH   3   4
ATOM      4  C   UNL     1       3.324   2.782   0.930  1.00  0.00     0.338 C 
ATOM      5  O   UNL     1       2.730   3.830   0.909  1.00  0.00    -0.246 OA
BRANCH   4   6
ATOM      6  C   UNL     1       4.180   2.133  -0.038  1.00  0.00     0.087 C 
ATOM      7  C   UNL     1       5.526   1.905   0.454  1.00  0.00     0.029 C 
ATOM      8  C   UNL     1       2.911   0.776  -0.517  1.00  0.00     0.316 C 
ATOM      9  C   UNL     1       6.160   0.280   0.897  1.00  0.00     0.037 A 
ATOM     10  O   UNL     1       3.522  -0.979   0.032  1.00  0.00    -0.474 OA
ATOM     11  C   UNL     1       7.396   0.181   1.488  1.00  0.00     0.052 A 
ATOM     12  C   UNL     1       5.170  -1.149   0.822  1.00  0.00     0.148 A 
ATOM     13  Cl  UNL     1       8.481   1.499   1.638  1.00  0.00    -0.084 Cl
ATOM     14  C   UNL     1       7.723  -1.081   2.005  1.00  0.00     0.023 A 
ATOM     15  C   UNL     1       5.577  -2.343   1.355  1.00  0.00     0.083 A 
ATOM     16  C   UNL     1       6.864  -2.262   1.951  1.00  0.00     0.026 A 
ATOM     17  Cl  UNL     1       4.670  -3.775   1.392  1.00  0.00    -0.080 Cl
BRANCH   8  18
ATOM     18  C   UNL     1       2.646   1.505  -1.917  1.00  0.00     0.430 C 
ATOM     19  F   UNL     1       1.501   1.147  -2.478  1.00  0.00    -0.167 F 
ATOM     20  F   UNL     1       2.453   2.842  -1.687  1.00  0.00    -0.167 F 
ATOM     21  F   UNL     1       3.646   1.496  -2.826  1.00  0.00    -0.167 F 
ENDBRANCH   8  18
ENDBRANCH   4   6
ENDBRANCH   3   4
ENDBRANCH   2   3
ENDBRANCH   1   2
BRANCH   1  22
ATOM     22  O   UNL     1       3.878  -0.634  -2.095  1.00  0.00    -0.458 OA
BRANCH  22  23
ATOM     23  C   UNL     1       2.962  -1.636  -2.362  1.00  0.00     0.338 C 
ATOM     24  O   UNL     1       2.544  -2.519  -1.638  1.00  0.00    -0.246 OA
BRANCH  23  25
ATOM     25  C   UNL     1       2.258  -1.249  -3.629  1.00  0.00     0.060 A 
ATOM     26  C   UNL     1       0.909  -0.840  -3.583  1.00  0.00     0.016 A 
ATOM     27  C   UNL     1       3.031  -0.934  -4.741  1.00  0.00     0.016 A 
ATOM     28  C   UNL     1       0.455   0.147  -4.489  1.00  0.00     0.010 A 
ATOM     29  C   UNL     1       2.565   0.016  -5.651  1.00  0.00     0.010 A 
ATOM     30  C   UNL     1       1.325   0.654  -5.468  1.00  0.00    -0.014 A 
BRANCH  30  31
ATOM     31  C   UNL     1       0.927   1.697  -6.458  1.00  0.00     0.031 A 
ATOM     32  C   UNL     1       0.304   1.182  -7.716  1.00  0.00     0.074 A 
ATOM     33  C   UNL     1       1.243   3.009  -6.352  1.00  0.00     0.049 A 
ATOM     34  N   UNL     1       0.083   1.788  -8.850  1.00  0.00    -0.248 NA
ATOM     35  C   UNL     1      -0.069  -0.242  -7.699  1.00  0.00     0.031 C 
ATOM     36  C   UNL     1       1.851   3.662  -5.194  1.00  0.00     0.029 A 
ATOM     37  N   UNL     1       1.121   4.038  -7.269  1.00  0.00    -0.354 N 
ATOM     38  C   UNL     1      -0.420   0.808  -9.690  1.00  0.00     0.074 A 
ATOM     39  C   UNL     1      -0.437  -0.433  -8.951  1.00  0.00     0.031 C 
ATOM     40  C   UNL     1       2.068   4.963  -5.475  1.00  0.00     0.029 A 
ATOM     41  C   UNL     1       1.649   5.242  -6.848  1.00  0.00     0.049 A 
ATOM     42  H   UNL     1       0.695   3.921  -8.149  1.00  0.00     0.167 HD
ATOM     43  C   UNL     1      -0.838   0.926 -10.967  1.00  0.00     0.037 A 
ATOM     44  C   UNL     1       1.794   6.418  -7.505  1.00  0.00     0.037 A 
ATOM     45  C   UNL     1      -0.829   2.152 -11.707  1.00  0.00     0.049 A 
ATOM     46  C   UNL     1       1.345   6.513  -8.954  1.00  0.00     0.074 A 
ATOM     47  C   UNL     1      -1.286   2.382 -12.990  1.00  0.00     0.029 A 
ATOM     48  N   UNL     1      -0.326   3.353 -11.230  1.00  0.00    -0.354 N 
ATOM     49  N   UNL     1       0.784   5.602  -9.712  1.00  0.00    -0.248 NA
ATOM     50  C   UNL     1       1.558   7.800  -9.643  1.00  0.00     0.031 C 
ATOM     51  C   UNL     1      -1.008   3.711 -13.313  1.00  0.00     0.029 A 
ATOM     52  C   UNL     1      -0.432   4.322 -12.210  1.00  0.00     0.049 A 
ATOM     53  H   UNL     1       0.049   3.493 -10.331  1.00  0.00     0.167 HD
ATOM     54  C   UNL     1       0.547   6.212 -10.940  1.00  0.00     0.074 A 
ATOM     55  C   UNL     1       1.009   7.576 -10.828  1.00  0.00     0.031 C 
ATOM     56  C   UNL     1       0.002   5.687 -12.065  1.00  0.00     0.037 A 
BRANCH  43  57
ATOM     57  C   UNL     1      -1.310  -0.324 -11.636  1.00  0.00     0.064 A 
ATOM     58  C   UNL     1      -2.503  -0.956 -11.254  1.00  0.00     0.173 A 
ATOM     59  C   UNL     1      -0.539  -0.917 -12.645  1.00  0.00     0.173 A 
ATOM     60  F   UNL     1      -3.252  -0.442 -10.266  1.00  0.00    -0.203 F 
ATOM     61  C   UNL     1      -2.889  -2.158 -11.834  1.00  0.00     0.198 A 
ATOM     62  C   UNL     1      -0.947  -2.101 -13.249  1.00  0.00     0.198 A 
ATOM     63  F   UNL     1       0.616  -0.356 -13.034  1.00  0.00    -0.203 F 
ATOM     64  F   UNL     1      -3.993  -2.783 -11.403  1.00  0.00    -0.200 F 
ATOM     65  C   UNL     1      -2.115  -2.725 -12.836  1.00  0.00     0.200 A 
ATOM     66  F   UNL     1      -0.202  -2.647 -14.219  1.00  0.00    -0.200 F 
ATOM     67  F   UNL     1      -2.488  -3.885 -13.394  1.00  0.00    -0.200 F 
ENDBRANCH  43  57
BRANCH  44  68
ATOM     68  C   UNL     1       2.413   7.620  -6.859  1.00  0.00     0.064 A 
ATOM     69  C   UNL     1       1.677   8.805  -6.679  1.00  0.00     0.173 A 
ATOM     70  C   UNL     1       3.777   7.663  -6.532  1.00  0.00     0.173 A 
ATOM     71  F   UNL     1       0.379   8.843  -7.017  1.00  0.00    -0.203 F 
ATOM     72  C   UNL     1       2.285   9.986  -6.245  1.00  0.00     0.198 A 
ATOM     73  C   UNL     1       4.377   8.836  -6.065  1.00  0.00     0.198 A 
ATOM     74  F   UNL     1       4.542   6.575  -6.698  1.00  0.00    -0.203 F 
ATOM     75  F   UNL     1       1.572  11.119  -6.175  1.00  0.00    -0.200 F 
ATOM     76  C   UNL     1       3.635  10.000  -5.938  1.00  0.00     0.200 A 
ATOM     77  F   UNL     1       5.685   8.846  -5.771  1.00  0.00    -0.200 F 
ATOM     78  F   UNL     1       4.225  11.138  -5.546  1.00  0.00    -0.200 F 
ENDBRANCH  44  68
BRANCH  56  79
ATOM     79  C   UNL     1      -0.175   6.584 -13.257  1.00  0.00     0.064 A 
ATOM     80  C   UNL     1       0.914   6.993 -14.039  1.00  0.00     0.173 A 
ATOM     81  C   UNL     1      -1.464   6.933 -13.690  1.00  0.00     0.173 A 
ATOM     82  F   UNL     1       2.166   6.693 -13.663  1.00  0.00    -0.203 F 
ATOM     83  C   UNL     1       0.719   7.722 -15.209  1.00  0.00     0.198 A 
ATOM     84  C   UNL     1      -1.657   7.633 -14.877  1.00  0.00     0.198 A 
ATOM     85  F   UNL     1      -2.541   6.555 -12.983  1.00  0.00    -0.203 F 
ATOM     86  F   UNL     1       1.775   8.121 -15.931  1.00  0.00    -0.200 F 
ATOM     87  C   UNL     1      -0.566   8.028 -15.635  1.00  0.00     0.200 A 
ATOM     88  F   UNL     1      -2.900   7.906 -15.298  1.00  0.00    -0.200 F 
ATOM     89  F   UNL     1      -0.752   8.700 -16.779  1.00  0.00    -0.200 F 
ENDBRANCH  56  79
ENDBRANCH  30  31
ENDBRANCH  23  25
ENDBRANCH  22  23
ENDBRANCH   1  22
TORSDOF 12
