REMARK SMILES O=C(CCC(=O)OCCOC(=O)c1ccc(-c2c3nc(c(-c4c(F)c(F)c(F)c(F)c4F)c4ccc([nH]4)c(-c4c(F)c(F)c(F)c(F)c4F)c4nc(c(-c5c(F)c(F)c(F)c(F)c5F)c5ccc2[nH]5)C=C4)C=C3)cc1)Nc1cccc2c1C(=O)c1ccccc1C2=O
REMARK SMILES IDX 8 1 7 2 5 3 6 4 4 5 3 6 2 7 1 8 76 9 77 11 78 12 82 13 79 14
REMARK SMILES IDX 81 15 83 16 80 17 91 18 84 19 85 20 90 21 92 22 86 23 89 24
REMARK SMILES IDX 87 25 88 26 9 27 10 28 11 29 12 30 13 31 14 32 75 33 15 34
REMARK SMILES IDX 74 35 16 36 17 37 18 38 68 39 19 40 73 41 67 42 69 43 20 44
REMARK SMILES IDX 72 45 66 46 65 47 21 49 53 50 33 51 52 52 34 53 37 54 51 55
REMARK SMILES IDX 70 56 35 57 36 58 50 60 71 61 38 62 22 63 23 64 31 65 24 66
REMARK SMILES IDX 25 67 29 68 32 69 26 70 27 71 30 72 28 73 54 74 55 75 63 76
REMARK SMILES IDX 56 77 57 78 61 79 64 80 58 81 59 82 62 83 60 84 39 85 40 86
REMARK SMILES IDX 48 87 41 88 42 89 46 90 49 91 43 92 44 93 47 94 45 95
REMARK H PARENT 76 10 69 48 37 59
REMARK Flexibility Score: inf
ROOT
ATOM      1  C   UNL     1       5.537  -0.354  -2.277  1.00  0.00     0.274 C 
ENDROOT
BRANCH   1   2
ATOM      2  O   UNL     1       4.234  -0.589  -1.693  1.00  0.00    -0.462 OA
BRANCH   2   3
ATOM      3  C   UNL     1       4.132  -1.600  -0.789  1.00  0.00     0.306 C 
ATOM      4  O   UNL     1       5.056  -2.331  -0.456  1.00  0.00    -0.252 OA
BRANCH   3   5
ATOM      5  C   UNL     1       2.700  -1.808  -0.332  1.00  0.00     0.132 C 
BRANCH   5   6
ATOM      6  C   UNL     1       1.970  -0.535   0.077  1.00  0.00     0.112 C 
BRANCH   6   7
ATOM      7  C   UNL     1       1.083   0.168  -0.956  1.00  0.00     0.224 C 
ATOM      8  O   UNL     1       0.194   0.924  -0.570  1.00  0.00    -0.275 OA
ATOM      9  N   UNL     1       1.523   0.067  -2.265  1.00  0.00    -0.325 N 
ATOM     10  H   UNL     1       1.875  -0.798  -2.578  1.00  0.00     0.169 HD
BRANCH   9  11
ATOM     11  C   UNL     1       1.489   1.154  -3.177  1.00  0.00     0.053 A 
ATOM     12  C   UNL     1       2.642   1.264  -3.967  1.00  0.00     0.027 A 
ATOM     13  C   UNL     1       0.650   2.264  -3.068  1.00  0.00     0.057 A 
ATOM     14  C   UNL     1       3.111   2.518  -4.353  1.00  0.00     0.003 A 
ATOM     15  C   UNL     1       1.189   3.521  -3.325  1.00  0.00     0.036 A 
ATOM     16  C   UNL     1      -0.829   2.122  -3.235  1.00  0.00     0.196 C 
ATOM     17  C   UNL     1       2.434   3.660  -3.940  1.00  0.00     0.013 A 
ATOM     18  C   UNL     1       0.370   4.714  -3.096  1.00  0.00     0.194 C 
ATOM     19  O   UNL     1      -1.383   1.029  -3.229  1.00  0.00    -0.288 OA
ATOM     20  C   UNL     1      -1.597   3.334  -3.651  1.00  0.00     0.034 A 
ATOM     21  C   UNL     1      -1.038   4.603  -3.493  1.00  0.00     0.034 A 
ATOM     22  O   UNL     1       0.869   5.764  -2.718  1.00  0.00    -0.289 OA
ATOM     23  C   UNL     1      -2.824   3.217  -4.312  1.00  0.00     0.013 A 
ATOM     24  C   UNL     1      -1.713   5.756  -3.905  1.00  0.00     0.013 A 
ATOM     25  C   UNL     1      -3.474   4.363  -4.789  1.00  0.00     0.001 A 
ATOM     26  C   UNL     1      -2.931   5.630  -4.566  1.00  0.00     0.001 A 
ENDBRANCH   9  11
ENDBRANCH   6   7
ENDBRANCH   5   6
ENDBRANCH   3   5
ENDBRANCH   2   3
ENDBRANCH   1   2
BRANCH   1  27
ATOM     27  C   UNL     1       6.289   0.790  -1.592  1.00  0.00     0.275 C 
BRANCH  27  28
ATOM     28  O   UNL     1       6.971   0.328  -0.414  1.00  0.00    -0.458 OA
BRANCH  28  29
ATOM     29  C   UNL     1       6.240   0.370   0.723  1.00  0.00     0.338 C 
ATOM     30  O   UNL     1       5.117   0.825   0.853  1.00  0.00    -0.246 OA
BRANCH  29  31
ATOM     31  C   UNL     1       6.942  -0.366   1.791  1.00  0.00     0.060 A 
ATOM     32  C   UNL     1       6.179  -1.225   2.588  1.00  0.00     0.016 A 
ATOM     33  C   UNL     1       8.312  -0.209   2.026  1.00  0.00     0.016 A 
ATOM     34  C   UNL     1       6.783  -1.930   3.625  1.00  0.00     0.010 A 
ATOM     35  C   UNL     1       8.917  -0.914   3.071  1.00  0.00     0.010 A 
ATOM     36  C   UNL     1       8.152  -1.770   3.880  1.00  0.00    -0.014 A 
BRANCH  36  37
ATOM     37  C   UNL     1       8.757  -2.486   5.024  1.00  0.00     0.031 A 
ATOM     38  C   UNL     1       8.909  -1.792   6.343  1.00  0.00     0.074 A 
ATOM     39  C   UNL     1       9.117  -3.773   4.887  1.00  0.00     0.049 A 
ATOM     40  N   UNL     1       9.328  -2.272   7.487  1.00  0.00    -0.248 NA
ATOM     41  C   UNL     1       8.541  -0.368   6.383  1.00  0.00     0.031 C 
ATOM     42  C   UNL     1       9.004  -4.553   3.656  1.00  0.00     0.029 A 
ATOM     43  N   UNL     1       9.637  -4.654   5.800  1.00  0.00    -0.354 N 
ATOM     44  C   UNL     1       9.269  -1.214   8.383  1.00  0.00     0.074 A 
ATOM     45  C   UNL     1       8.800  -0.059   7.646  1.00  0.00     0.031 C 
ATOM     46  C   UNL     1       9.428  -5.806   3.894  1.00  0.00     0.029 A 
ATOM     47  C   UNL     1       9.849  -5.910   5.289  1.00  0.00     0.049 A 
ATOM     48  H   UNL     1       9.839  -4.410   6.732  1.00  0.00     0.167 HD
ATOM     49  C   UNL     1       9.569  -1.213   9.703  1.00  0.00     0.037 A 
ATOM     50  C   UNL     1      10.320  -7.020   5.886  1.00  0.00     0.037 A 
ATOM     51  C   UNL     1      10.030  -2.361  10.437  1.00  0.00     0.049 A 
ATOM     52  C   UNL     1      10.675  -6.981   7.346  1.00  0.00     0.074 A 
ATOM     53  C   UNL     1      10.323  -2.465  11.786  1.00  0.00     0.029 A 
ATOM     54  N   UNL     1      10.273  -3.606   9.877  1.00  0.00    -0.354 N 
ATOM     55  N   UNL     1      10.569  -5.990   8.197  1.00  0.00    -0.248 NA
ATOM     56  C   UNL     1      11.212  -8.219   7.928  1.00  0.00     0.031 C 
ATOM     57  C   UNL     1      10.776  -3.767  12.036  1.00  0.00     0.029 A 
ATOM     58  C   UNL     1      10.736  -4.479  10.849  1.00  0.00     0.049 A 
ATOM     59  H   UNL     1      10.137  -3.835   8.930  1.00  0.00     0.167 HD
ATOM     60  C   UNL     1      11.005  -6.487   9.417  1.00  0.00     0.074 A 
ATOM     61  C   UNL     1      11.369  -7.872   9.199  1.00  0.00     0.031 C 
ATOM     62  C   UNL     1      11.095  -5.853  10.611  1.00  0.00     0.037 A 
BRANCH  49  63
ATOM     63  C   UNL     1       9.418   0.084  10.435  1.00  0.00     0.064 A 
ATOM     64  C   UNL     1       8.156   0.572  10.806  1.00  0.00     0.173 A 
ATOM     65  C   UNL     1      10.547   0.836  10.789  1.00  0.00     0.173 A 
ATOM     66  F   UNL     1       7.047  -0.106  10.476  1.00  0.00    -0.203 F 
ATOM     67  C   UNL     1       8.031   1.779  11.489  1.00  0.00     0.198 A 
ATOM     68  C   UNL     1      10.419   2.033  11.487  1.00  0.00     0.198 A 
ATOM     69  F   UNL     1      11.775   0.409  10.455  1.00  0.00    -0.203 F 
ATOM     70  F   UNL     1       6.814   2.245  11.804  1.00  0.00    -0.200 F 
ATOM     71  C   UNL     1       9.161   2.506  11.833  1.00  0.00     0.200 A 
ATOM     72  F   UNL     1      11.512   2.733  11.822  1.00  0.00    -0.200 F 
ATOM     73  F   UNL     1       9.039   3.667  12.490  1.00  0.00    -0.200 F 
ENDBRANCH  49  63
BRANCH  50  74
ATOM     74  C   UNL     1      10.454  -8.273   5.107  1.00  0.00     0.064 A 
ATOM     75  C   UNL     1       9.561  -9.335   5.297  1.00  0.00     0.173 A 
ATOM     76  C   UNL     1      11.473  -8.433   4.158  1.00  0.00     0.173 A 
ATOM     77  F   UNL     1       8.585  -9.233   6.212  1.00  0.00    -0.203 F 
ATOM     78  C   UNL     1       9.687 -10.517   4.571  1.00  0.00     0.198 A 
ATOM     79  C   UNL     1      11.588  -9.608   3.420  1.00  0.00     0.198 A 
ATOM     80  F   UNL     1      12.354  -7.443   3.946  1.00  0.00    -0.203 F 
ATOM     81  F   UNL     1       8.839 -11.531   4.792  1.00  0.00    -0.200 F 
ATOM     82  C   UNL     1      10.697 -10.651   3.630  1.00  0.00     0.200 A 
ATOM     83  F   UNL     1      12.562  -9.732   2.509  1.00  0.00    -0.200 F 
ATOM     84  F   UNL     1      10.818 -11.787   2.931  1.00  0.00    -0.200 F 
ENDBRANCH  50  74
BRANCH  62  85
ATOM     85  C   UNL     1      11.593  -6.659  11.772  1.00  0.00     0.064 A 
ATOM     86  C   UNL     1      12.954  -6.965  11.916  1.00  0.00     0.173 A 
ATOM     87  C   UNL     1      10.705  -7.113  12.758  1.00  0.00     0.173 A 
ATOM     88  F   UNL     1      13.837  -6.566  10.989  1.00  0.00    -0.203 F 
ATOM     89  C   UNL     1      13.405  -7.716  12.998  1.00  0.00     0.198 A 
ATOM     90  C   UNL     1      11.163  -7.846  13.848  1.00  0.00     0.198 A 
ATOM     91  F   UNL     1       9.394  -6.843  12.663  1.00  0.00    -0.203 F 
ATOM     92  F   UNL     1      14.704  -8.031  13.097  1.00  0.00    -0.200 F 
ATOM     93  C   UNL     1      12.511  -8.152  13.964  1.00  0.00     0.200 A 
ATOM     94  F   UNL     1      10.299  -8.264  14.784  1.00  0.00    -0.200 F 
ATOM     95  F   UNL     1      12.947  -8.877  15.004  1.00  0.00    -0.200 F 
ENDBRANCH  62  85
ENDBRANCH  36  37
ENDBRANCH  29  31
ENDBRANCH  28  29
ENDBRANCH  27  28
ENDBRANCH   1  27
TORSDOF 14
