REMARK SMILES C/C(=C\C(=O)OCCOC(=O)c1ccc(-c2c3nc(c(-c4c(F)c(F)c(F)c(F)c4F)c4ccc([nH]4)c(-c4c(F)c(F)c(F)c(F)c4F)c4nc(c(-c5c(F)c(F)c(F)c(F)c5F)c5ccc2[nH]5)C=C4)C=C3)cc1)CSc1ccc(N)c(C)c1
REMARK SMILES IDX 7 1 6 2 4 3 5 4 3 5 1 6 2 7 75 8 76 9 77 10 78 11 84 12
REMARK SMILES IDX 79 13 82 14 80 15 83 16 81 17 8 20 9 21 10 22 11 23 12 24
REMARK SMILES IDX 13 25 74 26 14 27 73 28 15 29 16 30 17 31 67 32 18 33 72 34
REMARK SMILES IDX 66 35 68 36 19 37 71 38 65 39 64 40 20 42 52 43 32 44 51 45
REMARK SMILES IDX 33 46 36 47 50 48 69 49 34 50 35 51 49 53 70 54 37 55 21 56
REMARK SMILES IDX 22 57 30 58 23 59 24 60 28 61 31 62 25 63 26 64 29 65 27 66
REMARK SMILES IDX 53 67 54 68 62 69 55 70 56 71 60 72 63 73 57 74 58 75 61 76
REMARK SMILES IDX 59 77 38 78 39 79 47 80 40 81 41 82 45 83 48 84 42 85 43 86
REMARK SMILES IDX 46 87 44 88
REMARK H PARENT 81 18 81 19 68 41 36 52
REMARK Flexibility Score: inf
ROOT
ATOM      1  C   UNL     1      -0.499  -1.911   3.107  1.00  0.00     0.275 C 
ENDROOT
BRANCH   1   2
ATOM      2  O   UNL     1      -0.046  -1.456   1.818  1.00  0.00    -0.459 OA
BRANCH   2   3
ATOM      3  C   UNL     1       0.269  -2.418   0.926  1.00  0.00     0.330 C 
ATOM      4  O   UNL     1       0.258  -3.625   1.133  1.00  0.00    -0.247 OA
BRANCH   3   5
ATOM      5  C   UNL     1       0.493  -1.894  -0.439  1.00  0.00     0.093 C 
ATOM      6  C   UNL     1       1.359   0.441  -0.008  1.00  0.00     0.040 C 
ATOM      7  C   UNL     1       0.897  -0.689  -0.888  1.00  0.00    -0.056 C 
BRANCH   7   8
ATOM      8  C   UNL     1       1.006  -0.481  -2.386  1.00  0.00     0.105 C 
BRANCH   8   9
ATOM      9  S   UNL     1       0.336   1.097  -2.994  1.00  0.00    -0.122 SA
BRANCH   9  10
ATOM     10  C   UNL     1      -1.426   1.010  -2.708  1.00  0.00     0.008 A 
ATOM     11  C   UNL     1      -2.084   2.233  -2.546  1.00  0.00     0.017 A 
ATOM     12  C   UNL     1      -2.195  -0.155  -2.731  1.00  0.00     0.020 A 
ATOM     13  C   UNL     1      -3.469   2.289  -2.375  1.00  0.00     0.027 A 
ATOM     14  C   UNL     1      -3.600  -0.105  -2.576  1.00  0.00    -0.027 A 
ATOM     15  C   UNL     1      -4.238   1.125  -2.347  1.00  0.00     0.034 A 
ATOM     16  C   UNL     1      -4.394  -1.381  -2.638  1.00  0.00     0.046 C 
BRANCH  15  17
ATOM     17  N   UNL     1      -5.621   1.232  -2.246  1.00  0.00    -0.399 N 
ATOM     18  H   UNL     1      -6.037   2.109  -2.085  1.00  0.00     0.156 HD
ATOM     19  H   UNL     1      -6.184   0.429  -2.334  1.00  0.00     0.156 HD
ENDBRANCH  15  17
ENDBRANCH   9  10
ENDBRANCH   8   9
ENDBRANCH   7   8
ENDBRANCH   3   5
ENDBRANCH   2   3
ENDBRANCH   1   2
BRANCH   1  20
ATOM     20  C   UNL     1      -2.027  -1.851   3.217  1.00  0.00     0.275 C 
BRANCH  20  21
ATOM     21  O   UNL     1      -2.666  -2.863   2.413  1.00  0.00    -0.458 OA
BRANCH  21  22
ATOM     22  C   UNL     1      -2.953  -2.478   1.149  1.00  0.00     0.338 C 
ATOM     23  O   UNL     1      -2.766  -1.380   0.653  1.00  0.00    -0.246 OA
BRANCH  22  24
ATOM     24  C   UNL     1      -3.448  -3.615   0.356  1.00  0.00     0.060 A 
ATOM     25  C   UNL     1      -2.805  -3.883  -0.854  1.00  0.00     0.016 A 
ATOM     26  C   UNL     1      -4.602  -4.315   0.713  1.00  0.00     0.016 A 
ATOM     27  C   UNL     1      -3.335  -4.819  -1.736  1.00  0.00     0.010 A 
ATOM     28  C   UNL     1      -5.129  -5.266  -0.171  1.00  0.00     0.010 A 
ATOM     29  C   UNL     1      -4.514  -5.502  -1.413  1.00  0.00    -0.014 A 
BRANCH  29  30
ATOM     30  C   UNL     1      -5.112  -6.416  -2.417  1.00  0.00     0.031 A 
ATOM     31  C   UNL     1      -6.336  -6.003  -3.185  1.00  0.00     0.074 A 
ATOM     32  C   UNL     1      -4.512  -7.589  -2.688  1.00  0.00     0.049 A 
ATOM     33  N   UNL     1      -6.989  -6.654  -4.117  1.00  0.00    -0.248 NA
ATOM     34  C   UNL     1      -6.902  -4.683  -2.867  1.00  0.00     0.031 C 
ATOM     35  C   UNL     1      -3.300  -8.083  -2.034  1.00  0.00     0.029 A 
ATOM     36  N   UNL     1      -4.831  -8.570  -3.591  1.00  0.00    -0.354 N 
ATOM     37  C   UNL     1      -8.044  -5.831  -4.487  1.00  0.00     0.074 A 
ATOM     38  C   UNL     1      -7.959  -4.641  -3.666  1.00  0.00     0.031 C 
ATOM     39  C   UNL     1      -2.969  -9.269  -2.569  1.00  0.00     0.029 A 
ATOM     40  C   UNL     1      -3.962  -9.633  -3.576  1.00  0.00     0.049 A 
ATOM     41  H   UNL     1      -5.609  -8.517  -4.193  1.00  0.00     0.167 HD
ATOM     42  C   UNL     1      -8.993  -6.048  -5.430  1.00  0.00     0.037 A 
ATOM     43  C   UNL     1      -3.973 -10.776  -4.286  1.00  0.00     0.037 A 
ATOM     44  C   UNL     1      -9.070  -7.225  -6.256  1.00  0.00     0.049 A 
ATOM     45  C   UNL     1      -5.056 -11.003  -5.303  1.00  0.00     0.074 A 
ATOM     46  C   UNL     1      -9.991  -7.529  -7.245  1.00  0.00     0.029 A 
ATOM     47  N   UNL     1      -8.189  -8.294  -6.191  1.00  0.00    -0.354 N 
ATOM     48  N   UNL     1      -6.046 -10.217  -5.648  1.00  0.00    -0.248 NA
ATOM     49  C   UNL     1      -5.021 -12.279  -6.032  1.00  0.00     0.031 C 
ATOM     50  C   UNL     1      -9.688  -8.797  -7.753  1.00  0.00     0.029 A 
ATOM     51  C   UNL     1      -8.554  -9.266  -7.109  1.00  0.00     0.049 A 
ATOM     52  H   UNL     1      -7.418  -8.354  -5.581  1.00  0.00     0.167 HD
ATOM     53  C   UNL     1      -6.740 -10.890  -6.644  1.00  0.00     0.074 A 
ATOM     54  C   UNL     1      -6.047 -12.144  -6.861  1.00  0.00     0.031 C 
ATOM     55  C   UNL     1      -7.853 -10.507  -7.315  1.00  0.00     0.037 A 
BRANCH  42  56
ATOM     56  C   UNL     1     -10.046  -4.994  -5.605  1.00  0.00     0.064 A 
ATOM     57  C   UNL     1      -9.768  -3.773  -6.237  1.00  0.00     0.173 A 
ATOM     58  C   UNL     1     -11.361  -5.226  -5.172  1.00  0.00     0.173 A 
ATOM     59  F   UNL     1      -8.524  -3.498  -6.656  1.00  0.00    -0.203 F 
ATOM     60  C   UNL     1     -10.764  -2.813  -6.409  1.00  0.00     0.198 A 
ATOM     61  C   UNL     1     -12.358  -4.274  -5.367  1.00  0.00     0.198 A 
ATOM     62  F   UNL     1     -11.679  -6.380  -4.566  1.00  0.00    -0.203 F 
ATOM     63  F   UNL     1     -10.467  -1.638  -6.980  1.00  0.00    -0.200 F 
ATOM     64  C   UNL     1     -12.058  -3.067  -5.980  1.00  0.00     0.200 A 
ATOM     65  F   UNL     1     -13.610  -4.525  -4.960  1.00  0.00    -0.200 F 
ATOM     66  F   UNL     1     -13.015  -2.145  -6.151  1.00  0.00    -0.200 F 
ENDBRANCH  42  56
BRANCH  43  67
ATOM     67  C   UNL     1      -2.918 -11.794  -4.057  1.00  0.00     0.064 A 
ATOM     68  C   UNL     1      -1.934 -12.045  -5.022  1.00  0.00     0.173 A 
ATOM     69  C   UNL     1      -2.874 -12.536  -2.867  1.00  0.00     0.173 A 
ATOM     70  F   UNL     1      -1.950 -11.378  -6.184  1.00  0.00    -0.203 F 
ATOM     71  C   UNL     1      -0.952 -13.011  -4.811  1.00  0.00     0.198 A 
ATOM     72  C   UNL     1      -1.876 -13.482  -2.646  1.00  0.00     0.198 A 
ATOM     73  F   UNL     1      -3.795 -12.331  -1.914  1.00  0.00    -0.203 F 
ATOM     74  F   UNL     1      -0.045 -13.260  -5.765  1.00  0.00    -0.200 F 
ATOM     75  C   UNL     1      -0.920 -13.723  -3.621  1.00  0.00     0.200 A 
ATOM     76  F   UNL     1      -1.843 -14.160  -1.492  1.00  0.00    -0.200 F 
ATOM     77  F   UNL     1       0.028 -14.648  -3.417  1.00  0.00    -0.200 F 
ENDBRANCH  43  67
BRANCH  55  78
ATOM     78  C   UNL     1      -8.373 -11.443  -8.365  1.00  0.00     0.064 A 
ATOM     79  C   UNL     1      -9.029 -12.635  -8.024  1.00  0.00     0.173 A 
ATOM     80  C   UNL     1      -8.232 -11.135  -9.726  1.00  0.00     0.173 A 
ATOM     81  F   UNL     1      -9.173 -12.981  -6.736  1.00  0.00    -0.203 F 
ATOM     82  C   UNL     1      -9.501 -13.498  -9.009  1.00  0.00     0.198 A 
ATOM     83  C   UNL     1      -8.728 -11.988 -10.708  1.00  0.00     0.198 A 
ATOM     84  F   UNL     1      -7.617 -10.004 -10.103  1.00  0.00    -0.203 F 
ATOM     85  F   UNL     1     -10.082 -14.655  -8.662  1.00  0.00    -0.200 F 
ATOM     86  C   UNL     1      -9.354 -13.172 -10.349  1.00  0.00     0.200 A 
ATOM     87  F   UNL     1      -8.593 -11.668 -12.003  1.00  0.00    -0.200 F 
ATOM     88  F   UNL     1      -9.809 -14.005 -11.296  1.00  0.00    -0.200 F 
ENDBRANCH  55  78
ENDBRANCH  29  30
ENDBRANCH  22  24
ENDBRANCH  21  22
ENDBRANCH  20  21
ENDBRANCH   1  20
TORSDOF 15
