REMARK SMILES CC(C)(C(=O)OCCOC(=O)c1ccc(-c2c3nc(c(-c4c(F)c(F)c(F)c(F)c4F)c4ccc([nH]4)c(-c4c(F)c(F)c(F)c(F)c4F)c4nc(c(-c5c(F)c(F)c(F)c(F)c5F)c5ccc2[nH]5)C=C4)C=C3)cc1)N1C(=O)/C(=C/c2ccc(C=O)cc2)SC1=S
REMARK SMILES IDX 7 1 6 2 4 3 5 4 2 5 1 6 3 7 75 8 76 9 89 10 77 11 78 12
REMARK SMILES IDX 88 13 90 14 79 15 80 16 81 17 87 18 82 19 86 20 83 21 84 22
REMARK SMILES IDX 85 23 8 24 9 25 10 26 11 27 12 28 13 29 74 30 14 31 73 32
REMARK SMILES IDX 15 33 16 34 17 35 67 36 18 37 72 38 66 39 68 40 19 41 71 42
REMARK SMILES IDX 65 43 64 44 20 46 52 47 32 48 51 49 33 50 36 51 50 52 69 53
REMARK SMILES IDX 34 54 35 55 49 57 70 58 37 59 21 60 22 61 30 62 23 63 24 64
REMARK SMILES IDX 28 65 31 66 25 67 26 68 29 69 27 70 53 71 54 72 62 73 55 74
REMARK SMILES IDX 56 75 60 76 63 77 57 78 58 79 61 80 59 81 38 82 39 83 47 84
REMARK SMILES IDX 40 85 41 86 45 87 48 88 42 89 43 90 46 91 44 92
REMARK H PARENT 68 45 36 56
REMARK Flexibility Score: inf
ROOT
ATOM      1  C   UNL     1      -3.186   0.788  -0.943  1.00  0.00     0.274 C 
ENDROOT
BRANCH   1   2
ATOM      2  O   UNL     1      -1.765   0.560  -1.051  1.00  0.00    -0.460 OA
BRANCH   2   3
ATOM      3  C   UNL     1      -0.955   1.585  -0.664  1.00  0.00     0.332 C 
ATOM      4  O   UNL     1      -1.383   2.649  -0.228  1.00  0.00    -0.249 OA
BRANCH   3   5
ATOM      5  C   UNL     1       0.552   1.288  -0.910  1.00  0.00     0.141 C 
ATOM      6  C   UNL     1       0.796  -0.236  -0.936  1.00  0.00     0.048 C 
ATOM      7  C   UNL     1       0.912   1.771  -2.336  1.00  0.00     0.048 C 
BRANCH   5   8
ATOM      8  N   UNL     1       1.348   2.044   0.151  1.00  0.00    -0.276 N 
ATOM      9  C   UNL     1       1.441   3.442   0.035  1.00  0.00     0.267 C 
ATOM     10  C   UNL     1       1.896   1.533   1.321  1.00  0.00     0.149 C 
ATOM     11  O   UNL     1       1.009   4.143  -0.871  1.00  0.00    -0.268 OA
ATOM     12  C   UNL     1       2.146   4.048   1.197  1.00  0.00     0.081 C 
ATOM     13  S   UNL     1       2.685   2.803   2.237  1.00  0.00    -0.054 SA
ATOM     14  S   UNL     1       1.950   0.002   1.977  1.00  0.00    -0.052 S 
ATOM     15  C   UNL     1       2.269   5.376   1.385  1.00  0.00     0.029 C 
BRANCH  15  16
ATOM     16  C   UNL     1       2.943   6.006   2.536  1.00  0.00    -0.024 A 
ATOM     17  C   UNL     1       2.346   7.064   3.232  1.00  0.00     0.009 A 
ATOM     18  C   UNL     1       4.186   5.530   2.980  1.00  0.00     0.009 A 
ATOM     19  C   UNL     1       2.924   7.535   4.420  1.00  0.00     0.012 A 
ATOM     20  C   UNL     1       4.717   5.936   4.199  1.00  0.00     0.012 A 
ATOM     21  C   UNL     1       4.062   6.913   4.934  1.00  0.00     0.014 A 
BRANCH  21  22
ATOM     22  C   UNL     1       4.590   7.216   6.275  1.00  0.00     0.260 C 
ATOM     23  O   UNL     1       4.580   8.341   6.748  1.00  0.00    -0.298 OA
ENDBRANCH  21  22
ENDBRANCH  15  16
ENDBRANCH   5   8
ENDBRANCH   3   5
ENDBRANCH   2   3
ENDBRANCH   1   2
BRANCH   1  24
ATOM     24  C   UNL     1      -3.764   0.294   0.387  1.00  0.00     0.275 C 
BRANCH  24  25
ATOM     25  O   UNL     1      -3.443   1.175   1.483  1.00  0.00    -0.458 OA
BRANCH  25  26
ATOM     26  C   UNL     1      -2.369   0.800   2.213  1.00  0.00     0.338 C 
ATOM     27  O   UNL     1      -1.662  -0.175   2.029  1.00  0.00    -0.246 OA
BRANCH  26  28
ATOM     28  C   UNL     1      -2.066   1.797   3.253  1.00  0.00     0.060 A 
ATOM     29  C   UNL     1      -1.054   2.719   2.995  1.00  0.00     0.016 A 
ATOM     30  C   UNL     1      -2.606   1.693   4.535  1.00  0.00     0.016 A 
ATOM     31  C   UNL     1      -0.502   3.466   4.031  1.00  0.00     0.010 A 
ATOM     32  C   UNL     1      -2.086   2.489   5.568  1.00  0.00     0.010 A 
ATOM     33  C   UNL     1      -0.986   3.336   5.337  1.00  0.00    -0.014 A 
BRANCH  33  34
ATOM     34  C   UNL     1      -0.232   3.989   6.448  1.00  0.00     0.031 A 
ATOM     35  C   UNL     1       0.488   3.123   7.451  1.00  0.00     0.074 A 
ATOM     36  C   UNL     1      -0.132   5.333   6.508  1.00  0.00     0.049 A 
ATOM     37  N   UNL     1       1.176   3.474   8.508  1.00  0.00    -0.248 NA
ATOM     38  C   UNL     1       0.405   1.665   7.256  1.00  0.00     0.031 C 
ATOM     39  C   UNL     1      -0.770   6.251   5.566  1.00  0.00     0.029 A 
ATOM     40  N   UNL     1       0.557   6.167   7.360  1.00  0.00    -0.354 N 
ATOM     41  C   UNL     1       1.503   2.288   9.158  1.00  0.00     0.074 A 
ATOM     42  C   UNL     1       0.984   1.205   8.355  1.00  0.00     0.031 C 
ATOM     43  C   UNL     1      -0.394   7.508   5.848  1.00  0.00     0.029 A 
ATOM     44  C   UNL     1       0.476   7.504   7.023  1.00  0.00     0.049 A 
ATOM     45  H   UNL     1       1.062   5.839   8.139  1.00  0.00     0.167 HD
ATOM     46  C   UNL     1       2.151   2.134  10.337  1.00  0.00     0.037 A 
ATOM     47  C   UNL     1       1.060   8.591   7.583  1.00  0.00     0.037 A 
ATOM     48  C   UNL     1       2.749   3.225  11.061  1.00  0.00     0.049 A 
ATOM     49  C   UNL     1       1.953   8.350   8.784  1.00  0.00     0.074 A 
ATOM     50  C   UNL     1       3.443   3.196  12.257  1.00  0.00     0.029 A 
ATOM     51  N   UNL     1       2.744   4.545  10.630  1.00  0.00    -0.354 N 
ATOM     52  N   UNL     1       2.251   7.216   9.383  1.00  0.00    -0.248 NA
ATOM     53  C   UNL     1       2.589   9.525   9.391  1.00  0.00     0.031 C 
ATOM     54  C   UNL     1       3.831   4.505  12.566  1.00  0.00     0.029 A 
ATOM     55  C   UNL     1       3.422   5.340  11.537  1.00  0.00     0.049 A 
ATOM     56  H   UNL     1       2.321   4.867   9.802  1.00  0.00     0.167 HD
ATOM     57  C   UNL     1       3.118   7.544  10.418  1.00  0.00     0.074 A 
ATOM     58  C   UNL     1       3.346   8.971  10.326  1.00  0.00     0.031 C 
ATOM     59  C   UNL     1       3.650   6.756  11.387  1.00  0.00     0.037 A 
BRANCH  46  60
ATOM     60  C   UNL     1       2.171   0.765  10.956  1.00  0.00     0.064 A 
ATOM     61  C   UNL     1       2.944  -0.290  10.454  1.00  0.00     0.173 A 
ATOM     62  C   UNL     1       1.394   0.516  12.101  1.00  0.00     0.173 A 
ATOM     63  F   UNL     1       3.694  -0.115   9.355  1.00  0.00    -0.203 F 
ATOM     64  C   UNL     1       2.916  -1.549  11.054  1.00  0.00     0.198 A 
ATOM     65  C   UNL     1       1.391  -0.733  12.716  1.00  0.00     0.198 A 
ATOM     66  F   UNL     1       0.637   1.490  12.629  1.00  0.00    -0.203 F 
ATOM     67  F   UNL     1       3.624  -2.558  10.526  1.00  0.00    -0.200 F 
ATOM     68  C   UNL     1       2.145  -1.768  12.187  1.00  0.00     0.200 A 
ATOM     69  F   UNL     1       0.654  -0.936  13.817  1.00  0.00    -0.200 F 
ATOM     70  F   UNL     1       2.122  -2.978  12.763  1.00  0.00    -0.200 F 
ENDBRANCH  46  60
BRANCH  47  71
ATOM     71  C   UNL     1       0.892   9.959   6.970  1.00  0.00     0.064 A 
ATOM     72  C   UNL     1       1.986  10.717   6.514  1.00  0.00     0.173 A 
ATOM     73  C   UNL     1      -0.372  10.529   6.752  1.00  0.00     0.173 A 
ATOM     74  F   UNL     1       3.236  10.311   6.740  1.00  0.00    -0.203 F 
ATOM     75  C   UNL     1       1.837  11.925   5.835  1.00  0.00     0.198 A 
ATOM     76  C   UNL     1      -0.529  11.727   6.045  1.00  0.00     0.198 A 
ATOM     77  F   UNL     1      -1.476   9.903   7.185  1.00  0.00    -0.203 F 
ATOM     78  F   UNL     1       2.921  12.599   5.425  1.00  0.00    -0.200 F 
ATOM     79  C   UNL     1       0.576  12.420   5.580  1.00  0.00     0.200 A 
ATOM     80  F   UNL     1      -1.759  12.197   5.794  1.00  0.00    -0.200 F 
ATOM     81  F   UNL     1       0.426  13.560   4.892  1.00  0.00    -0.200 F 
ENDBRANCH  47  71
BRANCH  59  82
ATOM     82  C   UNL     1       4.523   7.423  12.413  1.00  0.00     0.064 A 
ATOM     83  C   UNL     1       3.987   8.305  13.364  1.00  0.00     0.173 A 
ATOM     84  C   UNL     1       5.895   7.136  12.484  1.00  0.00     0.173 A 
ATOM     85  F   UNL     1       2.679   8.607  13.343  1.00  0.00    -0.203 F 
ATOM     86  C   UNL     1       4.798   8.907  14.321  1.00  0.00     0.198 A 
ATOM     87  C   UNL     1       6.697   7.715  13.465  1.00  0.00     0.198 A 
ATOM     88  F   UNL     1       6.455   6.280  11.616  1.00  0.00    -0.203 F 
ATOM     89  F   UNL     1       4.271   9.785  15.186  1.00  0.00    -0.200 F 
ATOM     90  C   UNL     1       6.150   8.607  14.375  1.00  0.00     0.200 A 
ATOM     91  F   UNL     1       7.999   7.406  13.532  1.00  0.00    -0.200 F 
ATOM     92  F   UNL     1       6.927   9.180  15.304  1.00  0.00    -0.200 F 
ENDBRANCH  59  82
ENDBRANCH  33  34
ENDBRANCH  26  28
ENDBRANCH  25  26
ENDBRANCH  24  25
ENDBRANCH   1  24
TORSDOF 14
