REMARK SMILES Cc1ccc2oc(CCCC(=O)OCCOC(=O)c3ccc(-c4c5nc(c(-c6c(F)c(F)c(F)c(F)c6F)c6ccc([nH]6)c(-c6c(F)c(F)c(F)c(F)c6F)c6nc(c(-c7c(F)c(F)c(F)c(F)c7F)c7ccc4[nH]7)C=C6)C=C5)cc3)cc(=O)c2c1
REMARK SMILES IDX 14 1 13 2 11 3 12 4 10 5 9 6 8 7 7 8 1 9 2 10 3 11 86 12
REMARK SMILES IDX 4 13 85 14 5 15 83 16 6 17 82 18 84 19 15 20 16 21 17 22
REMARK SMILES IDX 18 23 19 24 20 25 81 26 21 27 80 28 22 29 23 30 24 31 74 32
REMARK SMILES IDX 25 33 79 34 73 35 75 36 26 37 78 38 72 39 71 40 27 42 59 43
REMARK SMILES IDX 39 44 58 45 40 46 43 47 57 48 76 49 41 50 42 51 56 53 77 54
REMARK SMILES IDX 44 55 28 56 29 57 37 58 30 59 31 60 35 61 38 62 32 63 33 64
REMARK SMILES IDX 36 65 34 66 60 67 61 68 69 69 62 70 63 71 67 72 70 73 64 74
REMARK SMILES IDX 65 75 68 76 66 77 45 78 46 79 54 80 47 81 48 82 52 83 55 84
REMARK SMILES IDX 49 85 50 86 53 87 51 88
REMARK H PARENT 75 41 43 52
REMARK Flexibility Score: inf
ROOT
ATOM      1  C   UNL     1       2.720  -4.955  -2.079  1.00  0.00     0.274 C 
ENDROOT
BRANCH   1   2
ATOM      2  O   UNL     1       2.853  -4.010  -1.000  1.00  0.00    -0.462 OA
BRANCH   2   3
ATOM      3  C   UNL     1       2.130  -4.234   0.122  1.00  0.00     0.305 C 
ATOM      4  O   UNL     1       1.343  -5.162   0.272  1.00  0.00    -0.252 OA
BRANCH   3   5
ATOM      5  C   UNL     1       2.370  -3.204   1.208  1.00  0.00     0.123 C 
BRANCH   5   6
ATOM      6  C   UNL     1       3.620  -2.325   1.094  1.00  0.00     0.020 C 
BRANCH   6   7
ATOM      7  C   UNL     1       3.687  -1.325  -0.074  1.00  0.00     0.076 C 
BRANCH   7   8
ATOM      8  C   UNL     1       2.453  -0.480  -0.230  1.00  0.00     0.108 A 
ATOM      9  C   UNL     1      -3.814   1.061   0.066  1.00  0.00     0.044 C 
ATOM     10  C   UNL     1      -2.447   0.471  -0.113  1.00  0.00    -0.050 A 
ATOM     11  C   UNL     1      -2.282  -0.906  -0.321  1.00  0.00     0.007 A 
ATOM     12  C   UNL     1      -1.318   1.303  -0.085  1.00  0.00     0.019 A 
ATOM     13  C   UNL     1      -1.008  -1.448  -0.501  1.00  0.00     0.048 A 
ATOM     14  C   UNL     1      -0.045   0.751  -0.244  1.00  0.00     0.065 A 
ATOM     15  C   UNL     1       0.107  -0.613  -0.459  1.00  0.00     0.138 A 
ATOM     16  C   UNL     1       1.168   1.579  -0.133  1.00  0.00     0.192 A 
ATOM     17  O   UNL     1       1.334  -1.198  -0.622  1.00  0.00    -0.461 OA
ATOM     18  C   UNL     1       2.444   0.846  -0.028  1.00  0.00     0.095 A 
ATOM     19  O   UNL     1       1.131   2.800  -0.069  1.00  0.00    -0.289 OA
ENDBRANCH   7   8
ENDBRANCH   6   7
ENDBRANCH   5   6
ENDBRANCH   3   5
ENDBRANCH   2   3
ENDBRANCH   1   2
BRANCH   1  20
ATOM     20  C   UNL     1       3.993  -5.793  -2.216  1.00  0.00     0.275 C 
BRANCH  20  21
ATOM     21  O   UNL     1       4.154  -6.669  -1.085  1.00  0.00    -0.458 OA
BRANCH  21  22
ATOM     22  C   UNL     1       4.913  -6.172  -0.081  1.00  0.00     0.338 C 
ATOM     23  O   UNL     1       5.527  -5.121  -0.058  1.00  0.00    -0.246 OA
BRANCH  22  24
ATOM     24  C   UNL     1       4.774  -7.038   1.097  1.00  0.00     0.060 A 
ATOM     25  C   UNL     1       4.100  -6.523   2.206  1.00  0.00     0.016 A 
ATOM     26  C   UNL     1       5.357  -8.303   1.144  1.00  0.00     0.016 A 
ATOM     27  C   UNL     1       4.006  -7.267   3.376  1.00  0.00     0.010 A 
ATOM     28  C   UNL     1       5.264  -9.053   2.321  1.00  0.00     0.010 A 
ATOM     29  C   UNL     1       4.598  -8.533   3.446  1.00  0.00    -0.014 A 
BRANCH  29  30
ATOM     30  C   UNL     1       4.569  -9.276   4.726  1.00  0.00     0.031 A 
ATOM     31  C   UNL     1       5.806  -9.345   5.572  1.00  0.00     0.074 A 
ATOM     32  C   UNL     1       3.425  -9.847   5.143  1.00  0.00     0.049 A 
ATOM     33  N   UNL     1       6.010  -9.992   6.690  1.00  0.00    -0.248 NA
ATOM     34  C   UNL     1       6.970  -8.582   5.095  1.00  0.00     0.031 C 
ATOM     35  C   UNL     1       2.150  -9.797   4.430  1.00  0.00     0.029 A 
ATOM     36  N   UNL     1       3.153 -10.577   6.272  1.00  0.00    -0.354 N 
ATOM     37  C   UNL     1       7.328  -9.736   7.039  1.00  0.00     0.074 A 
ATOM     38  C   UNL     1       7.881  -8.881   6.010  1.00  0.00     0.031 C 
ATOM     39  C   UNL     1       1.227 -10.466   5.140  1.00  0.00     0.029 A 
ATOM     40  C   UNL     1       1.857 -11.025   6.333  1.00  0.00     0.049 A 
ATOM     41  H   UNL     1       3.822 -10.762   6.970  1.00  0.00     0.167 HD
ATOM     42  C   UNL     1       8.012 -10.174   8.123  1.00  0.00     0.037 A 
ATOM     43  C   UNL     1       1.256 -11.818   7.241  1.00  0.00     0.037 A 
ATOM     44  C   UNL     1       7.450 -11.007   9.153  1.00  0.00     0.049 A 
ATOM     45  C   UNL     1       2.049 -12.324   8.414  1.00  0.00     0.074 A 
ATOM     46  C   UNL     1       8.060 -11.505  10.291  1.00  0.00     0.029 A 
ATOM     47  N   UNL     1       6.139 -11.461   9.170  1.00  0.00    -0.354 N 
ATOM     48  N   UNL     1       3.301 -12.093   8.727  1.00  0.00    -0.248 NA
ATOM     49  C   UNL     1       1.348 -13.205   9.357  1.00  0.00     0.031 C 
ATOM     50  C   UNL     1       7.127 -12.287  10.981  1.00  0.00     0.029 A 
ATOM     51  C   UNL     1       5.925 -12.244  10.293  1.00  0.00     0.049 A 
ATOM     52  H   UNL     1       5.462 -11.258   8.486  1.00  0.00     0.167 HD
ATOM     53  C   UNL     1       3.532 -12.781   9.909  1.00  0.00     0.074 A 
ATOM     54  C   UNL     1       2.287 -13.429  10.266  1.00  0.00     0.031 C 
ATOM     55  C   UNL     1       4.675 -12.871  10.633  1.00  0.00     0.037 A 
BRANCH  42  56
ATOM     56  C   UNL     1       9.455  -9.785   8.231  1.00  0.00     0.064 A 
ATOM     57  C   UNL     1       9.844  -8.483   8.578  1.00  0.00     0.173 A 
ATOM     58  C   UNL     1      10.462 -10.737   8.009  1.00  0.00     0.173 A 
ATOM     59  F   UNL     1       8.919  -7.534   8.782  1.00  0.00    -0.203 F 
ATOM     60  C   UNL     1      11.191  -8.143   8.679  1.00  0.00     0.198 A 
ATOM     61  C   UNL     1      11.806 -10.399   8.135  1.00  0.00     0.198 A 
ATOM     62  F   UNL     1      10.140 -11.996   7.676  1.00  0.00    -0.203 F 
ATOM     63  F   UNL     1      11.542  -6.884   8.973  1.00  0.00    -0.200 F 
ATOM     64  C   UNL     1      12.170  -9.102   8.464  1.00  0.00     0.200 A 
ATOM     65  F   UNL     1      12.751 -11.329   7.934  1.00  0.00    -0.200 F 
ATOM     66  F   UNL     1      13.466  -8.774   8.566  1.00  0.00    -0.200 F 
ENDBRANCH  42  56
BRANCH  43  67
ATOM     67  C   UNL     1      -0.171 -12.190   7.065  1.00  0.00     0.064 A 
ATOM     68  C   UNL     1      -1.160 -11.685   7.919  1.00  0.00     0.173 A 
ATOM     69  C   UNL     1      -0.573 -13.057   6.038  1.00  0.00     0.173 A 
ATOM     70  F   UNL     1      -0.820 -10.873   8.930  1.00  0.00    -0.203 F 
ATOM     71  C   UNL     1      -2.497 -12.042   7.760  1.00  0.00     0.198 A 
ATOM     72  C   UNL     1      -1.913 -13.393   5.864  1.00  0.00     0.198 A 
ATOM     73  F   UNL     1       0.337 -13.569   5.196  1.00  0.00    -0.203 F 
ATOM     74  F   UNL     1      -3.419 -11.576   8.613  1.00  0.00    -0.200 F 
ATOM     75  C   UNL     1      -2.873 -12.890   6.729  1.00  0.00     0.200 A 
ATOM     76  F   UNL     1      -2.273 -14.205   4.861  1.00  0.00    -0.200 F 
ATOM     77  F   UNL     1      -4.160 -13.229   6.573  1.00  0.00    -0.200 F 
ENDBRANCH  43  67
BRANCH  55  78
ATOM     78  C   UNL     1       4.620 -13.673  11.899  1.00  0.00     0.064 A 
ATOM     79  C   UNL     1       4.592 -15.075  11.878  1.00  0.00     0.173 A 
ATOM     80  C   UNL     1       4.633 -13.031  13.146  1.00  0.00     0.173 A 
ATOM     81  F   UNL     1       4.562 -15.732  10.709  1.00  0.00    -0.203 F 
ATOM     82  C   UNL     1       4.559 -15.805  13.062  1.00  0.00     0.198 A 
ATOM     83  C   UNL     1       4.624 -13.765  14.328  1.00  0.00     0.198 A 
ATOM     84  F   UNL     1       4.665 -11.692  13.217  1.00  0.00    -0.203 F 
ATOM     85  F   UNL     1       4.493 -17.143  13.021  1.00  0.00    -0.200 F 
ATOM     86  C   UNL     1       4.581 -15.151  14.286  1.00  0.00     0.200 A 
ATOM     87  F   UNL     1       4.655 -13.132  15.509  1.00  0.00    -0.200 F 
ATOM     88  F   UNL     1       4.554 -15.857  15.425  1.00  0.00    -0.200 F 
ENDBRANCH  55  78
ENDBRANCH  29  30
ENDBRANCH  22  24
ENDBRANCH  21  22
ENDBRANCH  20  21
ENDBRANCH   1  20
TORSDOF 14
