REMARK SMILES CC(C)c1nc(OCC(=O)OCCOC(=O)c2ccc(-c3c4nc(c(-c5c(F)c(F)c(F)c(F)c5F)c5ccc([nH]5)c(-c5c(F)c(F)c(F)c(F)c5F)c5nc(c(-c6c(F)c(F)c(F)c(F)c6F)c6ccc3[nH]6)C=C5)C=C4)cc2)cc(-c2ccccn2)n1
REMARK SMILES IDX 12 1 11 2 9 3 10 4 8 5 7 6 6 7 4 8 5 9 88 10 81 11 80 12
REMARK SMILES IDX 2 13 1 14 3 15 82 16 83 17 87 18 84 19 86 20 85 21 13 22
REMARK SMILES IDX 14 23 15 24 16 25 17 26 18 27 79 28 19 29 78 30 20 31 21 32
REMARK SMILES IDX 22 33 72 34 23 35 77 36 71 37 73 38 24 39 76 40 70 41 69 42
REMARK SMILES IDX 25 44 57 45 37 46 56 47 38 48 41 49 55 50 74 51 39 52 40 53
REMARK SMILES IDX 54 55 75 56 42 57 26 58 27 59 35 60 28 61 29 62 33 63 36 64
REMARK SMILES IDX 30 65 31 66 34 67 32 68 58 69 59 70 67 71 60 72 61 73 65 74
REMARK SMILES IDX 68 75 62 76 63 77 66 78 64 79 43 80 44 81 52 82 45 83 46 84
REMARK SMILES IDX 50 85 53 86 47 87 48 88 51 89 49 90
REMARK H PARENT 73 43 41 54
REMARK Flexibility Score: inf
ROOT
ATOM      1  C   UNL     1      -5.821  -3.352   3.546  1.00  0.00     0.274 C 
ENDROOT
BRANCH   1   2
ATOM      2  O   UNL     1      -4.886  -3.404   2.448  1.00  0.00    -0.460 OA
BRANCH   2   3
ATOM      3  C   UNL     1      -5.389  -3.866   1.273  1.00  0.00     0.344 C 
ATOM      4  O   UNL     1      -6.564  -4.173   1.088  1.00  0.00    -0.248 OA
BRANCH   3   5
ATOM      5  C   UNL     1      -4.353  -3.948   0.156  1.00  0.00     0.353 C 
BRANCH   5   6
ATOM      6  O   UNL     1      -3.004  -3.704   0.488  1.00  0.00    -0.466 OA
BRANCH   6   7
ATOM      7  C   UNL     1      -2.457  -2.484   0.234  1.00  0.00     0.217 A 
ATOM      8  C   UNL     1      -0.452  -1.367   0.170  1.00  0.00     0.135 A 
ATOM      9  N   UNL     1      -1.118  -2.527   0.278  1.00  0.00    -0.198 NA
ATOM     10  N   UNL     1      -1.043  -0.173   0.037  1.00  0.00    -0.231 NA
ATOM     11  C   UNL     1      -2.389  -0.154  -0.031  1.00  0.00     0.096 A 
ATOM     12  C   UNL     1      -3.145  -1.310   0.042  1.00  0.00     0.099 A 
BRANCH   8  13
ATOM     13  C   UNL     1       1.055  -1.426   0.292  1.00  0.00     0.051 C 
ATOM     14  C   UNL     1       1.733  -0.087  -0.012  1.00  0.00     0.016 C 
ATOM     15  C   UNL     1       1.440  -1.904   1.694  1.00  0.00     0.016 C 
ENDBRANCH   8  13
BRANCH  11  16
ATOM     16  C   UNL     1      -2.993   1.186  -0.026  1.00  0.00     0.089 A 
ATOM     17  C   UNL     1      -3.157   1.871   1.179  1.00  0.00     0.030 A 
ATOM     18  N   UNL     1      -3.335   1.735  -1.221  1.00  0.00    -0.255 NA
ATOM     19  C   UNL     1      -3.704   3.150   1.175  1.00  0.00     0.004 A 
ATOM     20  C   UNL     1      -3.815   3.003  -1.192  1.00  0.00     0.112 A 
ATOM     21  C   UNL     1      -4.033   3.735  -0.037  1.00  0.00     0.020 A 
ENDBRANCH  11  16
ENDBRANCH   6   7
ENDBRANCH   5   6
ENDBRANCH   3   5
ENDBRANCH   2   3
ENDBRANCH   1   2
BRANCH   1  22
ATOM     22  C   UNL     1      -6.387  -1.947   3.746  1.00  0.00     0.275 C 
BRANCH  22  23
ATOM     23  O   UNL     1      -6.931  -1.435   2.514  1.00  0.00    -0.458 OA
BRANCH  23  24
ATOM     24  C   UNL     1      -6.186  -0.466   1.942  1.00  0.00     0.338 C 
ATOM     25  O   UNL     1      -5.157   0.022   2.387  1.00  0.00    -0.246 OA
BRANCH  24  26
ATOM     26  C   UNL     1      -6.748  -0.044   0.649  1.00  0.00     0.060 A 
ATOM     27  C   UNL     1      -6.953  -0.963  -0.385  1.00  0.00     0.016 A 
ATOM     28  C   UNL     1      -6.932   1.321   0.424  1.00  0.00     0.016 A 
ATOM     29  C   UNL     1      -7.310  -0.512  -1.657  1.00  0.00     0.010 A 
ATOM     30  C   UNL     1      -7.347   1.766  -0.831  1.00  0.00     0.010 A 
ATOM     31  C   UNL     1      -7.535   0.854  -1.881  1.00  0.00    -0.014 A 
BRANCH  31  32
ATOM     32  C   UNL     1      -8.127   1.331  -3.151  1.00  0.00     0.031 A 
ATOM     33  C   UNL     1      -7.336   2.135  -4.135  1.00  0.00     0.074 A 
ATOM     34  C   UNL     1      -9.438   1.113  -3.350  1.00  0.00     0.049 A 
ATOM     35  N   UNL     1      -7.761   2.877  -5.126  1.00  0.00    -0.248 NA
ATOM     36  C   UNL     1      -5.878   2.111  -3.982  1.00  0.00     0.031 C 
ATOM     37  C   UNL     1     -10.300   0.322  -2.470  1.00  0.00     0.029 A 
ATOM     38  N   UNL     1     -10.282   1.569  -4.329  1.00  0.00    -0.354 N 
ATOM     39  C   UNL     1      -6.626   3.443  -5.690  1.00  0.00     0.074 A 
ATOM     40  C   UNL     1      -5.492   2.958  -4.930  1.00  0.00     0.031 C 
ATOM     41  C   UNL     1     -11.557   0.374  -2.930  1.00  0.00     0.029 A 
ATOM     42  C   UNL     1     -11.595   1.248  -4.096  1.00  0.00     0.049 A 
ATOM     43  H   UNL     1      -9.977   2.074  -5.117  1.00  0.00     0.167 HD
ATOM     44  C   UNL     1      -6.552   4.285  -6.748  1.00  0.00     0.037 A 
ATOM     45  C   UNL     1     -12.715   1.662  -4.713  1.00  0.00     0.037 A 
ATOM     46  C   UNL     1      -7.685   4.697  -7.539  1.00  0.00     0.049 A 
ATOM     47  C   UNL     1     -12.611   2.615  -5.862  1.00  0.00     0.074 A 
ATOM     48  C   UNL     1      -7.703   5.473  -8.686  1.00  0.00     0.029 A 
ATOM     49  N   UNL     1      -9.001   4.352  -7.271  1.00  0.00    -0.354 N 
ATOM     50  N   UNL     1     -11.542   3.174  -6.371  1.00  0.00    -0.248 NA
ATOM     51  C   UNL     1     -13.867   3.003  -6.514  1.00  0.00     0.031 C 
ATOM     52  C   UNL     1      -9.034   5.620  -9.096  1.00  0.00     0.029 A 
ATOM     53  C   UNL     1      -9.841   4.915  -8.219  1.00  0.00     0.049 A 
ATOM     54  H   UNL     1      -9.296   3.791  -6.518  1.00  0.00     0.167 HD
ATOM     55  C   UNL     1     -11.991   3.977  -7.407  1.00  0.00     0.074 A 
ATOM     56  C   UNL     1     -13.432   3.825  -7.460  1.00  0.00     0.031 C 
ATOM     57  C   UNL     1     -11.273   4.768  -8.239  1.00  0.00     0.037 A 
BRANCH  44  58
ATOM     58  C   UNL     1      -5.207   4.833  -7.125  1.00  0.00     0.064 A 
ATOM     59  C   UNL     1      -4.263   4.062  -7.817  1.00  0.00     0.173 A 
ATOM     60  C   UNL     1      -4.900   6.179  -6.872  1.00  0.00     0.173 A 
ATOM     61  F   UNL     1      -4.510   2.771  -8.081  1.00  0.00    -0.203 F 
ATOM     62  C   UNL     1      -3.056   4.617  -8.237  1.00  0.00     0.198 A 
ATOM     63  C   UNL     1      -3.700   6.735  -7.309  1.00  0.00     0.198 A 
ATOM     64  F   UNL     1      -5.774   6.961  -6.221  1.00  0.00    -0.203 F 
ATOM     65  F   UNL     1      -2.161   3.860  -8.886  1.00  0.00    -0.200 F 
ATOM     66  C   UNL     1      -2.779   5.954  -7.990  1.00  0.00     0.200 A 
ATOM     67  F   UNL     1      -3.441   8.030  -7.080  1.00  0.00    -0.200 F 
ATOM     68  F   UNL     1      -1.626   6.491  -8.411  1.00  0.00    -0.200 F 
ENDBRANCH  44  58
BRANCH  45  69
ATOM     69  C   UNL     1     -14.024   1.198  -4.199  1.00  0.00     0.064 A 
ATOM     70  C   UNL     1     -14.738   0.193  -4.859  1.00  0.00     0.173 A 
ATOM     71  C   UNL     1     -14.540   1.694  -2.992  1.00  0.00     0.173 A 
ATOM     72  F   UNL     1     -14.284  -0.298  -6.021  1.00  0.00    -0.203 F 
ATOM     73  C   UNL     1     -15.924  -0.307  -4.326  1.00  0.00     0.198 A 
ATOM     74  C   UNL     1     -15.714   1.179  -2.451  1.00  0.00     0.198 A 
ATOM     75  F   UNL     1     -13.880   2.650  -2.322  1.00  0.00    -0.203 F 
ATOM     76  F   UNL     1     -16.597  -1.265  -4.979  1.00  0.00    -0.200 F 
ATOM     77  C   UNL     1     -16.405   0.179  -3.119  1.00  0.00     0.200 A 
ATOM     78  F   UNL     1     -16.166   1.639  -1.277  1.00  0.00    -0.200 F 
ATOM     79  F   UNL     1     -17.533  -0.320  -2.596  1.00  0.00    -0.200 F 
ENDBRANCH  45  69
BRANCH  57  80
ATOM     80  C   UNL     1     -12.043   5.525  -9.276  1.00  0.00     0.064 A 
ATOM     81  C   UNL     1     -12.741   6.695  -8.948  1.00  0.00     0.173 A 
ATOM     82  C   UNL     1     -12.073   5.083 -10.606  1.00  0.00     0.173 A 
ATOM     83  F   UNL     1     -12.754   7.141  -7.683  1.00  0.00    -0.203 F 
ATOM     84  C   UNL     1     -13.460   7.390  -9.916  1.00  0.00     0.198 A 
ATOM     85  C   UNL     1     -12.779   5.790 -11.575  1.00  0.00     0.198 A 
ATOM     86  F   UNL     1     -11.421   3.967 -10.963  1.00  0.00    -0.203 F 
ATOM     87  F   UNL     1     -14.151   8.486  -9.577  1.00  0.00    -0.200 F 
ATOM     88  C   UNL     1     -13.475   6.939 -11.228  1.00  0.00     0.200 A 
ATOM     89  F   UNL     1     -12.794   5.354 -12.842  1.00  0.00    -0.200 F 
ATOM     90  F   UNL     1     -14.172   7.606 -12.159  1.00  0.00    -0.200 F 
ENDBRANCH  57  80
ENDBRANCH  31  32
ENDBRANCH  24  26
ENDBRANCH  23  24
ENDBRANCH  22  23
ENDBRANCH   1  22
TORSDOF 15
