REMARK SMILES Cc1noc(C)c1[C@@H](C)NC(=O)N[C@H](CO)C(=O)OCCOC(=O)c1ccc(-c2c3nc(c(-c4c(F)c(F)c(F)c(F)c4F)c4ccc([nH]4)c(-c4c(F)c(F)c(F)c(F)c4F)c4nc(c(-c5c(F)c(F)c(F)c(F)c5F)c5ccc2[nH]5)C=C4)C=C3)cc1
REMARK SMILES IDX 20 1 19 2 17 3 18 4 14 5 13 6 10 7 11 8 12 10 8 12 9 13 7 14
REMARK SMILES IDX 1 15 2 16 3 17 4 18 5 19 6 20 15 21 16 22 21 24 22 25 23 26
REMARK SMILES IDX 24 27 25 28 26 29 87 30 27 31 86 32 28 33 29 34 30 35 80 36
REMARK SMILES IDX 31 37 85 38 79 39 81 40 32 41 84 42 78 43 77 44 33 46 65 47
REMARK SMILES IDX 45 48 64 49 46 50 49 51 63 52 82 53 47 54 48 55 62 57 83 58
REMARK SMILES IDX 50 59 34 60 35 61 43 62 36 63 37 64 41 65 44 66 38 67 39 68
REMARK SMILES IDX 42 69 40 70 66 71 67 72 75 73 68 74 69 75 73 76 76 77 70 78
REMARK SMILES IDX 71 79 74 80 72 81 51 82 52 83 60 84 53 85 54 86 58 87 61 88
REMARK SMILES IDX 55 89 56 90 59 91 57 92
REMARK H PARENT 10 9 13 11 16 23 81 45 49 56
REMARK Flexibility Score: inf
ROOT
ATOM      1  C   UNL     1       5.617   2.631   1.197  1.00  0.00     0.274 C 
ENDROOT
BRANCH   1   2
ATOM      2  O   UNL     1       4.534   3.583   1.223  1.00  0.00    -0.460 OA
BRANCH   2   3
ATOM      3  C   UNL     1       3.638   3.503   0.205  1.00  0.00     0.331 C 
ATOM      4  O   UNL     1       3.631   2.610  -0.636  1.00  0.00    -0.250 OA
BRANCH   3   5
ATOM      5  C   UNL     1       2.573   4.604   0.235  1.00  0.00     0.219 C 
BRANCH   5   6
ATOM      6  N   UNL     1       3.072   5.947   0.559  1.00  0.00    -0.323 N 
ATOM      7  N   UNL     1       3.648   6.237   2.841  1.00  0.00    -0.331 N 
ATOM      8  C   UNL     1       3.577   6.621   1.577  1.00  0.00     0.316 C 
ATOM      9  H   UNL     1       4.276   6.796   3.354  1.00  0.00     0.165 HD
ATOM     10  O   UNL     1       4.035   7.737   1.313  1.00  0.00    -0.249 OA
ATOM     11  H   UNL     1       3.012   6.529  -0.233  1.00  0.00     0.166 HD
BRANCH   7  12
ATOM     12  C   UNL     1       3.045   5.211   3.673  1.00  0.00     0.116 C 
ATOM     13  C   UNL     1       1.740   5.745   4.263  1.00  0.00     0.036 C 
BRANCH  12  14
ATOM     14  C   UNL     1       3.992   4.775   4.757  1.00  0.00     0.040 A 
ATOM     15  C   UNL     1       5.343   6.937   5.452  1.00  0.00     0.071 C 
ATOM     16  C   UNL     1       4.988   5.497   5.489  1.00  0.00     0.086 A 
ATOM     17  N   UNL     1       5.636   4.706   6.351  1.00  0.00    -0.085 NA
ATOM     18  O   UNL     1       5.023   3.479   6.274  1.00  0.00    -0.361 OA
ATOM     19  C   UNL     1       4.014   3.531   5.370  1.00  0.00     0.139 A 
ATOM     20  C   UNL     1       3.183   2.314   5.296  1.00  0.00     0.091 C 
ENDBRANCH  12  14
ENDBRANCH   7  12
ENDBRANCH   5   6
BRANCH   5  21
ATOM     21  C   UNL     1       1.250   4.217   0.896  1.00  0.00     0.193 C 
BRANCH  21  22
ATOM     22  O   UNL     1       0.339   5.318   0.907  1.00  0.00    -0.394 OA
ATOM     23  H   UNL     1       0.725   6.051   1.413  1.00  0.00     0.210 HD
ENDBRANCH  21  22
ENDBRANCH   5  21
ENDBRANCH   3   5
ENDBRANCH   2   3
ENDBRANCH   1   2
BRANCH   1  24
ATOM     24  C   UNL     1       5.341   1.347   1.990  1.00  0.00     0.275 C 
BRANCH  24  25
ATOM     25  O   UNL     1       4.360   0.488   1.380  1.00  0.00    -0.458 OA
BRANCH  25  26
ATOM     26  C   UNL     1       3.074   0.778   1.676  1.00  0.00     0.338 C 
ATOM     27  O   UNL     1       2.658   1.685   2.376  1.00  0.00    -0.246 OA
BRANCH  26  28
ATOM     28  C   UNL     1       2.169  -0.090   0.917  1.00  0.00     0.060 A 
ATOM     29  C   UNL     1       1.345   0.509  -0.039  1.00  0.00     0.016 A 
ATOM     30  C   UNL     1       2.059  -1.448   1.206  1.00  0.00     0.016 A 
ATOM     31  C   UNL     1       0.391  -0.238  -0.709  1.00  0.00     0.010 A 
ATOM     32  C   UNL     1       1.117  -2.209   0.514  1.00  0.00     0.010 A 
ATOM     33  C   UNL     1       0.283  -1.605  -0.444  1.00  0.00    -0.014 A 
BRANCH  33  34
ATOM     34  C   UNL     1      -0.675  -2.416  -1.215  1.00  0.00     0.031 A 
ATOM     35  C   UNL     1      -1.936  -2.894  -0.573  1.00  0.00     0.074 A 
ATOM     36  C   UNL     1      -0.371  -2.719  -2.489  1.00  0.00     0.049 A 
ATOM     37  N   UNL     1      -2.822  -3.740  -1.026  1.00  0.00    -0.248 NA
ATOM     38  C   UNL     1      -2.241  -2.352   0.760  1.00  0.00     0.031 C 
ATOM     39  C   UNL     1       0.817  -2.246  -3.204  1.00  0.00     0.029 A 
ATOM     40  N   UNL     1      -1.020  -3.506  -3.401  1.00  0.00    -0.354 N 
ATOM     41  C   UNL     1      -3.775  -3.857  -0.025  1.00  0.00     0.074 A 
ATOM     42  C   UNL     1      -3.360  -2.996   1.062  1.00  0.00     0.031 C 
ATOM     43  C   UNL     1       0.820  -2.766  -4.439  1.00  0.00     0.029 A 
ATOM     44  C   UNL     1      -0.332  -3.649  -4.579  1.00  0.00     0.049 A 
ATOM     45  H   UNL     1      -1.893  -3.928  -3.228  1.00  0.00     0.167 HD
ATOM     46  C   UNL     1      -4.888  -4.628  -0.025  1.00  0.00     0.037 A 
ATOM     47  C   UNL     1      -0.585  -4.442  -5.635  1.00  0.00     0.037 A 
ATOM     48  C   UNL     1      -5.271  -5.473  -1.126  1.00  0.00     0.049 A 
ATOM     49  C   UNL     1      -1.805  -5.317  -5.592  1.00  0.00     0.074 A 
ATOM     50  C   UNL     1      -6.368  -6.307  -1.239  1.00  0.00     0.029 A 
ATOM     51  N   UNL     1      -4.557  -5.587  -2.313  1.00  0.00    -0.354 N 
ATOM     52  N   UNL     1      -2.692  -5.445  -4.635  1.00  0.00    -0.248 NA
ATOM     53  C   UNL     1      -2.058  -6.158  -6.767  1.00  0.00     0.031 C 
ATOM     54  C   UNL     1      -6.300  -6.951  -2.480  1.00  0.00     0.029 A 
ATOM     55  C   UNL     1      -5.184  -6.486  -3.159  1.00  0.00     0.049 A 
ATOM     56  H   UNL     1      -3.727  -5.100  -2.522  1.00  0.00     0.167 HD
ATOM     57  C   UNL     1      -3.623  -6.362  -5.097  1.00  0.00     0.074 A 
ATOM     58  C   UNL     1      -3.193  -6.753  -6.426  1.00  0.00     0.031 C 
ATOM     59  C   UNL     1      -4.732  -6.839  -4.481  1.00  0.00     0.037 A 
BRANCH  46  60
ATOM     60  C   UNL     1      -5.736  -4.623   1.212  1.00  0.00     0.064 A 
ATOM     61  C   UNL     1      -6.533  -3.522   1.558  1.00  0.00     0.173 A 
ATOM     62  C   UNL     1      -5.764  -5.744   2.055  1.00  0.00     0.173 A 
ATOM     63  F   UNL     1      -6.528  -2.419   0.795  1.00  0.00    -0.203 F 
ATOM     64  C   UNL     1      -7.310  -3.536   2.715  1.00  0.00     0.198 A 
ATOM     65  C   UNL     1      -6.560  -5.764   3.198  1.00  0.00     0.198 A 
ATOM     66  F   UNL     1      -5.019  -6.823   1.771  1.00  0.00    -0.203 F 
ATOM     67  F   UNL     1      -8.031  -2.457   3.049  1.00  0.00    -0.200 F 
ATOM     68  C   UNL     1      -7.327  -4.658   3.530  1.00  0.00     0.200 A 
ATOM     69  F   UNL     1      -6.580  -6.852   3.980  1.00  0.00    -0.200 F 
ATOM     70  F   UNL     1      -8.076  -4.670   4.641  1.00  0.00    -0.200 F 
ENDBRANCH  46  60
BRANCH  47  71
ATOM     71  C   UNL     1       0.345  -4.445  -6.790  1.00  0.00     0.064 A 
ATOM     72  C   UNL     1      -0.026  -3.881  -8.017  1.00  0.00     0.173 A 
ATOM     73  C   UNL     1       1.643  -4.970  -6.678  1.00  0.00     0.173 A 
ATOM     74  F   UNL     1      -1.260  -3.382  -8.177  1.00  0.00    -0.203 F 
ATOM     75  C   UNL     1       0.862  -3.846  -9.091  1.00  0.00     0.198 A 
ATOM     76  C   UNL     1       2.538  -4.911  -7.744  1.00  0.00     0.198 A 
ATOM     77  F   UNL     1       2.050  -5.514  -5.522  1.00  0.00    -0.203 F 
ATOM     78  F   UNL     1       0.472  -3.324 -10.262  1.00  0.00    -0.200 F 
ATOM     79  C   UNL     1       2.145  -4.353  -8.950  1.00  0.00     0.200 A 
ATOM     80  F   UNL     1       3.783  -5.385  -7.598  1.00  0.00    -0.200 F 
ATOM     81  F   UNL     1       3.003  -4.304  -9.979  1.00  0.00    -0.200 F 
ENDBRANCH  47  71
BRANCH  59  82
ATOM     82  C   UNL     1      -5.575  -7.800  -5.260  1.00  0.00     0.064 A 
ATOM     83  C   UNL     1      -5.193  -9.137  -5.432  1.00  0.00     0.173 A 
ATOM     84  C   UNL     1      -6.803  -7.385  -5.797  1.00  0.00     0.173 A 
ATOM     85  F   UNL     1      -4.019  -9.571  -4.949  1.00  0.00    -0.203 F 
ATOM     86  C   UNL     1      -6.005 -10.024  -6.131  1.00  0.00     0.198 A 
ATOM     87  C   UNL     1      -7.622  -8.280  -6.475  1.00  0.00     0.198 A 
ATOM     88  F   UNL     1      -7.209  -6.115  -5.652  1.00  0.00    -0.203 F 
ATOM     89  F   UNL     1      -5.607 -11.290  -6.317  1.00  0.00    -0.200 F 
ATOM     90  C   UNL     1      -7.222  -9.598  -6.645  1.00  0.00     0.200 A 
ATOM     91  F   UNL     1      -8.801  -7.870  -6.964  1.00  0.00    -0.200 F 
ATOM     92  F   UNL     1      -8.006 -10.456  -7.312  1.00  0.00    -0.200 F 
ENDBRANCH  59  82
ENDBRANCH  33  34
ENDBRANCH  26  28
ENDBRANCH  25  26
ENDBRANCH  24  25
ENDBRANCH   1  24
TORSDOF 16
