REMARK SMILES O=C(OCCOC(=O)[C@@H]1CC=CC[C@@H]1C(=O)Nc1ccc(O)cc1)c1ccc(-c2c3nc(c(-c4c(F)c(F)c(F)c(F)c4F)c4ccc([nH]4)c(-c4c(F)c(F)c(F)c(F)c4F)c4nc(c(-c5c(F)c(F)c(F)c(F)c5F)c5ccc2[nH]5)C=C4)C=C3)cc1
REMARK SMILES IDX 5 1 4 2 3 3 2 4 1 5 25 6 26 7 87 8 27 9 86 10 28 11 29 12
REMARK SMILES IDX 30 13 80 14 31 15 85 16 79 17 81 18 32 19 84 20 78 21 77 22
REMARK SMILES IDX 33 24 65 25 45 26 64 27 46 28 49 29 63 30 82 31 47 32 48 33
REMARK SMILES IDX 62 35 83 36 50 37 34 38 35 39 43 40 36 41 37 42 41 43 44 44
REMARK SMILES IDX 38 45 39 46 42 47 40 48 66 49 67 50 75 51 68 52 69 53 73 54
REMARK SMILES IDX 76 55 70 56 71 57 74 58 72 59 51 60 52 61 60 62 53 63 54 64
REMARK SMILES IDX 58 65 61 66 55 67 56 68 59 69 57 70 6 71 7 72 8 73 9 74
REMARK SMILES IDX 10 75 14 76 11 77 13 78 12 79 15 80 16 81 17 82 18 84 19 85
REMARK SMILES IDX 24 86 20 87 23 88 21 89 22 90
REMARK H PARENT 81 23 49 34 17 83 22 91
REMARK Flexibility Score: inf
ROOT
ATOM      1  C   UNL     1       4.776   0.053   5.737  1.00  0.00     0.274 C 
ENDROOT
BRANCH   1   2
ATOM      2  C   UNL     1       5.416  -1.095   4.945  1.00  0.00     0.275 C 
BRANCH   2   3
ATOM      3  O   UNL     1       5.633  -0.705   3.568  1.00  0.00    -0.458 OA
BRANCH   3   4
ATOM      4  C   UNL     1       5.191  -1.414   2.492  1.00  0.00     0.338 C 
ATOM      5  O   UNL     1       5.937  -1.656   1.550  1.00  0.00    -0.246 OA
BRANCH   4   6
ATOM      6  C   UNL     1       3.712  -1.509   2.285  1.00  0.00     0.060 A 
ATOM      7  C   UNL     1       2.798  -1.875   3.263  1.00  0.00     0.016 A 
ATOM      8  C   UNL     1       3.211  -1.138   1.022  1.00  0.00     0.016 A 
ATOM      9  C   UNL     1       1.440  -1.581   3.072  1.00  0.00     0.010 A 
ATOM     10  C   UNL     1       1.845  -0.865   0.821  1.00  0.00     0.010 A 
ATOM     11  C   UNL     1       0.980  -0.880   1.910  1.00  0.00    -0.014 A 
BRANCH  11  12
ATOM     12  C   UNL     1      -0.471  -0.307   1.860  1.00  0.00     0.031 A 
ATOM     13  C   UNL     1      -1.179  -2.018   2.220  1.00  0.00     0.074 A 
ATOM     14  C   UNL     1      -1.191   1.203   1.802  1.00  0.00     0.049 A 
ATOM     15  N   UNL     1      -2.116  -2.438   3.089  1.00  0.00    -0.248 NA
ATOM     16  C   UNL     1      -0.736  -3.173   1.406  1.00  0.00     0.031 C 
ATOM     17  C   UNL     1      -0.845   2.563   2.472  1.00  0.00     0.029 A 
ATOM     18  N   UNL     1      -2.670   1.748   1.719  1.00  0.00    -0.354 N 
ATOM     19  C   UNL     1      -2.689  -3.608   2.619  1.00  0.00     0.074 A 
ATOM     20  C   UNL     1      -1.618  -4.125   1.751  1.00  0.00     0.031 C 
ATOM     21  C   UNL     1      -1.865   3.292   2.979  1.00  0.00     0.029 A 
ATOM     22  C   UNL     1      -3.132   2.675   2.703  1.00  0.00     0.049 A 
ATOM     23  H   UNL     1      -3.269   1.452   0.996  1.00  0.00     0.167 HD
ATOM     24  C   UNL     1      -3.993  -4.096   2.657  1.00  0.00     0.037 A 
ATOM     25  C   UNL     1      -4.281   2.994   3.440  1.00  0.00     0.037 A 
ATOM     26  C   UNL     1      -5.330  -3.510   3.106  1.00  0.00     0.049 A 
ATOM     27  C   UNL     1      -5.627   2.188   3.747  1.00  0.00     0.074 A 
ATOM     28  C   UNL     1      -6.591  -3.921   2.657  1.00  0.00     0.029 A 
ATOM     29  N   UNL     1      -5.680  -2.460   4.017  1.00  0.00    -0.354 N 
ATOM     30  N   UNL     1      -5.791   1.009   4.312  1.00  0.00    -0.248 NA
ATOM     31  C   UNL     1      -6.934   2.869   3.664  1.00  0.00     0.031 C 
ATOM     32  C   UNL     1      -7.586  -2.990   3.037  1.00  0.00     0.029 A 
ATOM     33  C   UNL     1      -7.019  -1.969   3.798  1.00  0.00     0.049 A 
ATOM     34  H   UNL     1      -5.075  -2.113   4.712  1.00  0.00     0.167 HD
ATOM     35  C   UNL     1      -7.127   0.637   4.283  1.00  0.00     0.074 A 
ATOM     36  C   UNL     1      -7.785   1.935   4.122  1.00  0.00     0.031 C 
ATOM     37  C   UNL     1      -7.699  -0.624   4.125  1.00  0.00     0.037 A 
BRANCH  24  38
ATOM     38  C   UNL     1      -4.113  -5.399   1.873  1.00  0.00     0.064 A 
ATOM     39  C   UNL     1      -3.699  -6.617   2.433  1.00  0.00     0.173 A 
ATOM     40  C   UNL     1      -4.594  -5.423   0.549  1.00  0.00     0.173 A 
ATOM     41  F   UNL     1      -3.193  -6.647   3.675  1.00  0.00    -0.203 F 
ATOM     42  C   UNL     1      -3.750  -7.803   1.699  1.00  0.00     0.198 A 
ATOM     43  C   UNL     1      -4.673  -6.617  -0.170  1.00  0.00     0.198 A 
ATOM     44  F   UNL     1      -4.987  -4.289  -0.053  1.00  0.00    -0.203 F 
ATOM     45  F   UNL     1      -3.295  -8.943   2.238  1.00  0.00    -0.200 F 
ATOM     46  C   UNL     1      -4.243  -7.804   0.402  1.00  0.00     0.200 A 
ATOM     47  F   UNL     1      -5.152  -6.614  -1.422  1.00  0.00    -0.200 F 
ATOM     48  F   UNL     1      -4.286  -8.944  -0.301  1.00  0.00    -0.200 F 
ENDBRANCH  24  38
BRANCH  25  49
ATOM     49  C   UNL     1      -4.304   4.344   4.158  1.00  0.00     0.064 A 
ATOM     50  C   UNL     1      -4.712   4.491   5.497  1.00  0.00     0.173 A 
ATOM     51  C   UNL     1      -4.029   5.532   3.454  1.00  0.00     0.173 A 
ATOM     52  F   UNL     1      -5.044   3.418   6.229  1.00  0.00    -0.203 F 
ATOM     53  C   UNL     1      -4.821   5.753   6.096  1.00  0.00     0.198 A 
ATOM     54  C   UNL     1      -4.096   6.785   4.064  1.00  0.00     0.198 A 
ATOM     55  F   UNL     1      -3.700   5.482   2.155  1.00  0.00    -0.203 F 
ATOM     56  F   UNL     1      -5.261   5.862   7.358  1.00  0.00    -0.200 F 
ATOM     57  C   UNL     1      -4.500   6.896   5.383  1.00  0.00     0.200 A 
ATOM     58  F   UNL     1      -3.785   7.884   3.363  1.00  0.00    -0.200 F 
ATOM     59  F   UNL     1      -4.598   8.103   5.956  1.00  0.00    -0.200 F 
ENDBRANCH  25  49
BRANCH  37  60
ATOM     60  C   UNL     1      -9.219  -0.612   3.915  1.00  0.00     0.064 A 
ATOM     61  C   UNL     1      -9.855   0.075   2.857  1.00  0.00     0.173 A 
ATOM     62  C   UNL     1     -10.045  -1.378   4.750  1.00  0.00     0.173 A 
ATOM     63  F   UNL     1      -9.136   0.767   1.959  1.00  0.00    -0.203 F 
ATOM     64  C   UNL     1     -11.246   0.089   2.721  1.00  0.00     0.198 A 
ATOM     65  C   UNL     1     -11.433  -1.402   4.581  1.00  0.00     0.198 A 
ATOM     66  F   UNL     1      -9.508  -2.124   5.725  1.00  0.00    -0.203 F 
ATOM     67  F   UNL     1     -11.821   0.827   1.760  1.00  0.00    -0.200 F 
ATOM     68  C   UNL     1     -12.035  -0.648   3.586  1.00  0.00     0.200 A 
ATOM     69  F   UNL     1     -12.191  -2.158   5.388  1.00  0.00    -0.200 F 
ATOM     70  F   UNL     1     -13.370  -0.637   3.458  1.00  0.00    -0.200 F 
ENDBRANCH  37  60
ENDBRANCH  11  12
ENDBRANCH   4   6
ENDBRANCH   3   4
ENDBRANCH   2   3
ENDBRANCH   1   2
BRANCH   1  71
ATOM     71  O   UNL     1       3.596   0.527   5.063  1.00  0.00    -0.462 OA
BRANCH  71  72
ATOM     72  C   UNL     1       3.433   1.886   5.046  1.00  0.00     0.310 C 
ATOM     73  O   UNL     1       4.097   2.668   5.699  1.00  0.00    -0.252 OA
BRANCH  72  74
ATOM     74  C   UNL     1       2.582   2.310   3.861  1.00  0.00     0.116 C 
ATOM     75  C   UNL     1       2.467   3.841   3.683  1.00  0.00     0.043 C 
ATOM     76  C   UNL     1       1.393   1.417   3.273  1.00  0.00     0.097 C 
ATOM     77  C   UNL     1       2.025   4.265   2.306  1.00  0.00    -0.030 C 
ATOM     78  C   UNL     1       1.608   1.892   1.669  1.00  0.00     0.041 C 
ATOM     79  C   UNL     1       1.683   3.375   1.367  1.00  0.00    -0.030 C 
BRANCH  76  80
ATOM     80  C   UNL     1      -0.132   0.810   4.234  1.00  0.00     0.228 C 
ATOM     81  O   UNL     1       0.069   0.891   5.473  1.00  0.00    -0.274 OA
ATOM     82  N   UNL     1      -1.587   0.198   3.939  1.00  0.00    -0.326 N 
ATOM     83  H   UNL     1      -1.984   0.020   4.822  1.00  0.00     0.169 HD
BRANCH  82  84
ATOM     84  C   UNL     1      -2.802  -0.303   2.757  1.00  0.00     0.041 A 
ATOM     85  C   UNL     1      -2.814  -0.675   1.184  1.00  0.00     0.030 A 
ATOM     86  C   UNL     1      -4.071  -0.362   3.151  1.00  0.00     0.030 A 
ATOM     87  C   UNL     1      -3.833  -1.022   0.305  1.00  0.00     0.048 A 
ATOM     88  C   UNL     1      -5.129  -0.472   2.144  1.00  0.00     0.048 A 
ATOM     89  C   UNL     1      -5.048  -0.865   0.820  1.00  0.00     0.115 A 
BRANCH  89  90
ATOM     90  O   UNL     1      -6.168  -1.078   0.093  1.00  0.00    -0.508 OA
ATOM     91  H   UNL     1      -6.102  -1.344  -0.803  1.00  0.00     0.293 HD
ENDBRANCH  89  90
ENDBRANCH  82  84
ENDBRANCH  76  80
ENDBRANCH  72  74
ENDBRANCH  71  72
ENDBRANCH   1  71
TORSDOF 14
