REMARK SMILES CCCC[C@@H](C(=O)OCCOC(=O)c1ccc(-c2c3nc(c(-c4c(F)c(F)c(F)c(F)c4F)c4ccc([nH]4)c(-c4c(F)c(F)c(F)c(F)c4F)c4nc(c(-c5c(F)c(F)c(F)c(F)c5F)c5ccc2[nH]5)C=C4)C=C3)cc1)[C@@H](O)c1cccc(C(F)(F)F)c1
REMARK SMILES IDX 9 1 8 2 6 3 7 4 5 5 4 6 3 7 2 8 1 9 77 10 78 11 79 13 80 14
REMARK SMILES IDX 88 15 81 16 83 17 82 18 84 19 85 20 86 21 87 22 10 23 11 24
REMARK SMILES IDX 12 25 13 26 14 27 15 28 76 29 16 30 75 31 17 32 18 33 19 34
REMARK SMILES IDX 69 35 20 36 74 37 68 38 70 39 21 40 73 41 67 42 66 43 22 45
REMARK SMILES IDX 54 46 34 47 53 48 35 49 38 50 52 51 71 52 36 53 37 54 51 56
REMARK SMILES IDX 72 57 39 58 23 59 24 60 32 61 25 62 26 63 30 64 33 65 27 66
REMARK SMILES IDX 28 67 31 68 29 69 55 70 56 71 64 72 57 73 58 74 62 75 65 76
REMARK SMILES IDX 59 77 60 78 63 79 61 80 40 81 41 82 49 83 42 84 43 85 47 86
REMARK SMILES IDX 50 87 44 88 45 89 48 90 46 91
REMARK H PARENT 78 12 70 44 38 55
REMARK Flexibility Score: inf
ROOT
ATOM      1  C   UNL     1      -1.624   2.838  -4.551  1.00  0.00     0.274 C 
ENDROOT
BRANCH   1   2
ATOM      2  O   UNL     1      -1.093   1.888  -3.604  1.00  0.00    -0.462 OA
BRANCH   2   3
ATOM      3  C   UNL     1      -1.825   0.759  -3.405  1.00  0.00     0.312 C 
ATOM      4  O   UNL     1      -2.857   0.527  -4.017  1.00  0.00    -0.252 OA
BRANCH   3   5
ATOM      5  C   UNL     1      -1.250  -0.115  -2.285  1.00  0.00     0.132 C 
BRANCH   5   6
ATOM      6  C   UNL     1       0.292  -0.271  -2.437  1.00  0.00     0.018 C 
BRANCH   6   7
ATOM      7  C   UNL     1       1.168   0.884  -1.929  1.00  0.00     0.001 C 
BRANCH   7   8
ATOM      8  C   UNL     1       0.916   1.331  -0.488  1.00  0.00    -0.003 C 
ATOM      9  C   UNL     1       1.088   0.217   0.533  1.00  0.00     0.004 C 
ENDBRANCH   7   8
ENDBRANCH   6   7
ENDBRANCH   5   6
BRANCH   5  10
ATOM     10  C   UNL     1      -1.886  -1.541  -2.255  1.00  0.00     0.158 C 
BRANCH  10  11
ATOM     11  O   UNL     1      -1.425  -2.227  -1.080  1.00  0.00    -0.388 OA
ATOM     12  H   UNL     1      -1.783  -1.793  -0.290  1.00  0.00     0.211 HD
ENDBRANCH  10  11
BRANCH  10  13
ATOM     13  C   UNL     1      -3.392  -1.740  -2.231  1.00  0.00    -0.018 A 
ATOM     14  C   UNL     1      -4.301  -0.739  -1.870  1.00  0.00     0.006 A 
ATOM     15  C   UNL     1      -3.910  -3.006  -2.579  1.00  0.00     0.019 A 
ATOM     16  C   UNL     1      -5.679  -0.961  -1.942  1.00  0.00     0.001 A 
ATOM     17  C   UNL     1      -5.294  -3.252  -2.627  1.00  0.00     0.056 A 
ATOM     18  C   UNL     1      -6.173  -2.207  -2.322  1.00  0.00     0.013 A 
BRANCH  17  19
ATOM     19  C   UNL     1      -5.837  -4.618  -2.968  1.00  0.00     0.416 C 
ATOM     20  F   UNL     1      -6.409  -5.233  -1.897  1.00  0.00    -0.166 F 
ATOM     21  F   UNL     1      -6.805  -4.573  -3.928  1.00  0.00    -0.166 F 
ATOM     22  F   UNL     1      -4.891  -5.479  -3.435  1.00  0.00    -0.166 F 
ENDBRANCH  17  19
ENDBRANCH  10  13
ENDBRANCH   5  10
ENDBRANCH   3   5
ENDBRANCH   2   3
ENDBRANCH   1   2
BRANCH   1  23
ATOM     23  C   UNL     1      -1.109   2.610  -5.976  1.00  0.00     0.275 C 
BRANCH  23  24
ATOM     24  O   UNL     1      -1.692   1.439  -6.582  1.00  0.00    -0.458 OA
BRANCH  24  25
ATOM     25  C   UNL     1      -0.909   0.339  -6.584  1.00  0.00     0.338 C 
ATOM     26  O   UNL     1       0.235   0.238  -6.167  1.00  0.00    -0.246 OA
BRANCH  25  27
ATOM     27  C   UNL     1      -1.673  -0.828  -7.048  1.00  0.00     0.060 A 
ATOM     28  C   UNL     1      -2.143  -1.715  -6.080  1.00  0.00     0.016 A 
ATOM     29  C   UNL     1      -1.796  -1.137  -8.400  1.00  0.00     0.016 A 
ATOM     30  C   UNL     1      -2.708  -2.930  -6.438  1.00  0.00     0.010 A 
ATOM     31  C   UNL     1      -2.385  -2.354  -8.768  1.00  0.00     0.010 A 
ATOM     32  C   UNL     1      -2.822  -3.268  -7.788  1.00  0.00    -0.014 A 
BRANCH  32  33
ATOM     33  C   UNL     1      -3.289  -4.623  -8.164  1.00  0.00     0.031 A 
ATOM     34  C   UNL     1      -2.307  -5.595  -8.748  1.00  0.00     0.074 A 
ATOM     35  C   UNL     1      -4.557  -5.007  -7.933  1.00  0.00     0.049 A 
ATOM     36  N   UNL     1      -2.524  -6.738  -9.345  1.00  0.00    -0.248 NA
ATOM     37  C   UNL     1      -0.886  -5.229  -8.643  1.00  0.00     0.031 C 
ATOM     38  C   UNL     1      -5.574  -4.209  -7.251  1.00  0.00     0.029 A 
ATOM     39  N   UNL     1      -5.202  -6.177  -8.247  1.00  0.00    -0.354 N 
ATOM     40  C   UNL     1      -1.276  -7.198  -9.739  1.00  0.00     0.074 A 
ATOM     41  C   UNL     1      -0.302  -6.224  -9.294  1.00  0.00     0.031 C 
ATOM     42  C   UNL     1      -6.715  -4.915  -7.192  1.00  0.00     0.029 A 
ATOM     43  C   UNL     1      -6.531  -6.177  -7.903  1.00  0.00     0.049 A 
ATOM     44  H   UNL     1      -4.756  -6.941  -8.678  1.00  0.00     0.167 HD
ATOM     45  C   UNL     1      -0.980  -8.325 -10.427  1.00  0.00     0.037 A 
ATOM     46  C   UNL     1      -7.500  -7.071  -8.179  1.00  0.00     0.037 A 
ATOM     47  C   UNL     1      -1.954  -9.303 -10.828  1.00  0.00     0.049 A 
ATOM     48  C   UNL     1      -7.162  -8.287  -9.000  1.00  0.00     0.074 A 
ATOM     49  C   UNL     1      -1.771 -10.454 -11.573  1.00  0.00     0.029 A 
ATOM     50  N   UNL     1      -3.299  -9.251 -10.492  1.00  0.00    -0.354 N 
ATOM     51  N   UNL     1      -6.001  -8.663  -9.480  1.00  0.00    -0.248 NA
ATOM     52  C   UNL     1      -8.272  -9.187  -9.342  1.00  0.00     0.031 C 
ATOM     53  C   UNL     1      -3.011 -11.088 -11.707  1.00  0.00     0.029 A 
ATOM     54  C   UNL     1      -3.959 -10.349 -11.016  1.00  0.00     0.049 A 
ATOM     55  H   UNL     1      -3.722  -8.539  -9.960  1.00  0.00     0.167 HD
ATOM     56  C   UNL     1      -6.236  -9.847 -10.165  1.00  0.00     0.074 A 
ATOM     57  C   UNL     1      -7.649 -10.135 -10.030  1.00  0.00     0.031 C 
ATOM     58  C   UNL     1      -5.362 -10.624 -10.848  1.00  0.00     0.037 A 
BRANCH  45  59
ATOM     59  C   UNL     1       0.445  -8.523 -10.843  1.00  0.00     0.064 A 
ATOM     60  C   UNL     1       1.437  -8.920  -9.936  1.00  0.00     0.173 A 
ATOM     61  C   UNL     1       0.817  -8.325 -12.182  1.00  0.00     0.173 A 
ATOM     62  F   UNL     1       1.135  -9.101  -8.642  1.00  0.00    -0.203 F 
ATOM     63  C   UNL     1       2.755  -9.095 -10.352  1.00  0.00     0.198 A 
ATOM     64  C   UNL     1       2.130  -8.522 -12.598  1.00  0.00     0.198 A 
ATOM     65  F   UNL     1      -0.097  -7.942 -13.087  1.00  0.00    -0.203 F 
ATOM     66  F   UNL     1       3.697  -9.435  -9.462  1.00  0.00    -0.200 F 
ATOM     67  C   UNL     1       3.099  -8.901 -11.682  1.00  0.00     0.200 A 
ATOM     68  F   UNL     1       2.458  -8.339 -13.885  1.00  0.00    -0.200 F 
ATOM     69  F   UNL     1       4.367  -9.071 -12.080  1.00  0.00    -0.200 F 
ENDBRANCH  45  59
BRANCH  46  70
ATOM     70  C   UNL     1      -8.892  -6.817  -7.727  1.00  0.00     0.064 A 
ATOM     71  C   UNL     1      -9.490  -7.616  -6.744  1.00  0.00     0.173 A 
ATOM     72  C   UNL     1      -9.654  -5.772  -8.272  1.00  0.00     0.173 A 
ATOM     73  F   UNL     1      -8.815  -8.648  -6.218  1.00  0.00    -0.203 F 
ATOM     74  C   UNL     1     -10.800  -7.384  -6.328  1.00  0.00     0.198 A 
ATOM     75  C   UNL     1     -10.953  -5.524  -7.836  1.00  0.00     0.198 A 
ATOM     76  F   UNL     1      -9.131  -4.985  -9.224  1.00  0.00    -0.203 F 
ATOM     77  F   UNL     1     -11.364  -8.188  -5.417  1.00  0.00    -0.200 F 
ATOM     78  C   UNL     1     -11.527  -6.333  -6.868  1.00  0.00     0.200 A 
ATOM     79  F   UNL     1     -11.648  -4.503  -8.355  1.00  0.00    -0.200 F 
ATOM     80  F   UNL     1     -12.785  -6.108  -6.465  1.00  0.00    -0.200 F 
ENDBRANCH  46  70
BRANCH  58  81
ATOM     81  C   UNL     1      -5.894 -11.880 -11.465  1.00  0.00     0.064 A 
ATOM     82  C   UNL     1      -6.628 -11.855 -12.658  1.00  0.00     0.173 A 
ATOM     83  C   UNL     1      -5.605 -13.127 -10.890  1.00  0.00     0.173 A 
ATOM     84  F   UNL     1      -6.938 -10.685 -13.236  1.00  0.00    -0.203 F 
ATOM     85  C   UNL     1      -7.065 -13.037 -13.251  1.00  0.00     0.198 A 
ATOM     86  C   UNL     1      -6.026 -14.306 -11.495  1.00  0.00     0.198 A 
ATOM     87  F   UNL     1      -4.900 -13.198  -9.751  1.00  0.00    -0.203 F 
ATOM     88  F   UNL     1      -7.787 -12.992 -14.379  1.00  0.00    -0.200 F 
ATOM     89  C   UNL     1      -6.757 -14.261 -12.673  1.00  0.00     0.200 A 
ATOM     90  F   UNL     1      -5.721 -15.488 -10.942  1.00  0.00    -0.200 F 
ATOM     91  F   UNL     1      -7.168 -15.398 -13.252  1.00  0.00    -0.200 F 
ENDBRANCH  58  81
ENDBRANCH  32  33
ENDBRANCH  25  27
ENDBRANCH  24  25
ENDBRANCH  23  24
ENDBRANCH   1  23
TORSDOF 18
