REMARK SMILES CCCCCCNC(=O)Oc1cccc(-c2ccc([C@@H](C)C(=O)OCCOC(=O)c3ccc(-c4c5nc(c(-c6c(F)c(F)c(F)c(F)c6F)c6ccc([nH]6)c(-c6c(F)c(F)c(F)c(F)c6F)c6nc(c(-c7c(F)c(F)c(F)c(F)c7F)c7ccc4[nH]7)C=C6)C=C5)cc3)cc2O)c1
REMARK SMILES IDX 20 1 21 2 19 3 16 4 17 5 94 6 18 7 93 8 15 9 11 10 12 11
REMARK SMILES IDX 96 12 13 13 14 14 10 15 8 16 7 17 9 19 6 20 5 21 4 22 3 23
REMARK SMILES IDX 2 24 1 25 95 26 22 28 23 29 24 30 25 31 26 32 27 33 28 34
REMARK SMILES IDX 29 35 30 36 31 37 92 38 32 39 91 40 33 41 34 42 35 43 85 44
REMARK SMILES IDX 36 45 90 46 84 47 86 48 37 49 89 50 83 51 82 52 38 54 70 55
REMARK SMILES IDX 50 56 69 57 51 58 54 59 68 60 87 61 52 62 53 63 67 65 88 66
REMARK SMILES IDX 55 67 39 68 40 69 48 70 41 71 42 72 46 73 49 74 43 75 44 76
REMARK SMILES IDX 47 77 45 78 71 79 72 80 80 81 73 82 74 83 78 84 81 85 75 86
REMARK SMILES IDX 76 87 79 88 77 89 56 90 57 91 65 92 58 93 59 94 63 95 66 96
REMARK SMILES IDX 60 97 61 98 64 99 62 100
REMARK H PARENT 7 18 95 27 86 53 54 64
REMARK Flexibility Score: inf
ROOT
ATOM      1  C   UNL     1      -5.385   5.940  12.602  1.00  0.00     0.126 C 
ATOM      2  C   UNL     1      -6.757   6.000  13.270  1.00  0.00     0.025 C 
ENDROOT
BRANCH   1   3
ATOM      3  C   UNL     1      -5.263   4.768  11.642  1.00  0.00    -0.030 A 
ATOM      4  C   UNL     1      -5.137   2.614   9.773  1.00  0.00     0.024 A 
ATOM      5  C   UNL     1      -5.340   2.387  11.146  1.00  0.00     0.013 A 
ATOM      6  C   UNL     1      -4.977   3.948   9.363  1.00  0.00     0.123 A 
ATOM      7  C   UNL     1      -5.417   3.442  12.062  1.00  0.00     0.005 A 
ATOM      8  C   UNL     1      -5.025   5.004  10.279  1.00  0.00     0.051 A 
BRANCH   4   9
ATOM      9  C   UNL     1      -5.163   1.470   8.841  1.00  0.00    -0.011 A 
ATOM     10  C   UNL     1      -4.206   0.139   7.053  1.00  0.00     0.133 A 
ATOM     11  C   UNL     1      -5.328  -0.687   7.029  1.00  0.00     0.047 A 
ATOM     12  C   UNL     1      -4.110   1.207   7.948  1.00  0.00     0.056 A 
ATOM     13  C   UNL     1      -6.366  -0.454   7.923  1.00  0.00     0.004 A 
ATOM     14  C   UNL     1      -6.285   0.618   8.814  1.00  0.00     0.009 A 
BRANCH  10  15
ATOM     15  O   UNL     1      -3.259  -0.075   6.038  1.00  0.00    -0.410 OA
BRANCH  15  16
ATOM     16  C   UNL     1      -1.921  -0.215   6.375  1.00  0.00     0.412 C 
ATOM     17  N   UNL     1      -1.119  -0.432   5.287  1.00  0.00    -0.321 N 
ATOM     18  H   UNL     1      -0.155  -0.523   5.463  1.00  0.00     0.167 HD
ATOM     19  O   UNL     1      -1.456  -0.174   7.506  1.00  0.00    -0.224 OA
BRANCH  17  20
ATOM     20  C   UNL     1      -1.539  -0.540   3.903  1.00  0.00     0.119 C 
BRANCH  20  21
ATOM     21  C   UNL     1      -0.946   0.567   3.032  1.00  0.00     0.021 C 
BRANCH  21  22
ATOM     22  C   UNL     1       0.583   0.542   2.910  1.00  0.00     0.002 C 
BRANCH  22  23
ATOM     23  C   UNL     1       1.181  -0.750   2.341  1.00  0.00    -0.000 C 
BRANCH  23  24
ATOM     24  C   UNL     1       0.694  -1.143   0.944  1.00  0.00    -0.003 C 
ATOM     25  C   UNL     1       1.056  -0.129  -0.129  1.00  0.00     0.004 C 
ENDBRANCH  23  24
ENDBRANCH  22  23
ENDBRANCH  21  22
ENDBRANCH  20  21
ENDBRANCH  17  20
ENDBRANCH  15  16
ENDBRANCH  10  15
ENDBRANCH   4   9
BRANCH   6  26
ATOM     26  O   UNL     1      -4.819   4.317   8.052  1.00  0.00    -0.507 OA
ATOM     27  H   UNL     1      -4.779   3.663   7.383  1.00  0.00     0.293 HD
ENDBRANCH   6  26
ENDBRANCH   1   3
BRANCH   1  28
ATOM     28  C   UNL     1      -4.290   6.067  13.654  1.00  0.00     0.313 C 
ATOM     29  O   UNL     1      -3.940   7.157  14.099  1.00  0.00    -0.252 OA
BRANCH  28  30
ATOM     30  O   UNL     1      -3.789   4.876  14.069  1.00  0.00    -0.462 OA
BRANCH  30  31
ATOM     31  C   UNL     1      -2.689   4.920  14.997  1.00  0.00     0.274 C 
BRANCH  31  32
ATOM     32  C   UNL     1      -1.350   4.756  14.275  1.00  0.00     0.275 C 
BRANCH  32  33
ATOM     33  O   UNL     1      -1.026   5.929  13.506  1.00  0.00    -0.458 OA
BRANCH  33  34
ATOM     34  C   UNL     1      -1.372   5.872  12.200  1.00  0.00     0.338 C 
ATOM     35  O   UNL     1      -1.878   4.941  11.602  1.00  0.00    -0.246 OA
BRANCH  34  36
ATOM     36  C   UNL     1      -1.121   7.178  11.577  1.00  0.00     0.060 A 
ATOM     37  C   UNL     1      -2.212   7.960  11.185  1.00  0.00     0.016 A 
ATOM     38  C   UNL     1       0.184   7.584  11.304  1.00  0.00     0.016 A 
ATOM     39  C   UNL     1      -2.002   9.158  10.507  1.00  0.00     0.010 A 
ATOM     40  C   UNL     1       0.394   8.786  10.627  1.00  0.00     0.010 A 
ATOM     41  C   UNL     1      -0.698   9.573  10.214  1.00  0.00    -0.014 A 
BRANCH  41  42
ATOM     42  C   UNL     1      -0.451  10.795   9.416  1.00  0.00     0.031 A 
ATOM     43  C   UNL     1      -0.008  10.659   7.990  1.00  0.00     0.074 A 
ATOM     44  C   UNL     1      -0.586  12.009   9.977  1.00  0.00     0.049 A 
ATOM     45  N   UNL     1       0.481  11.566   7.183  1.00  0.00    -0.248 NA
ATOM     46  C   UNL     1      -0.127   9.319   7.393  1.00  0.00     0.031 C 
ATOM     47  C   UNL     1      -1.072  12.265  11.332  1.00  0.00     0.029 A 
ATOM     48  N   UNL     1      -0.298  13.256   9.480  1.00  0.00    -0.354 N 
ATOM     49  C   UNL     1       0.750  10.903   5.994  1.00  0.00     0.074 A 
ATOM     50  C   UNL     1       0.378   9.517   6.183  1.00  0.00     0.031 C 
ATOM     51  C   UNL     1      -1.022  13.586  11.570  1.00  0.00     0.029 A 
ATOM     52  C   UNL     1      -0.449  14.258  10.406  1.00  0.00     0.049 A 
ATOM     53  H   UNL     1      -0.012  13.416   8.552  1.00  0.00     0.167 HD
ATOM     54  C   UNL     1       1.266  11.412   4.850  1.00  0.00     0.037 A 
ATOM     55  C   UNL     1      -0.113  15.561  10.338  1.00  0.00     0.037 A 
ATOM     56  C   UNL     1       1.627  12.793   4.673  1.00  0.00     0.049 A 
ATOM     57  C   UNL     1       0.521  16.089   9.078  1.00  0.00     0.074 A 
ATOM     58  C   UNL     1       2.196  13.404   3.569  1.00  0.00     0.029 A 
ATOM     59  N   UNL     1       1.443  13.781   5.628  1.00  0.00    -0.354 N 
ATOM     60  N   UNL     1       0.820  15.452   7.972  1.00  0.00    -0.248 NA
ATOM     61  C   UNL     1       0.873  17.516   9.058  1.00  0.00     0.031 C 
ATOM     62  C   UNL     1       2.377  14.759   3.865  1.00  0.00     0.029 A 
ATOM     63  C   UNL     1       1.885  14.998   5.138  1.00  0.00     0.049 A 
ATOM     64  H   UNL     1       1.056  13.638   6.522  1.00  0.00     0.167 HD
ATOM     65  C   UNL     1       1.360  16.402   7.117  1.00  0.00     0.074 A 
ATOM     66  C   UNL     1       1.349  17.662   7.829  1.00  0.00     0.031 C 
ATOM     67  C   UNL     1       1.826  16.245   5.854  1.00  0.00     0.037 A 
BRANCH  54  68
ATOM     68  C   UNL     1       1.493  10.468   3.709  1.00  0.00     0.064 A 
ATOM     69  C   UNL     1       0.429   9.982   2.937  1.00  0.00     0.173 A 
ATOM     70  C   UNL     1       2.795  10.089   3.350  1.00  0.00     0.173 A 
ATOM     71  F   UNL     1      -0.835  10.306   3.249  1.00  0.00    -0.203 F 
ATOM     72  C   UNL     1       0.659   9.140   1.852  1.00  0.00     0.198 A 
ATOM     73  C   UNL     1       3.024   9.265   2.251  1.00  0.00     0.198 A 
ATOM     74  F   UNL     1       3.848  10.530   4.055  1.00  0.00    -0.203 F 
ATOM     75  F   UNL     1      -0.374   8.663   1.145  1.00  0.00    -0.200 F 
ATOM     76  C   UNL     1       1.956   8.789   1.506  1.00  0.00     0.200 A 
ATOM     77  F   UNL     1       4.277   8.936   1.911  1.00  0.00    -0.200 F 
ATOM     78  F   UNL     1       2.176   7.988   0.454  1.00  0.00    -0.200 F 
ENDBRANCH  54  68
BRANCH  55  79
ATOM     79  C   UNL     1      -0.327  16.448  11.510  1.00  0.00     0.064 A 
ATOM     80  C   UNL     1      -1.278  17.476  11.474  1.00  0.00     0.173 A 
ATOM     81  C   UNL     1       0.433  16.302  12.680  1.00  0.00     0.173 A 
ATOM     82  F   UNL     1      -2.010  17.673  10.367  1.00  0.00    -0.203 F 
ATOM     83  C   UNL     1      -1.447  18.338  12.556  1.00  0.00     0.198 A 
ATOM     84  C   UNL     1       0.243  17.146  13.772  1.00  0.00     0.198 A 
ATOM     85  F   UNL     1       1.359  15.336  12.764  1.00  0.00    -0.203 F 
ATOM     86  F   UNL     1      -2.327  19.345  12.476  1.00  0.00    -0.200 F 
ATOM     87  C   UNL     1      -0.690  18.169  13.706  1.00  0.00     0.200 A 
ATOM     88  F   UNL     1       0.970  16.973  14.884  1.00  0.00    -0.200 F 
ATOM     89  F   UNL     1      -0.852  19.000  14.745  1.00  0.00    -0.200 F 
ENDBRANCH  55  79
BRANCH  67  90
ATOM     90  C   UNL     1       2.296  17.472   5.134  1.00  0.00     0.064 A 
ATOM     91  C   UNL     1       3.536  18.062   5.415  1.00  0.00     0.173 A 
ATOM     92  C   UNL     1       1.520  18.021   4.101  1.00  0.00     0.173 A 
ATOM     93  F   UNL     1       4.304  17.579   6.403  1.00  0.00    -0.203 F 
ATOM     94  C   UNL     1       3.978  19.167   4.693  1.00  0.00     0.198 A 
ATOM     95  C   UNL     1       1.976  19.111   3.368  1.00  0.00     0.198 A 
ATOM     96  F   UNL     1       0.329  17.486   3.793  1.00  0.00    -0.203 F 
ATOM     97  F   UNL     1       5.154  19.734   4.995  1.00  0.00    -0.200 F 
ATOM     98  C   UNL     1       3.203  19.685   3.666  1.00  0.00     0.200 A 
ATOM     99  F   UNL     1       1.231  19.604   2.369  1.00  0.00    -0.200 F 
ATOM    100  F   UNL     1       3.637  20.741   2.965  1.00  0.00    -0.200 F 
ENDBRANCH  67  90
ENDBRANCH  41  42
ENDBRANCH  34  36
ENDBRANCH  33  34
ENDBRANCH  32  33
ENDBRANCH  31  32
ENDBRANCH  30  31
ENDBRANCH  28  30
ENDBRANCH   1  28
TORSDOF 21
