REMARK SMILES [NH3+]C1CC[NH+](CC(=O)N2CCO[C@H](CC(=O)OCCOC(=O)c3ccc(-c4c5nc(c(-c6c(F)c(F)c(F)c(F)c6F)c6ccc([nH]6)c(-c6c(F)c(F)c(F)c(F)c6F)c6nc(c(-c7c(F)c(F)c(F)c(F)c7F)c7ccc4[nH]7)C=C6)C=C5)cc3)C2)CC1
REMARK SMILES IDX 17 1 15 2 16 3 14 4 13 5 9 6 10 7 86 8 11 9 12 10 7 11 8 12
REMARK SMILES IDX 6 13 5 14 2 15 3 16 88 17 4 18 87 19 1 21 18 25 19 26 20 27
REMARK SMILES IDX 21 28 22 29 23 30 24 31 85 32 25 33 84 34 26 35 27 36 28 37
REMARK SMILES IDX 78 38 29 39 83 40 77 41 79 42 30 43 82 44 76 45 75 46 31 48
REMARK SMILES IDX 63 49 43 50 62 51 44 52 47 53 61 54 80 55 45 56 46 57 60 59
REMARK SMILES IDX 81 60 48 61 32 62 33 63 41 64 34 65 35 66 39 67 42 68 36 69
REMARK SMILES IDX 37 70 40 71 38 72 64 73 65 74 73 75 66 76 67 77 71 78 74 79
REMARK SMILES IDX 68 80 69 81 72 82 70 83 49 84 50 85 58 86 51 87 52 88 56 89
REMARK SMILES IDX 59 90 53 91 54 92 57 93 55 94
REMARK H PARENT 5 20 1 22 1 23 1 24 79 47 47 58
REMARK Flexibility Score: inf
ROOT
ATOM      1  O   UNL     1       2.710  -6.521  -1.320  1.00  0.00    -0.462 OA
ENDROOT
BRANCH   1   2
ATOM      2  C   UNL     1       3.235  -5.289  -1.105  1.00  0.00     0.308 C 
ATOM      3  O   UNL     1       3.665  -4.548  -1.981  1.00  0.00    -0.252 OA
BRANCH   2   4
ATOM      4  C   UNL     1       3.371  -4.973   0.358  1.00  0.00     0.156 C 
BRANCH   4   5
ATOM      5  C   UNL     1       2.128  -5.205   1.222  1.00  0.00     0.148 C 
ATOM      6  N   UNL     1       0.202  -3.886   2.258  1.00  0.00    -0.333 N 
ATOM      7  C   UNL     1       0.749  -4.229   3.568  1.00  0.00     0.148 C 
ATOM      8  C   UNL     1       1.149  -4.008   1.141  1.00  0.00     0.152 C 
ATOM      9  C   UNL     1       1.566  -5.515   3.507  1.00  0.00     0.182 C 
ATOM     10  O   UNL     1       2.633  -5.374   2.565  1.00  0.00    -0.374 OA
BRANCH   6  11
ATOM     11  C   UNL     1      -0.934  -3.069   2.236  1.00  0.00     0.277 C 
ATOM     12  O   UNL     1      -1.355  -2.539   3.270  1.00  0.00    -0.268 OA
BRANCH  11  13
ATOM     13  C   UNL     1      -1.731  -2.942   0.932  1.00  0.00     0.363 C 
BRANCH  13  14
ATOM     14  N   UNL     1      -1.650  -1.659   0.228  1.00  0.00    -0.327 N 
ATOM     15  C   UNL     1       0.030   0.723   0.828  1.00  0.00     0.192 C 
ATOM     16  C   UNL     1      -1.270   0.443   1.592  1.00  0.00     0.126 C 
ATOM     17  C   UNL     1       0.608  -0.598   0.337  1.00  0.00     0.126 C 
ATOM     18  C   UNL     1      -2.244  -0.479   0.847  1.00  0.00     0.268 C 
ATOM     19  C   UNL     1      -0.415  -1.384  -0.476  1.00  0.00     0.268 C 
ATOM     20  H   UNL     1      -2.330  -1.873  -0.501  1.00  0.00     0.348 HD
BRANCH  15  21
ATOM     21  N   UNL     1      -0.162   1.639  -0.301  1.00  0.00    -0.355 N 
ATOM     22  H   UNL     1      -0.549   2.519   0.038  1.00  0.00     0.344 HD
ATOM     23  H   UNL     1      -0.806   1.220  -0.973  1.00  0.00     0.344 HD
ATOM     24  H   UNL     1       0.735   1.813  -0.753  1.00  0.00     0.344 HD
ENDBRANCH  15  21
ENDBRANCH  13  14
ENDBRANCH  11  13
ENDBRANCH   6  11
ENDBRANCH   4   5
ENDBRANCH   2   4
ENDBRANCH   1   2
BRANCH   1  25
ATOM     25  C   UNL     1       2.764  -7.010  -2.676  1.00  0.00     0.274 C 
BRANCH  25  26
ATOM     26  C   UNL     1       1.452  -6.782  -3.431  1.00  0.00     0.275 C 
BRANCH  26  27
ATOM     27  O   UNL     1       1.326  -5.424  -3.896  1.00  0.00    -0.458 OA
BRANCH  27  28
ATOM     28  C   UNL     1       0.691  -4.590  -3.044  1.00  0.00     0.338 C 
ATOM     29  O   UNL     1       0.229  -4.869  -1.951  1.00  0.00    -0.246 OA
BRANCH  28  30
ATOM     30  C   UNL     1       0.678  -3.224  -3.588  1.00  0.00     0.060 A 
ATOM     31  C   UNL     1       1.526  -2.269  -3.025  1.00  0.00     0.016 A 
ATOM     32  C   UNL     1      -0.271  -2.854  -4.542  1.00  0.00     0.016 A 
ATOM     33  C   UNL     1       1.394  -0.928  -3.382  1.00  0.00     0.010 A 
ATOM     34  C   UNL     1      -0.373  -1.512  -4.929  1.00  0.00     0.010 A 
ATOM     35  C   UNL     1       0.446  -0.533  -4.340  1.00  0.00    -0.014 A 
BRANCH  35  36
ATOM     36  C   UNL     1       0.354   0.892  -4.753  1.00  0.00     0.031 A 
ATOM     37  C   UNL     1      -0.870   1.719  -4.471  1.00  0.00     0.074 A 
ATOM     38  C   UNL     1       1.395   1.446  -5.405  1.00  0.00     0.049 A 
ATOM     39  N   UNL     1      -1.145   2.942  -4.858  1.00  0.00    -0.248 NA
ATOM     40  C   UNL     1      -1.924   1.097  -3.658  1.00  0.00     0.031 C 
ATOM     41  C   UNL     1       2.648   0.760  -5.725  1.00  0.00     0.029 A 
ATOM     42  N   UNL     1       1.565   2.708  -5.918  1.00  0.00    -0.354 N 
ATOM     43  C   UNL     1      -2.407   3.227  -4.352  1.00  0.00     0.074 A 
ATOM     44  C   UNL     1      -2.851   2.046  -3.641  1.00  0.00     0.031 C 
ATOM     45  C   UNL     1       3.462   1.611  -6.365  1.00  0.00     0.029 A 
ATOM     46  C   UNL     1       2.767   2.880  -6.557  1.00  0.00     0.049 A 
ATOM     47  H   UNL     1       0.890   3.420  -5.835  1.00  0.00     0.167 HD
ATOM     48  C   UNL     1      -3.125   4.371  -4.469  1.00  0.00     0.037 A 
ATOM     49  C   UNL     1       3.248   3.925  -7.255  1.00  0.00     0.037 A 
ATOM     50  C   UNL     1      -2.674   5.559  -5.150  1.00  0.00     0.049 A 
ATOM     51  C   UNL     1       2.408   5.157  -7.416  1.00  0.00     0.074 A 
ATOM     52  C   UNL     1      -3.315   6.782  -5.270  1.00  0.00     0.029 A 
ATOM     53  N   UNL     1      -1.471   5.674  -5.828  1.00  0.00    -0.354 N 
ATOM     54  N   UNL     1       1.218   5.413  -6.935  1.00  0.00    -0.248 NA
ATOM     55  C   UNL     1       2.975   6.240  -8.232  1.00  0.00     0.031 C 
ATOM     56  C   UNL     1      -2.518   7.622  -6.056  1.00  0.00     0.029 A 
ATOM     57  C   UNL     1      -1.363   6.936  -6.393  1.00  0.00     0.049 A 
ATOM     58  H   UNL     1      -0.792   4.964  -5.898  1.00  0.00     0.167 HD
ATOM     59  C   UNL     1       0.891   6.683  -7.386  1.00  0.00     0.074 A 
ATOM     60  C   UNL     1       2.020   7.157  -8.161  1.00  0.00     0.031 C 
ATOM     61  C   UNL     1      -0.246   7.390  -7.180  1.00  0.00     0.037 A 
BRANCH  48  62
ATOM     62  C   UNL     1      -4.496   4.402  -3.860  1.00  0.00     0.064 A 
ATOM     63  C   UNL     1      -4.685   4.530  -2.477  1.00  0.00     0.173 A 
ATOM     64  C   UNL     1      -5.634   4.383  -4.681  1.00  0.00     0.173 A 
ATOM     65  F   UNL     1      -3.629   4.554  -1.650  1.00  0.00    -0.203 F 
ATOM     66  C   UNL     1      -5.966   4.624  -1.937  1.00  0.00     0.198 A 
ATOM     67  C   UNL     1      -6.912   4.498  -4.139  1.00  0.00     0.198 A 
ATOM     68  F   UNL     1      -5.506   4.276  -6.013  1.00  0.00    -0.203 F 
ATOM     69  F   UNL     1      -6.126   4.726  -0.610  1.00  0.00    -0.200 F 
ATOM     70  C   UNL     1      -7.077   4.615  -2.768  1.00  0.00     0.200 A 
ATOM     71  F   UNL     1      -7.982   4.506  -4.946  1.00  0.00    -0.200 F 
ATOM     72  F   UNL     1      -8.307   4.722  -2.247  1.00  0.00    -0.200 F 
ENDBRANCH  48  62
BRANCH  49  73
ATOM     73  C   UNL     1       4.588   3.825  -7.882  1.00  0.00     0.064 A 
ATOM     74  C   UNL     1       5.674   4.549  -7.376  1.00  0.00     0.173 A 
ATOM     75  C   UNL     1       4.813   2.983  -8.982  1.00  0.00     0.173 A 
ATOM     76  F   UNL     1       5.499   5.383  -6.340  1.00  0.00    -0.203 F 
ATOM     77  C   UNL     1       6.939   4.436  -7.948  1.00  0.00     0.198 A 
ATOM     78  C   UNL     1       6.082   2.852  -9.537  1.00  0.00     0.198 A 
ATOM     79  F   UNL     1       3.802   2.270  -9.499  1.00  0.00    -0.203 F 
ATOM     80  F   UNL     1       7.957   5.160  -7.465  1.00  0.00    -0.200 F 
ATOM     81  C   UNL     1       7.143   3.582  -9.022  1.00  0.00     0.200 A 
ATOM     82  F   UNL     1       6.279   2.016 -10.565  1.00  0.00    -0.200 F 
ATOM     83  F   UNL     1       8.363   3.464  -9.564  1.00  0.00    -0.200 F 
ENDBRANCH  49  73
BRANCH  61  84
ATOM     84  C   UNL     1      -0.324   8.750  -7.805  1.00  0.00     0.064 A 
ATOM     85  C   UNL     1      -0.535   8.905  -9.183  1.00  0.00     0.173 A 
ATOM     86  C   UNL     1      -0.199   9.906  -7.022  1.00  0.00     0.173 A 
ATOM     87  F   UNL     1      -0.639   7.828  -9.975  1.00  0.00    -0.203 F 
ATOM     88  C   UNL     1      -0.598  10.172  -9.758  1.00  0.00     0.198 A 
ATOM     89  C   UNL     1      -0.285  11.171  -7.597  1.00  0.00     0.198 A 
ATOM     90  F   UNL     1       0.004   9.809  -5.700  1.00  0.00    -0.203 F 
ATOM     91  F   UNL     1      -0.756  10.297 -11.083  1.00  0.00    -0.200 F 
ATOM     92  C   UNL     1      -0.478  11.303  -8.964  1.00  0.00     0.200 A 
ATOM     93  F   UNL     1      -0.174  12.264  -6.829  1.00  0.00    -0.200 F 
ATOM     94  F   UNL     1      -0.537  12.521  -9.520  1.00  0.00    -0.200 F 
ENDBRANCH  61  84
ENDBRANCH  35  36
ENDBRANCH  28  30
ENDBRANCH  27  28
ENDBRANCH  26  27
ENDBRANCH  25  26
ENDBRANCH   1  25
TORSDOF 16
