REMARK SMILES CC(C)C[C@H](NC(=O)CNC(=O)[C@@H](NC(=O)OCc1ccccc1)C(C)C)C(=O)OCCOC(=O)c1ccc(-c2c3nc(c(-c4c(F)c(F)c(F)c(F)c4F)c4ccc([nH]4)c(-c4c(F)c(F)c(F)c(F)c4F)c4nc(c(-c5c(F)c(F)c(F)c(F)c5F)c5ccc2[nH]5)C=C4)C=C3)cc1
REMARK SMILES IDX 5 1 4 2 2 3 1 4 3 5 28 6 29 7 30 8 31 9 32 10 33 11 34 12
REMARK SMILES IDX 35 13 36 14 37 15 98 16 38 17 97 18 39 19 40 20 41 21 91 22
REMARK SMILES IDX 42 23 96 24 90 25 92 26 43 27 95 28 89 29 88 30 44 32 76 33
REMARK SMILES IDX 56 34 75 35 57 36 60 37 74 38 93 39 58 40 59 41 73 43 94 44
REMARK SMILES IDX 61 45 45 46 46 47 54 48 47 49 48 50 52 51 55 52 49 53 50 54
REMARK SMILES IDX 53 55 51 56 77 57 78 58 86 59 79 60 80 61 84 62 87 63 81 64
REMARK SMILES IDX 82 65 85 66 83 67 62 68 63 69 71 70 64 71 65 72 69 73 72 74
REMARK SMILES IDX 66 75 67 76 70 77 68 78 6 79 7 80 8 82 9 83 10 84 11 85
REMARK SMILES IDX 12 87 13 88 14 89 15 90 16 92 17 93 18 94 19 95 20 96 24 97
REMARK SMILES IDX 21 98 23 99 22 100 25 101 26 102 27 103
REMARK H PARENT 92 31 60 42 6 81 10 86 14 91
REMARK Flexibility Score: inf
ROOT
ATOM      1  C   UNL     1      -1.311   1.617  -1.101  1.00  0.00     0.192 C 
ENDROOT
BRANCH   1   2
ATOM      2  C   UNL     1      -0.192   2.710  -1.179  1.00  0.00     0.040 C 
BRANCH   2   3
ATOM      3  C   UNL     1       0.286   3.532  -2.452  1.00  0.00    -0.015 C 
ATOM      4  C   UNL     1      -0.258   4.975  -2.643  1.00  0.00     0.007 C 
ATOM      5  C   UNL     1       1.797   3.765  -2.373  1.00  0.00     0.007 C 
ENDBRANCH   2   3
ENDBRANCH   1   2
BRANCH   1   6
ATOM      6  C   UNL     1      -2.628   1.753  -0.196  1.00  0.00     0.328 C 
ATOM      7  O   UNL     1      -2.648   2.044   0.992  1.00  0.00    -0.250 OA
BRANCH   6   8
ATOM      8  O   UNL     1      -3.750   1.485  -0.948  1.00  0.00    -0.461 OA
BRANCH   8   9
ATOM      9  C   UNL     1      -5.107   1.669  -0.480  1.00  0.00     0.274 C 
BRANCH   9  10
ATOM     10  C   UNL     1      -5.895   0.364  -0.640  1.00  0.00     0.275 C 
BRANCH  10  11
ATOM     11  O   UNL     1      -5.438  -0.588   0.329  1.00  0.00    -0.458 OA
BRANCH  11  12
ATOM     12  C   UNL     1      -4.322  -1.254  -0.050  1.00  0.00     0.338 C 
ATOM     13  O   UNL     1      -3.781  -1.273  -1.135  1.00  0.00    -0.246 OA
BRANCH  12  14
ATOM     14  C   UNL     1      -3.715  -1.843   1.142  1.00  0.00     0.060 A 
ATOM     15  C   UNL     1      -2.491  -1.327   1.567  1.00  0.00     0.016 A 
ATOM     16  C   UNL     1      -4.288  -2.955   1.753  1.00  0.00     0.016 A 
ATOM     17  C   UNL     1      -1.790  -1.966   2.574  1.00  0.00     0.010 A 
ATOM     18  C   UNL     1      -3.597  -3.579   2.788  1.00  0.00     0.010 A 
ATOM     19  C   UNL     1      -2.330  -3.107   3.178  1.00  0.00    -0.014 A 
BRANCH  19  20
ATOM     20  C   UNL     1      -1.520  -3.839   4.173  1.00  0.00     0.031 A 
ATOM     21  C   UNL     1      -0.984  -5.200   3.839  1.00  0.00     0.074 A 
ATOM     22  C   UNL     1      -1.235  -3.251   5.348  1.00  0.00     0.049 A 
ATOM     23  N   UNL     1      -0.307  -6.030   4.590  1.00  0.00    -0.248 NA
ATOM     24  C   UNL     1      -1.254  -5.701   2.481  1.00  0.00     0.031 C 
ATOM     25  C   UNL     1      -1.680  -1.916   5.751  1.00  0.00     0.029 A 
ATOM     26  N   UNL     1      -0.501  -3.697   6.413  1.00  0.00    -0.354 N 
ATOM     27  C   UNL     1      -0.083  -7.152   3.804  1.00  0.00     0.074 A 
ATOM     28  C   UNL     1      -0.731  -6.918   2.532  1.00  0.00     0.031 C 
ATOM     29  C   UNL     1      -1.200  -1.646   6.974  1.00  0.00     0.029 A 
ATOM     30  C   UNL     1      -0.468  -2.810   7.460  1.00  0.00     0.049 A 
ATOM     31  H   UNL     1      -0.043  -4.568   6.428  1.00  0.00     0.167 HD
ATOM     32  C   UNL     1       0.614  -8.270   4.119  1.00  0.00     0.037 A 
ATOM     33  C   UNL     1       0.068  -2.940   8.686  1.00  0.00     0.037 A 
ATOM     34  C   UNL     1       1.259  -8.482   5.389  1.00  0.00     0.049 A 
ATOM     35  C   UNL     1       0.790  -4.215   9.024  1.00  0.00     0.074 A 
ATOM     36  C   UNL     1       1.986  -9.578   5.818  1.00  0.00     0.029 A 
ATOM     37  N   UNL     1       1.255  -7.571   6.438  1.00  0.00    -0.354 N 
ATOM     38  N   UNL     1       0.992  -5.277   8.282  1.00  0.00    -0.248 NA
ATOM     39  C   UNL     1       1.364  -4.306  10.372  1.00  0.00     0.031 C 
ATOM     40  C   UNL     1       2.377  -9.353   7.143  1.00  0.00     0.029 A 
ATOM     41  C   UNL     1       1.951  -8.089   7.519  1.00  0.00     0.049 A 
ATOM     42  H   UNL     1       0.821  -6.688   6.417  1.00  0.00     0.167 HD
ATOM     43  C   UNL     1       1.732  -6.153   9.062  1.00  0.00     0.074 A 
ATOM     44  C   UNL     1       1.972  -5.481  10.323  1.00  0.00     0.031 C 
ATOM     45  C   UNL     1       2.170  -7.404   8.769  1.00  0.00     0.037 A 
BRANCH  32  46
ATOM     46  C   UNL     1       0.697  -9.353   3.081  1.00  0.00     0.064 A 
ATOM     47  C   UNL     1       1.436  -9.191   1.899  1.00  0.00     0.173 A 
ATOM     48  C   UNL     1       0.055 -10.584   3.286  1.00  0.00     0.173 A 
ATOM     49  F   UNL     1       2.056  -8.030   1.644  1.00  0.00    -0.203 F 
ATOM     50  C   UNL     1       1.509 -10.211   0.953  1.00  0.00     0.198 A 
ATOM     51  C   UNL     1       0.157 -11.613   2.353  1.00  0.00     0.198 A 
ATOM     52  F   UNL     1      -0.665 -10.795   4.399  1.00  0.00    -0.203 F 
ATOM     53  F   UNL     1       2.180 -10.014  -0.191  1.00  0.00    -0.200 F 
ATOM     54  C   UNL     1       0.877 -11.423   1.184  1.00  0.00     0.200 A 
ATOM     55  F   UNL     1      -0.443 -12.789   2.586  1.00  0.00    -0.200 F 
ATOM     56  F   UNL     1       0.957 -12.407   0.277  1.00  0.00    -0.200 F 
ENDBRANCH  32  46
BRANCH  33  57
ATOM     57  C   UNL     1      -0.087  -1.849   9.683  1.00  0.00     0.064 A 
ATOM     58  C   UNL     1       1.019  -1.130  10.154  1.00  0.00     0.173 A 
ATOM     59  C   UNL     1      -1.350  -1.512  10.196  1.00  0.00     0.173 A 
ATOM     60  F   UNL     1       2.249  -1.426   9.710  1.00  0.00    -0.203 F 
ATOM     61  C   UNL     1       0.873  -0.138  11.121  1.00  0.00     0.198 A 
ATOM     62  C   UNL     1      -1.499  -0.494  11.134  1.00  0.00     0.198 A 
ATOM     63  F   UNL     1      -2.443  -2.165   9.776  1.00  0.00    -0.203 F 
ATOM     64  F   UNL     1       1.955   0.492  11.599  1.00  0.00    -0.200 F 
ATOM     65  C   UNL     1      -0.386   0.184  11.605  1.00  0.00     0.200 A 
ATOM     66  F   UNL     1      -2.720  -0.174  11.584  1.00  0.00    -0.200 F 
ATOM     67  F   UNL     1      -0.525   1.140  12.534  1.00  0.00    -0.200 F 
ENDBRANCH  33  57
BRANCH  45  68
ATOM     68  C   UNL     1       2.976  -8.102   9.827  1.00  0.00     0.064 A 
ATOM     69  C   UNL     1       2.401  -8.521  11.037  1.00  0.00     0.173 A 
ATOM     70  C   UNL     1       4.344  -8.348   9.631  1.00  0.00     0.173 A 
ATOM     71  F   UNL     1       1.101  -8.298  11.280  1.00  0.00    -0.203 F 
ATOM     72  C   UNL     1       3.176  -9.112  12.031  1.00  0.00     0.198 A 
ATOM     73  C   UNL     1       5.107  -8.976  10.611  1.00  0.00     0.198 A 
ATOM     74  F   UNL     1       4.942  -7.979   8.489  1.00  0.00    -0.203 F 
ATOM     75  F   UNL     1       2.622  -9.431  13.209  1.00  0.00    -0.200 F 
ATOM     76  C   UNL     1       4.526  -9.343  11.816  1.00  0.00     0.200 A 
ATOM     77  F   UNL     1       6.407  -9.215  10.394  1.00  0.00    -0.200 F 
ATOM     78  F   UNL     1       5.272  -9.908  12.775  1.00  0.00    -0.200 F 
ENDBRANCH  45  68
ENDBRANCH  19  20
ENDBRANCH  12  14
ENDBRANCH  11  12
ENDBRANCH  10  11
ENDBRANCH   9  10
ENDBRANCH   8   9
ENDBRANCH   6   8
ENDBRANCH   1   6
BRANCH   1  79
ATOM     79  N   UNL     1      -1.711   1.304  -2.427  1.00  0.00    -0.341 N 
ATOM     80  C   UNL     1      -2.357   2.231  -3.181  1.00  0.00     0.240 C 
ATOM     81  H   UNL     1      -1.518   0.414  -2.801  1.00  0.00     0.164 HD
ATOM     82  O   UNL     1      -2.549   1.973  -4.371  1.00  0.00    -0.273 OA
BRANCH  80  83
ATOM     83  C   UNL     1      -2.846   3.611  -2.532  1.00  0.00     0.216 C 
BRANCH  83  84
ATOM     84  N   UNL     1      -2.955   4.256  -1.110  1.00  0.00    -0.345 N 
ATOM     85  C   UNL     1      -2.546   4.863   0.039  1.00  0.00     0.243 C 
ATOM     86  H   UNL     1      -3.920   4.167  -0.939  1.00  0.00     0.164 HD
ATOM     87  O   UNL     1      -3.576   5.313   0.600  1.00  0.00    -0.273 OA
BRANCH  85  88
ATOM     88  C   UNL     1      -1.151   5.132   0.929  1.00  0.00     0.177 C 
BRANCH  88  89
ATOM     89  N   UNL     1      -0.530   3.962   1.628  1.00  0.00    -0.309 N 
ATOM     90  C   UNL     1       0.717   3.381   1.628  1.00  0.00     0.408 C 
ATOM     91  H   UNL     1      -1.161   3.500   2.226  1.00  0.00     0.167 HD
ATOM     92  O   UNL     1       0.871   2.270   2.128  1.00  0.00    -0.225 OA
BRANCH  90  93
ATOM     93  O   UNL     1       1.701   4.066   0.990  1.00  0.00    -0.445 OA
BRANCH  93  94
ATOM     94  C   UNL     1       2.949   3.375   0.733  1.00  0.00     0.270 C 
BRANCH  94  95
ATOM     95  C   UNL     1       4.039   3.466   1.777  1.00  0.00    -0.011 A 
ATOM     96  C   UNL     1       3.760   3.438   3.144  1.00  0.00     0.007 A 
ATOM     97  C   UNL     1       5.389   3.458   1.369  1.00  0.00     0.007 A 
ATOM     98  C   UNL     1       4.794   3.414   4.082  1.00  0.00     0.000 A 
ATOM     99  C   UNL     1       6.424   3.439   2.308  1.00  0.00     0.000 A 
ATOM    100  C   UNL     1       6.124   3.415   3.666  1.00  0.00     0.000 A 
ENDBRANCH  94  95
ENDBRANCH  93  94
ENDBRANCH  90  93
ENDBRANCH  88  89
BRANCH  88 101
ATOM    101  C   UNL     1      -0.186   6.303   0.560  1.00  0.00     0.015 C 
ATOM    102  C   UNL     1      -0.964   7.560   0.148  1.00  0.00     0.010 C 
ATOM    103  C   UNL     1       0.745   6.750   1.718  1.00  0.00     0.010 C 
ENDBRANCH  88 101
ENDBRANCH  85  88
ENDBRANCH  83  84
ENDBRANCH  80  83
ENDBRANCH   1  79
TORSDOF 22
