REMARK SMILES C#CC[N@H+](CC(=O)OCCOC(=O)c1ccc(-c2c3nc(c(-c4c(F)c(F)c(F)c(F)c4F)c4ccc([nH]4)c(-c4c(F)c(F)c(F)c(F)c4F)c4nc(c(-c5c(F)c(F)c(F)c(F)c5F)c5ccc2[nH]5)C=C4)C=C3)cc1)[C@H](C)C(=O)NCCC
REMARK SMILES IDX 8 1 6 2 7 3 5 4 4 5 3 7 2 8 1 9 77 10 78 11 79 12 80 13
REMARK SMILES IDX 81 14 82 16 83 17 84 18 9 19 10 20 11 21 12 22 13 23 14 24
REMARK SMILES IDX 15 25 76 26 16 27 75 28 17 29 18 30 19 31 69 32 20 33 74 34
REMARK SMILES IDX 68 35 70 36 21 37 73 38 67 39 66 40 22 42 54 43 34 44 53 45
REMARK SMILES IDX 35 46 38 47 52 48 71 49 36 50 37 51 51 53 72 54 39 55 23 56
REMARK SMILES IDX 24 57 32 58 25 59 26 60 30 61 33 62 27 63 28 64 31 65 29 66
REMARK SMILES IDX 55 67 56 68 64 69 57 70 58 71 62 72 65 73 59 74 60 75 63 76
REMARK SMILES IDX 61 77 40 78 41 79 49 80 42 81 43 82 47 83 50 84 44 85 45 86
REMARK SMILES IDX 48 87 46 88
REMARK H PARENT 4 6 81 15 70 41 38 52
REMARK Flexibility Score: inf
ROOT
ATOM      1  O   UNL     1      -4.264   3.829   0.349  1.00  0.00    -0.458 OA
ENDROOT
BRANCH   1   2
ATOM      2  C   UNL     1      -4.774   3.096  -0.677  1.00  0.00     0.361 C 
ATOM      3  O   UNL     1      -5.829   3.346  -1.249  1.00  0.00    -0.245 OA
BRANCH   2   4
ATOM      4  C   UNL     1      -3.924   1.865  -0.986  1.00  0.00     0.387 C 
BRANCH   4   5
ATOM      5  N   UNL     1      -2.523   2.095  -1.457  1.00  0.00    -0.306 N 
ATOM      6  H   UNL     1      -2.505   2.681  -2.292  1.00  0.00     0.350 HD
BRANCH   5   7
ATOM      7  C   UNL     1      -1.762   2.949  -0.538  1.00  0.00     0.355 C 
BRANCH   7   8
ATOM      8  C   UNL     1      -0.383   3.318  -0.895  1.00  0.00    -0.047 C 
ATOM      9  C   UNL     1       0.761   3.634  -1.065  1.00  0.00     0.010 C 
ENDBRANCH   7   8
ENDBRANCH   5   7
BRANCH   5  10
ATOM     10  C   UNL     1      -1.916   0.819  -1.970  1.00  0.00     0.272 C 
ATOM     11  C   UNL     1      -2.555  -0.527  -1.574  1.00  0.00     0.086 C 
BRANCH  10  12
ATOM     12  C   UNL     1      -0.383   0.668  -1.937  1.00  0.00     0.278 C 
ATOM     13  O   UNL     1       0.288   0.756  -2.972  1.00  0.00    -0.268 OA
ATOM     14  N   UNL     1       0.280   0.331  -0.788  1.00  0.00    -0.351 N 
ATOM     15  H   UNL     1       1.199  -0.000  -0.914  1.00  0.00     0.163 HD
BRANCH  14  16
ATOM     16  C   UNL     1      -0.174   0.389   0.586  1.00  0.00     0.116 C 
BRANCH  16  17
ATOM     17  C   UNL     1       0.468  -0.664   1.474  1.00  0.00     0.018 C 
ATOM     18  C   UNL     1       1.932  -0.357   1.753  1.00  0.00     0.006 C 
ENDBRANCH  16  17
ENDBRANCH  14  16
ENDBRANCH  10  12
ENDBRANCH   5  10
ENDBRANCH   4   5
ENDBRANCH   2   4
ENDBRANCH   1   2
BRANCH   1  19
ATOM     19  C   UNL     1      -4.845   5.130   0.562  1.00  0.00     0.274 C 
BRANCH  19  20
ATOM     20  C   UNL     1      -4.239   6.173  -0.384  1.00  0.00     0.275 C 
BRANCH  20  21
ATOM     21  O   UNL     1      -4.692   5.951  -1.733  1.00  0.00    -0.458 OA
BRANCH  21  22
ATOM     22  C   UNL     1      -3.749   5.577  -2.628  1.00  0.00     0.338 C 
ATOM     23  O   UNL     1      -2.547   5.496  -2.454  1.00  0.00    -0.246 OA
BRANCH  22  24
ATOM     24  C   UNL     1      -4.394   5.262  -3.909  1.00  0.00     0.060 A 
ATOM     25  C   UNL     1      -4.697   3.937  -4.232  1.00  0.00     0.016 A 
ATOM     26  C   UNL     1      -4.608   6.286  -4.830  1.00  0.00     0.016 A 
ATOM     27  C   UNL     1      -5.220   3.629  -5.487  1.00  0.00     0.010 A 
ATOM     28  C   UNL     1      -5.149   5.979  -6.079  1.00  0.00     0.010 A 
ATOM     29  C   UNL     1      -5.448   4.648  -6.421  1.00  0.00    -0.014 A 
BRANCH  29  30
ATOM     30  C   UNL     1      -5.967   4.330  -7.774  1.00  0.00     0.031 A 
ATOM     31  C   UNL     1      -5.084   4.514  -8.975  1.00  0.00     0.074 A 
ATOM     32  C   UNL     1      -7.236   3.907  -7.921  1.00  0.00     0.049 A 
ATOM     33  N   UNL     1      -5.381   4.421 -10.246  1.00  0.00    -0.248 NA
ATOM     34  C   UNL     1      -3.679   4.859  -8.709  1.00  0.00     0.031 C 
ATOM     35  C   UNL     1      -8.175   3.665  -6.827  1.00  0.00     0.029 A 
ATOM     36  N   UNL     1      -7.959   3.622  -9.053  1.00  0.00    -0.354 N 
ATOM     37  C   UNL     1      -4.210   4.717 -10.931  1.00  0.00     0.074 A 
ATOM     38  C   UNL     1      -3.204   5.022  -9.936  1.00  0.00     0.031 C 
ATOM     39  C   UNL     1      -9.351   3.269  -7.339  1.00  0.00     0.029 A 
ATOM     40  C   UNL     1      -9.267   3.290  -8.796  1.00  0.00     0.049 A 
ATOM     41  H   UNL     1      -7.578   3.653  -9.960  1.00  0.00     0.167 HD
ATOM     42  C   UNL     1      -3.997   4.727 -12.269  1.00  0.00     0.037 A 
ATOM     43  C   UNL     1     -10.290   3.065  -9.642  1.00  0.00     0.037 A 
ATOM     44  C   UNL     1      -5.007   4.414 -13.248  1.00  0.00     0.049 A 
ATOM     45  C   UNL     1     -10.043   3.153 -11.125  1.00  0.00     0.074 A 
ATOM     46  C   UNL     1      -4.888   4.369 -14.626  1.00  0.00     0.029 A 
ATOM     47  N   UNL     1      -6.326   4.099 -12.951  1.00  0.00    -0.354 N 
ATOM     48  N   UNL     1      -8.930   3.415 -11.767  1.00  0.00    -0.248 NA
ATOM     49  C   UNL     1     -11.197   2.914 -12.002  1.00  0.00     0.031 C 
ATOM     50  C   UNL     1      -6.150   4.097 -15.165  1.00  0.00     0.029 A 
ATOM     51  C   UNL     1      -7.039   3.893 -14.122  1.00  0.00     0.049 A 
ATOM     52  H   UNL     1      -6.700   4.032 -12.043  1.00  0.00     0.167 HD
ATOM     53  C   UNL     1      -9.240   3.339 -13.118  1.00  0.00     0.074 A 
ATOM     54  C   UNL     1     -10.643   2.992 -13.204  1.00  0.00     0.031 C 
ATOM     55  C   UNL     1      -8.435   3.538 -14.191  1.00  0.00     0.037 A 
BRANCH  42  56
ATOM     56  C   UNL     1      -2.631   5.121 -12.758  1.00  0.00     0.064 A 
ATOM     57  C   UNL     1      -1.505   4.310 -12.554  1.00  0.00     0.173 A 
ATOM     58  C   UNL     1      -2.455   6.314 -13.478  1.00  0.00     0.173 A 
ATOM     59  F   UNL     1      -1.614   3.163 -11.867  1.00  0.00    -0.203 F 
ATOM     60  C   UNL     1      -0.250   4.692 -13.025  1.00  0.00     0.198 A 
ATOM     61  C   UNL     1      -1.207   6.674 -13.979  1.00  0.00     0.198 A 
ATOM     62  F   UNL     1      -3.498   7.125 -13.711  1.00  0.00    -0.203 F 
ATOM     63  F   UNL     1       0.820   3.925 -12.774  1.00  0.00    -0.200 F 
ATOM     64  C   UNL     1      -0.104   5.869 -13.743  1.00  0.00     0.200 A 
ATOM     65  F   UNL     1      -1.072   7.803 -14.690  1.00  0.00    -0.200 F 
ATOM     66  F   UNL     1       1.102   6.229 -14.206  1.00  0.00    -0.200 F 
ENDBRANCH  42  56
BRANCH  43  67
ATOM     67  C   UNL     1     -11.644   2.758  -9.109  1.00  0.00     0.064 A 
ATOM     68  C   UNL     1     -12.238   1.506  -9.321  1.00  0.00     0.173 A 
ATOM     69  C   UNL     1     -12.380   3.713  -8.390  1.00  0.00     0.173 A 
ATOM     70  F   UNL     1     -11.586   0.566 -10.021  1.00  0.00    -0.203 F 
ATOM     71  C   UNL     1     -13.524   1.231  -8.859  1.00  0.00     0.198 A 
ATOM     72  C   UNL     1     -13.650   3.425  -7.897  1.00  0.00     0.198 A 
ATOM     73  F   UNL     1     -11.860   4.928  -8.157  1.00  0.00    -0.203 F 
ATOM     74  F   UNL     1     -14.090   0.046  -9.127  1.00  0.00    -0.200 F 
ATOM     75  C   UNL     1     -14.226   2.188  -8.141  1.00  0.00     0.200 A 
ATOM     76  F   UNL     1     -14.318   4.346  -7.189  1.00  0.00    -0.200 F 
ATOM     77  F   UNL     1     -15.461   1.921  -7.695  1.00  0.00    -0.200 F 
ENDBRANCH  43  67
BRANCH  55  78
ATOM     78  C   UNL     1      -9.037   3.334 -15.553  1.00  0.00     0.064 A 
ATOM     79  C   UNL     1      -9.994   4.212 -16.082  1.00  0.00     0.173 A 
ATOM     80  C   UNL     1      -8.616   2.262 -16.358  1.00  0.00     0.173 A 
ATOM     81  F   UNL     1     -10.442   5.243 -15.350  1.00  0.00    -0.203 F 
ATOM     82  C   UNL     1     -10.530   4.008 -17.352  1.00  0.00     0.198 A 
ATOM     83  C   UNL     1      -9.125   2.084 -17.641  1.00  0.00     0.198 A 
ATOM     84  F   UNL     1      -7.697   1.396 -15.905  1.00  0.00    -0.203 F 
ATOM     85  F   UNL     1     -11.485   4.827 -17.813  1.00  0.00    -0.200 F 
ATOM     86  C   UNL     1     -10.088   2.951 -18.133  1.00  0.00     0.200 A 
ATOM     87  F   UNL     1      -8.682   1.073 -18.401  1.00  0.00    -0.200 F 
ATOM     88  F   UNL     1     -10.596   2.763 -19.358  1.00  0.00    -0.200 F 
ENDBRANCH  55  78
ENDBRANCH  29  30
ENDBRANCH  22  24
ENDBRANCH  21  22
ENDBRANCH  20  21
ENDBRANCH  19  20
ENDBRANCH   1  19
TORSDOF 18
