REMARK SMILES CCC[NH2+][C@]1(C(=O)OCCOC(=O)c2ccc(-c3c4nc(c(-c5c(F)c(F)c(F)c(F)c5F)c5ccc([nH]5)c(-c5c(F)c(F)c(F)c(F)c5F)c5nc(c(-c6c(F)c(F)c(F)c(F)c6F)c6ccc3[nH]6)C=C5)C=C4)cc2)CCC[C@H](OC(C)(C)C)C1
REMARK SMILES IDX 9 1 8 2 6 3 7 4 5 5 77 6 86 7 78 8 80 9 79 10 4 11 3 14 2 15
REMARK SMILES IDX 1 16 81 17 82 18 83 19 84 20 85 21 10 22 11 23 12 24 13 25
REMARK SMILES IDX 14 26 15 27 76 28 16 29 75 30 17 31 18 32 19 33 69 34 20 35
REMARK SMILES IDX 74 36 68 37 70 38 21 39 73 40 67 41 66 42 22 44 54 45 34 46
REMARK SMILES IDX 53 47 35 48 38 49 52 50 71 51 36 52 37 53 51 55 72 56 39 57
REMARK SMILES IDX 23 58 24 59 32 60 25 61 26 62 30 63 33 64 27 65 28 66 31 67
REMARK SMILES IDX 29 68 55 69 56 70 64 71 57 72 58 73 62 74 65 75 59 76 60 77
REMARK SMILES IDX 63 78 61 79 40 80 41 81 49 82 42 83 43 84 47 85 50 86 44 87
REMARK SMILES IDX 45 88 48 89 46 90
REMARK H PARENT 4 12 4 13 70 43 38 54
REMARK Flexibility Score: inf
ROOT
ATOM      1  C   UNL     1      -0.692   0.201   1.348  1.00  0.00     0.274 C 
ENDROOT
BRANCH   1   2
ATOM      2  O   UNL     1      -0.382   1.431   2.031  1.00  0.00    -0.457 OA
BRANCH   2   3
ATOM      3  C   UNL     1       0.932   1.793   2.015  1.00  0.00     0.368 C 
ATOM      4  O   UNL     1       1.807   1.149   1.440  1.00  0.00    -0.245 OA
BRANCH   3   5
ATOM      5  C   UNL     1       1.204   3.140   2.781  1.00  0.00     0.196 C 
ATOM      6  C   UNL     1       0.485   4.302   2.047  1.00  0.00     0.081 C 
ATOM      7  C   UNL     1       0.581   3.026   4.202  1.00  0.00     0.113 C 
ATOM      8  C   UNL     1       0.514   5.628   2.804  1.00  0.00     0.010 C 
ATOM      9  C   UNL     1       0.281   4.303   5.012  1.00  0.00     0.125 C 
ATOM     10  C   UNL     1      -0.112   5.536   4.186  1.00  0.00     0.032 C 
BRANCH   5  11
ATOM     11  N   UNL     1       2.672   3.434   2.643  1.00  0.00    -0.332 N 
ATOM     12  H   UNL     1       2.898   3.401   1.648  1.00  0.00     0.347 HD
ATOM     13  H   UNL     1       2.799   4.343   3.087  1.00  0.00     0.347 HD
BRANCH  11  14
ATOM     14  C   UNL     1       3.605   2.543   3.336  1.00  0.00     0.261 C 
BRANCH  14  15
ATOM     15  C   UNL     1       4.994   2.450   2.685  1.00  0.00     0.058 C 
ATOM     16  C   UNL     1       5.646   3.797   2.401  1.00  0.00     0.010 C 
ENDBRANCH  14  15
ENDBRANCH  11  14
ENDBRANCH   5  11
BRANCH   9  17
ATOM     17  O   UNL     1       0.991   4.640   6.208  1.00  0.00    -0.372 OA
BRANCH  17  18
ATOM     18  C   UNL     1       2.400   4.536   6.385  1.00  0.00     0.060 C 
ATOM     19  C   UNL     1       2.805   3.075   6.624  1.00  0.00     0.042 C 
ATOM     20  C   UNL     1       3.184   5.298   5.320  1.00  0.00     0.042 C 
ATOM     21  C   UNL     1       2.727   5.243   7.717  1.00  0.00     0.042 C 
ENDBRANCH  17  18
ENDBRANCH   9  17
ENDBRANCH   3   5
ENDBRANCH   2   3
ENDBRANCH   1   2
BRANCH   1  22
ATOM     22  C   UNL     1      -1.254   0.487  -0.041  1.00  0.00     0.275 C 
BRANCH  22  23
ATOM     23  O   UNL     1      -0.309   1.268  -0.792  1.00  0.00    -0.458 OA
BRANCH  23  24
ATOM     24  C   UNL     1      -0.763   2.455  -1.255  1.00  0.00     0.338 C 
ATOM     25  O   UNL     1      -1.900   2.889  -1.193  1.00  0.00    -0.246 OA
BRANCH  24  26
ATOM     26  C   UNL     1       0.349   3.227  -1.841  1.00  0.00     0.060 A 
ATOM     27  C   UNL     1       1.544   3.382  -1.140  1.00  0.00     0.016 A 
ATOM     28  C   UNL     1       0.147   3.928  -3.026  1.00  0.00     0.016 A 
ATOM     29  C   UNL     1       2.480   4.330  -1.539  1.00  0.00     0.010 A 
ATOM     30  C   UNL     1       1.153   4.772  -3.503  1.00  0.00     0.010 A 
ATOM     31  C   UNL     1       2.317   5.011  -2.747  1.00  0.00    -0.014 A 
BRANCH  31  32
ATOM     32  C   UNL     1       3.335   5.975  -3.240  1.00  0.00     0.031 A 
ATOM     33  C   UNL     1       2.910   7.363  -3.627  1.00  0.00     0.074 A 
ATOM     34  C   UNL     1       4.619   5.602  -3.405  1.00  0.00     0.049 A 
ATOM     35  N   UNL     1       3.495   8.220  -4.421  1.00  0.00    -0.248 NA
ATOM     36  C   UNL     1       1.639   7.837  -3.057  1.00  0.00     0.031 C 
ATOM     37  C   UNL     1       5.199   4.323  -2.994  1.00  0.00     0.029 A 
ATOM     38  N   UNL     1       5.666   6.263  -4.000  1.00  0.00    -0.354 N 
ATOM     39  C   UNL     1       2.624   9.297  -4.518  1.00  0.00     0.074 A 
ATOM     40  C   UNL     1       1.482   8.997  -3.679  1.00  0.00     0.031 C 
ATOM     41  C   UNL     1       6.491   4.289  -3.346  1.00  0.00     0.029 A 
ATOM     42  C   UNL     1       6.797   5.490  -4.112  1.00  0.00     0.049 A 
ATOM     43  H   UNL     1       5.612   7.194  -4.314  1.00  0.00     0.167 HD
ATOM     44  C   UNL     1       2.764  10.420  -5.263  1.00  0.00     0.037 A 
ATOM     45  C   UNL     1       7.923   5.679  -4.824  1.00  0.00     0.037 A 
ATOM     46  C   UNL     1       3.938  10.723  -6.040  1.00  0.00     0.049 A 
ATOM     47  C   UNL     1       8.049   6.909  -5.674  1.00  0.00     0.074 A 
ATOM     48  C   UNL     1       4.197  11.837  -6.819  1.00  0.00     0.029 A 
ATOM     49  N   UNL     1       5.060   9.909  -6.119  1.00  0.00    -0.354 N 
ATOM     50  N   UNL     1       7.189   7.883  -5.848  1.00  0.00    -0.248 NA
ATOM     51  C   UNL     1       9.289   7.054  -6.447  1.00  0.00     0.031 C 
ATOM     52  C   UNL     1       5.463  11.680  -7.397  1.00  0.00     0.029 A 
ATOM     53  C   UNL     1       6.010  10.491  -6.942  1.00  0.00     0.049 A 
ATOM     54  H   UNL     1       5.164   9.046  -5.658  1.00  0.00     0.167 HD
ATOM     55  C   UNL     1       7.787   8.765  -6.735  1.00  0.00     0.074 A 
ATOM     56  C   UNL     1       9.088   8.214  -7.058  1.00  0.00     0.031 C 
ATOM     57  C   UNL     1       7.302   9.927  -7.238  1.00  0.00     0.037 A 
BRANCH  44  58
ATOM     58  C   UNL     1       1.601  11.366  -5.322  1.00  0.00     0.064 A 
ATOM     59  C   UNL     1       1.233  12.173  -4.236  1.00  0.00     0.173 A 
ATOM     60  C   UNL     1       0.848  11.473  -6.503  1.00  0.00     0.173 A 
ATOM     61  F   UNL     1       1.908  12.098  -3.080  1.00  0.00    -0.203 F 
ATOM     62  C   UNL     1       0.137  13.029  -4.320  1.00  0.00     0.198 A 
ATOM     63  C   UNL     1      -0.229  12.351  -6.593  1.00  0.00     0.198 A 
ATOM     64  F   UNL     1       1.159  10.727  -7.574  1.00  0.00    -0.203 F 
ATOM     65  F   UNL     1      -0.229  13.754  -3.253  1.00  0.00    -0.200 F 
ATOM     66  C   UNL     1      -0.589  13.122  -5.499  1.00  0.00     0.200 A 
ATOM     67  F   UNL     1      -0.921  12.445  -7.737  1.00  0.00    -0.200 F 
ATOM     68  F   UNL     1      -1.642  13.947  -5.577  1.00  0.00    -0.200 F 
ENDBRANCH  44  58
BRANCH  45  69
ATOM     69  C   UNL     1       8.976   4.633  -4.811  1.00  0.00     0.064 A 
ATOM     70  C   UNL     1      10.194   4.846  -4.155  1.00  0.00     0.173 A 
ATOM     71  C   UNL     1       8.765   3.380  -5.409  1.00  0.00     0.173 A 
ATOM     72  F   UNL     1      10.450   6.035  -3.589  1.00  0.00    -0.203 F 
ATOM     73  C   UNL     1      11.162   3.846  -4.094  1.00  0.00     0.198 A 
ATOM     74  C   UNL     1       9.721   2.371  -5.322  1.00  0.00     0.198 A 
ATOM     75  F   UNL     1       7.613   3.124  -6.045  1.00  0.00    -0.203 F 
ATOM     76  F   UNL     1      12.330   4.083  -3.481  1.00  0.00    -0.200 F 
ATOM     77  C   UNL     1      10.920   2.605  -4.667  1.00  0.00     0.200 A 
ATOM     78  F   UNL     1       9.474   1.168  -5.860  1.00  0.00    -0.200 F 
ATOM     79  F   UNL     1      11.843   1.637  -4.589  1.00  0.00    -0.200 F 
ENDBRANCH  45  69
BRANCH  57  80
ATOM     80  C   UNL     1       8.201  10.701  -8.153  1.00  0.00     0.064 A 
ATOM     81  C   UNL     1       8.417  10.305  -9.480  1.00  0.00     0.173 A 
ATOM     82  C   UNL     1       8.816  11.879  -7.704  1.00  0.00     0.173 A 
ATOM     83  F   UNL     1       7.865   9.175  -9.946  1.00  0.00    -0.203 F 
ATOM     84  C   UNL     1       9.231  11.056 -10.323  1.00  0.00     0.198 A 
ATOM     85  C   UNL     1       9.610  12.640  -8.557  1.00  0.00     0.198 A 
ATOM     86  F   UNL     1       8.636  12.298  -6.443  1.00  0.00    -0.203 F 
ATOM     87  F   UNL     1       9.455  10.643 -11.578  1.00  0.00    -0.200 F 
ATOM     88  C   UNL     1       9.820  12.226  -9.864  1.00  0.00     0.200 A 
ATOM     89  F   UNL     1      10.170  13.774  -8.115  1.00  0.00    -0.200 F 
ATOM     90  F   UNL     1      10.596  12.952 -10.680  1.00  0.00    -0.200 F 
ENDBRANCH  57  80
ENDBRANCH  31  32
ENDBRANCH  24  26
ENDBRANCH  23  24
ENDBRANCH  22  23
ENDBRANCH   1  22
TORSDOF 16
