REMARK SMILES O=C(OCCOC(=O)[C@@H]1CS[C@@H](C2CC2)N1C(=O)Cc1ccn[nH]1)c1ccc(-c2c3nc(c(-c4c(F)c(F)c(F)c(F)c4F)c4ccc([nH]4)c(-c4c(F)c(F)c(F)c(F)c4F)c4nc(c(-c5c(F)c(F)c(F)c(F)c5F)c5ccc2[nH]5)C=C4)C=C3)cc1
REMARK SMILES IDX 5 1 4 2 3 3 2 4 1 5 25 6 26 7 87 8 27 9 86 10 28 11 29 12
REMARK SMILES IDX 30 13 80 14 31 15 85 16 79 17 81 18 32 19 84 20 78 21 77 22
REMARK SMILES IDX 33 24 65 25 45 26 64 27 46 28 49 29 63 30 82 31 47 32 48 33
REMARK SMILES IDX 62 35 83 36 50 37 34 38 35 39 43 40 36 41 37 42 41 43 44 44
REMARK SMILES IDX 38 45 39 46 42 47 40 48 66 49 67 50 75 51 68 52 69 53 73 54
REMARK SMILES IDX 76 55 70 56 71 57 74 58 72 59 51 60 52 61 60 62 53 63 54 64
REMARK SMILES IDX 58 65 61 66 55 67 56 68 59 69 57 70 6 71 7 72 8 73 9 74
REMARK SMILES IDX 10 75 16 76 11 77 12 78 17 79 18 80 19 81 20 82 21 83 24 84
REMARK SMILES IDX 22 85 23 86 13 88 14 89 15 90
REMARK H PARENT 81 23 49 34 24 87
REMARK Flexibility Score: inf
ROOT
ATOM      1  C   UNL     1       3.466   0.774  -5.067  1.00  0.00     0.274 C 
ENDROOT
BRANCH   1   2
ATOM      2  C   UNL     1       3.773   1.704  -3.882  1.00  0.00     0.275 C 
BRANCH   2   3
ATOM      3  O   UNL     1       4.597   1.103  -2.849  1.00  0.00    -0.458 OA
BRANCH   3   4
ATOM      4  C   UNL     1       4.399   0.755  -1.554  1.00  0.00     0.338 C 
ATOM      5  O   UNL     1       5.384   0.520  -0.854  1.00  0.00    -0.246 OA
BRANCH   4   6
ATOM      6  C   UNL     1       3.063   0.459  -0.939  1.00  0.00     0.060 A 
ATOM      7  C   UNL     1       1.864   1.060  -1.286  1.00  0.00     0.016 A 
ATOM      8  C   UNL     1       3.010  -0.539   0.064  1.00  0.00     0.016 A 
ATOM      9  C   UNL     1       0.644   0.562  -0.789  1.00  0.00     0.010 A 
ATOM     10  C   UNL     1       1.786  -1.017   0.588  1.00  0.00     0.010 A 
ATOM     11  C   UNL     1       0.574  -0.512   0.116  1.00  0.00    -0.014 A 
BRANCH  11  12
ATOM     12  C   UNL     1      -0.783  -0.991   0.544  1.00  0.00     0.031 A 
ATOM     13  C   UNL     1      -1.714  -0.025   1.215  1.00  0.00     0.074 A 
ATOM     14  C   UNL     1      -1.269  -2.224   0.282  1.00  0.00     0.049 A 
ATOM     15  N   UNL     1      -2.993  -0.146   1.468  1.00  0.00    -0.248 NA
ATOM     16  C   UNL     1      -1.113   1.231   1.680  1.00  0.00     0.031 C 
ATOM     17  C   UNL     1      -0.502  -3.330  -0.265  1.00  0.00     0.029 A 
ATOM     18  N   UNL     1      -2.551  -2.742   0.403  1.00  0.00    -0.354 N 
ATOM     19  C   UNL     1      -3.339   0.995   2.169  1.00  0.00     0.074 A 
ATOM     20  C   UNL     1      -2.159   1.837   2.216  1.00  0.00     0.031 C 
ATOM     21  C   UNL     1      -1.337  -4.357  -0.494  1.00  0.00     0.029 A 
ATOM     22  C   UNL     1      -2.707  -3.984  -0.180  1.00  0.00     0.049 A 
ATOM     23  H   UNL     1      -3.282  -2.268   0.863  1.00  0.00     0.167 HD
ATOM     24  C   UNL     1      -4.500   1.283   2.804  1.00  0.00     0.037 A 
ATOM     25  C   UNL     1      -3.805  -4.723  -0.470  1.00  0.00     0.037 A 
ATOM     26  C   UNL     1      -5.656   0.432   2.868  1.00  0.00     0.049 A 
ATOM     27  C   UNL     1      -5.132  -4.313   0.116  1.00  0.00     0.074 A 
ATOM     28  C   UNL     1      -6.824   0.627   3.587  1.00  0.00     0.029 A 
ATOM     29  N   UNL     1      -5.788  -0.786   2.223  1.00  0.00    -0.354 N 
ATOM     30  N   UNL     1      -5.449  -3.217   0.752  1.00  0.00    -0.248 NA
ATOM     31  C   UNL     1      -6.233  -5.290   0.017  1.00  0.00     0.031 C 
ATOM     32  C   UNL     1      -7.637  -0.501   3.427  1.00  0.00     0.029 A 
ATOM     33  C   UNL     1      -7.005  -1.369   2.555  1.00  0.00     0.049 A 
ATOM     34  H   UNL     1      -5.120  -1.181   1.618  1.00  0.00     0.167 HD
ATOM     35  C   UNL     1      -6.751  -3.404   1.194  1.00  0.00     0.074 A 
ATOM     36  C   UNL     1      -7.212  -4.661   0.650  1.00  0.00     0.031 C 
ATOM     37  C   UNL     1      -7.465  -2.633   2.047  1.00  0.00     0.037 A 
BRANCH  24  38
ATOM     38  C   UNL     1      -4.481   2.522   3.640  1.00  0.00     0.064 A 
ATOM     39  C   UNL     1      -4.537   3.803   3.079  1.00  0.00     0.173 A 
ATOM     40  C   UNL     1      -4.324   2.405   5.029  1.00  0.00     0.173 A 
ATOM     41  F   UNL     1      -4.638   3.956   1.750  1.00  0.00    -0.203 F 
ATOM     42  C   UNL     1      -4.402   4.931   3.883  1.00  0.00     0.198 A 
ATOM     43  C   UNL     1      -4.220   3.534   5.831  1.00  0.00     0.198 A 
ATOM     44  F   UNL     1      -4.245   1.194   5.602  1.00  0.00    -0.203 F 
ATOM     45  F   UNL     1      -4.382   6.149   3.325  1.00  0.00    -0.200 F 
ATOM     46  C   UNL     1      -4.248   4.795   5.256  1.00  0.00     0.200 A 
ATOM     47  F   UNL     1      -4.066   3.400   7.155  1.00  0.00    -0.200 F 
ATOM     48  F   UNL     1      -4.101   5.883   6.025  1.00  0.00    -0.200 F 
ENDBRANCH  24  38
BRANCH  25  49
ATOM     49  C   UNL     1      -3.762  -5.925  -1.369  1.00  0.00     0.064 A 
ATOM     50  C   UNL     1      -4.555  -5.960  -2.536  1.00  0.00     0.173 A 
ATOM     51  C   UNL     1      -3.005  -7.070  -1.091  1.00  0.00     0.173 A 
ATOM     52  F   UNL     1      -5.335  -4.914  -2.846  1.00  0.00    -0.203 F 
ATOM     53  C   UNL     1      -4.596  -7.083  -3.365  1.00  0.00     0.198 A 
ATOM     54  C   UNL     1      -2.997  -8.168  -1.954  1.00  0.00     0.198 A 
ATOM     55  F   UNL     1      -2.266  -7.133   0.026  1.00  0.00    -0.203 F 
ATOM     56  F   UNL     1      -5.414  -7.103  -4.426  1.00  0.00    -0.200 F 
ATOM     57  C   UNL     1      -3.801  -8.180  -3.083  1.00  0.00     0.200 A 
ATOM     58  F   UNL     1      -2.210  -9.219  -1.687  1.00  0.00    -0.200 F 
ATOM     59  F   UNL     1      -3.815  -9.248  -3.892  1.00  0.00    -0.200 F 
ENDBRANCH  25  49
BRANCH  37  60
ATOM     60  C   UNL     1      -8.791  -3.165   2.510  1.00  0.00     0.064 A 
ATOM     61  C   UNL     1      -8.866  -4.282   3.360  1.00  0.00     0.173 A 
ATOM     62  C   UNL     1      -9.992  -2.550   2.132  1.00  0.00     0.173 A 
ATOM     63  F   UNL     1      -7.746  -4.917   3.741  1.00  0.00    -0.203 F 
ATOM     64  C   UNL     1     -10.093  -4.778   3.790  1.00  0.00     0.198 A 
ATOM     65  C   UNL     1     -11.218  -3.033   2.586  1.00  0.00     0.198 A 
ATOM     66  F   UNL     1      -9.979  -1.480   1.324  1.00  0.00    -0.203 F 
ATOM     67  F   UNL     1     -10.139  -5.874   4.560  1.00  0.00    -0.200 F 
ATOM     68  C   UNL     1     -11.268  -4.150   3.408  1.00  0.00     0.200 A 
ATOM     69  F   UNL     1     -12.353  -2.421   2.224  1.00  0.00    -0.200 F 
ATOM     70  F   UNL     1     -12.450  -4.627   3.823  1.00  0.00    -0.200 F 
ENDBRANCH  37  60
ENDBRANCH  11  12
ENDBRANCH   4   6
ENDBRANCH   3   4
ENDBRANCH   2   3
ENDBRANCH   1   2
BRANCH   1  71
ATOM     71  O   UNL     1       2.706  -0.375  -4.678  1.00  0.00    -0.461 OA
BRANCH  71  72
ATOM     72  C   UNL     1       3.412  -1.394  -4.124  1.00  0.00     0.329 C 
ATOM     73  O   UNL     1       4.628  -1.479  -4.193  1.00  0.00    -0.250 OA
BRANCH  72  74
ATOM     74  C   UNL     1       2.532  -2.278  -3.189  1.00  0.00     0.206 C 
ATOM     75  C   UNL     1       3.272  -3.572  -2.923  1.00  0.00     0.109 C 
ATOM     76  N   UNL     1       1.131  -2.611  -3.562  1.00  0.00    -0.315 N 
ATOM     77  S   UNL     1       2.786  -4.547  -4.358  1.00  0.00    -0.134 SA
ATOM     78  C   UNL     1       1.096  -3.729  -4.506  1.00  0.00     0.147 C 
BRANCH  76  79
ATOM     79  C   UNL     1       0.232  -1.555  -3.475  1.00  0.00     0.230 C 
ATOM     80  O   UNL     1       0.628  -0.387  -3.390  1.00  0.00    -0.274 OA
BRANCH  79  81
ATOM     81  C   UNL     1      -1.259  -1.743  -3.372  1.00  0.00     0.155 C 
BRANCH  81  82
ATOM     82  C   UNL     1      -1.927  -1.370  -4.635  1.00  0.00     0.044 A 
ATOM     83  C   UNL     1      -2.545  -0.199  -5.017  1.00  0.00     0.045 A 
ATOM     84  N   UNL     1      -2.025  -2.210  -5.705  1.00  0.00    -0.282 N 
ATOM     85  C   UNL     1      -2.937  -0.424  -6.346  1.00  0.00     0.135 A 
ATOM     86  N   UNL     1      -2.616  -1.649  -6.768  1.00  0.00    -0.184 NA
ATOM     87  H   UNL     1      -1.693  -3.137  -5.697  1.00  0.00     0.190 HD
ENDBRANCH  81  82
ENDBRANCH  79  81
ENDBRANCH  76  79
BRANCH  78  88
ATOM     88  C   UNL     1       0.220  -4.952  -4.395  1.00  0.00     0.022 C 
ATOM     89  C   UNL     1       0.099  -5.756  -3.121  1.00  0.00     0.007 C 
ATOM     90  C   UNL     1      -1.129  -5.180  -3.766  1.00  0.00     0.007 C 
ENDBRANCH  78  88
ENDBRANCH  72  74
ENDBRANCH  71  72
ENDBRANCH   1  71
TORSDOF 15
