REMARK SMILES COc1cc(/C=N/NC(=O)c2cccnc2)ccc1OCC(=O)OCCOC(=O)c1ccc(-c2c3nc(c(-c4c(F)c(F)c(F)c(F)c4F)c4ccc([nH]4)c(-c4c(F)c(F)c(F)c(F)c4F)c4nc(c(-c5c(F)c(F)c(F)c(F)c5F)c5ccc2[nH]5)C=C4)C=C3)cc1
REMARK SMILES IDX 24 1 22 2 23 3 21 4 20 5 19 6 3 7 4 8 5 9 18 10 17 11 2 12
REMARK SMILES IDX 1 13 6 14 7 15 8 16 9 17 10 19 11 20 12 21 16 22 13 23 15 24
REMARK SMILES IDX 14 25 25 26 26 27 27 28 28 29 29 30 30 31 31 32 92 33 32 34
REMARK SMILES IDX 91 35 33 36 34 37 35 38 85 39 36 40 90 41 84 42 86 43 37 44
REMARK SMILES IDX 89 45 83 46 82 47 38 49 70 50 50 51 69 52 51 53 54 54 68 55
REMARK SMILES IDX 87 56 52 57 53 58 67 60 88 61 55 62 39 63 40 64 48 65 41 66
REMARK SMILES IDX 42 67 46 68 49 69 43 70 44 71 47 72 45 73 71 74 72 75 80 76
REMARK SMILES IDX 73 77 74 78 78 79 81 80 75 81 76 82 79 83 77 84 56 85 57 86
REMARK SMILES IDX 65 87 58 88 59 89 63 90 66 91 60 92 61 93 64 94 62 95
REMARK H PARENT 8 18 86 48 54 59
REMARK Flexibility Score: inf
ROOT
ATOM      1  O   UNL     1       1.821  -2.640  -0.162  1.00  0.00    -0.460 OA
ENDROOT
BRANCH   1   2
ATOM      2  C   UNL     1       2.915  -2.085  -0.742  1.00  0.00     0.344 C 
ATOM      3  O   UNL     1       3.047  -1.928  -1.954  1.00  0.00    -0.248 OA
BRANCH   2   4
ATOM      4  C   UNL     1       3.999  -1.634   0.257  1.00  0.00     0.352 C 
BRANCH   4   5
ATOM      5  O   UNL     1       3.986  -1.647   1.665  1.00  0.00    -0.478 OA
BRANCH   5   6
ATOM      6  C   UNL     1       2.817  -1.497   2.345  1.00  0.00     0.162 A 
ATOM      7  C   UNL     1       1.961  -0.387   2.329  1.00  0.00     0.161 A 
ATOM      8  C   UNL     1       0.875  -0.330   3.229  1.00  0.00     0.060 A 
ATOM      9  C   UNL     1       0.668  -1.368   4.147  1.00  0.00    -0.002 A 
ATOM     10  C   UNL     1       2.616  -2.504   3.296  1.00  0.00     0.051 A 
ATOM     11  C   UNL     1       1.551  -2.448   4.190  1.00  0.00     0.014 A 
BRANCH   7  12
ATOM     12  O   UNL     1       2.283   0.779   1.682  1.00  0.00    -0.493 OA
ATOM     13  C   UNL     1       1.966   0.797   0.299  1.00  0.00     0.278 C 
ENDBRANCH   7  12
BRANCH   9  14
ATOM     14  C   UNL     1      -0.396  -1.363   5.173  1.00  0.00     0.141 C 
ATOM     15  N   UNL     1      -1.029  -0.296   5.554  1.00  0.00    -0.180 NA
BRANCH  15  16
ATOM     16  N   UNL     1      -1.890  -0.459   6.615  1.00  0.00    -0.243 N 
ATOM     17  C   UNL     1      -1.679  -1.102   7.829  1.00  0.00     0.272 C 
ATOM     18  H   UNL     1      -2.784  -0.064   6.498  1.00  0.00     0.194 HD
ATOM     19  O   UNL     1      -2.610  -1.284   8.612  1.00  0.00    -0.267 OA
BRANCH  17  20
ATOM     20  C   UNL     1      -0.333  -1.570   8.213  1.00  0.00     0.059 A 
ATOM     21  C   UNL     1       0.821  -0.816   7.999  1.00  0.00     0.017 A 
ATOM     22  C   UNL     1      -0.199  -2.816   8.812  1.00  0.00     0.124 A 
ATOM     23  C   UNL     1       2.062  -1.360   8.324  1.00  0.00     0.021 A 
ATOM     24  N   UNL     1       0.998  -3.373   9.129  1.00  0.00    -0.264 NA
ATOM     25  C   UNL     1       2.099  -2.633   8.872  1.00  0.00     0.111 A 
ENDBRANCH  17  20
ENDBRANCH  15  16
ENDBRANCH   9  14
ENDBRANCH   5   6
ENDBRANCH   4   5
ENDBRANCH   2   4
ENDBRANCH   1   2
BRANCH   1  26
ATOM     26  C   UNL     1       0.756  -3.000  -1.072  1.00  0.00     0.274 C 
BRANCH  26  27
ATOM     27  C   UNL     1      -0.587  -2.925  -0.344  1.00  0.00     0.275 C 
BRANCH  27  28
ATOM     28  O   UNL     1      -0.921  -1.540  -0.141  1.00  0.00    -0.458 OA
BRANCH  28  29
ATOM     29  C   UNL     1      -1.997  -1.298   0.649  1.00  0.00     0.338 C 
ATOM     30  O   UNL     1      -2.719  -2.147   1.157  1.00  0.00    -0.246 OA
BRANCH  29  31
ATOM     31  C   UNL     1      -2.145   0.168   0.879  1.00  0.00     0.060 A 
ATOM     32  C   UNL     1      -1.287   1.077   0.266  1.00  0.00     0.016 A 
ATOM     33  C   UNL     1      -3.112   0.657   1.760  1.00  0.00     0.016 A 
ATOM     34  C   UNL     1      -1.290   2.423   0.635  1.00  0.00     0.010 A 
ATOM     35  C   UNL     1      -3.208   2.038   2.016  1.00  0.00     0.010 A 
ATOM     36  C   UNL     1      -2.282   2.946   1.473  1.00  0.00    -0.014 A 
BRANCH  36  37
ATOM     37  C   UNL     1      -2.351   4.421   1.739  1.00  0.00     0.031 A 
ATOM     38  C   UNL     1      -2.461   4.954   3.147  1.00  0.00     0.074 A 
ATOM     39  C   UNL     1      -2.309   5.309   0.720  1.00  0.00     0.049 A 
ATOM     40  N   UNL     1      -2.777   6.160   3.555  1.00  0.00    -0.248 NA
ATOM     41  C   UNL     1      -2.199   4.006   4.239  1.00  0.00     0.031 C 
ATOM     42  C   UNL     1      -2.160   4.972  -0.698  1.00  0.00     0.029 A 
ATOM     43  N   UNL     1      -2.378   6.685   0.715  1.00  0.00    -0.354 N 
ATOM     44  C   UNL     1      -2.830   6.095   4.942  1.00  0.00     0.074 A 
ATOM     45  C   UNL     1      -2.497   4.733   5.308  1.00  0.00     0.031 C 
ATOM     46  C   UNL     1      -2.070   6.096  -1.419  1.00  0.00     0.029 A 
ATOM     47  C   UNL     1      -2.303   7.236  -0.543  1.00  0.00     0.049 A 
ATOM     48  H   UNL     1      -2.471   7.222   1.534  1.00  0.00     0.167 HD
ATOM     49  C   UNL     1      -3.140   7.077   5.825  1.00  0.00     0.037 A 
ATOM     50  C   UNL     1      -2.473   8.502  -0.974  1.00  0.00     0.037 A 
ATOM     51  C   UNL     1      -3.405   8.448   5.463  1.00  0.00     0.049 A 
ATOM     52  C   UNL     1      -2.841   9.567   0.015  1.00  0.00     0.074 A 
ATOM     53  C   UNL     1      -3.729   9.515   6.285  1.00  0.00     0.029 A 
ATOM     54  N   UNL     1      -3.356   8.949   4.169  1.00  0.00    -0.354 N 
ATOM     55  N   UNL     1      -2.994   9.471   1.313  1.00  0.00    -0.248 NA
ATOM     56  C   UNL     1      -3.098  10.909  -0.524  1.00  0.00     0.031 C 
ATOM     57  C   UNL     1      -3.910  10.651   5.487  1.00  0.00     0.029 A 
ATOM     58  C   UNL     1      -3.653  10.304   4.171  1.00  0.00     0.049 A 
ATOM     59  H   UNL     1      -3.140   8.419   3.367  1.00  0.00     0.167 HD
ATOM     60  C   UNL     1      -3.367  10.734   1.746  1.00  0.00     0.074 A 
ATOM     61  C   UNL     1      -3.387  11.589   0.577  1.00  0.00     0.031 C 
ATOM     62  C   UNL     1      -3.677  11.143   3.000  1.00  0.00     0.037 A 
BRANCH  49  63
ATOM     63  C   UNL     1      -3.266   6.695   7.275  1.00  0.00     0.064 A 
ATOM     64  C   UNL     1      -2.155   6.375   8.067  1.00  0.00     0.173 A 
ATOM     65  C   UNL     1      -4.531   6.678   7.887  1.00  0.00     0.173 A 
ATOM     66  F   UNL     1      -0.924   6.369   7.531  1.00  0.00    -0.203 F 
ATOM     67  C   UNL     1      -2.306   6.019   9.406  1.00  0.00     0.198 A 
ATOM     68  C   UNL     1      -4.676   6.352   9.233  1.00  0.00     0.198 A 
ATOM     69  F   UNL     1      -5.629   6.988   7.181  1.00  0.00    -0.203 F 
ATOM     70  F   UNL     1      -1.234   5.668  10.129  1.00  0.00    -0.200 F 
ATOM     71  C   UNL     1      -3.565   6.013   9.989  1.00  0.00     0.200 A 
ATOM     72  F   UNL     1      -5.892   6.363   9.798  1.00  0.00    -0.200 F 
ATOM     73  F   UNL     1      -3.707   5.675  11.278  1.00  0.00    -0.200 F 
ENDBRANCH  49  63
BRANCH  50  74
ATOM     74  C   UNL     1      -2.367   8.806  -2.427  1.00  0.00     0.064 A 
ATOM     75  C   UNL     1      -1.317   9.588  -2.928  1.00  0.00     0.173 A 
ATOM     76  C   UNL     1      -3.294   8.293  -3.349  1.00  0.00     0.173 A 
ATOM     77  F   UNL     1      -0.424  10.128  -2.086  1.00  0.00    -0.203 F 
ATOM     78  C   UNL     1      -1.195   9.838  -4.294  1.00  0.00     0.198 A 
ATOM     79  C   UNL     1      -3.149   8.512  -4.716  1.00  0.00     0.198 A 
ATOM     80  F   UNL     1      -4.320   7.542  -2.922  1.00  0.00    -0.203 F 
ATOM     81  F   UNL     1      -0.199  10.613  -4.744  1.00  0.00    -0.200 F 
ATOM     82  C   UNL     1      -2.102   9.288  -5.188  1.00  0.00     0.200 A 
ATOM     83  F   UNL     1      -4.016   7.959  -5.576  1.00  0.00    -0.200 F 
ATOM     84  F   UNL     1      -1.968   9.506  -6.503  1.00  0.00    -0.200 F 
ENDBRANCH  50  74
BRANCH  62  85
ATOM     85  C   UNL     1      -4.043  12.588   3.169  1.00  0.00     0.064 A 
ATOM     86  C   UNL     1      -5.277  13.089   2.727  1.00  0.00     0.173 A 
ATOM     87  C   UNL     1      -3.153  13.480   3.785  1.00  0.00     0.173 A 
ATOM     88  F   UNL     1      -6.152  12.280   2.112  1.00  0.00    -0.203 F 
ATOM     89  C   UNL     1      -5.594  14.437   2.871  1.00  0.00     0.198 A 
ATOM     90  C   UNL     1      -3.485  14.822   3.951  1.00  0.00     0.198 A 
ATOM     91  F   UNL     1      -1.961  13.050   4.226  1.00  0.00    -0.203 F 
ATOM     92  F   UNL     1      -6.756  14.905   2.395  1.00  0.00    -0.200 F 
ATOM     93  C   UNL     1      -4.700  15.301   3.487  1.00  0.00     0.200 A 
ATOM     94  F   UNL     1      -2.623  15.654   4.553  1.00  0.00    -0.200 F 
ATOM     95  F   UNL     1      -5.006  16.598   3.623  1.00  0.00    -0.200 F 
ENDBRANCH  62  85
ENDBRANCH  36  37
ENDBRANCH  29  31
ENDBRANCH  28  29
ENDBRANCH  27  28
ENDBRANCH  26  27
ENDBRANCH   1  26
TORSDOF 17
