REMARK SMILES Cc1c(CC(=O)N[C@@H](CCO)C(=O)OCCOC(=O)c2ccc(-c3c4nc(c(-c5c(F)c(F)c(F)c(F)c5F)c5ccc([nH]5)c(-c5c(F)c(F)c(F)c(F)c5F)c5nc(c(-c6c(F)c(F)c(F)c(F)c6F)c6ccc3[nH]6)C=C5)C=C4)cc2)cc(-c2ccc(S(C)(=O)=O)cc2)n1-c1ccc(F)cc1
REMARK SMILES IDX 14 1 12 2 13 3 8 4 7 5 5 6 6 7 4 9 3 10 1 11 2 12 95 13
REMARK SMILES IDX 83 14 84 15 96 16 97 17 102 18 98 19 101 20 99 21 100 22
REMARK SMILES IDX 85 23 86 24 94 25 87 26 93 27 88 28 89 29 90 30 91 31 92 32
REMARK SMILES IDX 9 33 10 34 11 35 15 37 16 38 17 39 18 40 19 41 20 42 21 43
REMARK SMILES IDX 82 44 22 45 81 46 23 47 24 48 25 49 75 50 26 51 80 52 74 53
REMARK SMILES IDX 76 54 27 55 79 56 73 57 72 58 28 60 60 61 40 62 59 63 41 64
REMARK SMILES IDX 44 65 58 66 77 67 42 68 43 69 57 71 78 72 45 73 29 74 30 75
REMARK SMILES IDX 38 76 31 77 32 78 36 79 39 80 33 81 34 82 37 83 35 84 61 85
REMARK SMILES IDX 62 86 70 87 63 88 64 89 68 90 71 91 65 92 66 93 69 94 67 95
REMARK SMILES IDX 46 96 47 97 55 98 48 99 49 100 53 101 56 102 50 103 51 104
REMARK SMILES IDX 54 105 52 106
REMARK H PARENT 7 8 11 36 76 59 44 70
REMARK Flexibility Score: inf
ROOT
ATOM      1  O   UNL     1       5.021  -5.072  -0.800  1.00  0.00    -0.461 OA
ENDROOT
BRANCH   1   2
ATOM      2  C   UNL     1       4.282  -4.692  -1.883  1.00  0.00     0.328 C 
ATOM      3  O   UNL     1       4.157  -5.358  -2.904  1.00  0.00    -0.250 OA
BRANCH   2   4
ATOM      4  C   UNL     1       3.528  -3.366  -1.641  1.00  0.00     0.194 C 
BRANCH   4   5
ATOM      5  N   UNL     1       3.819  -2.672  -0.380  1.00  0.00    -0.342 N 
ATOM      6  C   UNL     1       2.978  -2.389   0.659  1.00  0.00     0.225 C 
ATOM      7  O   UNL     1       3.436  -1.747   1.608  1.00  0.00    -0.275 OA
ATOM      8  H   UNL     1       4.749  -2.369  -0.268  1.00  0.00     0.164 HD
BRANCH   6   9
ATOM      9  C   UNL     1       1.540  -2.893   0.660  1.00  0.00     0.137 C 
BRANCH   9  10
ATOM     10  C   UNL     1       0.699  -2.334  -0.453  1.00  0.00    -0.017 A 
ATOM     11  C   UNL     1       0.846   0.193   0.056  1.00  0.00     0.065 C 
ATOM     12  C   UNL     1       0.443  -1.001  -0.749  1.00  0.00     0.024 A 
ATOM     13  N   UNL     1      -0.337  -0.953  -1.903  1.00  0.00    -0.314 N 
ATOM     14  C   UNL     1       0.003  -3.108  -1.418  1.00  0.00     0.033 A 
ATOM     15  C   UNL     1      -0.552  -2.256  -2.353  1.00  0.00     0.053 A 
BRANCH  13  16
ATOM     16  C   UNL     1      -0.857   0.217  -2.521  1.00  0.00     0.046 A 
ATOM     17  C   UNL     1      -2.220   0.264  -2.852  1.00  0.00     0.029 A 
ATOM     18  C   UNL     1      -0.013   1.292  -2.824  1.00  0.00     0.029 A 
ATOM     19  C   UNL     1      -2.740   1.394  -3.478  1.00  0.00     0.041 A 
ATOM     20  C   UNL     1      -0.540   2.413  -3.467  1.00  0.00     0.041 A 
ATOM     21  C   UNL     1      -1.895   2.455  -3.784  1.00  0.00     0.123 A 
ATOM     22  F   UNL     1      -2.395   3.536  -4.397  1.00  0.00    -0.207 F 
ENDBRANCH  13  16
BRANCH  15  23
ATOM     23  C   UNL     1      -1.159  -2.630  -3.639  1.00  0.00    -0.001 A 
ATOM     24  C   UNL     1      -0.662  -2.118  -4.848  1.00  0.00     0.011 A 
ATOM     25  C   UNL     1      -2.220  -3.545  -3.674  1.00  0.00     0.011 A 
ATOM     26  C   UNL     1      -1.234  -2.486  -6.070  1.00  0.00     0.021 A 
ATOM     27  C   UNL     1      -2.799  -3.916  -4.890  1.00  0.00     0.021 A 
ATOM     28  C   UNL     1      -2.311  -3.375  -6.081  1.00  0.00     0.067 A 
BRANCH  28  29
ATOM     29  S   UNL     1      -3.016  -3.859  -7.639  1.00  0.00     0.175 S 
ATOM     30  C   UNL     1      -3.742  -2.370  -8.273  1.00  0.00     0.163 C 
ATOM     31  O   UNL     1      -1.930  -4.244  -8.500  1.00  0.00    -0.224 OA
ATOM     32  O   UNL     1      -4.113  -4.783  -7.353  1.00  0.00    -0.224 OA
ENDBRANCH  28  29
ENDBRANCH  15  23
ENDBRANCH   9  10
ENDBRANCH   6   9
ENDBRANCH   4   5
BRANCH   4  33
ATOM     33  C   UNL     1       3.589  -2.386  -2.826  1.00  0.00     0.065 C 
BRANCH  33  34
ATOM     34  C   UNL     1       4.928  -1.689  -3.029  1.00  0.00     0.159 C 
BRANCH  34  35
ATOM     35  O   UNL     1       5.942  -2.629  -3.338  1.00  0.00    -0.396 OA
ATOM     36  H   UNL     1       6.033  -3.259  -2.605  1.00  0.00     0.210 HD
ENDBRANCH  34  35
ENDBRANCH  33  34
ENDBRANCH   4  33
ENDBRANCH   2   4
ENDBRANCH   1   2
BRANCH   1  37
ATOM     37  C   UNL     1       5.731  -6.333  -0.904  1.00  0.00     0.274 C 
BRANCH  37  38
ATOM     38  C   UNL     1       5.763  -7.062   0.461  1.00  0.00     0.275 C 
BRANCH  38  39
ATOM     39  O   UNL     1       4.971  -8.293   0.587  1.00  0.00    -0.458 OA
BRANCH  39  40
ATOM     40  C   UNL     1       3.889  -8.265   1.423  1.00  0.00     0.338 C 
ATOM     41  O   UNL     1       3.326  -7.243   1.787  1.00  0.00    -0.246 OA
BRANCH  40  42
ATOM     42  C   UNL     1       3.431  -9.643   1.881  1.00  0.00     0.060 A 
ATOM     43  C   UNL     1       2.282 -10.199   1.339  1.00  0.00     0.016 A 
ATOM     44  C   UNL     1       3.969 -10.324   2.995  1.00  0.00     0.016 A 
ATOM     45  C   UNL     1       1.738 -11.416   1.864  1.00  0.00     0.010 A 
ATOM     46  C   UNL     1       3.370 -11.532   3.565  1.00  0.00     0.010 A 
ATOM     47  C   UNL     1       2.222 -12.132   3.021  1.00  0.00    -0.014 A 
BRANCH  47  48
ATOM     48  C   UNL     1       1.196 -13.150   3.732  1.00  0.00     0.031 A 
ATOM     49  C   UNL     1      -0.100 -12.408   3.697  1.00  0.00     0.074 A 
ATOM     50  C   UNL     1       1.124 -14.371   4.410  1.00  0.00     0.049 A 
ATOM     51  N   UNL     1      -0.209 -11.226   4.245  1.00  0.00    -0.248 NA
ATOM     52  C   UNL     1      -1.168 -12.754   2.757  1.00  0.00     0.031 C 
ATOM     53  C   UNL     1       2.232 -15.259   4.797  1.00  0.00     0.029 A 
ATOM     54  N   UNL     1       0.019 -15.136   4.922  1.00  0.00    -0.354 N 
ATOM     55  C   UNL     1      -1.483 -10.799   3.955  1.00  0.00     0.074 A 
ATOM     56  C   UNL     1      -1.920 -11.654   2.862  1.00  0.00     0.031 C 
ATOM     57  C   UNL     1       1.782 -16.439   5.319  1.00  0.00     0.029 A 
ATOM     58  C   UNL     1       0.322 -16.463   5.404  1.00  0.00     0.049 A 
ATOM     59  H   UNL     1      -0.897 -14.775   4.942  1.00  0.00     0.167 HD
ATOM     60  C   UNL     1      -2.218 -10.357   5.016  1.00  0.00     0.037 A 
ATOM     61  C   UNL     1      -0.494 -17.484   5.894  1.00  0.00     0.037 A 
ATOM     62  C   UNL     1      -3.161 -11.342   5.464  1.00  0.00     0.049 A 
ATOM     63  C   UNL     1      -1.732 -16.859   6.373  1.00  0.00     0.074 A 
ATOM     64  C   UNL     1      -4.055 -12.154   4.797  1.00  0.00     0.029 A 
ATOM     65  N   UNL     1      -2.929 -11.932   6.688  1.00  0.00    -0.354 N 
ATOM     66  N   UNL     1      -1.792 -16.266   7.525  1.00  0.00    -0.248 NA
ATOM     67  C   UNL     1      -3.002 -16.976   5.662  1.00  0.00     0.031 C 
ATOM     68  C   UNL     1      -3.904 -13.421   5.400  1.00  0.00     0.029 A 
ATOM     69  C   UNL     1      -3.244 -13.271   6.614  1.00  0.00     0.049 A 
ATOM     70  H   UNL     1      -2.593 -11.470   7.489  1.00  0.00     0.167 HD
ATOM     71  C   UNL     1      -2.900 -15.493   7.405  1.00  0.00     0.074 A 
ATOM     72  C   UNL     1      -3.735 -16.168   6.431  1.00  0.00     0.031 C 
ATOM     73  C   UNL     1      -2.707 -14.168   7.605  1.00  0.00     0.037 A 
BRANCH  60  74
ATOM     74  C   UNL     1      -1.463  -9.422   5.910  1.00  0.00     0.064 A 
ATOM     75  C   UNL     1      -1.727  -8.052   5.826  1.00  0.00     0.173 A 
ATOM     76  C   UNL     1      -0.374  -9.830   6.704  1.00  0.00     0.173 A 
ATOM     77  F   UNL     1      -2.786  -7.612   5.128  1.00  0.00    -0.203 F 
ATOM     78  C   UNL     1      -0.893  -7.125   6.448  1.00  0.00     0.198 A 
ATOM     79  C   UNL     1       0.491  -8.902   7.272  1.00  0.00     0.198 A 
ATOM     80  F   UNL     1      -0.141 -11.135   6.926  1.00  0.00    -0.203 F 
ATOM     81  F   UNL     1      -1.171  -5.816   6.365  1.00  0.00    -0.200 F 
ATOM     82  C   UNL     1       0.235  -7.548   7.136  1.00  0.00     0.200 A 
ATOM     83  F   UNL     1       1.573  -9.322   7.942  1.00  0.00    -0.200 F 
ATOM     84  F   UNL     1       1.069  -6.652   7.682  1.00  0.00    -0.200 F 
ENDBRANCH  60  74
BRANCH  61  85
ATOM     85  C   UNL     1      -0.519 -18.991   6.268  1.00  0.00     0.064 A 
ATOM     86  C   UNL     1      -1.440 -19.503   7.252  1.00  0.00     0.173 A 
ATOM     87  C   UNL     1       0.020 -19.985   5.442  1.00  0.00     0.173 A 
ATOM     88  F   UNL     1      -2.015 -18.704   8.161  1.00  0.00    -0.203 F 
ATOM     89  C   UNL     1      -1.874 -20.838   7.306  1.00  0.00     0.198 A 
ATOM     90  C   UNL     1      -0.391 -21.341   5.524  1.00  0.00     0.198 A 
ATOM     91  F   UNL     1       0.889 -19.652   4.480  1.00  0.00    -0.203 F 
ATOM     92  F   UNL     1      -2.838 -21.201   8.168  1.00  0.00    -0.200 F 
ATOM     93  C   UNL     1      -1.362 -21.757   6.424  1.00  0.00     0.200 A 
ATOM     94  F   UNL     1       0.113 -22.243   4.670  1.00  0.00    -0.200 F 
ATOM     95  F   UNL     1      -1.821 -23.018   6.420  1.00  0.00    -0.200 F 
ENDBRANCH  61  85
BRANCH  73  96
ATOM     96  C   UNL     1      -1.809 -13.789   8.773  1.00  0.00     0.064 A 
ATOM     97  C   UNL     1      -0.520 -14.303   9.063  1.00  0.00     0.173 A 
ATOM     98  C   UNL     1      -2.351 -12.923   9.734  1.00  0.00     0.173 A 
ATOM     99  F   UNL     1       0.178 -15.024   8.174  1.00  0.00    -0.203 F 
ATOM    100  C   UNL     1       0.111 -14.063  10.287  1.00  0.00     0.198 A 
ATOM    101  C   UNL     1      -1.689 -12.635  10.927  1.00  0.00     0.198 A 
ATOM    102  F   UNL     1      -3.538 -12.339   9.512  1.00  0.00    -0.203 F 
ATOM    103  F   UNL     1       1.291 -14.642  10.561  1.00  0.00    -0.200 F 
ATOM    104  C   UNL     1      -0.476 -13.232  11.220  1.00  0.00     0.200 A 
ATOM    105  F   UNL     1      -2.241 -11.779  11.798  1.00  0.00    -0.200 F 
ATOM    106  F   UNL     1       0.131 -12.990  12.390  1.00  0.00    -0.200 F 
ENDBRANCH  73  96
ENDBRANCH  47  48
ENDBRANCH  40  42
ENDBRANCH  39  40
ENDBRANCH  38  39
ENDBRANCH  37  38
ENDBRANCH   1  37
TORSDOF 20
