REMARK SMILES O=C(OCCOC(=O)[C@H]1C[C@](O)(c2ccc(F)cc2)[C@@H](c2ccc(F)cc2)O1)c1ccc(-c2c3nc(c(-c4c(F)c(F)c(F)c(F)c4F)c4ccc([nH]4)c(-c4c(F)c(F)c(F)c(F)c4F)c4nc(c(-c5c(F)c(F)c(F)c(F)c5F)c5ccc2[nH]5)C=C4)C=C3)cc1
REMARK SMILES IDX 4 1 3 2 2 3 1 4 29 5 30 6 91 7 31 8 90 9 32 10 33 11 34 12
REMARK SMILES IDX 84 13 35 14 89 15 83 16 85 17 36 18 88 19 82 20 81 21 37 23
REMARK SMILES IDX 69 24 49 25 68 26 50 27 53 28 67 29 86 30 51 31 52 32 66 34
REMARK SMILES IDX 87 35 54 36 38 37 39 38 47 39 40 40 41 41 45 42 48 43 42 44
REMARK SMILES IDX 43 45 46 46 44 47 70 48 71 49 79 50 72 51 73 52 77 53 80 54
REMARK SMILES IDX 74 55 75 56 78 57 76 58 55 59 56 60 64 61 57 62 58 63 62 64
REMARK SMILES IDX 65 65 59 66 60 67 63 68 61 69 5 70 6 71 7 72 8 73 9 74 10 75
REMARK SMILES IDX 28 76 11 77 20 78 13 79 14 80 19 81 15 82 18 83 16 84 17 85
REMARK SMILES IDX 12 86 21 88 22 89 27 90 23 91 26 92 24 93 25 94
REMARK H PARENT 85 22 53 33 12 87
REMARK Flexibility Score: inf
ROOT
ATOM      1  C   UNL     1      -1.706   0.016   2.375  1.00  0.00     0.275 C 
ENDROOT
BRANCH   1   2
ATOM      2  O   UNL     1      -1.302  -1.167   1.655  1.00  0.00    -0.458 OA
BRANCH   2   3
ATOM      3  C   UNL     1      -0.621  -1.167   0.477  1.00  0.00     0.338 C 
ATOM      4  O   UNL     1      -0.860  -1.993  -0.397  1.00  0.00    -0.246 OA
BRANCH   3   5
ATOM      5  C   UNL     1       0.615  -0.343   0.364  1.00  0.00     0.060 A 
ATOM      6  C   UNL     1       0.664   1.019   0.657  1.00  0.00     0.016 A 
ATOM      7  C   UNL     1       1.793  -0.992  -0.050  1.00  0.00     0.016 A 
ATOM      8  C   UNL     1       1.883   1.688   0.688  1.00  0.00     0.010 A 
ATOM      9  C   UNL     1       3.018  -0.312  -0.064  1.00  0.00     0.010 A 
ATOM     10  C   UNL     1       3.065   1.028   0.334  1.00  0.00    -0.014 A 
BRANCH  10  11
ATOM     11  C   UNL     1       4.286   1.853   0.249  1.00  0.00     0.031 A 
ATOM     12  C   UNL     1       4.509   2.619  -1.017  1.00  0.00     0.074 A 
ATOM     13  C   UNL     1       5.040   2.070   1.342  1.00  0.00     0.049 A 
ATOM     14  N   UNL     1       5.323   3.613  -1.248  1.00  0.00    -0.248 NA
ATOM     15  C   UNL     1       3.660   2.249  -2.163  1.00  0.00     0.031 C 
ATOM     16  C   UNL     1       4.844   1.431   2.642  1.00  0.00     0.029 A 
ATOM     17  N   UNL     1       6.094   2.924   1.547  1.00  0.00    -0.354 N 
ATOM     18  C   UNL     1       5.042   4.025  -2.542  1.00  0.00     0.074 A 
ATOM     19  C   UNL     1       4.018   3.149  -3.065  1.00  0.00     0.031 C 
ATOM     20  C   UNL     1       5.738   1.925   3.516  1.00  0.00     0.029 A 
ATOM     21  C   UNL     1       6.571   2.914   2.836  1.00  0.00     0.049 A 
ATOM     22  H   UNL     1       6.474   3.491   0.837  1.00  0.00     0.167 HD
ATOM     23  C   UNL     1       5.581   5.061  -3.220  1.00  0.00     0.037 A 
ATOM     24  C   UNL     1       7.560   3.637   3.398  1.00  0.00     0.037 A 
ATOM     25  C   UNL     1       6.641   5.883  -2.710  1.00  0.00     0.049 A 
ATOM     26  C   UNL     1       8.250   4.683   2.558  1.00  0.00     0.074 A 
ATOM     27  C   UNL     1       7.319   6.907  -3.343  1.00  0.00     0.029 A 
ATOM     28  N   UNL     1       7.189   5.756  -1.441  1.00  0.00    -0.354 N 
ATOM     29  N   UNL     1       7.968   5.083   1.341  1.00  0.00    -0.248 NA
ATOM     30  C   UNL     1       9.389   5.383   3.169  1.00  0.00     0.031 C 
ATOM     31  C   UNL     1       8.313   7.367  -2.475  1.00  0.00     0.029 A 
ATOM     32  C   UNL     1       8.221   6.664  -1.283  1.00  0.00     0.049 A 
ATOM     33  H   UNL     1       6.889   5.115  -0.756  1.00  0.00     0.167 HD
ATOM     34  C   UNL     1       8.877   6.090   1.047  1.00  0.00     0.074 A 
ATOM     35  C   UNL     1       9.705   6.258   2.224  1.00  0.00     0.031 C 
ATOM     36  C   UNL     1       9.022   6.808  -0.094  1.00  0.00     0.037 A 
BRANCH  23  37
ATOM     37  C   UNL     1       5.052   5.333  -4.592  1.00  0.00     0.064 A 
ATOM     38  C   UNL     1       5.801   4.994  -5.726  1.00  0.00     0.173 A 
ATOM     39  C   UNL     1       3.809   5.957  -4.781  1.00  0.00     0.173 A 
ATOM     40  F   UNL     1       6.989   4.385  -5.593  1.00  0.00    -0.203 F 
ATOM     41  C   UNL     1       5.333   5.284  -7.004  1.00  0.00     0.198 A 
ATOM     42  C   UNL     1       3.336   6.229  -6.061  1.00  0.00     0.198 A 
ATOM     43  F   UNL     1       3.045   6.275  -3.725  1.00  0.00    -0.203 F 
ATOM     44  F   UNL     1       6.073   4.966  -8.074  1.00  0.00    -0.200 F 
ATOM     45  C   UNL     1       4.101   5.900  -7.171  1.00  0.00     0.200 A 
ATOM     46  F   UNL     1       2.135   6.802  -6.223  1.00  0.00    -0.200 F 
ATOM     47  F   UNL     1       3.648   6.170  -8.402  1.00  0.00    -0.200 F 
ENDBRANCH  23  37
BRANCH  24  48
ATOM     48  C   UNL     1       7.960   3.408   4.815  1.00  0.00     0.064 A 
ATOM     49  C   UNL     1       8.544   2.196   5.214  1.00  0.00     0.173 A 
ATOM     50  C   UNL     1       7.808   4.404   5.791  1.00  0.00     0.173 A 
ATOM     51  F   UNL     1       8.718   1.208   4.324  1.00  0.00    -0.203 F 
ATOM     52  C   UNL     1       8.953   1.987   6.530  1.00  0.00     0.198 A 
ATOM     53  C   UNL     1       8.243   4.205   7.101  1.00  0.00     0.198 A 
ATOM     54  F   UNL     1       7.276   5.590   5.460  1.00  0.00    -0.203 F 
ATOM     55  F   UNL     1       9.491   0.812   6.884  1.00  0.00    -0.200 F 
ATOM     56  C   UNL     1       8.812   2.995   7.471  1.00  0.00     0.200 A 
ATOM     57  F   UNL     1       8.132   5.192   8.000  1.00  0.00    -0.200 F 
ATOM     58  F   UNL     1       9.233   2.805   8.729  1.00  0.00    -0.200 F 
ENDBRANCH  24  48
BRANCH  36  59
ATOM     59  C   UNL     1      10.109   7.840  -0.127  1.00  0.00     0.064 A 
ATOM     60  C   UNL     1       9.792   9.206  -0.156  1.00  0.00     0.173 A 
ATOM     61  C   UNL     1      11.459   7.473  -0.220  1.00  0.00     0.173 A 
ATOM     62  F   UNL     1       8.513   9.606  -0.082  1.00  0.00    -0.203 F 
ATOM     63  C   UNL     1      10.788  10.168  -0.294  1.00  0.00     0.198 A 
ATOM     64  C   UNL     1      12.455   8.438  -0.327  1.00  0.00     0.198 A 
ATOM     65  F   UNL     1      11.810   6.178  -0.184  1.00  0.00    -0.203 F 
ATOM     66  F   UNL     1      10.460  11.465  -0.360  1.00  0.00    -0.200 F 
ATOM     67  C   UNL     1      12.118   9.783  -0.375  1.00  0.00     0.200 A 
ATOM     68  F   UNL     1      13.741   8.067  -0.381  1.00  0.00    -0.200 F 
ATOM     69  F   UNL     1      13.078  10.710  -0.499  1.00  0.00    -0.200 F 
ENDBRANCH  36  59
ENDBRANCH  10  11
ENDBRANCH   3   5
ENDBRANCH   2   3
ENDBRANCH   1   2
BRANCH   1  70
ATOM     70  C   UNL     1      -0.806   0.361   3.569  1.00  0.00     0.274 C 
BRANCH  70  71
ATOM     71  O   UNL     1       0.551  -0.058   3.355  1.00  0.00    -0.460 OA
BRANCH  71  72
ATOM     72  C   UNL     1       0.850  -1.285   3.869  1.00  0.00     0.335 C 
ATOM     73  O   UNL     1       0.145  -1.854   4.691  1.00  0.00    -0.249 OA
BRANCH  72  74
ATOM     74  C   UNL     1       2.152  -1.843   3.268  1.00  0.00     0.232 C 
ATOM     75  C   UNL     1       3.193  -2.168   4.324  1.00  0.00     0.087 C 
ATOM     76  O   UNL     1       1.945  -3.009   2.472  1.00  0.00    -0.355 OA
ATOM     77  C   UNL     1       3.462  -3.675   4.210  1.00  0.00     0.123 C 
ATOM     78  C   UNL     1       2.361  -4.168   3.222  1.00  0.00     0.186 C 
BRANCH  77  79
ATOM     79  C   UNL     1       4.928  -3.953   3.812  1.00  0.00    -0.013 A 
ATOM     80  C   UNL     1       5.957  -3.559   4.699  1.00  0.00     0.010 A 
ATOM     81  C   UNL     1       5.319  -4.644   2.648  1.00  0.00     0.010 A 
ATOM     82  C   UNL     1       7.298  -3.872   4.453  1.00  0.00     0.039 A 
ATOM     83  C   UNL     1       6.660  -4.971   2.411  1.00  0.00     0.039 A 
ATOM     84  C   UNL     1       7.636  -4.590   3.318  1.00  0.00     0.123 A 
ATOM     85  F   UNL     1       8.912  -4.928   3.097  1.00  0.00    -0.207 F 
ENDBRANCH  77  79
BRANCH  77  86
ATOM     86  O   UNL     1       3.334  -4.241   5.521  1.00  0.00    -0.382 OA
ATOM     87  H   UNL     1       2.430  -4.105   5.844  1.00  0.00     0.212 HD
ENDBRANCH  77  86
BRANCH  78  88
ATOM     88  C   UNL     1       1.105  -4.883   3.693  1.00  0.00    -0.016 A 
ATOM     89  C   UNL     1       0.460  -4.602   4.904  1.00  0.00     0.009 A 
ATOM     90  C   UNL     1       0.483  -5.790   2.809  1.00  0.00     0.009 A 
ATOM     91  C   UNL     1      -0.808  -5.120   5.179  1.00  0.00     0.039 A 
ATOM     92  C   UNL     1      -0.764  -6.343   3.103  1.00  0.00     0.039 A 
ATOM     93  C   UNL     1      -1.412  -5.978   4.273  1.00  0.00     0.123 A 
ATOM     94  F   UNL     1      -2.641  -6.447   4.524  1.00  0.00    -0.207 F 
ENDBRANCH  78  88
ENDBRANCH  72  74
ENDBRANCH  71  72
ENDBRANCH  70  71
ENDBRANCH   1  70
TORSDOF 14
