REMARK SMILES Cc1nc(NC2CCCCCC2)sc1C(=O)OCCOC(=O)c1ccc(-c2c3nc(c(-c4c(F)c(F)c(F)c(F)c4F)c4ccc([nH]4)c(-c4c(F)c(F)c(F)c(F)c4F)c4nc(c(-c5c(F)c(F)c(F)c(F)c5F)c5ccc2[nH]5)C=C4)C=C3)cc1
REMARK SMILES IDX 17 1 15 2 16 3 14 4 1 5 2 6 3 7 4 8 13 9 5 10 6 12 7 13 8 14
REMARK SMILES IDX 9 15 12 17 11 18 10 19 18 21 19 22 20 23 21 24 22 25 23 26
REMARK SMILES IDX 24 27 85 28 25 29 84 30 26 31 27 32 28 33 78 34 29 35 83 36
REMARK SMILES IDX 77 37 79 38 30 39 82 40 76 41 75 42 31 44 63 45 43 46 62 47
REMARK SMILES IDX 44 48 47 49 61 50 80 51 45 52 46 53 60 55 81 56 48 57 32 58
REMARK SMILES IDX 33 59 41 60 34 61 35 62 39 63 42 64 36 65 37 66 40 67 38 68
REMARK SMILES IDX 64 69 65 70 73 71 66 72 67 73 71 74 74 75 68 76 69 77 72 78
REMARK SMILES IDX 70 79 49 80 50 81 58 82 51 83 52 84 56 85 59 86 53 87 54 88
REMARK SMILES IDX 57 89 55 90
REMARK H PARENT 5 11 79 43 47 54
REMARK Flexibility Score: 90.00
ROOT
ATOM      1  O   UNL     1      -1.544  -3.017   0.295  1.00  0.00    -0.458 OA
ENDROOT
BRANCH   1   2
ATOM      2  C   UNL     1      -0.552  -2.440   1.035  1.00  0.00     0.350 C 
ATOM      3  O   UNL     1       0.273  -3.074   1.672  1.00  0.00    -0.245 OA
BRANCH   2   4
ATOM      4  C   UNL     1      -0.577  -0.999   0.882  1.00  0.00     0.137 A 
ATOM      5  C   UNL     1      -2.945  -0.346   0.015  1.00  0.00     0.069 C 
ATOM      6  C   UNL     1      -1.532  -0.111   0.415  1.00  0.00     0.065 A 
ATOM      7  N   UNL     1      -1.085   1.197   0.296  1.00  0.00    -0.225 NA
ATOM      8  C   UNL     1       0.173   1.310   0.629  1.00  0.00     0.183 A 
ATOM      9  S   UNL     1       0.828  -0.104   1.343  1.00  0.00    -0.090 S 
BRANCH   8  10
ATOM     10  N   UNL     1       0.940   2.407   0.465  1.00  0.00    -0.359 N 
ATOM     11  H   UNL     1       1.894   2.342   0.701  1.00  0.00     0.163 HD
BRANCH  10  12
ATOM     12  C   UNL     1       0.444   3.686  -0.040  1.00  0.00     0.081 C 
BRANCH  12  13
ATOM     13  C   UNL     1      -0.078   3.599  -1.486  1.00  0.00     0.025 C 
BRANCH  13  14
ATOM     14  C   UNL     1      -1.591   3.550  -1.705  1.00  0.00     0.002 C 
BRANCH  14  15
ATOM     15  C   UNL     1      -2.290   4.900  -1.579  1.00  0.00     0.000 CG0
ATOM     16  G   UNL     1      -2.427   5.417  -0.153  1.00  0.00     0.000 G0
ENDBRANCH  14  15
ENDBRANCH  13  14
ENDBRANCH  12  13
BRANCH  12  17
ATOM     17  C   UNL     1      -0.444   4.352   1.014  1.00  0.00     0.025 C 
BRANCH  17  18
ATOM     18  C   UNL     1      -1.102   5.651   0.564  1.00  0.00     0.002 C 
BRANCH  18  19
ATOM     19  C   UNL     1      -2.427   5.417  -0.153  1.00  0.00     0.000 CG0
ATOM     20  G   UNL     1      -2.290   4.900  -1.579  1.00  0.00     0.000 G0
ENDBRANCH  18  19
ENDBRANCH  17  18
ENDBRANCH  12  17
ENDBRANCH  10  12
ENDBRANCH   8  10
ENDBRANCH   2   4
ENDBRANCH   1   2
BRANCH   1  21
ATOM     21  C   UNL     1      -1.585  -4.456   0.266  1.00  0.00     0.275 C 
BRANCH  21  22
ATOM     22  C   UNL     1      -1.058  -5.005  -1.064  1.00  0.00     0.275 C 
BRANCH  22  23
ATOM     23  O   UNL     1       0.366  -4.822  -1.183  1.00  0.00    -0.458 OA
BRANCH  23  24
ATOM     24  C   UNL     1       0.747  -3.729  -1.884  1.00  0.00     0.338 C 
ATOM     25  O   UNL     1       0.025  -2.920  -2.441  1.00  0.00    -0.246 OA
BRANCH  24  26
ATOM     26  C   UNL     1       2.200  -3.536  -1.746  1.00  0.00     0.060 A 
ATOM     27  C   UNL     1       2.625  -2.385  -1.084  1.00  0.00     0.016 A 
ATOM     28  C   UNL     1       3.131  -4.410  -2.307  1.00  0.00     0.016 A 
ATOM     29  C   UNL     1       3.980  -2.097  -0.964  1.00  0.00     0.010 A 
ATOM     30  C   UNL     1       4.498  -4.119  -2.193  1.00  0.00     0.010 A 
ATOM     31  C   UNL     1       4.930  -2.957  -1.525  1.00  0.00    -0.014 A 
BRANCH  31  32
ATOM     32  C   UNL     1       6.367  -2.590  -1.459  1.00  0.00     0.031 A 
ATOM     33  C   UNL     1       7.073  -2.101  -2.691  1.00  0.00     0.074 A 
ATOM     34  C   UNL     1       7.024  -2.642  -0.285  1.00  0.00     0.049 A 
ATOM     35  N   UNL     1       8.335  -1.797  -2.860  1.00  0.00    -0.248 NA
ATOM     36  C   UNL     1       6.245  -1.929  -3.895  1.00  0.00     0.031 C 
ATOM     37  C   UNL     1       6.435  -3.040   0.993  1.00  0.00     0.029 A 
ATOM     38  N   UNL     1       8.330  -2.350   0.025  1.00  0.00    -0.354 N 
ATOM     39  C   UNL     1       8.459  -1.422  -4.191  1.00  0.00     0.074 A 
ATOM     40  C   UNL     1       7.146  -1.547  -4.789  1.00  0.00     0.031 C 
ATOM     41  C   UNL     1       7.373  -2.962   1.950  1.00  0.00     0.029 A 
ATOM     42  C   UNL     1       8.640  -2.559   1.346  1.00  0.00     0.049 A 
ATOM     43  H   UNL     1       8.981  -2.023  -0.638  1.00  0.00     0.167 HD
ATOM     44  C   UNL     1       9.567  -1.007  -4.850  1.00  0.00     0.037 A 
ATOM     45  C   UNL     1       9.820  -2.464   1.989  1.00  0.00     0.037 A 
ATOM     46  C   UNL     1      10.866  -0.861  -4.247  1.00  0.00     0.049 A 
ATOM     47  C   UNL     1      11.047  -2.054   1.221  1.00  0.00     0.074 A 
ATOM     48  C   UNL     1      12.051  -0.449  -4.833  1.00  0.00     0.029 A 
ATOM     49  N   UNL     1      11.150  -1.118  -2.913  1.00  0.00    -0.354 N 
ATOM     50  N   UNL     1      11.162  -1.728  -0.044  1.00  0.00    -0.248 NA
ATOM     51  C   UNL     1      12.312  -2.007   1.968  1.00  0.00     0.031 C 
ATOM     52  C   UNL     1      13.059  -0.493  -3.864  1.00  0.00     0.029 A 
ATOM     53  C   UNL     1      12.494  -0.888  -2.662  1.00  0.00     0.049 A 
ATOM     54  H   UNL     1      10.494  -1.418  -2.244  1.00  0.00     0.167 HD
ATOM     55  C   UNL     1      12.501  -1.422  -0.240  1.00  0.00     0.074 A 
ATOM     56  C   UNL     1      13.159  -1.582   1.040  1.00  0.00     0.031 C 
ATOM     57  C   UNL     1      13.131  -1.048  -1.381  1.00  0.00     0.037 A 
BRANCH  44  58
ATOM     58  C   UNL     1       9.431  -0.711  -6.315  1.00  0.00     0.064 A 
ATOM     59  C   UNL     1       8.772   0.437  -6.779  1.00  0.00     0.173 A 
ATOM     60  C   UNL     1       9.999  -1.572  -7.266  1.00  0.00     0.173 A 
ATOM     61  F   UNL     1       8.200   1.284  -5.911  1.00  0.00    -0.203 F 
ATOM     62  C   UNL     1       8.668   0.699  -8.143  1.00  0.00     0.198 A 
ATOM     63  C   UNL     1       9.916  -1.293  -8.627  1.00  0.00     0.198 A 
ATOM     64  F   UNL     1      10.645  -2.681  -6.873  1.00  0.00    -0.203 F 
ATOM     65  F   UNL     1       7.997   1.780  -8.567  1.00  0.00    -0.200 F 
ATOM     66  C   UNL     1       9.245  -0.162  -9.065  1.00  0.00     0.200 A 
ATOM     67  F   UNL     1      10.484  -2.120  -9.515  1.00  0.00    -0.200 F 
ATOM     68  F   UNL     1       9.149   0.096 -10.377  1.00  0.00    -0.200 F 
ENDBRANCH  44  58
BRANCH  45  69
ATOM     69  C   UNL     1       9.903  -2.794   3.436  1.00  0.00     0.064 A 
ATOM     70  C   UNL     1      10.168  -1.805   4.392  1.00  0.00     0.173 A 
ATOM     71  C   UNL     1       9.729  -4.111   3.890  1.00  0.00     0.173 A 
ATOM     72  F   UNL     1      10.371  -0.537   4.005  1.00  0.00    -0.203 F 
ATOM     73  C   UNL     1      10.268  -2.122   5.746  1.00  0.00     0.198 A 
ATOM     74  C   UNL     1       9.800  -4.421   5.245  1.00  0.00     0.198 A 
ATOM     75  F   UNL     1       9.479  -5.095   3.014  1.00  0.00    -0.203 F 
ATOM     76  F   UNL     1      10.567  -1.165   6.635  1.00  0.00    -0.200 F 
ATOM     77  C   UNL     1      10.077  -3.428   6.172  1.00  0.00     0.200 A 
ATOM     78  F   UNL     1       9.605  -5.682   5.653  1.00  0.00    -0.200 F 
ATOM     79  F   UNL     1      10.169  -3.731   7.474  1.00  0.00    -0.200 F 
ENDBRANCH  45  69
BRANCH  57  80
ATOM     80  C   UNL     1      14.601  -0.757  -1.289  1.00  0.00     0.064 A 
ATOM     81  C   UNL     1      15.544  -1.785  -1.146  1.00  0.00     0.173 A 
ATOM     82  C   UNL     1      15.072   0.561  -1.382  1.00  0.00     0.173 A 
ATOM     83  F   UNL     1      15.142  -3.060  -1.036  1.00  0.00    -0.203 F 
ATOM     84  C   UNL     1      16.905  -1.501  -1.076  1.00  0.00     0.198 A 
ATOM     85  C   UNL     1      16.435   0.839  -1.339  1.00  0.00     0.198 A 
ATOM     86  F   UNL     1      14.210   1.579  -1.526  1.00  0.00    -0.203 F 
ATOM     87  F   UNL     1      17.787  -2.494  -0.895  1.00  0.00    -0.200 F 
ATOM     88  C   UNL     1      17.350  -0.191  -1.179  1.00  0.00     0.200 A 
ATOM     89  F   UNL     1      16.864   2.103  -1.449  1.00  0.00    -0.200 F 
ATOM     90  F   UNL     1      18.661   0.079  -1.117  1.00  0.00    -0.200 F 
ENDBRANCH  57  80
ENDBRANCH  31  32
ENDBRANCH  24  26
ENDBRANCH  23  24
ENDBRANCH  22  23
ENDBRANCH  21  22
ENDBRANCH   1  21
TORSDOF 13
