REMARK SMILES Cc1cccc([C@@H](CC(=O)OCCOC(=O)c2ccc(-c3c4nc(c(-c5c(F)c(F)c(F)c(F)c5F)c5ccc([nH]5)c(-c5c(F)c(F)c(F)c(F)c5F)c5nc(c(-c6c(F)c(F)c(F)c(F)c6F)c6ccc3[nH]6)C=C5)C=C4)cc2)NC(=O)OC(C)(C)C)c1
REMARK SMILES IDX 12 1 11 2 9 3 10 4 8 5 7 6 6 7 1 8 2 9 3 10 88 11 4 12 5 13
REMARK SMILES IDX 80 14 81 15 82 17 83 18 84 19 85 20 86 21 87 22 13 23 14 24
REMARK SMILES IDX 15 25 16 26 17 27 18 28 79 29 19 30 78 31 20 32 21 33 22 34
REMARK SMILES IDX 72 35 23 36 77 37 71 38 73 39 24 40 76 41 70 42 69 43 25 45
REMARK SMILES IDX 57 46 37 47 56 48 38 49 41 50 55 51 74 52 39 53 40 54 54 56
REMARK SMILES IDX 75 57 42 58 26 59 27 60 35 61 28 62 29 63 33 64 36 65 30 66
REMARK SMILES IDX 31 67 34 68 32 69 58 70 59 71 67 72 60 73 61 74 65 75 68 76
REMARK SMILES IDX 62 77 63 78 66 79 64 80 43 81 44 82 52 83 45 84 46 85 50 86
REMARK SMILES IDX 53 87 47 88 48 89 51 90 49 91
REMARK H PARENT 80 16 73 44 41 55
REMARK Flexibility Score: inf
ROOT
ATOM      1  C   UNL     1      -4.099  -1.546  -0.056  1.00  0.00     0.274 C 
ENDROOT
BRANCH   1   2
ATOM      2  O   UNL     1      -2.977  -0.777  -0.542  1.00  0.00    -0.462 OA
BRANCH   2   3
ATOM      3  C   UNL     1      -2.578   0.210   0.271  1.00  0.00     0.308 C 
ATOM      4  O   UNL     1      -3.010   0.293   1.414  1.00  0.00    -0.252 OA
BRANCH   3   5
ATOM      5  C   UNL     1      -1.631   1.228  -0.341  1.00  0.00     0.152 C 
BRANCH   5   6
ATOM      6  C   UNL     1      -0.908   1.986   0.813  1.00  0.00     0.127 C 
BRANCH   6   7
ATOM      7  C   UNL     1       0.129   0.963   1.304  1.00  0.00    -0.025 A 
ATOM      8  C   UNL     1       3.308  -0.282  -0.352  1.00  0.00     0.044 C 
ATOM      9  C   UNL     1       2.006  -0.255   0.382  1.00  0.00    -0.051 A 
ATOM     10  C   UNL     1       1.391  -1.456   0.758  1.00  0.00     0.003 A 
ATOM     11  C   UNL     1       1.363   0.957   0.643  1.00  0.00     0.009 A 
ATOM     12  C   UNL     1       0.262  -1.436   1.566  1.00  0.00     0.001 A 
ATOM     13  C   UNL     1      -0.294  -0.218   1.939  1.00  0.00     0.006 A 
ENDBRANCH   6   7
BRANCH   6  14
ATOM     14  N   UNL     1      -1.867   2.414   1.817  1.00  0.00    -0.314 N 
ATOM     15  C   UNL     1      -2.078   3.571   2.460  1.00  0.00     0.408 C 
ATOM     16  H   UNL     1      -2.496   1.704   2.080  1.00  0.00     0.167 HD
ATOM     17  O   UNL     1      -2.970   3.641   3.306  1.00  0.00    -0.225 OA
BRANCH  15  18
ATOM     18  O   UNL     1      -1.216   4.551   2.137  1.00  0.00    -0.444 OA
BRANCH  18  19
ATOM     19  C   UNL     1      -1.172   5.706   3.011  1.00  0.00     0.106 C 
ATOM     20  C   UNL     1      -2.480   6.513   3.000  1.00  0.00     0.056 C 
ATOM     21  C   UNL     1      -0.777   5.272   4.432  1.00  0.00     0.056 C 
ATOM     22  C   UNL     1      -0.056   6.586   2.438  1.00  0.00     0.056 C 
ENDBRANCH  18  19
ENDBRANCH  15  18
ENDBRANCH   6  14
ENDBRANCH   5   6
ENDBRANCH   3   5
ENDBRANCH   2   3
ENDBRANCH   1   2
BRANCH   1  23
ATOM     23  C   UNL     1      -5.151  -0.963   0.976  1.00  0.00     0.275 C 
BRANCH  23  24
ATOM     24  O   UNL     1      -5.578   0.467   1.198  1.00  0.00    -0.458 OA
BRANCH  24  25
ATOM     25  C   UNL     1      -5.394   1.717   0.672  1.00  0.00     0.338 C 
ATOM     26  O   UNL     1      -5.508   2.742   1.326  1.00  0.00    -0.246 OA
BRANCH  25  27
ATOM     27  C   UNL     1      -5.079   1.806  -0.756  1.00  0.00     0.060 A 
ATOM     28  C   UNL     1      -4.476   2.870  -1.457  1.00  0.00     0.016 A 
ATOM     29  C   UNL     1      -5.343   0.653  -1.417  1.00  0.00     0.016 A 
ATOM     30  C   UNL     1      -4.084   2.659  -2.794  1.00  0.00     0.010 A 
ATOM     31  C   UNL     1      -4.473   0.331  -2.398  1.00  0.00     0.010 A 
ATOM     32  C   UNL     1      -4.086   1.343  -3.246  1.00  0.00    -0.014 A 
BRANCH  32  33
ATOM     33  C   UNL     1      -4.065   0.763  -4.584  1.00  0.00     0.031 A 
ATOM     34  C   UNL     1      -2.789   0.537  -5.257  1.00  0.00     0.074 A 
ATOM     35  C   UNL     1      -5.236   0.122  -4.882  1.00  0.00     0.049 A 
ATOM     36  N   UNL     1      -2.532   0.870  -6.471  1.00  0.00    -0.248 NA
ATOM     37  C   UNL     1      -1.659  -0.118  -4.584  1.00  0.00     0.031 C 
ATOM     38  C   UNL     1      -5.657  -0.834  -5.884  1.00  0.00     0.029 A 
ATOM     39  N   UNL     1      -6.429   0.267  -4.128  1.00  0.00    -0.354 N 
ATOM     40  C   UNL     1      -1.472   0.065  -6.837  1.00  0.00     0.074 A 
ATOM     41  C   UNL     1      -0.811  -0.308  -5.606  1.00  0.00     0.031 C 
ATOM     42  C   UNL     1      -7.011  -0.791  -5.961  1.00  0.00     0.029 A 
ATOM     43  C   UNL     1      -7.501   0.196  -4.997  1.00  0.00     0.049 A 
ATOM     44  H   UNL     1      -6.484   0.397  -3.154  1.00  0.00     0.167 HD
ATOM     45  C   UNL     1      -1.506  -0.585  -8.038  1.00  0.00     0.037 A 
ATOM     46  C   UNL     1      -8.129   1.390  -5.187  1.00  0.00     0.037 A 
ATOM     47  C   UNL     1      -2.856  -0.500  -8.607  1.00  0.00     0.049 A 
ATOM     48  C   UNL     1      -7.710   1.934  -6.525  1.00  0.00     0.074 A 
ATOM     49  C   UNL     1      -3.876  -1.431  -8.725  1.00  0.00     0.029 A 
ATOM     50  N   UNL     1      -3.451   0.741  -8.803  1.00  0.00    -0.354 N 
ATOM     51  N   UNL     1      -6.612   1.584  -7.140  1.00  0.00    -0.248 NA
ATOM     52  C   UNL     1      -8.537   2.828  -7.313  1.00  0.00     0.031 C 
ATOM     53  C   UNL     1      -5.085  -0.737  -8.997  1.00  0.00     0.029 A 
ATOM     54  C   UNL     1      -4.811   0.620  -9.004  1.00  0.00     0.049 A 
ATOM     55  H   UNL     1      -2.965   1.597  -8.798  1.00  0.00     0.167 HD
ATOM     56  C   UNL     1      -6.611   2.091  -8.406  1.00  0.00     0.074 A 
ATOM     57  C   UNL     1      -7.838   2.869  -8.461  1.00  0.00     0.031 C 
ATOM     58  C   UNL     1      -5.617   1.799  -9.300  1.00  0.00     0.037 A 
BRANCH  45  59
ATOM     59  C   UNL     1      -0.452  -1.546  -8.544  1.00  0.00     0.064 A 
ATOM     60  C   UNL     1      -0.749  -2.538  -9.505  1.00  0.00     0.173 A 
ATOM     61  C   UNL     1       0.912  -1.451  -8.197  1.00  0.00     0.173 A 
ATOM     62  F   UNL     1      -1.987  -2.714  -9.980  1.00  0.00    -0.203 F 
ATOM     63  C   UNL     1       0.221  -3.386 -10.044  1.00  0.00     0.198 A 
ATOM     64  C   UNL     1       1.882  -2.317  -8.723  1.00  0.00     0.198 A 
ATOM     65  F   UNL     1       1.350  -0.489  -7.372  1.00  0.00    -0.203 F 
ATOM     66  F   UNL     1      -0.133  -4.298 -10.962  1.00  0.00    -0.200 F 
ATOM     67  C   UNL     1       1.536  -3.281  -9.650  1.00  0.00     0.200 A 
ATOM     68  F   UNL     1       3.162  -2.196  -8.341  1.00  0.00    -0.200 F 
ATOM     69  F   UNL     1       2.467  -4.089 -10.176  1.00  0.00    -0.200 F 
ENDBRANCH  45  59
BRANCH  46  70
ATOM     70  C   UNL     1      -8.317   2.169  -3.899  1.00  0.00     0.064 A 
ATOM     71  C   UNL     1      -8.961   1.518  -2.815  1.00  0.00     0.173 A 
ATOM     72  C   UNL     1      -7.663   3.370  -3.588  1.00  0.00     0.173 A 
ATOM     73  F   UNL     1      -9.586   0.345  -3.015  1.00  0.00    -0.203 F 
ATOM     74  C   UNL     1      -8.889   1.991  -1.501  1.00  0.00     0.198 A 
ATOM     75  C   UNL     1      -7.621   3.863  -2.270  1.00  0.00     0.198 A 
ATOM     76  F   UNL     1      -6.993   4.042  -4.534  1.00  0.00    -0.203 F 
ATOM     77  F   UNL     1      -9.410   1.266  -0.499  1.00  0.00    -0.200 F 
ATOM     78  C   UNL     1      -8.216   3.164  -1.228  1.00  0.00     0.200 A 
ATOM     79  F   UNL     1      -6.931   4.981  -1.995  1.00  0.00    -0.200 F 
ATOM     80  F   UNL     1      -8.100   3.592   0.037  1.00  0.00    -0.200 F 
ENDBRANCH  46  70
BRANCH  58  81
ATOM     81  C   UNL     1      -5.338   2.517 -10.601  1.00  0.00     0.064 A 
ATOM     82  C   UNL     1      -5.846   3.781 -10.926  1.00  0.00     0.173 A 
ATOM     83  C   UNL     1      -4.400   1.991 -11.531  1.00  0.00     0.173 A 
ATOM     84  F   UNL     1      -6.611   4.477 -10.078  1.00  0.00    -0.203 F 
ATOM     85  C   UNL     1      -5.525   4.422 -12.123  1.00  0.00     0.198 A 
ATOM     86  C   UNL     1      -4.004   2.680 -12.671  1.00  0.00     0.198 A 
ATOM     87  F   UNL     1      -3.805   0.802 -11.360  1.00  0.00    -0.203 F 
ATOM     88  F   UNL     1      -6.108   5.591 -12.418  1.00  0.00    -0.200 F 
ATOM     89  C   UNL     1      -4.591   3.882 -12.985  1.00  0.00     0.200 A 
ATOM     90  F   UNL     1      -3.037   2.173 -13.449  1.00  0.00    -0.200 F 
ATOM     91  F   UNL     1      -4.243   4.531 -14.102  1.00  0.00    -0.200 F 
ENDBRANCH  58  81
ENDBRANCH  32  33
ENDBRANCH  25  27
ENDBRANCH  24  25
ENDBRANCH  23  24
ENDBRANCH   1  23
TORSDOF 16
