REMARK SMILES Cc1cccc(S(=O)(=O)Nc2cnc(N(C)Cc3ccccc3)c(C(=O)OCCOC(=O)c3ccc(-c4c5nc(c(-c6c(F)c(F)c(F)c(F)c6F)c6ccc([nH]6)c(-c6c(F)c(F)c(F)c(F)c6F)c6nc(c(-c7c(F)c(F)c(F)c(F)c7F)c7ccc4[nH]7)C=C6)C=C5)cc3)c2)c1
REMARK SMILES IDX 28 1 27 2 25 3 26 4 24 5 11 6 12 7 96 8 13 9 14 10 10 11
REMARK SMILES IDX 7 13 8 14 9 15 6 16 1 17 2 18 3 19 97 20 4 21 5 22 15 23
REMARK SMILES IDX 16 24 17 25 18 26 19 27 23 28 20 29 22 30 21 31 29 32 30 33
REMARK SMILES IDX 31 34 32 35 33 36 34 37 95 38 35 39 94 40 36 41 37 42 38 43
REMARK SMILES IDX 88 44 39 45 93 46 87 47 89 48 40 49 92 50 86 51 85 52 41 54
REMARK SMILES IDX 73 55 53 56 72 57 54 58 57 59 71 60 90 61 55 62 56 63 70 65
REMARK SMILES IDX 91 66 58 67 42 68 43 69 51 70 44 71 45 72 49 73 52 74 46 75
REMARK SMILES IDX 47 76 50 77 48 78 74 79 75 80 83 81 76 82 77 83 81 84 84 85
REMARK SMILES IDX 78 86 79 87 82 88 80 89 59 90 60 91 68 92 61 93 62 94 66 95
REMARK SMILES IDX 69 96 63 97 64 98 67 99 65 100
REMARK H PARENT 10 12 89 53 57 64
REMARK Flexibility Score: inf
ROOT
ATOM      1  C   UNL     1       2.076   2.125  -4.952  1.00  0.00     0.275 C 
ENDROOT
BRANCH   1   2
ATOM      2  O   UNL     1       2.366   3.200  -3.965  1.00  0.00    -0.458 OA
BRANCH   2   3
ATOM      3  C   UNL     1       1.643   3.055  -2.797  1.00  0.00     0.342 C 
ATOM      4  O   UNL     1       0.721   2.225  -2.788  1.00  0.00    -0.246 OA
BRANCH   3   5
ATOM      5  C   UNL     1       1.855   3.875  -1.431  1.00  0.00     0.104 A 
ATOM      6  C   UNL     1       0.066   4.096   0.151  1.00  0.00     0.068 A 
ATOM      7  C   UNL     1       0.953   4.668   1.017  1.00  0.00     0.140 A 
ATOM      8  C   UNL     1       0.475   4.083  -1.139  1.00  0.00     0.048 A 
ATOM      9  N   UNL     1       2.274   4.739   0.765  1.00  0.00    -0.236 NA
ATOM     10  C   UNL     1       2.832   4.075  -0.288  1.00  0.00     0.143 A 
BRANCH   6  11
ATOM     11  N   UNL     1      -1.203   3.662   0.602  1.00  0.00    -0.278 N 
ATOM     12  H   UNL     1      -1.493   4.005   1.478  1.00  0.00     0.180 HD
BRANCH  11  13
ATOM     13  S   UNL     1      -2.277   2.626  -0.185  1.00  0.00     0.261 S 
ATOM     14  O   UNL     1      -2.701   3.329  -1.378  1.00  0.00    -0.201 OA
ATOM     15  O   UNL     1      -3.248   2.414   0.880  1.00  0.00    -0.201 OA
BRANCH  13  16
ATOM     16  C   UNL     1      -1.867   0.944  -0.710  1.00  0.00     0.088 A 
ATOM     17  C   UNL     1       0.490  -2.101  -1.488  1.00  0.00     0.044 C 
ATOM     18  C   UNL     1      -0.641  -1.111  -1.333  1.00  0.00    -0.050 A 
ATOM     19  C   UNL     1      -1.844  -1.761  -1.583  1.00  0.00     0.003 A 
ATOM     20  C   UNL     1      -0.647   0.284  -0.940  1.00  0.00     0.025 A 
ATOM     21  C   UNL     1      -3.038  -1.116  -1.386  1.00  0.00     0.002 A 
ATOM     22  C   UNL     1      -3.044   0.203  -0.946  1.00  0.00     0.022 A 
ENDBRANCH  13  16
ENDBRANCH  11  13
ENDBRANCH   6  11
BRANCH  10  23
ATOM     23  N   UNL     1       4.113   3.586   0.164  1.00  0.00    -0.355 N 
ATOM     24  C   UNL     1       4.785   4.641   1.014  1.00  0.00     0.145 C 
BRANCH  23  25
ATOM     25  C   UNL     1       5.263   2.351   0.061  1.00  0.00     0.153 C 
BRANCH  25  26
ATOM     26  C   UNL     1       5.091   0.705   0.327  1.00  0.00    -0.029 A 
ATOM     27  C   UNL     1       5.091  -0.453  -1.130  1.00  0.00     0.005 A 
ATOM     28  C   UNL     1       4.557   0.065   1.946  1.00  0.00     0.005 A 
ATOM     29  C   UNL     1       4.254  -2.130  -1.060  1.00  0.00     0.000 A 
ATOM     30  C   UNL     1       3.892  -1.645   2.134  1.00  0.00     0.000 A 
ATOM     31  C   UNL     1       3.612  -2.725   0.601  1.00  0.00     0.000 A 
ENDBRANCH  25  26
ENDBRANCH  23  25
ENDBRANCH  10  23
ENDBRANCH   3   5
ENDBRANCH   2   3
ENDBRANCH   1   2
BRANCH   1  32
ATOM     32  C   UNL     1       3.251   1.619  -5.845  1.00  0.00     0.275 C 
BRANCH  32  33
ATOM     33  O   UNL     1       4.597   1.962  -5.473  1.00  0.00    -0.458 OA
BRANCH  33  34
ATOM     34  C   UNL     1       4.992   2.038  -4.190  1.00  0.00     0.338 C 
ATOM     35  O   UNL     1       5.883   2.785  -3.809  1.00  0.00    -0.246 OA
BRANCH  34  36
ATOM     36  C   UNL     1       4.200   1.250  -3.236  1.00  0.00     0.060 A 
ATOM     37  C   UNL     1       3.803   1.921  -2.099  1.00  0.00     0.016 A 
ATOM     38  C   UNL     1       3.656   0.006  -3.429  1.00  0.00     0.016 A 
ATOM     39  C   UNL     1       2.985   1.352  -1.069  1.00  0.00     0.010 A 
ATOM     40  C   UNL     1       2.780  -0.462  -2.438  1.00  0.00     0.010 A 
ATOM     41  C   UNL     1       2.758   0.036  -1.103  1.00  0.00    -0.014 A 
BRANCH  41  42
ATOM     42  C   UNL     1       3.511  -0.751   0.286  1.00  0.00     0.031 A 
ATOM     43  C   UNL     1       1.880  -1.143   1.113  1.00  0.00     0.074 A 
ATOM     44  C   UNL     1       5.211  -1.506   0.609  1.00  0.00     0.049 A 
ATOM     45  N   UNL     1       1.529  -2.374   1.368  1.00  0.00    -0.248 NA
ATOM     46  C   UNL     1       0.751  -0.311   1.575  1.00  0.00     0.031 C 
ATOM     47  C   UNL     1       5.723  -3.232   0.456  1.00  0.00     0.029 A 
ATOM     48  N   UNL     1       6.667  -1.184   0.509  1.00  0.00    -0.354 N 
ATOM     49  C   UNL     1       0.276  -2.589   1.821  1.00  0.00     0.074 A 
ATOM     50  C   UNL     1      -0.226  -1.234   1.861  1.00  0.00     0.031 C 
ATOM     51  C   UNL     1       7.003  -3.460   0.669  1.00  0.00     0.029 A 
ATOM     52  C   UNL     1       7.468  -2.212   1.086  1.00  0.00     0.049 A 
ATOM     53  H   UNL     1       7.027  -0.366   0.096  1.00  0.00     0.167 HD
ATOM     54  C   UNL     1      -0.007  -3.936   1.920  1.00  0.00     0.037 A 
ATOM     55  C   UNL     1       8.045  -2.022   2.285  1.00  0.00     0.037 A 
ATOM     56  C   UNL     1       1.264  -4.675   2.217  1.00  0.00     0.049 A 
ATOM     57  C   UNL     1       7.128  -2.703   3.352  1.00  0.00     0.074 A 
ATOM     58  C   UNL     1       2.058  -5.635   1.608  1.00  0.00     0.029 A 
ATOM     59  N   UNL     1       2.023  -4.211   3.293  1.00  0.00    -0.354 N 
ATOM     60  N   UNL     1       5.983  -3.344   3.139  1.00  0.00    -0.248 NA
ATOM     61  C   UNL     1       7.540  -2.851   4.737  1.00  0.00     0.031 C 
ATOM     62  C   UNL     1       3.334  -5.658   2.293  1.00  0.00     0.029 A 
ATOM     63  C   UNL     1       3.308  -4.744   3.342  1.00  0.00     0.049 A 
ATOM     64  H   UNL     1       1.681  -3.567   3.955  1.00  0.00     0.167 HD
ATOM     65  C   UNL     1       5.455  -3.860   4.303  1.00  0.00     0.074 A 
ATOM     66  C   UNL     1       6.556  -3.624   5.233  1.00  0.00     0.031 C 
ATOM     67  C   UNL     1       4.181  -4.388   4.488  1.00  0.00     0.037 A 
BRANCH  54  68
ATOM     68  C   UNL     1      -1.308  -4.712   1.692  1.00  0.00     0.064 A 
ATOM     69  C   UNL     1      -1.342  -6.127   1.843  1.00  0.00     0.173 A 
ATOM     70  C   UNL     1      -2.487  -4.170   1.152  1.00  0.00     0.173 A 
ATOM     71  F   UNL     1      -0.311  -6.796   2.375  1.00  0.00    -0.203 F 
ATOM     72  C   UNL     1      -2.427  -6.925   1.446  1.00  0.00     0.198 A 
ATOM     73  C   UNL     1      -3.580  -4.972   0.749  1.00  0.00     0.198 A 
ATOM     74  F   UNL     1      -2.613  -2.848   0.996  1.00  0.00    -0.203 F 
ATOM     75  F   UNL     1      -2.366  -8.258   1.591  1.00  0.00    -0.200 F 
ATOM     76  C   UNL     1      -3.546  -6.348   0.890  1.00  0.00     0.200 A 
ATOM     77  F   UNL     1      -4.667  -4.404   0.203  1.00  0.00    -0.200 F 
ATOM     78  F   UNL     1      -4.579  -7.110   0.500  1.00  0.00    -0.200 F 
ENDBRANCH  54  68
BRANCH  55  79
ATOM     79  C   UNL     1       8.768  -0.706   2.058  1.00  0.00     0.064 A 
ATOM     80  C   UNL     1       9.507  -0.655   0.811  1.00  0.00     0.173 A 
ATOM     81  C   UNL     1       8.248   0.505   2.505  1.00  0.00     0.173 A 
ATOM     82  F   UNL     1      10.041  -1.785   0.306  1.00  0.00    -0.203 F 
ATOM     83  C   UNL     1       9.353   0.412  -0.079  1.00  0.00     0.198 A 
ATOM     84  C   UNL     1       8.266   1.633   1.667  1.00  0.00     0.198 A 
ATOM     85  F   UNL     1       7.567   0.564   3.656  1.00  0.00    -0.203 F 
ATOM     86  F   UNL     1       9.660   0.259  -1.378  1.00  0.00    -0.200 F 
ATOM     87  C   UNL     1       8.707   1.550   0.347  1.00  0.00     0.200 A 
ATOM     88  F   UNL     1       7.723   2.781   2.097  1.00  0.00    -0.200 F 
ATOM     89  F   UNL     1       8.423   2.529  -0.527  1.00  0.00    -0.200 F 
ENDBRANCH  55  79
BRANCH  67  90
ATOM     90  C   UNL     1       3.581  -4.647   5.887  1.00  0.00     0.064 A 
ATOM     91  C   UNL     1       4.075  -4.062   7.062  1.00  0.00     0.173 A 
ATOM     92  C   UNL     1       2.411  -5.432   6.088  1.00  0.00     0.173 A 
ATOM     93  F   UNL     1       4.933  -3.036   7.029  1.00  0.00    -0.203 F 
ATOM     94  C   UNL     1       3.634  -4.438   8.331  1.00  0.00     0.198 A 
ATOM     95  C   UNL     1       1.873  -5.682   7.351  1.00  0.00     0.198 A 
ATOM     96  F   UNL     1       1.714  -5.959   5.072  1.00  0.00    -0.203 F 
ATOM     97  F   UNL     1       4.277  -3.977   9.412  1.00  0.00    -0.200 F 
ATOM     98  C   UNL     1       2.531  -5.249   8.478  1.00  0.00     0.200 A 
ATOM     99  F   UNL     1       0.710  -6.340   7.464  1.00  0.00    -0.200 F 
ATOM    100  F   UNL     1       2.081  -5.571   9.696  1.00  0.00    -0.200 F 
ENDBRANCH  67  90
ENDBRANCH  41  42
ENDBRANCH  34  36
ENDBRANCH  33  34
ENDBRANCH  32  33
ENDBRANCH   1  32
TORSDOF 17
