REMARK SMILES CC[C@@H]1CCCN1C(=O)N1CC[C@@H](C(=O)OCCOC(=O)c2ccc(-c3c4nc(c(-c5c(F)c(F)c(F)c(F)c5F)c5ccc([nH]5)c(-c5c(F)c(F)c(F)c(F)c5F)c5nc(c(-c6c(F)c(F)c(F)c(F)c6F)c6ccc3[nH]6)C=C5)C=C4)cc2)[C@@H]1C
REMARK SMILES IDX 17 1 16 2 14 3 15 4 13 5 10 6 11 7 85 8 12 9 86 10 8 11 9 12
REMARK SMILES IDX 7 13 3 14 4 15 5 16 6 17 2 18 1 19 18 20 19 21 20 22 21 23
REMARK SMILES IDX 22 24 23 25 84 26 24 27 83 28 25 29 26 30 27 31 77 32 28 33
REMARK SMILES IDX 82 34 76 35 78 36 29 37 81 38 75 39 74 40 30 42 62 43 42 44
REMARK SMILES IDX 61 45 43 46 46 47 60 48 79 49 44 50 45 51 59 53 80 54 47 55
REMARK SMILES IDX 31 56 32 57 40 58 33 59 34 60 38 61 41 62 35 63 36 64 39 65
REMARK SMILES IDX 37 66 63 67 64 68 72 69 65 70 66 71 70 72 73 73 67 74 68 75
REMARK SMILES IDX 71 76 69 77 48 78 49 79 57 80 50 81 51 82 55 83 58 84 52 85
REMARK SMILES IDX 53 86 56 87 54 88
REMARK H PARENT 78 41 46 52
REMARK Flexibility Score: inf
ROOT
ATOM      1  C   UNL     1      -0.940   5.857  -1.187  1.00  0.00     0.274 C 
ENDROOT
BRANCH   1   2
ATOM      2  O   UNL     1       0.125   5.043  -0.652  1.00  0.00    -0.462 OA
BRANCH   2   3
ATOM      3  C   UNL     1      -0.249   3.935   0.048  1.00  0.00     0.311 C 
ATOM      4  O   UNL     1      -1.404   3.627   0.306  1.00  0.00    -0.252 OA
BRANCH   3   5
ATOM      5  C   UNL     1       0.966   3.072   0.342  1.00  0.00     0.123 C 
ATOM      6  N   UNL     1       0.577   0.975   1.466  1.00  0.00    -0.321 N 
ATOM      7  C   UNL     1       0.110   0.878   0.102  1.00  0.00     0.122 C 
ATOM      8  C   UNL     1       0.900   2.396   1.727  1.00  0.00     0.098 C 
ATOM      9  C   UNL     1       0.980   1.893  -0.622  1.00  0.00     0.039 C 
ATOM     10  C   UNL     1       2.231   2.522   2.463  1.00  0.00     0.032 C 
BRANCH   6  11
ATOM     11  C   UNL     1       0.113   0.203   2.500  1.00  0.00     0.320 C 
ATOM     12  O   UNL     1      -0.358   0.770   3.493  1.00  0.00    -0.248 OA
BRANCH  11  13
ATOM     13  N   UNL     1       0.219  -1.176   2.473  1.00  0.00    -0.322 N 
ATOM     14  C   UNL     1       1.115  -2.120   1.748  1.00  0.00     0.086 C 
ATOM     15  C   UNL     1       0.741  -3.488   2.362  1.00  0.00     0.027 C 
ATOM     16  C   UNL     1       0.450  -3.155   3.803  1.00  0.00     0.024 C 
ATOM     17  C   UNL     1      -0.299  -1.842   3.677  1.00  0.00     0.122 C 
BRANCH  14  18
ATOM     18  C   UNL     1       1.016  -2.290   0.229  1.00  0.00     0.022 C 
ATOM     19  C   UNL     1       2.152  -1.590  -0.510  1.00  0.00     0.006 C 
ENDBRANCH  14  18
ENDBRANCH  11  13
ENDBRANCH   6  11
ENDBRANCH   3   5
ENDBRANCH   2   3
ENDBRANCH   1   2
BRANCH   1  20
ATOM     20  C   UNL     1      -0.980   5.697  -2.703  1.00  0.00     0.275 C 
BRANCH  20  21
ATOM     21  O   UNL     1      -1.372   4.348  -3.025  1.00  0.00    -0.458 OA
BRANCH  21  22
ATOM     22  C   UNL     1      -0.712   3.774  -4.054  1.00  0.00     0.338 C 
ATOM     23  O   UNL     1       0.164   4.281  -4.743  1.00  0.00    -0.246 OA
BRANCH  22  24
ATOM     24  C   UNL     1      -1.199   2.397  -4.273  1.00  0.00     0.060 A 
ATOM     25  C   UNL     1      -1.442   1.540  -3.200  1.00  0.00     0.016 A 
ATOM     26  C   UNL     1      -1.322   1.919  -5.579  1.00  0.00     0.016 A 
ATOM     27  C   UNL     1      -1.683   0.184  -3.429  1.00  0.00     0.010 A 
ATOM     28  C   UNL     1      -1.700   0.591  -5.804  1.00  0.00     0.010 A 
ATOM     29  C   UNL     1      -1.851  -0.309  -4.734  1.00  0.00    -0.014 A 
BRANCH  29  30
ATOM     30  C   UNL     1      -2.192  -1.744  -4.985  1.00  0.00     0.031 A 
ATOM     31  C   UNL     1      -1.373  -2.576  -5.944  1.00  0.00     0.074 A 
ATOM     32  C   UNL     1      -3.256  -2.312  -4.380  1.00  0.00     0.049 A 
ATOM     33  N   UNL     1      -1.643  -3.750  -6.463  1.00  0.00    -0.248 NA
ATOM     34  C   UNL     1      -0.092  -2.009  -6.396  1.00  0.00     0.031 C 
ATOM     35  C   UNL     1      -4.143  -1.653  -3.419  1.00  0.00     0.029 A 
ATOM     36  N   UNL     1      -3.778  -3.581  -4.486  1.00  0.00    -0.354 N 
ATOM     37  C   UNL     1      -0.614  -4.021  -7.356  1.00  0.00     0.074 A 
ATOM     38  C   UNL     1       0.300  -2.900  -7.298  1.00  0.00     0.031 C 
ATOM     39  C   UNL     1      -5.061  -2.529  -2.989  1.00  0.00     0.029 A 
ATOM     40  C   UNL     1      -4.900  -3.781  -3.717  1.00  0.00     0.049 A 
ATOM     41  H   UNL     1      -3.385  -4.280  -5.058  1.00  0.00     0.167 HD
ATOM     42  C   UNL     1      -0.450  -5.103  -8.155  1.00  0.00     0.037 A 
ATOM     43  C   UNL     1      -5.744  -4.828  -3.639  1.00  0.00     0.037 A 
ATOM     44  C   UNL     1      -1.302  -6.263  -8.150  1.00  0.00     0.049 A 
ATOM     45  C   UNL     1      -5.526  -6.023  -4.520  1.00  0.00     0.074 A 
ATOM     46  C   UNL     1      -1.174  -7.431  -8.885  1.00  0.00     0.029 A 
ATOM     47  N   UNL     1      -2.428  -6.415  -7.356  1.00  0.00    -0.354 N 
ATOM     48  N   UNL     1      -4.577  -6.242  -5.395  1.00  0.00    -0.248 NA
ATOM     49  C   UNL     1      -6.516  -7.106  -4.424  1.00  0.00     0.031 C 
ATOM     50  C   UNL     1      -2.237  -8.278  -8.556  1.00  0.00     0.029 A 
ATOM     51  C   UNL     1      -3.008  -7.651  -7.592  1.00  0.00     0.049 A 
ATOM     52  H   UNL     1      -2.765  -5.744  -6.720  1.00  0.00     0.167 HD
ATOM     53  C   UNL     1      -4.856  -7.480  -5.955  1.00  0.00     0.074 A 
ATOM     54  C   UNL     1      -6.045  -7.981  -5.300  1.00  0.00     0.031 C 
ATOM     55  C   UNL     1      -4.192  -8.136  -6.936  1.00  0.00     0.037 A 
BRANCH  42  56
ATOM     56  C   UNL     1       0.688  -5.093  -9.134  1.00  0.00     0.064 A 
ATOM     57  C   UNL     1       2.009  -5.337  -8.739  1.00  0.00     0.173 A 
ATOM     58  C   UNL     1       0.428  -4.932 -10.505  1.00  0.00     0.173 A 
ATOM     59  F   UNL     1       2.308  -5.489  -7.440  1.00  0.00    -0.203 F 
ATOM     60  C   UNL     1       3.033  -5.412  -9.681  1.00  0.00     0.198 A 
ATOM     61  C   UNL     1       1.450  -5.030 -11.445  1.00  0.00     0.198 A 
ATOM     62  F   UNL     1      -0.823  -4.706 -10.933  1.00  0.00    -0.203 F 
ATOM     63  F   UNL     1       4.294  -5.627  -9.281  1.00  0.00    -0.200 F 
ATOM     64  C   UNL     1       2.751  -5.269 -11.032  1.00  0.00     0.200 A 
ATOM     65  F   UNL     1       1.173  -4.904 -12.750  1.00  0.00    -0.200 F 
ATOM     66  F   UNL     1       3.735  -5.362 -11.937  1.00  0.00    -0.200 F 
ENDBRANCH  42  56
BRANCH  43  67
ATOM     67  C   UNL     1      -6.917  -4.764  -2.728  1.00  0.00     0.064 A 
ATOM     68  C   UNL     1      -6.990  -5.578  -1.589  1.00  0.00     0.173 A 
ATOM     69  C   UNL     1      -7.987  -3.894  -2.980  1.00  0.00     0.173 A 
ATOM     70  F   UNL     1      -6.004  -6.448  -1.324  1.00  0.00    -0.203 F 
ATOM     71  C   UNL     1      -8.095  -5.530  -0.743  1.00  0.00     0.198 A 
ATOM     72  C   UNL     1      -9.077  -3.824  -2.116  1.00  0.00     0.198 A 
ATOM     73  F   UNL     1      -7.965  -3.097  -4.059  1.00  0.00    -0.203 F 
ATOM     74  F   UNL     1      -8.162  -6.350   0.315  1.00  0.00    -0.200 F 
ATOM     75  C   UNL     1      -9.134  -4.648  -1.002  1.00  0.00     0.200 A 
ATOM     76  F   UNL     1     -10.071  -2.961  -2.364  1.00  0.00    -0.200 F 
ATOM     77  F   UNL     1     -10.193  -4.598  -0.184  1.00  0.00    -0.200 F 
ENDBRANCH  43  67
BRANCH  55  78
ATOM     78  C   UNL     1      -4.732  -9.471  -7.349  1.00  0.00     0.064 A 
ATOM     79  C   UNL     1      -5.882  -9.576  -8.144  1.00  0.00     0.173 A 
ATOM     80  C   UNL     1      -4.084 -10.653  -6.964  1.00  0.00     0.173 A 
ATOM     81  F   UNL     1      -6.545  -8.472  -8.520  1.00  0.00    -0.203 F 
ATOM     82  C   UNL     1      -6.377 -10.821  -8.522  1.00  0.00     0.198 A 
ATOM     83  C   UNL     1      -4.570 -11.896  -7.362  1.00  0.00     0.198 A 
ATOM     84  F   UNL     1      -2.979 -10.603  -6.205  1.00  0.00    -0.203 F 
ATOM     85  F   UNL     1      -7.501 -10.901  -9.247  1.00  0.00    -0.200 F 
ATOM     86  C   UNL     1      -5.718 -11.979  -8.135  1.00  0.00     0.200 A 
ATOM     87  F   UNL     1      -3.929 -13.014  -6.993  1.00  0.00    -0.200 F 
ATOM     88  F   UNL     1      -6.197 -13.176  -8.499  1.00  0.00    -0.200 F 
ENDBRANCH  55  78
ENDBRANCH  29  30
ENDBRANCH  22  24
ENDBRANCH  21  22
ENDBRANCH  20  21
ENDBRANCH   1  20
TORSDOF 14
