REMARK SMILES C[C@@](NC(=O)CCOC1CC[NH2+]CC1)(C(=O)OCCOC(=O)c1ccc(-c2c3nc(c(-c4c(F)c(F)c(F)c(F)c4F)c4ccc([nH]4)c(-c4c(F)c(F)c(F)c(F)c4F)c4nc(c(-c5c(F)c(F)c(F)c(F)c5F)c5ccc2[nH]5)C=C4)C=C3)cc1)C(F)(F)F
REMARK SMILES IDX 17 1 15 2 16 3 2 4 1 5 3 6 4 7 5 9 6 10 7 11 8 12 9 13 10 14
REMARK SMILES IDX 14 15 11 16 13 17 12 18 86 21 87 22 88 23 89 24 18 25 19 26
REMARK SMILES IDX 20 27 21 28 22 29 23 30 24 31 85 32 25 33 84 34 26 35 27 36
REMARK SMILES IDX 28 37 78 38 29 39 83 40 77 41 79 42 30 43 82 44 76 45 75 46
REMARK SMILES IDX 31 48 63 49 43 50 62 51 44 52 47 53 61 54 80 55 45 56 46 57
REMARK SMILES IDX 60 59 81 60 48 61 32 62 33 63 41 64 34 65 35 66 39 67 42 68
REMARK SMILES IDX 36 69 37 70 40 71 38 72 64 73 65 74 73 75 66 76 67 77 71 78
REMARK SMILES IDX 74 79 68 80 69 81 72 82 70 83 49 84 50 85 58 86 51 87 52 88
REMARK SMILES IDX 56 89 59 90 53 91 54 92 57 93 55 94
REMARK H PARENT 3 8 12 19 12 20 79 47 47 58
REMARK Flexibility Score: inf
ROOT
ATOM      1  O   UNL     1      -2.740  -1.756   0.357  1.00  0.00    -0.460 OA
ENDROOT
BRANCH   1   2
ATOM      2  C   UNL     1      -2.042  -2.899   0.073  1.00  0.00     0.341 C 
ATOM      3  O   UNL     1      -2.553  -3.991  -0.078  1.00  0.00    -0.249 OA
BRANCH   2   4
ATOM      4  C   UNL     1      -0.537  -2.571   0.075  1.00  0.00     0.231 C 
ATOM      5  C   UNL     1      -0.386  -1.085  -0.299  1.00  0.00     0.058 C 
BRANCH   4   6
ATOM      6  N   UNL     1       0.087  -3.018   1.369  1.00  0.00    -0.333 N 
ATOM      7  C   UNL     1      -0.004  -2.673   2.672  1.00  0.00     0.223 C 
ATOM      8  H   UNL     1       0.728  -3.752   1.231  1.00  0.00     0.164 HD
ATOM      9  O   UNL     1       0.737  -3.251   3.469  1.00  0.00    -0.275 OA
BRANCH   7  10
ATOM     10  C   UNL     1      -0.944  -1.601   3.135  1.00  0.00     0.128 C 
BRANCH  10  11
ATOM     11  C   UNL     1      -0.218  -0.263   3.180  1.00  0.00     0.170 C 
BRANCH  11  12
ATOM     12  O   UNL     1       0.562  -0.121   1.998  1.00  0.00    -0.377 OA
BRANCH  12  13
ATOM     13  C   UNL     1       1.842   0.491   2.141  1.00  0.00     0.129 C 
ATOM     14  C   UNL     1       1.716   1.964   1.787  1.00  0.00     0.093 C 
ATOM     15  C   UNL     1       2.861  -0.243   1.248  1.00  0.00     0.093 C 
ATOM     16  C   UNL     1       1.590   2.164   0.282  1.00  0.00     0.263 C 
ATOM     17  C   UNL     1       3.012   0.259  -0.197  1.00  0.00     0.263 C 
ATOM     18  N   UNL     1       2.795   1.687  -0.388  1.00  0.00    -0.346 N 
ATOM     19  H   UNL     1       3.598   2.193  -0.014  1.00  0.00     0.346 HD
ATOM     20  H   UNL     1       2.679   1.852  -1.388  1.00  0.00     0.346 HD
ENDBRANCH  12  13
ENDBRANCH  11  12
ENDBRANCH  10  11
ENDBRANCH   7  10
ENDBRANCH   4   6
BRANCH   4  21
ATOM     21  C   UNL     1       0.209  -3.347  -1.046  1.00  0.00     0.422 C 
ATOM     22  F   UNL     1       0.393  -2.616  -2.167  1.00  0.00    -0.168 F 
ATOM     23  F   UNL     1       1.471  -3.657  -0.626  1.00  0.00    -0.168 F 
ATOM     24  F   UNL     1      -0.362  -4.512  -1.401  1.00  0.00    -0.168 F 
ENDBRANCH   4  21
ENDBRANCH   2   4
ENDBRANCH   1   2
BRANCH   1  25
ATOM     25  C   UNL     1      -4.174  -1.677   0.255  1.00  0.00     0.274 C 
BRANCH  25  26
ATOM     26  C   UNL     1      -4.478  -0.613  -0.806  1.00  0.00     0.275 C 
BRANCH  26  27
ATOM     27  O   UNL     1      -4.079  -1.170  -2.071  1.00  0.00    -0.458 OA
BRANCH  27  28
ATOM     28  C   UNL     1      -3.467  -0.360  -2.963  1.00  0.00     0.338 C 
ATOM     29  O   UNL     1      -3.398   0.861  -2.938  1.00  0.00    -0.246 OA
BRANCH  28  30
ATOM     30  C   UNL     1      -2.765  -1.225  -3.935  1.00  0.00     0.060 A 
ATOM     31  C   UNL     1      -2.084  -2.330  -3.441  1.00  0.00     0.016 A 
ATOM     32  C   UNL     1      -2.684  -0.939  -5.293  1.00  0.00     0.016 A 
ATOM     33  C   UNL     1      -1.273  -3.099  -4.259  1.00  0.00     0.010 A 
ATOM     34  C   UNL     1      -1.990  -1.821  -6.145  1.00  0.00     0.010 A 
ATOM     35  C   UNL     1      -1.274  -2.924  -5.636  1.00  0.00    -0.014 A 
BRANCH  35  36
ATOM     36  C   UNL     1      -0.549  -3.901  -6.504  1.00  0.00     0.031 A 
ATOM     37  C   UNL     1       0.321  -3.396  -7.619  1.00  0.00     0.074 A 
ATOM     38  C   UNL     1      -0.662  -5.238  -6.320  1.00  0.00     0.049 A 
ATOM     39  N   UNL     1       0.679  -3.995  -8.723  1.00  0.00    -0.248 NA
ATOM     40  C   UNL     1       0.838  -2.025  -7.483  1.00  0.00     0.031 C 
ATOM     41  C   UNL     1      -1.358  -5.909  -5.216  1.00  0.00     0.029 A 
ATOM     42  N   UNL     1      -0.199  -6.289  -7.083  1.00  0.00    -0.354 N 
ATOM     43  C   UNL     1       1.363  -3.041  -9.463  1.00  0.00     0.074 A 
ATOM     44  C   UNL     1       1.416  -1.837  -8.662  1.00  0.00     0.031 C 
ATOM     45  C   UNL     1      -1.248  -7.236  -5.351  1.00  0.00     0.029 A 
ATOM     46  C   UNL     1      -0.643  -7.516  -6.640  1.00  0.00     0.049 A 
ATOM     47  H   UNL     1       0.390  -6.175  -7.864  1.00  0.00     0.167 HD
ATOM     48  C   UNL     1       1.865  -3.169 -10.713  1.00  0.00     0.037 A 
ATOM     49  C   UNL     1      -0.687  -8.718  -7.245  1.00  0.00     0.037 A 
ATOM     50  C   UNL     1       1.883  -4.411 -11.442  1.00  0.00     0.049 A 
ATOM     51  C   UNL     1      -0.189  -8.826  -8.655  1.00  0.00     0.074 A 
ATOM     52  C   UNL     1       2.403  -4.668 -12.699  1.00  0.00     0.029 A 
ATOM     53  N   UNL     1       1.376  -5.611 -10.965  1.00  0.00    -0.354 N 
ATOM     54  N   UNL     1       0.348  -7.901  -9.412  1.00  0.00    -0.248 NA
ATOM     55  C   UNL     1      -0.340 -10.131  -9.311  1.00  0.00     0.031 C 
ATOM     56  C   UNL     1       2.165  -6.012 -13.002  1.00  0.00     0.029 A 
ATOM     57  C   UNL     1       1.544  -6.605 -11.914  1.00  0.00     0.049 A 
ATOM     58  H   UNL     1       0.959  -5.737 -10.082  1.00  0.00     0.167 HD
ATOM     59  C   UNL     1       0.602  -8.510 -10.631  1.00  0.00     0.074 A 
ATOM     60  C   UNL     1       0.185  -9.892 -10.504  1.00  0.00     0.031 C 
ATOM     61  C   UNL     1       1.123  -7.972 -11.760  1.00  0.00     0.037 A 
BRANCH  48  62
ATOM     62  C   UNL     1       2.366  -1.939 -11.411  1.00  0.00     0.064 A 
ATOM     63  C   UNL     1       3.578  -1.321 -11.082  1.00  0.00     0.173 A 
ATOM     64  C   UNL     1       1.634  -1.416 -12.491  1.00  0.00     0.173 A 
ATOM     65  F   UNL     1       4.308  -1.770 -10.050  1.00  0.00    -0.203 F 
ATOM     66  C   UNL     1       4.037  -0.219 -11.803  1.00  0.00     0.198 A 
ATOM     67  C   UNL     1       2.108  -0.334 -13.226  1.00  0.00     0.198 A 
ATOM     68  F   UNL     1       0.466  -1.972 -12.848  1.00  0.00    -0.203 F 
ATOM     69  F   UNL     1       5.186   0.377 -11.455  1.00  0.00    -0.200 F 
ATOM     70  C   UNL     1       3.308   0.266 -12.880  1.00  0.00     0.200 A 
ATOM     71  F   UNL     1       1.406   0.123 -14.273  1.00  0.00    -0.200 F 
ATOM     72  F   UNL     1       3.761   1.313 -13.583  1.00  0.00    -0.200 F 
ENDBRANCH  48  62
BRANCH  49  73
ATOM     73  C   UNL     1      -1.362  -9.867  -6.577  1.00  0.00     0.064 A 
ATOM     74  C   UNL     1      -0.651 -11.017  -6.211  1.00  0.00     0.173 A 
ATOM     75  C   UNL     1      -2.740  -9.840  -6.296  1.00  0.00     0.173 A 
ATOM     76  F   UNL     1       0.658 -11.109  -6.485  1.00  0.00    -0.203 F 
ATOM     77  C   UNL     1      -1.291 -12.096  -5.601  1.00  0.00     0.198 A 
ATOM     78  C   UNL     1      -3.369 -10.901  -5.649  1.00  0.00     0.198 A 
ATOM     79  F   UNL     1      -3.475  -8.770  -6.632  1.00  0.00    -0.203 F 
ATOM     80  F   UNL     1      -0.597 -13.205  -5.311  1.00  0.00    -0.200 F 
ATOM     81  C   UNL     1      -2.646 -12.033  -5.311  1.00  0.00     0.200 A 
ATOM     82  F   UNL     1      -4.674 -10.824  -5.355  1.00  0.00    -0.200 F 
ATOM     83  F   UNL     1      -3.257 -13.066  -4.716  1.00  0.00    -0.200 F 
ENDBRANCH  49  73
BRANCH  61  84
ATOM     84  C   UNL     1       1.296  -8.890 -12.930  1.00  0.00     0.064 A 
ATOM     85  C   UNL     1       0.199  -9.322 -13.688  1.00  0.00     0.173 A 
ATOM     86  C   UNL     1       2.576  -9.312 -13.316  1.00  0.00     0.173 A 
ATOM     87  F   UNL     1      -1.046  -8.962 -13.341  1.00  0.00    -0.203 F 
ATOM     88  C   UNL     1       0.378 -10.159 -14.785  1.00  0.00     0.198 A 
ATOM     89  C   UNL     1       2.754 -10.124 -14.430  1.00  0.00     0.198 A 
ATOM     90  F   UNL     1       3.655  -8.922 -12.620  1.00  0.00    -0.203 F 
ATOM     91  F   UNL     1      -0.687 -10.597 -15.472  1.00  0.00    -0.200 F 
ATOM     92  C   UNL     1       1.655 -10.552 -15.160  1.00  0.00     0.200 A 
ATOM     93  F   UNL     1       3.988 -10.493 -14.798  1.00  0.00    -0.200 F 
ATOM     94  F   UNL     1       1.825 -11.350 -16.223  1.00  0.00    -0.200 F 
ENDBRANCH  61  84
ENDBRANCH  35  36
ENDBRANCH  28  30
ENDBRANCH  27  28
ENDBRANCH  26  27
ENDBRANCH  25  26
ENDBRANCH   1  25
TORSDOF 17
