REMARK SMILES C[C@H]1[C@@H](C(=O)OCCOC(=O)c2ccc(-c3c4nc(c(-c5c(F)c(F)c(F)c(F)c5F)c5ccc([nH]5)c(-c5c(F)c(F)c(F)c(F)c5F)c5nc(c(-c6c(F)c(F)c(F)c(F)c6F)c6ccc3[nH]6)C=C5)C=C4)cc2)CCN1C(=O)c1cc([N+](=O)[O-])ccc1Br
REMARK SMILES IDX 7 1 6 2 4 3 5 4 3 5 1 6 2 7 77 8 75 9 76 10 78 11 79 12
REMARK SMILES IDX 80 13 81 14 88 15 82 16 87 17 89 18 86 19 83 20 84 21 85 22
REMARK SMILES IDX 8 23 9 24 10 25 11 26 12 27 13 28 74 29 14 30 73 31 15 32
REMARK SMILES IDX 16 33 17 34 67 35 18 36 72 37 66 38 68 39 19 40 71 41 65 42
REMARK SMILES IDX 64 43 20 45 52 46 32 47 51 48 33 49 36 50 50 51 69 52 34 53
REMARK SMILES IDX 35 54 49 56 70 57 37 58 21 59 22 60 30 61 23 62 24 63 28 64
REMARK SMILES IDX 31 65 25 66 26 67 29 68 27 69 53 70 54 71 62 72 55 73 56 74
REMARK SMILES IDX 60 75 63 76 57 77 58 78 61 79 59 80 38 81 39 82 47 83 40 84
REMARK SMILES IDX 41 85 45 86 48 87 42 88 43 89 46 90 44 91
REMARK H PARENT 68 44 36 55
REMARK Flexibility Score: inf
ROOT
ATOM      1  C   UNL     1       1.963   2.625  -2.631  1.00  0.00     0.274 C 
ENDROOT
BRANCH   1   2
ATOM      2  O   UNL     1       1.610   1.635  -1.641  1.00  0.00    -0.462 OA
BRANCH   2   3
ATOM      3  C   UNL     1       0.880   2.041  -0.583  1.00  0.00     0.311 C 
ATOM      4  O   UNL     1       0.419   3.173  -0.462  1.00  0.00    -0.252 OA
BRANCH   3   5
ATOM      5  C   UNL     1       0.634   0.979   0.475  1.00  0.00     0.123 C 
ATOM      6  C   UNL     1       2.509  -0.618  -0.477  1.00  0.00     0.032 C 
ATOM      7  C   UNL     1       1.438  -0.338   0.569  1.00  0.00     0.096 C 
ATOM      8  N   UNL     1       0.410  -1.393   0.569  1.00  0.00    -0.335 N 
ATOM      9  C   UNL     1      -0.840   0.542   0.484  1.00  0.00     0.039 C 
ATOM     10  C   UNL     1      -0.820  -0.892   0.002  1.00  0.00     0.121 C 
BRANCH   8  11
ATOM     11  C   UNL     1       0.461  -2.667   1.099  1.00  0.00     0.255 C 
ATOM     12  O   UNL     1      -0.441  -3.493   1.005  1.00  0.00    -0.269 OA
BRANCH  11  13
ATOM     13  C   UNL     1       1.682  -3.079   1.805  1.00  0.00     0.061 A 
ATOM     14  C   UNL     1       2.529  -3.969   1.132  1.00  0.00     0.100 A 
ATOM     15  C   UNL     1       1.982  -2.645   3.102  1.00  0.00     0.031 A 
ATOM     16  C   UNL     1       3.717  -4.373   1.747  1.00  0.00     0.270 A 
ATOM     17  C   UNL     1       3.179  -3.046   3.702  1.00  0.00     0.023 A 
ATOM     18  Br  UNL     1       0.811  -1.544   4.113  1.00  0.00    -0.050 Br
ATOM     19  C   UNL     1       4.053  -3.903   3.025  1.00  0.00     0.087 A 
BRANCH  16  20
ATOM     20  N   UNL     1       4.625  -5.288   1.044  1.00  0.00     0.062 N 
ATOM     21  O   UNL     1       4.315  -5.638  -0.102  1.00  0.00    -0.258 OA
ATOM     22  O   UNL     1       5.652  -5.645   1.638  1.00  0.00    -0.258 OA
ENDBRANCH  16  20
ENDBRANCH  11  13
ENDBRANCH   8  11
ENDBRANCH   3   5
ENDBRANCH   2   3
ENDBRANCH   1   2
BRANCH   1  23
ATOM     23  C   UNL     1       1.245   2.351  -3.948  1.00  0.00     0.275 C 
BRANCH  23  24
ATOM     24  O   UNL     1      -0.155   2.641  -3.811  1.00  0.00    -0.458 OA
BRANCH  24  25
ATOM     25  C   UNL     1      -0.945   1.568  -3.592  1.00  0.00     0.338 C 
ATOM     26  O   UNL     1      -0.625   0.394  -3.544  1.00  0.00    -0.246 OA
BRANCH  25  27
ATOM     27  C   UNL     1      -2.315   2.030  -3.355  1.00  0.00     0.060 A 
ATOM     28  C   UNL     1      -2.635   2.587  -2.117  1.00  0.00     0.016 A 
ATOM     29  C   UNL     1      -3.302   1.804  -4.312  1.00  0.00     0.016 A 
ATOM     30  C   UNL     1      -3.965   2.836  -1.793  1.00  0.00     0.010 A 
ATOM     31  C   UNL     1      -4.622   2.150  -4.020  1.00  0.00     0.010 A 
ATOM     32  C   UNL     1      -4.971   2.644  -2.749  1.00  0.00    -0.014 A 
BRANCH  32  33
ATOM     33  C   UNL     1      -6.390   2.953  -2.440  1.00  0.00     0.031 A 
ATOM     34  C   UNL     1      -7.430   1.875  -2.543  1.00  0.00     0.074 A 
ATOM     35  C   UNL     1      -6.755   4.206  -2.106  1.00  0.00     0.049 A 
ATOM     36  N   UNL     1      -8.732   1.983  -2.609  1.00  0.00    -0.248 NA
ATOM     37  C   UNL     1      -6.938   0.489  -2.593  1.00  0.00     0.031 C 
ATOM     38  C   UNL     1      -5.842   5.333  -1.909  1.00  0.00     0.029 A 
ATOM     39  N   UNL     1      -7.998   4.745  -1.890  1.00  0.00    -0.354 N 
ATOM     40  C   UNL     1      -9.210   0.691  -2.777  1.00  0.00     0.074 A 
ATOM     41  C   UNL     1      -8.061  -0.190  -2.781  1.00  0.00     0.031 C 
ATOM     42  C   UNL     1      -6.551   6.424  -1.588  1.00  0.00     0.029 A 
ATOM     43  C   UNL     1      -7.971   6.098  -1.652  1.00  0.00     0.049 A 
ATOM     44  H   UNL     1      -8.828   4.215  -1.903  1.00  0.00     0.167 HD
ATOM     45  C   UNL     1     -10.493   0.286  -2.928  1.00  0.00     0.037 A 
ATOM     46  C   UNL     1      -8.974   6.990  -1.560  1.00  0.00     0.037 A 
ATOM     47  C   UNL     1     -11.630   1.166  -2.867  1.00  0.00     0.049 A 
ATOM     48  C   UNL     1     -10.388   6.524  -1.754  1.00  0.00     0.074 A 
ATOM     49  C   UNL     1     -12.972   0.859  -3.007  1.00  0.00     0.029 A 
ATOM     50  N   UNL     1     -11.555   2.530  -2.624  1.00  0.00    -0.354 N 
ATOM     51  N   UNL     1     -10.830   5.316  -2.003  1.00  0.00    -0.248 NA
ATOM     52  C   UNL     1     -11.439   7.548  -1.683  1.00  0.00     0.031 C 
ATOM     53  C   UNL     1     -13.708   2.041  -2.869  1.00  0.00     0.029 A 
ATOM     54  C   UNL     1     -12.826   3.078  -2.612  1.00  0.00     0.049 A 
ATOM     55  H   UNL     1     -10.721   3.033  -2.481  1.00  0.00     0.167 HD
ATOM     56  C   UNL     1     -12.208   5.430  -2.111  1.00  0.00     0.074 A 
ATOM     57  C   UNL     1     -12.531   6.825  -1.888  1.00  0.00     0.031 C 
ATOM     58  C   UNL     1     -13.122   4.467  -2.377  1.00  0.00     0.037 A 
BRANCH  45  59
ATOM     59  C   UNL     1     -10.737  -1.164  -3.218  1.00  0.00     0.064 A 
ATOM     60  C   UNL     1     -10.645  -2.145  -2.222  1.00  0.00     0.173 A 
ATOM     61  C   UNL     1     -11.114  -1.568  -4.508  1.00  0.00     0.173 A 
ATOM     62  F   UNL     1     -10.274  -1.810  -0.977  1.00  0.00    -0.203 F 
ATOM     63  C   UNL     1     -10.906  -3.483  -2.511  1.00  0.00     0.198 A 
ATOM     64  C   UNL     1     -11.395  -2.902  -4.788  1.00  0.00     0.198 A 
ATOM     65  F   UNL     1     -11.219  -0.666  -5.495  1.00  0.00    -0.203 F 
ATOM     66  F   UNL     1     -10.783  -4.411  -1.552  1.00  0.00    -0.200 F 
ATOM     67  C   UNL     1     -11.287  -3.859  -3.791  1.00  0.00     0.200 A 
ATOM     68  F   UNL     1     -11.772  -3.261  -6.023  1.00  0.00    -0.200 F 
ATOM     69  F   UNL     1     -11.547  -5.145  -4.064  1.00  0.00    -0.200 F 
ENDBRANCH  45  59
BRANCH  46  70
ATOM     70  C   UNL     1      -8.659   8.422  -1.328  1.00  0.00     0.064 A 
ATOM     71  C   UNL     1      -8.933   9.028  -0.096  1.00  0.00     0.173 A 
ATOM     72  C   UNL     1      -8.040   9.200  -2.318  1.00  0.00     0.173 A 
ATOM     73  F   UNL     1      -9.544   8.329   0.872  1.00  0.00    -0.203 F 
ATOM     74  C   UNL     1      -8.598  10.360   0.139  1.00  0.00     0.198 A 
ATOM     75  C   UNL     1      -7.682  10.523  -2.074  1.00  0.00     0.198 A 
ATOM     76  F   UNL     1      -7.755   8.663  -3.514  1.00  0.00    -0.203 F 
ATOM     77  F   UNL     1      -8.892  10.924   1.318  1.00  0.00    -0.200 F 
ATOM     78  C   UNL     1      -7.964  11.103  -0.846  1.00  0.00     0.200 A 
ATOM     79  F   UNL     1      -7.055  11.232  -3.023  1.00  0.00    -0.200 F 
ATOM     80  F   UNL     1      -7.626  12.378  -0.613  1.00  0.00    -0.200 F 
ENDBRANCH  46  70
BRANCH  58  81
ATOM     81  C   UNL     1     -14.559   4.882  -2.408  1.00  0.00     0.064 A 
ATOM     82  C   UNL     1     -15.107   5.529  -3.523  1.00  0.00     0.173 A 
ATOM     83  C   UNL     1     -15.406   4.582  -1.331  1.00  0.00     0.173 A 
ATOM     84  F   UNL     1     -14.329   5.849  -4.568  1.00  0.00    -0.203 F 
ATOM     85  C   UNL     1     -16.456   5.871  -3.555  1.00  0.00     0.198 A 
ATOM     86  C   UNL     1     -16.757   4.910  -1.374  1.00  0.00     0.198 A 
ATOM     87  F   UNL     1     -14.922   3.962  -0.244  1.00  0.00    -0.203 F 
ATOM     88  F   UNL     1     -16.957   6.513  -4.620  1.00  0.00    -0.200 F 
ATOM     89  C   UNL     1     -17.280   5.556  -2.485  1.00  0.00     0.200 A 
ATOM     90  F   UNL     1     -17.553   4.601  -0.342  1.00  0.00    -0.200 F 
ATOM     91  F   UNL     1     -18.580   5.880  -2.521  1.00  0.00    -0.200 F 
ENDBRANCH  58  81
ENDBRANCH  32  33
ENDBRANCH  25  27
ENDBRANCH  24  25
ENDBRANCH  23  24
ENDBRANCH   1  23
TORSDOF 14
