REMARK SMILES Cc1nn(CC(=O)NC(C)(C)C)c(C)c1S(=O)(=O)N1CCC[C@@H](C(=O)OCCOC(=O)c2ccc(-c3c4nc(c(-c5c(F)c(F)c(F)c(F)c5F)c5ccc([nH]5)c(-c5c(F)c(F)c(F)c(F)c5F)c5nc(c(-c6c(F)c(F)c(F)c(F)c6F)c6ccc3[nH]6)C=C5)C=C4)cc2)C1
REMARK SMILES IDX 26 1 24 2 25 3 23 4 19 5 20 6 95 7 21 8 22 9 16 10 17 11
REMARK SMILES IDX 18 12 15 13 1 14 2 15 3 16 4 17 13 18 14 19 5 20 6 21 7 22
REMARK SMILES IDX 8 23 9 25 10 26 11 27 12 28 27 29 28 30 29 31 30 32 31 33
REMARK SMILES IDX 32 34 33 35 94 36 34 37 93 38 35 39 36 40 37 41 87 42 38 43
REMARK SMILES IDX 92 44 86 45 88 46 39 47 91 48 85 49 84 50 40 52 72 53 52 54
REMARK SMILES IDX 71 55 53 56 56 57 70 58 89 59 54 60 55 61 69 63 90 64 57 65
REMARK SMILES IDX 41 66 42 67 50 68 43 69 44 70 48 71 51 72 45 73 46 74 49 75
REMARK SMILES IDX 47 76 73 77 74 78 82 79 75 80 76 81 80 82 83 83 77 84 78 85
REMARK SMILES IDX 81 86 79 87 58 88 59 89 67 90 60 91 61 92 65 93 68 94 62 95
REMARK SMILES IDX 63 96 66 97 64 98
REMARK H PARENT 8 24 88 51 56 62
REMARK Flexibility Score: inf
ROOT
ATOM      1  O   UNL     1       5.106   0.650   0.971  1.00  0.00    -0.462 OA
ENDROOT
BRANCH   1   2
ATOM      2  C   UNL     1       3.925   0.152   1.437  1.00  0.00     0.310 C 
ATOM      3  O   UNL     1       3.655  -1.038   1.529  1.00  0.00    -0.252 OA
BRANCH   2   4
ATOM      4  C   UNL     1       2.997   1.279   1.846  1.00  0.00     0.114 C 
ATOM      5  N   UNL     1       1.216   2.624   0.645  1.00  0.00    -0.197 NA
ATOM      6  C   UNL     1       0.206   2.220   1.637  1.00  0.00     0.102 C 
ATOM      7  C   UNL     1       2.537   1.968   0.577  1.00  0.00     0.117 C 
ATOM      8  C   UNL     1       0.835   1.827   2.959  1.00  0.00     0.018 C 
ATOM      9  C   UNL     1       1.878   0.751   2.742  1.00  0.00     0.018 C 
BRANCH   5  10
ATOM     10  S   UNL     1       0.610   3.184  -0.828  1.00  0.00     0.246 S 
ATOM     11  O   UNL     1       1.727   3.752  -1.567  1.00  0.00    -0.207 OA
ATOM     12  O   UNL     1      -0.582   3.951  -0.565  1.00  0.00    -0.207 OA
BRANCH  10  13
ATOM     13  C   UNL     1       0.070   1.933  -1.895  1.00  0.00     0.126 A 
ATOM     14  C   UNL     1       0.749  -0.430  -0.848  1.00  0.00     0.070 C 
ATOM     15  C   UNL     1       0.227   0.523  -1.857  1.00  0.00     0.080 A 
ATOM     16  N   UNL     1      -0.165  -0.026  -3.015  1.00  0.00    -0.176 NA
ATOM     17  N   UNL     1      -0.488   1.011  -3.800  1.00  0.00    -0.259 N 
ATOM     18  C   UNL     1      -0.560   2.195  -3.109  1.00  0.00     0.056 A 
ATOM     19  C   UNL     1      -1.084   3.470  -3.671  1.00  0.00     0.068 C 
BRANCH  17  20
ATOM     20  C   UNL     1      -0.706   0.792  -5.215  1.00  0.00     0.244 C 
BRANCH  20  21
ATOM     21  C   UNL     1       0.305  -0.110  -5.882  1.00  0.00     0.242 C 
ATOM     22  O   UNL     1      -0.049  -1.220  -6.307  1.00  0.00    -0.273 OA
ATOM     23  N   UNL     1       1.571   0.260  -6.213  1.00  0.00    -0.350 N 
ATOM     24  H   UNL     1       1.942  -0.342  -6.898  1.00  0.00     0.164 HD
BRANCH  23  25
ATOM     25  C   UNL     1       2.555   1.304  -5.845  1.00  0.00     0.032 C 
ATOM     26  C   UNL     1       3.586   0.669  -4.895  1.00  0.00     0.034 C 
ATOM     27  C   UNL     1       3.266   1.739  -7.140  1.00  0.00     0.034 C 
ATOM     28  C   UNL     1       2.007   2.569  -5.193  1.00  0.00     0.034 C 
ENDBRANCH  23  25
ENDBRANCH  20  21
ENDBRANCH  17  20
ENDBRANCH  10  13
ENDBRANCH   5  10
ENDBRANCH   2   4
ENDBRANCH   1   2
BRANCH   1  29
ATOM     29  C   UNL     1       6.171  -0.304   0.813  1.00  0.00     0.274 C 
BRANCH  29  30
ATOM     30  C   UNL     1       7.003  -0.400   2.086  1.00  0.00     0.275 C 
BRANCH  30  31
ATOM     31  O   UNL     1       6.275  -1.014   3.153  1.00  0.00    -0.458 OA
BRANCH  31  32
ATOM     32  C   UNL     1       5.611  -0.153   3.954  1.00  0.00     0.338 C 
ATOM     33  O   UNL     1       5.370   1.024   3.740  1.00  0.00    -0.246 OA
BRANCH  32  34
ATOM     34  C   UNL     1       5.355  -0.772   5.253  1.00  0.00     0.060 A 
ATOM     35  C   UNL     1       4.464  -0.122   6.114  1.00  0.00     0.016 A 
ATOM     36  C   UNL     1       6.196  -1.801   5.693  1.00  0.00     0.016 A 
ATOM     37  C   UNL     1       4.519  -0.411   7.462  1.00  0.00     0.010 A 
ATOM     38  C   UNL     1       6.258  -2.078   7.039  1.00  0.00     0.010 A 
ATOM     39  C   UNL     1       5.465  -1.335   7.914  1.00  0.00    -0.014 A 
BRANCH  39  40
ATOM     40  C   UNL     1       5.563  -1.568   9.342  1.00  0.00     0.031 A 
ATOM     41  C   UNL     1       4.442  -2.351   9.903  1.00  0.00     0.074 A 
ATOM     42  C   UNL     1       6.656  -1.222  10.049  1.00  0.00     0.049 A 
ATOM     43  N   UNL     1       3.656  -2.025  10.874  1.00  0.00    -0.248 NA
ATOM     44  C   UNL     1       4.096  -3.621   9.244  1.00  0.00     0.031 C 
ATOM     45  C   UNL     1       7.924  -0.722   9.508  1.00  0.00     0.029 A 
ATOM     46  N   UNL     1       6.912  -1.355  11.384  1.00  0.00    -0.354 N 
ATOM     47  C   UNL     1       2.835  -3.130  11.072  1.00  0.00     0.074 A 
ATOM     48  C   UNL     1       3.043  -4.015   9.959  1.00  0.00     0.031 C 
ATOM     49  C   UNL     1       8.874  -0.800  10.463  1.00  0.00     0.029 A 
ATOM     50  C   UNL     1       8.254  -1.226  11.708  1.00  0.00     0.049 A 
ATOM     51  H   UNL     1       6.211  -1.526  12.053  1.00  0.00     0.167 HD
ATOM     52  C   UNL     1       2.261  -3.353  12.282  1.00  0.00     0.037 A 
ATOM     53  C   UNL     1       8.839  -1.497  12.898  1.00  0.00     0.037 A 
ATOM     54  C   UNL     1       2.263  -2.173  13.101  1.00  0.00     0.049 A 
ATOM     55  C   UNL     1       7.801  -1.479  13.953  1.00  0.00     0.074 A 
ATOM     56  C   UNL     1       1.486  -1.046  13.240  1.00  0.00     0.029 A 
ATOM     57  N   UNL     1       3.440  -1.942  13.757  1.00  0.00    -0.354 N 
ATOM     58  N   UNL     1       7.185  -0.400  14.344  1.00  0.00    -0.248 NA
ATOM     59  C   UNL     1       7.213  -2.736  14.410  1.00  0.00     0.031 C 
ATOM     60  C   UNL     1       2.290  -0.078  13.914  1.00  0.00     0.029 A 
ATOM     61  C   UNL     1       3.538  -0.639  14.166  1.00  0.00     0.049 A 
ATOM     62  H   UNL     1       4.130  -2.626  13.915  1.00  0.00     0.167 HD
ATOM     63  C   UNL     1       5.934  -0.844  14.719  1.00  0.00     0.074 A 
ATOM     64  C   UNL     1       6.069  -2.277  14.924  1.00  0.00     0.031 C 
ATOM     65  C   UNL     1       4.829  -0.082  14.491  1.00  0.00     0.037 A 
BRANCH  52  66
ATOM     66  C   UNL     1       2.128  -4.722  12.907  1.00  0.00     0.064 A 
ATOM     67  C   UNL     1       1.380  -4.861  14.092  1.00  0.00     0.173 A 
ATOM     68  C   UNL     1       2.965  -5.813  12.581  1.00  0.00     0.173 A 
ATOM     69  F   UNL     1       0.571  -3.875  14.508  1.00  0.00    -0.203 F 
ATOM     70  C   UNL     1       1.511  -5.980  14.919  1.00  0.00     0.198 A 
ATOM     71  C   UNL     1       3.051  -6.950  13.380  1.00  0.00     0.198 A 
ATOM     72  F   UNL     1       3.816  -5.774  11.548  1.00  0.00    -0.203 F 
ATOM     73  F   UNL     1       0.872  -6.016  16.096  1.00  0.00    -0.200 F 
ATOM     74  C   UNL     1       2.349  -7.021  14.565  1.00  0.00     0.200 A 
ATOM     75  F   UNL     1       3.887  -7.939  13.031  1.00  0.00    -0.200 F 
ATOM     76  F   UNL     1       2.520  -8.068  15.383  1.00  0.00    -0.200 F 
ENDBRANCH  52  66
BRANCH  53  77
ATOM     77  C   UNL     1      10.226  -1.933  13.164  1.00  0.00     0.064 A 
ATOM     78  C   UNL     1      10.811  -1.759  14.427  1.00  0.00     0.173 A 
ATOM     79  C   UNL     1      10.917  -2.757  12.256  1.00  0.00     0.173 A 
ATOM     80  F   UNL     1      10.196  -1.020  15.361  1.00  0.00    -0.203 F 
ATOM     81  C   UNL     1      12.007  -2.395  14.771  1.00  0.00     0.198 A 
ATOM     82  C   UNL     1      12.117  -3.381  12.595  1.00  0.00     0.198 A 
ATOM     83  F   UNL     1      10.395  -3.045  11.054  1.00  0.00    -0.203 F 
ATOM     84  F   UNL     1      12.504  -2.257  16.008  1.00  0.00    -0.200 F 
ATOM     85  C   UNL     1      12.654  -3.212  13.858  1.00  0.00     0.200 A 
ATOM     86  F   UNL     1      12.716  -4.193  11.714  1.00  0.00    -0.200 F 
ATOM     87  F   UNL     1      13.769  -3.867  14.207  1.00  0.00    -0.200 F 
ENDBRANCH  53  77
BRANCH  65  88
ATOM     88  C   UNL     1       5.034   1.393  14.380  1.00  0.00     0.064 A 
ATOM     89  C   UNL     1       5.728   2.012  13.329  1.00  0.00     0.173 A 
ATOM     90  C   UNL     1       4.479   2.214  15.370  1.00  0.00     0.173 A 
ATOM     91  F   UNL     1       6.217   1.293  12.310  1.00  0.00    -0.203 F 
ATOM     92  C   UNL     1       5.903   3.394  13.303  1.00  0.00     0.198 A 
ATOM     93  C   UNL     1       4.625   3.596  15.323  1.00  0.00     0.198 A 
ATOM     94  F   UNL     1       3.772   1.673  16.375  1.00  0.00    -0.203 F 
ATOM     95  F   UNL     1       6.596   3.965  12.307  1.00  0.00    -0.200 F 
ATOM     96  C   UNL     1       5.349   4.184  14.298  1.00  0.00     0.200 A 
ATOM     97  F   UNL     1       4.055   4.358  16.266  1.00  0.00    -0.200 F 
ATOM     98  F   UNL     1       5.499   5.516  14.262  1.00  0.00    -0.200 F 
ENDBRANCH  65  88
ENDBRANCH  39  40
ENDBRANCH  32  34
ENDBRANCH  31  32
ENDBRANCH  30  31
ENDBRANCH  29  30
ENDBRANCH   1  29
TORSDOF 16
