REMARK SMILES CCc1c(C)sc(NC(=O)[C@H]2CC(C)=C(C)C[C@H]2C(=O)OCCOC(=O)c2ccc(-c3c4nc(c(-c5c(F)c(F)c(F)c(F)c5F)c5ccc([nH]5)c(-c5c(F)c(F)c(F)c(F)c5F)c5nc(c(-c6c(F)c(F)c(F)c(F)c6F)c6ccc3[nH]6)C=C5)C=C4)cc2)c1C(=O)NC1CC1
REMARK SMILES IDX 22 1 21 2 19 3 20 4 18 5 11 6 12 7 13 8 17 9 14 10 15 11
REMARK SMILES IDX 16 12 9 13 8 14 10 16 7 17 3 18 4 19 90 20 5 21 6 22 2 23
REMARK SMILES IDX 1 24 91 25 92 26 93 27 94 29 95 30 96 31 23 32 24 33 25 34
REMARK SMILES IDX 26 35 27 36 28 37 89 38 29 39 88 40 30 41 31 42 32 43 82 44
REMARK SMILES IDX 33 45 87 46 81 47 83 48 34 49 86 50 80 51 79 52 35 54 67 55
REMARK SMILES IDX 47 56 66 57 48 58 51 59 65 60 84 61 49 62 50 63 64 65 85 66
REMARK SMILES IDX 52 67 36 68 37 69 45 70 38 71 39 72 43 73 46 74 40 75 41 76
REMARK SMILES IDX 44 77 42 78 68 79 69 80 77 81 70 82 71 83 75 84 78 85 72 86
REMARK SMILES IDX 73 87 76 88 74 89 53 90 54 91 62 92 55 93 56 94 60 95 63 96
REMARK SMILES IDX 57 97 58 98 61 99 59 100
REMARK H PARENT 8 15 93 28 83 53 51 64
REMARK Flexibility Score: inf
ROOT
ATOM      1  C   UNL     1       4.480   0.796   3.922  1.00  0.00     0.274 C 
ENDROOT
BRANCH   1   2
ATOM      2  O   UNL     1       3.596  -0.138   4.576  1.00  0.00    -0.462 OA
BRANCH   2   3
ATOM      3  C   UNL     1       4.171  -1.212   5.145  1.00  0.00     0.310 C 
ATOM      4  O   UNL     1       5.374  -1.462   5.072  1.00  0.00    -0.252 OA
BRANCH   3   5
ATOM      5  C   UNL     1       3.225  -2.154   5.872  1.00  0.00     0.116 C 
ATOM      6  C   UNL     1       1.850  -1.703   6.397  1.00  0.00     0.097 C 
ATOM      7  C   UNL     1       0.902  -2.857   6.770  1.00  0.00     0.045 C 
ATOM      8  C   UNL     1       1.075  -4.180   6.048  1.00  0.00    -0.074 C 
ATOM      9  C   UNL     1       3.304  -3.498   5.142  1.00  0.00     0.046 C 
ATOM     10  C   UNL     1      -0.140  -5.070   6.147  1.00  0.00     0.039 C 
ATOM     11  C   UNL     1       2.178  -4.478   5.331  1.00  0.00    -0.073 C 
ATOM     12  C   UNL     1       2.425  -5.775   4.598  1.00  0.00     0.039 C 
BRANCH   6  13
ATOM     13  C   UNL     1       1.093  -0.436   5.939  1.00  0.00     0.229 C 
ATOM     14  N   UNL     1       0.772  -0.088   4.666  1.00  0.00    -0.317 N 
ATOM     15  H   UNL     1       0.481   0.846   4.557  1.00  0.00     0.170 HD
ATOM     16  O   UNL     1       0.726   0.369   6.812  1.00  0.00    -0.274 OA
BRANCH  14  17
ATOM     17  C   UNL     1       0.785  -0.820   3.509  1.00  0.00     0.108 A 
ATOM     18  C   UNL     1       1.386  -1.554   1.423  1.00  0.00    -0.020 A 
ATOM     19  C   UNL     1       0.856  -2.710   1.986  1.00  0.00     0.008 A 
ATOM     20  C   UNL     1       0.964  -0.397   2.201  1.00  0.00     0.078 A 
ATOM     21  C   UNL     1       0.804  -4.093   1.433  1.00  0.00     0.057 C 
ATOM     22  S   UNL     1       0.197  -2.398   3.519  1.00  0.00    -0.122 S 
BRANCH  18  23
ATOM     23  C   UNL     1       2.215  -1.577   0.166  1.00  0.00     0.034 C 
ATOM     24  C   UNL     1       3.100  -0.366  -0.075  1.00  0.00     0.009 C 
ENDBRANCH  18  23
BRANCH  20  25
ATOM     25  C   UNL     1       1.013   1.007   1.827  1.00  0.00     0.254 C 
ATOM     26  O   UNL     1       1.679   1.827   2.459  1.00  0.00    -0.269 OA
ATOM     27  N   UNL     1       0.285   1.464   0.749  1.00  0.00    -0.349 N 
ATOM     28  H   UNL     1       0.637   2.302   0.370  1.00  0.00     0.164 HD
BRANCH  27  29
ATOM     29  C   UNL     1      -0.874   0.979   0.064  1.00  0.00     0.082 C 
ATOM     30  C   UNL     1      -0.711   0.199  -1.215  1.00  0.00     0.027 C 
ATOM     31  C   UNL     1      -1.422  -0.409  -0.044  1.00  0.00     0.027 C 
ENDBRANCH  27  29
ENDBRANCH  20  25
ENDBRANCH  14  17
ENDBRANCH   6  13
ENDBRANCH   3   5
ENDBRANCH   2   3
ENDBRANCH   1   2
BRANCH   1  32
ATOM     32  C   UNL     1       4.738   2.023   4.799  1.00  0.00     0.275 C 
BRANCH  32  33
ATOM     33  O   UNL     1       5.602   1.709   5.911  1.00  0.00    -0.458 OA
BRANCH  33  34
ATOM     34  C   UNL     1       4.960   1.248   7.007  1.00  0.00     0.338 C 
ATOM     35  O   UNL     1       3.761   1.107   7.164  1.00  0.00    -0.246 OA
BRANCH  34  36
ATOM     36  C   UNL     1       5.926   0.776   8.003  1.00  0.00     0.060 A 
ATOM     37  C   UNL     1       5.956  -0.592   8.279  1.00  0.00     0.016 A 
ATOM     38  C   UNL     1       6.691   1.672   8.748  1.00  0.00     0.016 A 
ATOM     39  C   UNL     1       6.731  -1.077   9.321  1.00  0.00     0.010 A 
ATOM     40  C   UNL     1       7.491   1.181   9.783  1.00  0.00     0.010 A 
ATOM     41  C   UNL     1       7.503  -0.193  10.082  1.00  0.00    -0.014 A 
BRANCH  41  42
ATOM     42  C   UNL     1       8.308  -0.723  11.203  1.00  0.00     0.031 A 
ATOM     43  C   UNL     1       7.894  -0.452  12.617  1.00  0.00     0.074 A 
ATOM     44  C   UNL     1       9.386  -1.480  10.935  1.00  0.00     0.049 A 
ATOM     45  N   UNL     1       8.514  -0.745  13.731  1.00  0.00    -0.248 NA
ATOM     46  C   UNL     1       6.611   0.243  12.804  1.00  0.00     0.031 C 
ATOM     47  C   UNL     1       9.837  -1.857   9.595  1.00  0.00     0.029 A 
ATOM     48  N   UNL     1      10.292  -2.074  11.774  1.00  0.00    -0.354 N 
ATOM     49  C   UNL     1       7.715  -0.245  14.749  1.00  0.00     0.074 A 
ATOM     50  C   UNL     1       6.567   0.376  14.122  1.00  0.00     0.031 C 
ATOM     51  C   UNL     1      10.926  -2.633   9.702  1.00  0.00     0.029 A 
ATOM     52  C   UNL     1      11.282  -2.755  11.112  1.00  0.00     0.049 A 
ATOM     53  H   UNL     1      10.239  -2.017  12.755  1.00  0.00     0.167 HD
ATOM     54  C   UNL     1       7.930  -0.300  16.086  1.00  0.00     0.037 A 
ATOM     55  C   UNL     1      12.371  -3.382  11.591  1.00  0.00     0.037 A 
ATOM     56  C   UNL     1       9.070  -0.936  16.694  1.00  0.00     0.049 A 
ATOM     57  C   UNL     1      12.613  -3.383  13.073  1.00  0.00     0.074 A 
ATOM     58  C   UNL     1       9.391  -1.042  18.035  1.00  0.00     0.029 A 
ATOM     59  N   UNL     1      10.078  -1.582  15.990  1.00  0.00    -0.354 N 
ATOM     60  N   UNL     1      11.879  -2.869  14.030  1.00  0.00    -0.248 NA
ATOM     61  C   UNL     1      13.841  -4.038  13.540  1.00  0.00     0.031 C 
ATOM     62  C   UNL     1      10.611  -1.722  18.141  1.00  0.00     0.029 A 
ATOM     63  C   UNL     1      11.029  -2.076  16.868  1.00  0.00     0.049 A 
ATOM     64  H   UNL     1      10.111  -1.675  15.010  1.00  0.00     0.167 HD
ATOM     65  C   UNL     1      12.546  -3.146  15.213  1.00  0.00     0.074 A 
ATOM     66  C   UNL     1      13.737  -3.891  14.854  1.00  0.00     0.031 C 
ATOM     67  C   UNL     1      12.208  -2.810  16.483  1.00  0.00     0.037 A 
BRANCH  54  68
ATOM     68  C   UNL     1       6.931   0.385  16.971  1.00  0.00     0.064 A 
ATOM     69  C   UNL     1       5.648  -0.140  17.186  1.00  0.00     0.173 A 
ATOM     70  C   UNL     1       7.267   1.582  17.622  1.00  0.00     0.173 A 
ATOM     71  F   UNL     1       5.271  -1.273  16.575  1.00  0.00    -0.203 F 
ATOM     72  C   UNL     1       4.729   0.523  17.997  1.00  0.00     0.198 A 
ATOM     73  C   UNL     1       6.355   2.228  18.453  1.00  0.00     0.198 A 
ATOM     74  F   UNL     1       8.482   2.125  17.454  1.00  0.00    -0.203 F 
ATOM     75  F   UNL     1       3.493   0.028  18.151  1.00  0.00    -0.200 F 
ATOM     76  C   UNL     1       5.085   1.703  18.633  1.00  0.00     0.200 A 
ATOM     77  F   UNL     1       6.704   3.364  19.073  1.00  0.00    -0.200 F 
ATOM     78  F   UNL     1       4.200   2.339  19.413  1.00  0.00    -0.200 F 
ENDBRANCH  54  68
BRANCH  55  79
ATOM     79  C   UNL     1      13.313  -4.038  10.650  1.00  0.00     0.064 A 
ATOM     80  C   UNL     1      13.414  -5.434  10.590  1.00  0.00     0.173 A 
ATOM     81  C   UNL     1      14.107  -3.286   9.771  1.00  0.00     0.173 A 
ATOM     82  F   UNL     1      12.693  -6.194  11.427  1.00  0.00    -0.203 F 
ATOM     83  C   UNL     1      14.276  -6.053   9.687  1.00  0.00     0.198 A 
ATOM     84  C   UNL     1      14.947  -3.906   8.851  1.00  0.00     0.198 A 
ATOM     85  F   UNL     1      14.046  -1.946   9.790  1.00  0.00    -0.203 F 
ATOM     86  F   UNL     1      14.375  -7.389   9.668  1.00  0.00    -0.200 F 
ATOM     87  C   UNL     1      15.034  -5.289   8.812  1.00  0.00     0.200 A 
ATOM     88  F   UNL     1      15.668  -3.165   7.998  1.00  0.00    -0.200 F 
ATOM     89  F   UNL     1      15.852  -5.886   7.934  1.00  0.00    -0.200 F 
ENDBRANCH  55  79
BRANCH  67  90
ATOM     90  C   UNL     1      13.133  -3.267  17.569  1.00  0.00     0.064 A 
ATOM     91  C   UNL     1      14.376  -2.651  17.779  1.00  0.00     0.173 A 
ATOM     92  C   UNL     1      12.766  -4.322  18.417  1.00  0.00     0.173 A 
ATOM     93  F   UNL     1      14.777  -1.651  16.981  1.00  0.00    -0.203 F 
ATOM     94  C   UNL     1      15.229  -3.094  18.786  1.00  0.00     0.198 A 
ATOM     95  C   UNL     1      13.612  -4.745  19.438  1.00  0.00     0.198 A 
ATOM     96  F   UNL     1      11.587  -4.940  18.256  1.00  0.00    -0.203 F 
ATOM     97  F   UNL     1      16.433  -2.524  18.940  1.00  0.00    -0.200 F 
ATOM     98  C   UNL     1      14.845  -4.136  19.616  1.00  0.00     0.200 A 
ATOM     99  F   UNL     1      13.237  -5.747  20.245  1.00  0.00    -0.200 F 
ATOM    100  F   UNL     1      15.670  -4.562  20.584  1.00  0.00    -0.200 F 
ENDBRANCH  67  90
ENDBRANCH  41  42
ENDBRANCH  34  36
ENDBRANCH  33  34
ENDBRANCH  32  33
ENDBRANCH   1  32
TORSDOF 16
