REMARK SMILES COc1ccc(C(=O)N[C@H](C(=O)OCCOC(=O)c2ccc(-c3c4nc(c(-c5c(F)c(F)c(F)c(F)c5F)c5ccc([nH]5)c(-c5c(F)c(F)c(F)c(F)c5F)c5nc(c(-c6c(F)c(F)c(F)c(F)c6F)c6ccc3[nH]6)C=C5)C=C4)cc2)C2=C(C)N=N[C@H]2C)c(F)c1F
REMARK SMILES IDX 14 1 13 2 11 3 12 4 10 5 9 6 7 7 8 8 6 10 3 11 4 12 91 13
REMARK SMILES IDX 5 14 89 15 92 16 90 17 2 18 1 19 82 20 83 21 87 22 84 23
REMARK SMILES IDX 85 24 86 25 88 26 15 27 16 28 17 29 18 30 19 31 20 32 81 33
REMARK SMILES IDX 21 34 80 35 22 36 23 37 24 38 74 39 25 40 79 41 73 42 75 43
REMARK SMILES IDX 26 44 78 45 72 46 71 47 27 49 59 50 39 51 58 52 40 53 43 54
REMARK SMILES IDX 57 55 76 56 41 57 42 58 56 60 77 61 44 62 28 63 29 64 37 65
REMARK SMILES IDX 30 66 31 67 35 68 38 69 32 70 33 71 36 72 34 73 60 74 61 75
REMARK SMILES IDX 69 76 62 77 63 78 67 79 70 80 64 81 65 82 68 83 66 84 45 85
REMARK SMILES IDX 46 86 54 87 47 88 48 89 52 90 55 91 49 92 50 93 53 94 51 95
REMARK H PARENT 9 9 75 48 43 59
REMARK Flexibility Score: inf
ROOT
ATOM      1  C   UNL     1       2.822  -6.747   1.558  1.00  0.00     0.274 C 
ENDROOT
BRANCH   1   2
ATOM      2  O   UNL     1       1.407  -7.008   1.758  1.00  0.00    -0.460 OA
BRANCH   2   3
ATOM      3  C   UNL     1       0.612  -6.228   2.532  1.00  0.00     0.333 C 
ATOM      4  O   UNL     1       0.968  -5.171   3.033  1.00  0.00    -0.249 OA
BRANCH   3   5
ATOM      5  C   UNL     1      -0.840  -6.793   2.659  1.00  0.00     0.223 C 
BRANCH   5   6
ATOM      6  N   UNL     1      -1.197  -8.012   1.919  1.00  0.00    -0.335 N 
ATOM      7  C   UNL     1      -0.678  -9.262   1.723  1.00  0.00     0.255 C 
ATOM      8  O   UNL     1      -1.354 -10.032   1.035  1.00  0.00    -0.269 OA
ATOM      9  H   UNL     1      -2.043  -7.896   1.428  1.00  0.00     0.165 HD
BRANCH   7  10
ATOM     10  C   UNL     1       0.634  -9.757   2.195  1.00  0.00     0.078 A 
ATOM     11  C   UNL     1       3.133 -10.832   2.936  1.00  0.00     0.157 A 
ATOM     12  C   UNL     1       2.556 -11.194   1.720  1.00  0.00     0.050 A 
ATOM     13  C   UNL     1       2.437  -9.982   3.792  1.00  0.00     0.201 A 
ATOM     14  C   UNL     1       1.314 -10.659   1.355  1.00  0.00     0.021 A 
ATOM     15  C   UNL     1       1.204  -9.450   3.423  1.00  0.00     0.175 A 
ATOM     16  F   UNL     1       2.963  -9.645   4.979  1.00  0.00    -0.200 F 
ATOM     17  F   UNL     1       0.598  -8.631   4.283  1.00  0.00    -0.203 F 
BRANCH  11  18
ATOM     18  O   UNL     1       4.335 -11.316   3.371  1.00  0.00    -0.494 OA
ATOM     19  C   UNL     1       5.363 -11.265   2.386  1.00  0.00     0.278 C 
ENDBRANCH  11  18
ENDBRANCH   7  10
ENDBRANCH   5   6
BRANCH   5  20
ATOM     20  C   UNL     1      -1.517  -6.715   4.011  1.00  0.00     0.012 C 
ATOM     21  C   UNL     1      -2.002  -7.616   4.886  1.00  0.00     0.064 C 
ATOM     22  C   UNL     1      -2.008  -5.390   4.557  1.00  0.00     0.156 C 
ATOM     23  C   UNL     1      -2.050  -9.109   4.877  1.00  0.00     0.069 C 
ATOM     24  N   UNL     1      -2.643  -7.031   5.952  1.00  0.00    -0.160 NA
ATOM     25  N   UNL     1      -2.693  -5.787   5.814  1.00  0.00    -0.181 NA
ATOM     26  C   UNL     1      -1.010  -4.304   4.928  1.00  0.00     0.040 C 
ENDBRANCH   5  20
ENDBRANCH   3   5
ENDBRANCH   2   3
ENDBRANCH   1   2
BRANCH   1  27
ATOM     27  C   UNL     1       3.570  -5.863   2.560  1.00  0.00     0.275 C 
BRANCH  27  28
ATOM     28  O   UNL     1       3.325  -6.324   3.894  1.00  0.00    -0.458 OA
BRANCH  28  29
ATOM     29  C   UNL     1       3.705  -5.439   4.852  1.00  0.00     0.338 C 
ATOM     30  O   UNL     1       4.433  -4.473   4.693  1.00  0.00    -0.246 OA
BRANCH  29  31
ATOM     31  C   UNL     1       3.072  -5.781   6.151  1.00  0.00     0.060 A 
ATOM     32  C   UNL     1       1.833  -6.423   6.198  1.00  0.00     0.016 A 
ATOM     33  C   UNL     1       3.667  -5.356   7.340  1.00  0.00     0.016 A 
ATOM     34  C   UNL     1       1.163  -6.593   7.410  1.00  0.00     0.010 A 
ATOM     35  C   UNL     1       3.025  -5.585   8.564  1.00  0.00     0.010 A 
ATOM     36  C   UNL     1       1.751  -6.181   8.611  1.00  0.00    -0.014 A 
BRANCH  36  37
ATOM     37  C   UNL     1       1.013  -6.288   9.901  1.00  0.00     0.031 A 
ATOM     38  C   UNL     1       0.697  -5.040  10.682  1.00  0.00     0.074 A 
ATOM     39  C   UNL     1       0.595  -7.478  10.373  1.00  0.00     0.049 A 
ATOM     40  N   UNL     1       0.284  -4.914  11.918  1.00  0.00    -0.248 NA
ATOM     41  C   UNL     1       0.875  -3.761   9.976  1.00  0.00     0.031 C 
ATOM     42  C   UNL     1       0.735  -8.761   9.685  1.00  0.00     0.029 A 
ATOM     43  N   UNL     1      -0.045  -7.800  11.547  1.00  0.00    -0.354 N 
ATOM     44  C   UNL     1       0.211  -3.548  12.155  1.00  0.00     0.074 A 
ATOM     45  C   UNL     1       0.615  -2.883  10.935  1.00  0.00     0.031 C 
ATOM     46  C   UNL     1       0.164  -9.722  10.428  1.00  0.00     0.029 A 
ATOM     47  C   UNL     1      -0.296  -9.143  11.688  1.00  0.00     0.049 A 
ATOM     48  H   UNL     1      -0.300  -7.130  12.223  1.00  0.00     0.167 HD
ATOM     49  C   UNL     1      -0.156  -2.909  13.292  1.00  0.00     0.037 A 
ATOM     50  C   UNL     1      -0.793  -9.839  12.730  1.00  0.00     0.037 A 
ATOM     51  C   UNL     1      -0.620  -3.572  14.482  1.00  0.00     0.049 A 
ATOM     52  C   UNL     1      -1.133  -9.117  14.006  1.00  0.00     0.074 A 
ATOM     53  C   UNL     1      -0.997  -3.012  15.690  1.00  0.00     0.029 A 
ATOM     54  N   UNL     1      -0.796  -4.942  14.604  1.00  0.00    -0.354 N 
ATOM     55  N   UNL     1      -1.087  -7.834  14.268  1.00  0.00    -0.248 NA
ATOM     56  C   UNL     1      -1.560  -9.945  15.145  1.00  0.00     0.031 C 
ATOM     57  C   UNL     1      -1.372  -4.045  16.554  1.00  0.00     0.029 A 
ATOM     58  C   UNL     1      -1.267  -5.246  15.871  1.00  0.00     0.049 A 
ATOM     59  H   UNL     1      -0.613  -5.601  13.896  1.00  0.00     0.167 HD
ATOM     60  C   UNL     1      -1.478  -7.699  15.593  1.00  0.00     0.074 A 
ATOM     61  C   UNL     1      -1.781  -9.029  16.078  1.00  0.00     0.031 C 
ATOM     62  C   UNL     1      -1.567  -6.573  16.341  1.00  0.00     0.037 A 
BRANCH  49  63
ATOM     63  C   UNL     1      -0.040  -1.415  13.325  1.00  0.00     0.064 A 
ATOM     64  C   UNL     1       0.964  -0.807  14.097  1.00  0.00     0.173 A 
ATOM     65  C   UNL     1      -0.949  -0.584  12.657  1.00  0.00     0.173 A 
ATOM     66  F   UNL     1       1.854  -1.558  14.761  1.00  0.00    -0.203 F 
ATOM     67  C   UNL     1       1.043   0.578  14.208  1.00  0.00     0.198 A 
ATOM     68  C   UNL     1      -0.850   0.803  12.749  1.00  0.00     0.198 A 
ATOM     69  F   UNL     1      -1.917  -1.116  11.896  1.00  0.00    -0.203 F 
ATOM     70  F   UNL     1       1.990   1.135  14.976  1.00  0.00    -0.200 F 
ATOM     71  C   UNL     1       0.139   1.382  13.531  1.00  0.00     0.200 A 
ATOM     72  F   UNL     1      -1.711   1.580  12.077  1.00  0.00    -0.200 F 
ATOM     73  F   UNL     1       0.221   2.716  13.631  1.00  0.00    -0.200 F 
ENDBRANCH  49  63
BRANCH  50  74
ATOM     74  C   UNL     1      -0.952 -11.313  12.621  1.00  0.00     0.064 A 
ATOM     75  C   UNL     1       0.160 -12.163  12.519  1.00  0.00     0.173 A 
ATOM     76  C   UNL     1      -2.224 -11.900  12.596  1.00  0.00     0.173 A 
ATOM     77  F   UNL     1       1.400 -11.653  12.549  1.00  0.00    -0.203 F 
ATOM     78  C   UNL     1       0.005 -13.537  12.358  1.00  0.00     0.198 A 
ATOM     79  C   UNL     1      -2.378 -13.280  12.466  1.00  0.00     0.198 A 
ATOM     80  F   UNL     1      -3.318 -11.135  12.726  1.00  0.00    -0.203 F 
ATOM     81  F   UNL     1       1.084 -14.320  12.219  1.00  0.00    -0.200 F 
ATOM     82  C   UNL     1      -1.264 -14.095  12.335  1.00  0.00     0.200 A 
ATOM     83  F   UNL     1      -3.604 -13.819  12.476  1.00  0.00    -0.200 F 
ATOM     84  F   UNL     1      -1.413 -15.419  12.191  1.00  0.00    -0.200 F 
ENDBRANCH  50  74
BRANCH  62  85
ATOM     85  C   UNL     1      -2.019  -6.714  17.763  1.00  0.00     0.064 A 
ATOM     86  C   UNL     1      -3.291  -6.271  18.155  1.00  0.00     0.173 A 
ATOM     87  C   UNL     1      -1.158  -7.206  18.755  1.00  0.00     0.173 A 
ATOM     88  F   UNL     1      -4.147  -5.785  17.244  1.00  0.00    -0.203 F 
ATOM     89  C   UNL     1      -3.678  -6.298  19.491  1.00  0.00     0.198 A 
ATOM     90  C   UNL     1      -1.557  -7.253  20.088  1.00  0.00     0.198 A 
ATOM     91  F   UNL     1       0.064  -7.652  18.427  1.00  0.00    -0.203 F 
ATOM     92  F   UNL     1      -4.885  -5.838  19.848  1.00  0.00    -0.200 F 
ATOM     93  C   UNL     1      -2.812  -6.790  20.456  1.00  0.00     0.200 A 
ATOM     94  F   UNL     1      -0.727  -7.746  21.017  1.00  0.00    -0.200 F 
ATOM     95  F   UNL     1      -3.187  -6.818  21.742  1.00  0.00    -0.200 F 
ENDBRANCH  62  85
ENDBRANCH  36  37
ENDBRANCH  29  31
ENDBRANCH  28  29
ENDBRANCH  27  28
ENDBRANCH   1  27
TORSDOF 15
