REMARK SMILES O=C(OCCOC(=O)[C@@H](Cc1ccccc1)Nc1ccc(Cl)c(Br)c1)c1ccc(-c2c3nc(c(-c4c(F)c(F)c(F)c(F)c4F)c4ccc([nH]4)c(-c4c(F)c(F)c(F)c(F)c4F)c4nc(c(-c5c(F)c(F)c(F)c(F)c5F)c5ccc2[nH]5)C=C4)C=C3)cc1
REMARK SMILES IDX 4 1 3 2 2 3 1 4 26 5 27 6 88 7 28 8 87 9 29 10 30 11 31 12
REMARK SMILES IDX 81 13 32 14 86 15 80 16 82 17 33 18 85 19 79 20 78 21 34 23
REMARK SMILES IDX 66 24 46 25 65 26 47 27 50 28 64 29 83 30 48 31 49 32 63 34
REMARK SMILES IDX 84 35 51 36 35 37 36 38 44 39 37 40 38 41 42 42 45 43 39 44
REMARK SMILES IDX 40 45 43 46 41 47 67 48 68 49 76 50 69 51 70 52 74 53 77 54
REMARK SMILES IDX 71 55 72 56 75 57 73 58 52 59 53 60 61 61 54 62 55 63 59 64
REMARK SMILES IDX 62 65 56 66 57 67 60 68 58 69 5 70 6 71 7 72 8 73 9 74 10 75
REMARK SMILES IDX 11 76 12 77 16 78 13 79 15 80 14 81 17 82 18 84 19 85 25 86
REMARK SMILES IDX 20 87 23 88 21 89 24 90 22 91
REMARK H PARENT 82 22 50 33 17 83
REMARK Flexibility Score: inf
ROOT
ATOM      1  C   UNL     1       4.391  -2.246   0.440  1.00  0.00     0.275 C 
ENDROOT
BRANCH   1   2
ATOM      2  O   UNL     1       3.498  -1.427   1.186  1.00  0.00    -0.458 OA
BRANCH   2   3
ATOM      3  C   UNL     1       3.131  -0.179   0.872  1.00  0.00     0.338 C 
ATOM      4  O   UNL     1       2.240   0.364   1.523  1.00  0.00    -0.246 OA
BRANCH   3   5
ATOM      5  C   UNL     1       3.690   0.608  -0.267  1.00  0.00     0.060 A 
ATOM      6  C   UNL     1       4.521   0.082  -1.839  1.00  0.00     0.016 A 
ATOM      7  C   UNL     1       3.116   2.318  -0.115  1.00  0.00     0.016 A 
ATOM      8  C   UNL     1       4.828   1.325  -3.161  1.00  0.00     0.010 A 
ATOM      9  C   UNL     1       3.261   3.452  -1.513  1.00  0.00     0.010 A 
ATOM     10  C   UNL     1       4.226   3.036  -2.984  1.00  0.00    -0.014 A 
BRANCH  10  11
ATOM     11  C   UNL     1       4.593   4.108  -3.976  1.00  0.00     0.031 A 
ATOM     12  C   UNL     1       5.125   5.470  -3.555  1.00  0.00     0.074 A 
ATOM     13  C   UNL     1       4.549   3.841  -5.292  1.00  0.00     0.049 A 
ATOM     14  N   UNL     1       6.010   6.234  -4.157  1.00  0.00    -0.248 NA
ATOM     15  C   UNL     1       4.665   6.053  -2.292  1.00  0.00     0.031 C 
ATOM     16  C   UNL     1       3.999   2.630  -5.887  1.00  0.00     0.029 A 
ATOM     17  N   UNL     1       4.970   4.577  -6.372  1.00  0.00    -0.354 N 
ATOM     18  C   UNL     1       6.330   7.237  -3.245  1.00  0.00     0.074 A 
ATOM     19  C   UNL     1       5.530   7.026  -2.072  1.00  0.00     0.031 C 
ATOM     20  C   UNL     1       4.151   2.676  -7.217  1.00  0.00     0.029 A 
ATOM     21  C   UNL     1       4.764   3.950  -7.576  1.00  0.00     0.049 A 
ATOM     22  H   UNL     1       5.380   5.468  -6.291  1.00  0.00     0.167 HD
ATOM     23  C   UNL     1       7.133   8.318  -3.381  1.00  0.00     0.037 A 
ATOM     24  C   UNL     1       5.020   4.367  -8.830  1.00  0.00     0.037 A 
ATOM     25  C   UNL     1       7.529   8.817  -4.663  1.00  0.00     0.049 A 
ATOM     26  C   UNL     1       5.697   5.696  -9.016  1.00  0.00     0.074 A 
ATOM     27  C   UNL     1       8.133  10.018  -4.976  1.00  0.00     0.029 A 
ATOM     28  N   UNL     1       7.205   8.194  -5.861  1.00  0.00    -0.354 N 
ATOM     29  N   UNL     1       6.160   6.519  -8.104  1.00  0.00    -0.248 NA
ATOM     30  C   UNL     1       5.879   6.163 -10.395  1.00  0.00     0.031 C 
ATOM     31  C   UNL     1       8.054  10.179  -6.364  1.00  0.00     0.029 A 
ATOM     32  C   UNL     1       7.505   9.029  -6.918  1.00  0.00     0.049 A 
ATOM     33  H   UNL     1       6.820   7.291  -5.944  1.00  0.00     0.167 HD
ATOM     34  C   UNL     1       6.691   7.599  -8.793  1.00  0.00     0.074 A 
ATOM     35  C   UNL     1       6.504   7.319 -10.204  1.00  0.00     0.031 C 
ATOM     36  C   UNL     1       7.282   8.720  -8.308  1.00  0.00     0.037 A 
BRANCH  23  37
ATOM     37  C   UNL     1       7.421   9.106  -2.132  1.00  0.00     0.064 A 
ATOM     38  C   UNL     1       8.296   8.606  -1.152  1.00  0.00     0.173 A 
ATOM     39  C   UNL     1       6.758  10.311  -1.860  1.00  0.00     0.173 A 
ATOM     40  F   UNL     1       8.933   7.440  -1.345  1.00  0.00    -0.203 F 
ATOM     41  C   UNL     1       8.478   9.274   0.059  1.00  0.00     0.198 A 
ATOM     42  C   UNL     1       6.950  10.981  -0.652  1.00  0.00     0.198 A 
ATOM     43  F   UNL     1       5.887  10.817  -2.745  1.00  0.00    -0.203 F 
ATOM     44  F   UNL     1       9.279   8.752   0.999  1.00  0.00    -0.200 F 
ATOM     45  C   UNL     1       7.802  10.458   0.309  1.00  0.00     0.200 A 
ATOM     46  F   UNL     1       6.282  12.116  -0.405  1.00  0.00    -0.200 F 
ATOM     47  F   UNL     1       7.952  11.083   1.485  1.00  0.00    -0.200 F 
ENDBRANCH  23  37
BRANCH  24  48
ATOM     48  C   UNL     1       4.593   3.512  -9.970  1.00  0.00     0.064 A 
ATOM     49  C   UNL     1       5.519   2.865 -10.797  1.00  0.00     0.173 A 
ATOM     50  C   UNL     1       3.229   3.247 -10.191  1.00  0.00     0.173 A 
ATOM     51  F   UNL     1       6.831   3.095 -10.644  1.00  0.00    -0.203 F 
ATOM     52  C   UNL     1       5.100   1.974 -11.786  1.00  0.00     0.198 A 
ATOM     53  C   UNL     1       2.814   2.333 -11.155  1.00  0.00     0.198 A 
ATOM     54  F   UNL     1       2.300   3.839  -9.425  1.00  0.00    -0.203 F 
ATOM     55  F   UNL     1       6.005   1.372 -12.570  1.00  0.00    -0.200 F 
ATOM     56  C   UNL     1       3.751   1.696 -11.952  1.00  0.00     0.200 A 
ATOM     57  F   UNL     1       1.512   2.051 -11.292  1.00  0.00    -0.200 F 
ATOM     58  F   UNL     1       3.354   0.809 -12.876  1.00  0.00    -0.200 F 
ENDBRANCH  24  48
BRANCH  36  59
ATOM     59  C   UNL     1       7.773   9.729  -9.298  1.00  0.00     0.064 A 
ATOM     60  C   UNL     1       6.892  10.567  -9.994  1.00  0.00     0.173 A 
ATOM     61  C   UNL     1       9.152   9.934  -9.457  1.00  0.00     0.173 A 
ATOM     62  F   UNL     1       5.566  10.404  -9.874  1.00  0.00    -0.203 F 
ATOM     63  C   UNL     1       7.377  11.574 -10.823  1.00  0.00     0.198 A 
ATOM     64  C   UNL     1       9.631  10.960 -10.262  1.00  0.00     0.198 A 
ATOM     65  F   UNL     1      10.030   9.164  -8.796  1.00  0.00    -0.203 F 
ATOM     66  F   UNL     1       6.521  12.352 -11.499  1.00  0.00    -0.200 F 
ATOM     67  C   UNL     1       8.744  11.777 -10.946  1.00  0.00     0.200 A 
ATOM     68  F   UNL     1      10.951  11.168 -10.362  1.00  0.00    -0.200 F 
ATOM     69  F   UNL     1       9.208  12.764 -11.725  1.00  0.00    -0.200 F 
ENDBRANCH  36  59
ENDBRANCH  10  11
ENDBRANCH   3   5
ENDBRANCH   2   3
ENDBRANCH   1   2
BRANCH   1  70
ATOM     70  C   UNL     1       3.640  -3.026  -0.648  1.00  0.00     0.274 C 
BRANCH  70  71
ATOM     71  O   UNL     1       3.259  -2.195  -1.772  1.00  0.00    -0.461 OA
BRANCH  71  72
ATOM     72  C   UNL     1       2.155  -1.390  -1.652  1.00  0.00     0.329 C 
ATOM     73  O   UNL     1       1.242  -1.607  -0.869  1.00  0.00    -0.250 OA
BRANCH  72  74
ATOM     74  C   UNL     1       2.259  -0.112  -2.576  1.00  0.00     0.194 C 
BRANCH  74  75
ATOM     75  C   UNL     1       3.098   1.448  -2.037  1.00  0.00     0.072 C 
BRANCH  75  76
ATOM     76  C   UNL     1       4.993   2.041  -1.174  1.00  0.00    -0.045 A 
ATOM     77  C   UNL     1       6.256   1.187  -0.915  1.00  0.00     0.004 A 
ATOM     78  C   UNL     1       5.541   3.376  -0.814  1.00  0.00     0.004 A 
ATOM     79  C   UNL     1       7.617   1.571  -0.956  1.00  0.00     0.000 A 
ATOM     80  C   UNL     1       6.914   3.786  -0.851  1.00  0.00     0.000 A 
ATOM     81  C   UNL     1       7.941   2.893  -1.048  1.00  0.00     0.000 A 
ENDBRANCH  75  76
ENDBRANCH  74  75
BRANCH  74  82
ATOM     82  N   UNL     1       2.646  -0.511  -3.959  1.00  0.00    -0.372 N 
ATOM     83  H   UNL     1       3.547  -0.885  -4.089  1.00  0.00     0.161 HD
BRANCH  82  84
ATOM     84  C   UNL     1       1.835  -0.397  -5.076  1.00  0.00     0.036 A 
ATOM     85  C   UNL     1       2.069  -1.251  -6.163  1.00  0.00     0.027 A 
ATOM     86  C   UNL     1       0.816   0.553  -5.209  1.00  0.00     0.043 A 
ATOM     87  C   UNL     1       1.304  -1.177  -7.332  1.00  0.00     0.024 A 
ATOM     88  C   UNL     1       0.051   0.645  -6.384  1.00  0.00     0.038 A 
ATOM     89  C   UNL     1       0.292  -0.226  -7.448  1.00  0.00     0.055 A 
ATOM     90  Br  UNL     1      -1.282   1.998  -6.458  1.00  0.00    -0.049 Br
ATOM     91  Cl  UNL     1      -0.600  -0.184  -8.925  1.00  0.00    -0.083 Cl
ENDBRANCH  82  84
ENDBRANCH  74  82
ENDBRANCH  72  74
ENDBRANCH  71  72
ENDBRANCH  70  71
ENDBRANCH   1  70
TORSDOF 15
