REMARK SMILES Cc1cc(C)c2c(=O)n(CCCC(=O)OCCOC(=O)c3ccc(-c4c5nc(c(-c6c(F)c(F)c(F)c(F)c6F)c6ccc([nH]6)c(-c6c(F)c(F)c(F)c(F)c6F)c6nc(c(-c7c(F)c(F)c(F)c(F)c7F)c7ccc4[nH]7)C=C6)C=C5)cc3)sc2n1
REMARK SMILES IDX 16 1 15 2 13 3 14 4 12 5 11 6 10 7 9 8 1 9 2 10 3 11 86 12
REMARK SMILES IDX 4 13 85 14 5 15 6 16 84 17 7 18 8 19 17 20 18 21 19 22 20 23
REMARK SMILES IDX 21 24 22 25 83 26 23 27 82 28 24 29 25 30 26 31 76 32 27 33
REMARK SMILES IDX 81 34 75 35 77 36 28 37 80 38 74 39 73 40 29 42 61 43 41 44
REMARK SMILES IDX 60 45 42 46 45 47 59 48 78 49 43 50 44 51 58 53 79 54 46 55
REMARK SMILES IDX 30 56 31 57 39 58 32 59 33 60 37 61 40 62 34 63 35 64 38 65
REMARK SMILES IDX 36 66 62 67 63 68 71 69 64 70 65 71 69 72 72 73 66 74 67 75
REMARK SMILES IDX 70 76 68 77 47 78 48 79 56 80 49 81 50 82 54 83 57 84 51 85
REMARK SMILES IDX 52 86 55 87 53 88
REMARK H PARENT 77 41 45 52
REMARK Flexibility Score: inf
ROOT
ATOM      1  C   UNL     1      -4.832  -1.832   5.582  1.00  0.00     0.274 C 
ENDROOT
BRANCH   1   2
ATOM      2  O   UNL     1      -3.456  -2.222   5.725  1.00  0.00    -0.462 OA
BRANCH   2   3
ATOM      3  C   UNL     1      -2.651  -1.524   6.559  1.00  0.00     0.305 C 
ATOM      4  O   UNL     1      -2.991  -0.513   7.163  1.00  0.00    -0.252 OA
BRANCH   3   5
ATOM      5  C   UNL     1      -1.245  -2.095   6.643  1.00  0.00     0.124 C 
BRANCH   5   6
ATOM      6  C   UNL     1      -0.996  -3.595   6.408  1.00  0.00     0.035 C 
BRANCH   6   7
ATOM      7  C   UNL     1      -1.608  -4.288   5.180  1.00  0.00     0.139 C 
BRANCH   7   8
ATOM      8  N   UNL     1      -1.192  -3.736   3.901  1.00  0.00    -0.262 N 
ATOM      9  C   UNL     1       1.157  -0.004  -0.267  1.00  0.00     0.067 C 
ATOM     10  C   UNL     1       0.736  -1.248   0.452  1.00  0.00     0.039 A 
ATOM     11  C   UNL     1       1.293  -2.496   0.135  1.00  0.00     0.027 A 
ATOM     12  N   UNL     1      -0.198  -1.089   1.410  1.00  0.00    -0.241 NA
ATOM     13  C   UNL     1       0.944  -3.635   0.882  1.00  0.00    -0.033 A 
ATOM     14  C   UNL     1      -0.499  -2.192   2.108  1.00  0.00     0.146 A 
ATOM     15  C   UNL     1       1.492  -4.986   0.553  1.00  0.00     0.045 C 
ATOM     16  C   UNL     1       0.066  -3.441   1.936  1.00  0.00     0.081 A 
ATOM     17  S   UNL     1      -1.692  -2.181   3.391  1.00  0.00    -0.035 S 
ATOM     18  C   UNL     1      -0.335  -4.372   3.015  1.00  0.00     0.270 A 
ATOM     19  O   UNL     1       0.103  -5.511   3.111  1.00  0.00    -0.268 OA
ENDBRANCH   7   8
ENDBRANCH   6   7
ENDBRANCH   5   6
ENDBRANCH   3   5
ENDBRANCH   2   3
ENDBRANCH   1   2
BRANCH   1  20
ATOM     20  C   UNL     1      -5.700  -2.685   6.489  1.00  0.00     0.275 C 
BRANCH  20  21
ATOM     21  O   UNL     1      -5.375  -2.418   7.849  1.00  0.00    -0.458 OA
BRANCH  21  22
ATOM     22  C   UNL     1      -4.385  -3.186   8.350  1.00  0.00     0.338 C 
ATOM     23  O   UNL     1      -3.697  -4.008   7.769  1.00  0.00    -0.246 OA
BRANCH  22  24
ATOM     24  C   UNL     1      -4.340  -3.012   9.792  1.00  0.00     0.060 A 
ATOM     25  C   UNL     1      -3.171  -3.376  10.469  1.00  0.00     0.016 A 
ATOM     26  C   UNL     1      -5.563  -2.809  10.439  1.00  0.00     0.016 A 
ATOM     27  C   UNL     1      -3.276  -3.716  11.798  1.00  0.00     0.010 A 
ATOM     28  C   UNL     1      -5.670  -3.169  11.751  1.00  0.00     0.010 A 
ATOM     29  C   UNL     1      -4.545  -3.694  12.384  1.00  0.00    -0.014 A 
BRANCH  29  30
ATOM     30  C   UNL     1      -4.699  -4.181  13.733  1.00  0.00     0.031 A 
ATOM     31  C   UNL     1      -4.207  -3.231  14.754  1.00  0.00     0.074 A 
ATOM     32  C   UNL     1      -5.406  -5.299  13.982  1.00  0.00     0.049 A 
ATOM     33  N   UNL     1      -3.283  -3.417  15.635  1.00  0.00    -0.248 NA
ATOM     34  C   UNL     1      -4.710  -1.845  14.691  1.00  0.00     0.031 C 
ATOM     35  C   UNL     1      -6.186  -6.112  13.040  1.00  0.00     0.029 A 
ATOM     36  N   UNL     1      -5.675  -5.882  15.175  1.00  0.00    -0.354 N 
ATOM     37  C   UNL     1      -3.216  -2.232  16.358  1.00  0.00     0.074 A 
ATOM     38  C   UNL     1      -3.976  -1.251  15.630  1.00  0.00     0.031 C 
ATOM     39  C   UNL     1      -7.013  -6.926  13.735  1.00  0.00     0.029 A 
ATOM     40  C   UNL     1      -6.730  -6.783  15.151  1.00  0.00     0.049 A 
ATOM     41  H   UNL     1      -5.163  -5.683  15.992  1.00  0.00     0.167 HD
ATOM     42  C   UNL     1      -2.759  -2.212  17.636  1.00  0.00     0.037 A 
ATOM     43  C   UNL     1      -7.364  -7.279  16.243  1.00  0.00     0.037 A 
ATOM     44  C   UNL     1      -1.973  -3.377  17.937  1.00  0.00     0.049 A 
ATOM     45  C   UNL     1      -6.468  -7.049  17.410  1.00  0.00     0.074 A 
ATOM     46  C   UNL     1      -0.800  -3.900  17.429  1.00  0.00     0.029 A 
ATOM     47  N   UNL     1      -2.576  -4.404  18.619  1.00  0.00    -0.354 N 
ATOM     48  N   UNL     1      -5.320  -7.646  17.575  1.00  0.00    -0.248 NA
ATOM     49  C   UNL     1      -6.639  -5.807  18.151  1.00  0.00     0.031 C 
ATOM     50  C   UNL     1      -0.999  -5.312  17.419  1.00  0.00     0.029 A 
ATOM     51  C   UNL     1      -2.252  -5.571  17.974  1.00  0.00     0.049 A 
ATOM     52  H   UNL     1      -3.139  -4.319  19.423  1.00  0.00     0.167 HD
ATOM     53  C   UNL     1      -4.483  -6.668  18.095  1.00  0.00     0.074 A 
ATOM     54  C   UNL     1      -5.369  -5.579  18.497  1.00  0.00     0.031 C 
ATOM     55  C   UNL     1      -3.135  -6.710  17.882  1.00  0.00     0.037 A 
BRANCH  42  56
ATOM     56  C   UNL     1      -3.334  -1.312  18.693  1.00  0.00     0.064 A 
ATOM     57  C   UNL     1      -2.657  -1.153  19.913  1.00  0.00     0.173 A 
ATOM     58  C   UNL     1      -4.659  -0.820  18.655  1.00  0.00     0.173 A 
ATOM     59  F   UNL     1      -1.412  -1.628  20.068  1.00  0.00    -0.203 F 
ATOM     60  C   UNL     1      -3.276  -0.576  21.025  1.00  0.00     0.198 A 
ATOM     61  C   UNL     1      -5.252  -0.191  19.745  1.00  0.00     0.198 A 
ATOM     62  F   UNL     1      -5.466  -1.031  17.608  1.00  0.00    -0.203 F 
ATOM     63  F   UNL     1      -2.635  -0.545  22.201  1.00  0.00    -0.200 F 
ATOM     64  C   UNL     1      -4.571  -0.093  20.939  1.00  0.00     0.200 A 
ATOM     65  F   UNL     1      -6.516   0.244  19.648  1.00  0.00    -0.200 F 
ATOM     66  F   UNL     1      -5.181   0.417  22.016  1.00  0.00    -0.200 F 
ENDBRANCH  42  56
BRANCH  43  67
ATOM     67  C   UNL     1      -8.811  -7.565  16.409  1.00  0.00     0.064 A 
ATOM     68  C   UNL     1      -9.271  -8.301  17.514  1.00  0.00     0.173 A 
ATOM     69  C   UNL     1      -9.792  -6.883  15.662  1.00  0.00     0.173 A 
ATOM     70  F   UNL     1      -8.399  -8.946  18.303  1.00  0.00    -0.203 F 
ATOM     71  C   UNL     1     -10.623  -8.321  17.872  1.00  0.00     0.198 A 
ATOM     72  C   UNL     1     -11.142  -6.911  16.015  1.00  0.00     0.198 A 
ATOM     73  F   UNL     1      -9.452  -6.093  14.634  1.00  0.00    -0.203 F 
ATOM     74  F   UNL     1     -11.013  -8.976  18.976  1.00  0.00    -0.200 F 
ATOM     75  C   UNL     1     -11.555  -7.616  17.130  1.00  0.00     0.200 A 
ATOM     76  F   UNL     1     -12.028  -6.195  15.309  1.00  0.00    -0.200 F 
ATOM     77  F   UNL     1     -12.840  -7.579  17.512  1.00  0.00    -0.200 F 
ENDBRANCH  43  67
BRANCH  55  78
ATOM     78  C   UNL     1      -2.559  -7.962  17.278  1.00  0.00     0.064 A 
ATOM     79  C   UNL     1      -2.853  -8.414  15.979  1.00  0.00     0.173 A 
ATOM     80  C   UNL     1      -1.549  -8.633  17.978  1.00  0.00     0.173 A 
ATOM     81  F   UNL     1      -3.735  -7.769  15.207  1.00  0.00    -0.203 F 
ATOM     82  C   UNL     1      -2.189  -9.508  15.425  1.00  0.00     0.198 A 
ATOM     83  C   UNL     1      -0.861  -9.701  17.409  1.00  0.00     0.198 A 
ATOM     84  F   UNL     1      -1.187  -8.212  19.201  1.00  0.00    -0.203 F 
ATOM     85  F   UNL     1      -2.491  -9.921  14.185  1.00  0.00    -0.200 F 
ATOM     86  C   UNL     1      -1.186 -10.143  16.137  1.00  0.00     0.200 A 
ATOM     87  F   UNL     1       0.142 -10.280  18.082  1.00  0.00    -0.200 F 
ATOM     88  F   UNL     1      -0.512 -11.163  15.587  1.00  0.00    -0.200 F 
ENDBRANCH  55  78
ENDBRANCH  29  30
ENDBRANCH  22  24
ENDBRANCH  21  22
ENDBRANCH  20  21
ENDBRANCH   1  20
TORSDOF 14
