REMARK SMILES CC[NH2+][C@@]1(C(=O)OCCOC(=O)c2ccc(-c3c4nc(c(-c5c(F)c(F)c(F)c(F)c5F)c5ccc([nH]5)c(-c5c(F)c(F)c(F)c(F)c5F)c5nc(c(-c6c(F)c(F)c(F)c(F)c6F)c6ccc3[nH]6)C=C5)C=C4)cc2)CC[C@H]([NH+]2CCC(C(C)(C)C)CC2)C1
REMARK SMILES IDX 8 1 7 2 5 3 6 4 4 5 76 6 89 7 77 8 78 9 3 10 2 13 1 14 79 15
REMARK SMILES IDX 80 16 88 17 81 19 87 20 82 21 83 22 84 23 85 24 86 25 9 26
REMARK SMILES IDX 10 27 11 28 12 29 13 30 14 31 75 32 15 33 74 34 16 35 17 36
REMARK SMILES IDX 18 37 68 38 19 39 73 40 67 41 69 42 20 43 72 44 66 45 65 46
REMARK SMILES IDX 21 48 53 49 33 50 52 51 34 52 37 53 51 54 70 55 35 56 36 57
REMARK SMILES IDX 50 59 71 60 38 61 22 62 23 63 31 64 24 65 25 66 29 67 32 68
REMARK SMILES IDX 26 69 27 70 30 71 28 72 54 73 55 74 63 75 56 76 57 77 61 78
REMARK SMILES IDX 64 79 58 80 59 81 62 82 60 83 39 84 40 85 48 86 41 87 42 88
REMARK SMILES IDX 46 89 49 90 43 91 44 92 47 93 45 94
REMARK H PARENT 3 11 3 12 79 18 69 47 37 58
REMARK Flexibility Score: inf
ROOT
ATOM      1  C   UNL     1      -3.201  -0.816  -3.418  1.00  0.00     0.274 C 
ENDROOT
BRANCH   1   2
ATOM      2  O   UNL     1      -1.768  -0.951  -3.505  1.00  0.00    -0.457 OA
BRANCH   2   3
ATOM      3  C   UNL     1      -1.020   0.187  -3.419  1.00  0.00     0.368 C 
ATOM      4  O   UNL     1      -1.504   1.296  -3.217  1.00  0.00    -0.245 OA
BRANCH   3   5
ATOM      5  C   UNL     1       0.515  -0.114  -3.544  1.00  0.00     0.200 C 
ATOM      6  C   UNL     1       1.344   0.992  -4.214  1.00  0.00     0.087 C 
ATOM      7  C   UNL     1       0.786  -1.315  -4.496  1.00  0.00     0.146 C 
ATOM      8  C   UNL     1       1.294   0.739  -5.703  1.00  0.00     0.072 C 
ATOM      9  C   UNL     1       0.990  -0.737  -5.930  1.00  0.00     0.191 C 
BRANCH   5  10
ATOM     10  N   UNL     1       1.045  -0.318  -2.157  1.00  0.00    -0.332 N 
ATOM     11  H   UNL     1       0.465  -1.012  -1.686  1.00  0.00     0.347 HD
ATOM     12  H   UNL     1       2.013  -0.628  -2.241  1.00  0.00     0.347 HD
BRANCH  10  13
ATOM     13  C   UNL     1       1.043   0.921  -1.356  1.00  0.00     0.257 C 
ATOM     14  C   UNL     1       1.483   0.647   0.070  1.00  0.00     0.071 C 
ENDBRANCH  10  13
ENDBRANCH   5  10
BRANCH   9  15
ATOM     15  N   UNL     1       0.032  -1.032  -7.015  1.00  0.00    -0.332 N 
ATOM     16  C   UNL     1       0.241  -0.325  -8.287  1.00  0.00     0.262 C 
ATOM     17  C   UNL     1      -1.392  -1.060  -6.733  1.00  0.00     0.262 C 
ATOM     18  H   UNL     1       0.312  -2.008  -7.110  1.00  0.00     0.348 HD
ATOM     19  C   UNL     1      -0.353   1.099  -8.395  1.00  0.00     0.066 C 
ATOM     20  C   UNL     1      -1.988   0.328  -6.555  1.00  0.00     0.066 C 
ATOM     21  C   UNL     1      -1.710   1.339  -7.678  1.00  0.00     0.005 C 
BRANCH  21  22
ATOM     22  C   UNL     1      -1.955   2.840  -7.191  1.00  0.00    -0.035 C 
ATOM     23  C   UNL     1      -1.982   3.781  -8.407  1.00  0.00     0.011 C 
ATOM     24  C   UNL     1      -3.310   2.961  -6.452  1.00  0.00     0.011 C 
ATOM     25  C   UNL     1      -0.890   3.396  -6.217  1.00  0.00     0.011 C 
ENDBRANCH  21  22
ENDBRANCH   9  15
ENDBRANCH   3   5
ENDBRANCH   2   3
ENDBRANCH   1   2
BRANCH   1  26
ATOM     26  C   UNL     1      -3.843  -2.210  -3.443  1.00  0.00     0.275 C 
BRANCH  26  27
ATOM     27  O   UNL     1      -3.451  -2.915  -2.255  1.00  0.00    -0.458 OA
BRANCH  27  28
ATOM     28  C   UNL     1      -2.289  -3.600  -2.376  1.00  0.00     0.338 C 
ATOM     29  O   UNL     1      -1.753  -3.986  -3.402  1.00  0.00    -0.246 OA
BRANCH  28  30
ATOM     30  C   UNL     1      -1.623  -3.564  -1.065  1.00  0.00     0.060 A 
ATOM     31  C   UNL     1      -0.326  -3.051  -1.024  1.00  0.00     0.016 A 
ATOM     32  C   UNL     1      -2.264  -3.973   0.105  1.00  0.00     0.016 A 
ATOM     33  C   UNL     1       0.337  -2.921   0.191  1.00  0.00     0.010 A 
ATOM     34  C   UNL     1      -1.589  -3.870   1.323  1.00  0.00     0.010 A 
ATOM     35  C   UNL     1      -0.285  -3.346   1.368  1.00  0.00    -0.014 A 
BRANCH  35  36
ATOM     36  C   UNL     1       0.497  -3.398   2.620  1.00  0.00     0.031 A 
ATOM     37  C   UNL     1       1.201  -4.676   2.956  1.00  0.00     0.074 A 
ATOM     38  C   UNL     1       0.604  -2.321   3.418  1.00  0.00     0.049 A 
ATOM     39  N   UNL     1       1.862  -5.004   4.035  1.00  0.00    -0.248 NA
ATOM     40  C   UNL     1       1.149  -5.733   1.932  1.00  0.00     0.031 C 
ATOM     41  C   UNL     1       0.018  -1.011   3.149  1.00  0.00     0.029 A 
ATOM     42  N   UNL     1       1.248  -2.163   4.619  1.00  0.00    -0.354 N 
ATOM     43  C   UNL     1       2.294  -6.306   3.825  1.00  0.00     0.074 A 
ATOM     44  C   UNL     1       1.809  -6.715   2.525  1.00  0.00     0.031 C 
ATOM     45  C   UNL     1       0.338  -0.175   4.152  1.00  0.00     0.029 A 
ATOM     46  C   UNL     1       1.090  -0.912   5.165  1.00  0.00     0.049 A 
ATOM     47  H   UNL     1       1.773  -2.876   5.048  1.00  0.00     0.167 HD
ATOM     48  C   UNL     1       3.026  -7.088   4.651  1.00  0.00     0.037 A 
ATOM     49  C   UNL     1       1.476  -0.441   6.367  1.00  0.00     0.037 A 
ATOM     50  C   UNL     1       3.477  -6.676   5.952  1.00  0.00     0.049 A 
ATOM     51  C   UNL     1       2.198  -1.371   7.312  1.00  0.00     0.074 A 
ATOM     52  C   UNL     1       4.180  -7.404   6.895  1.00  0.00     0.029 A 
ATOM     53  N   UNL     1       3.259  -5.418   6.497  1.00  0.00    -0.354 N 
ATOM     54  N   UNL     1       2.580  -2.612   7.127  1.00  0.00    -0.248 NA
ATOM     55  C   UNL     1       2.527  -0.838   8.641  1.00  0.00     0.031 C 
ATOM     56  C   UNL     1       4.346  -6.601   8.029  1.00  0.00     0.029 A 
ATOM     57  C   UNL     1       3.800  -5.353   7.770  1.00  0.00     0.049 A 
ATOM     58  H   UNL     1       2.789  -4.680   6.045  1.00  0.00     0.167 HD
ATOM     59  C   UNL     1       3.218  -2.997   8.299  1.00  0.00     0.074 A 
ATOM     60  C   UNL     1       3.189  -1.850   9.183  1.00  0.00     0.031 C 
ATOM     61  C   UNL     1       3.774  -4.191   8.622  1.00  0.00     0.037 A 
BRANCH  48  62
ATOM     62  C   UNL     1       3.331  -8.479   4.182  1.00  0.00     0.064 A 
ATOM     63  C   UNL     1       4.231  -8.724   3.133  1.00  0.00     0.173 A 
ATOM     64  C   UNL     1       2.712  -9.583   4.786  1.00  0.00     0.173 A 
ATOM     65  F   UNL     1       4.831  -7.701   2.506  1.00  0.00    -0.203 F 
ATOM     66  C   UNL     1       4.476 -10.021   2.688  1.00  0.00     0.198 A 
ATOM     67  C   UNL     1       2.983 -10.880   4.360  1.00  0.00     0.198 A 
ATOM     68  F   UNL     1       1.841  -9.404   5.791  1.00  0.00    -0.203 F 
ATOM     69  F   UNL     1       5.296 -10.227   1.648  1.00  0.00    -0.200 F 
ATOM     70  C   UNL     1       3.858 -11.097   3.306  1.00  0.00     0.200 A 
ATOM     71  F   UNL     1       2.391 -11.919   4.964  1.00  0.00    -0.200 F 
ATOM     72  F   UNL     1       4.096 -12.345   2.879  1.00  0.00    -0.200 F 
ENDBRANCH  48  62
BRANCH  49  73
ATOM     73  C   UNL     1       1.151   0.953   6.777  1.00  0.00     0.064 A 
ATOM     74  C   UNL     1       2.163   1.888   7.036  1.00  0.00     0.173 A 
ATOM     75  C   UNL     1      -0.176   1.365   6.977  1.00  0.00     0.173 A 
ATOM     76  F   UNL     1       3.450   1.539   6.889  1.00  0.00    -0.203 F 
ATOM     77  C   UNL     1       1.864   3.166   7.508  1.00  0.00     0.198 A 
ATOM     78  C   UNL     1      -0.476   2.654   7.414  1.00  0.00     0.198 A 
ATOM     79  F   UNL     1      -1.187   0.511   6.753  1.00  0.00    -0.203 F 
ATOM     80  F   UNL     1       2.856   4.014   7.813  1.00  0.00    -0.200 F 
ATOM     81  C   UNL     1       0.544   3.549   7.692  1.00  0.00     0.200 A 
ATOM     82  F   UNL     1      -1.754   3.022   7.580  1.00  0.00    -0.200 F 
ATOM     83  F   UNL     1       0.257   4.774   8.153  1.00  0.00    -0.200 F 
ENDBRANCH  49  73
BRANCH  61  84
ATOM     84  C   UNL     1       4.443  -4.299   9.962  1.00  0.00     0.064 A 
ATOM     85  C   UNL     1       3.710  -4.316  11.158  1.00  0.00     0.173 A 
ATOM     86  C   UNL     1       5.838  -4.429  10.046  1.00  0.00     0.173 A 
ATOM     87  F   UNL     1       2.375  -4.180  11.133  1.00  0.00    -0.203 F 
ATOM     88  C   UNL     1       4.351  -4.427  12.389  1.00  0.00     0.198 A 
ATOM     89  C   UNL     1       6.473  -4.576  11.276  1.00  0.00     0.198 A 
ATOM     90  F   UNL     1       6.586  -4.429   8.932  1.00  0.00    -0.203 F 
ATOM     91  F   UNL     1       3.635  -4.386  13.521  1.00  0.00    -0.200 F 
ATOM     92  C   UNL     1       5.730  -4.566  12.446  1.00  0.00     0.200 A 
ATOM     93  F   UNL     1       7.803  -4.728  11.328  1.00  0.00    -0.200 F 
ATOM     94  F   UNL     1       6.344  -4.682  13.631  1.00  0.00    -0.200 F 
ENDBRANCH  61  84
ENDBRANCH  35  36
ENDBRANCH  28  30
ENDBRANCH  27  28
ENDBRANCH  26  27
ENDBRANCH   1  26
TORSDOF 15
