REMARK SMILES C[NH+](C)[C@@H]1CC[N@@H+](Cc2ccc(C(=O)OCCOC(=O)c3ccc(-c4c5nc(c(-c6c(F)c(F)c(F)c(F)c6F)c6ccc([nH]6)c(-c6c(F)c(F)c(F)c(F)c6F)c6nc(c(-c7c(F)c(F)c(F)c(F)c7F)c7ccc4[nH]7)C=C6)C=C5)cc3)cn2)C1
REMARK SMILES IDX 16 1 15 2 13 3 14 4 12 5 9 6 10 7 85 8 11 9 84 10 8 11 7 12
REMARK SMILES IDX 4 13 5 14 86 15 6 16 2 18 1 19 3 20 17 22 18 23 19 24 20 25
REMARK SMILES IDX 21 26 22 27 83 28 23 29 82 30 24 31 25 32 26 33 76 34 27 35
REMARK SMILES IDX 81 36 75 37 77 38 28 39 80 40 74 41 73 42 29 44 61 45 41 46
REMARK SMILES IDX 60 47 42 48 45 49 59 50 78 51 43 52 44 53 58 55 79 56 46 57
REMARK SMILES IDX 30 58 31 59 39 60 32 61 33 62 37 63 40 64 34 65 35 66 38 67
REMARK SMILES IDX 36 68 62 69 63 70 71 71 64 72 65 73 69 74 72 75 66 76 67 77
REMARK SMILES IDX 70 78 68 79 47 80 48 81 56 82 49 83 50 84 54 85 57 86 51 87
REMARK SMILES IDX 52 88 55 89 53 90
REMARK H PARENT 7 17 2 21 77 43 45 54
REMARK Flexibility Score: inf
ROOT
ATOM      1  C   UNL     1       7.453  -0.279  -3.436  1.00  0.00     0.275 C 
ENDROOT
BRANCH   1   2
ATOM      2  O   UNL     1       6.388   0.691  -3.377  1.00  0.00    -0.458 OA
BRANCH   2   3
ATOM      3  C   UNL     1       5.897   0.934  -2.142  1.00  0.00     0.339 C 
ATOM      4  O   UNL     1       6.218   0.366  -1.107  1.00  0.00    -0.246 OA
BRANCH   3   5
ATOM      5  C   UNL     1       4.951   2.062  -2.154  1.00  0.00     0.078 A 
ATOM      6  C   UNL     1       3.012   3.978  -1.825  1.00  0.00     0.095 A 
ATOM      7  C   UNL     1       3.166   3.374  -3.075  1.00  0.00     0.031 A 
ATOM      8  N   UNL     1       3.857   3.738  -0.797  1.00  0.00    -0.254 NA
ATOM      9  C   UNL     1       4.159   2.406  -3.245  1.00  0.00     0.019 A 
ATOM     10  C   UNL     1       4.769   2.764  -0.972  1.00  0.00     0.127 A 
BRANCH   6  11
ATOM     11  C   UNL     1       1.750   4.735  -1.472  1.00  0.00     0.319 C 
BRANCH  11  12
ATOM     12  N   UNL     1       0.686   3.949  -0.814  1.00  0.00    -0.325 N 
ATOM     13  C   UNL     1       0.823   1.521  -1.102  1.00  0.00     0.245 C 
ATOM     14  C   UNL     1       1.435   1.909   0.252  1.00  0.00     0.132 C 
ATOM     15  C   UNL     1       0.146   2.830  -1.597  1.00  0.00     0.328 C 
ATOM     16  C   UNL     1       1.068   3.370   0.477  1.00  0.00     0.269 C 
ATOM     17  H   UNL     1      -0.023   4.673  -0.701  1.00  0.00     0.348 HD
BRANCH  13  18
ATOM     18  N   UNL     1       0.082   0.243  -1.202  1.00  0.00    -0.333 N 
ATOM     19  C   UNL     1       0.487  -0.770  -0.230  1.00  0.00     0.332 C 
ATOM     20  C   UNL     1      -1.369   0.367  -1.237  1.00  0.00     0.332 C 
ATOM     21  H   UNL     1       0.367  -0.088  -2.124  1.00  0.00     0.348 HD
ENDBRANCH  13  18
ENDBRANCH  11  12
ENDBRANCH   6  11
ENDBRANCH   3   5
ENDBRANCH   2   3
ENDBRANCH   1   2
BRANCH   1  22
ATOM     22  C   UNL     1       8.810   0.417  -3.555  1.00  0.00     0.275 C 
BRANCH  22  23
ATOM     23  O   UNL     1       9.159   1.092  -2.327  1.00  0.00    -0.458 OA
BRANCH  23  24
ATOM     24  C   UNL     1       8.979   2.431  -2.341  1.00  0.00     0.338 C 
ATOM     25  O   UNL     1       8.581   3.115  -3.270  1.00  0.00    -0.246 OA
BRANCH  24  26
ATOM     26  C   UNL     1       9.214   3.013  -1.009  1.00  0.00     0.060 A 
ATOM     27  C   UNL     1       8.154   2.994  -0.114  1.00  0.00     0.016 A 
ATOM     28  C   UNL     1      10.330   3.796  -0.738  1.00  0.00     0.016 A 
ATOM     29  C   UNL     1       8.115   3.880   0.956  1.00  0.00     0.010 A 
ATOM     30  C   UNL     1      10.354   4.582   0.427  1.00  0.00     0.010 A 
ATOM     31  C   UNL     1       9.218   4.689   1.255  1.00  0.00    -0.014 A 
BRANCH  31  32
ATOM     32  C   UNL     1       9.142   5.673   2.383  1.00  0.00     0.031 A 
ATOM     33  C   UNL     1       9.439   7.137   2.143  1.00  0.00     0.074 A 
ATOM     34  C   UNL     1       8.768   5.278   3.620  1.00  0.00     0.049 A 
ATOM     35  N   UNL     1       9.568   8.112   3.012  1.00  0.00    -0.248 NA
ATOM     36  C   UNL     1       9.637   7.561   0.748  1.00  0.00     0.031 C 
ATOM     37  C   UNL     1       8.412   3.910   4.005  1.00  0.00     0.029 A 
ATOM     38  N   UNL     1       8.614   5.992   4.787  1.00  0.00    -0.354 N 
ATOM     39  C   UNL     1       9.929   9.236   2.277  1.00  0.00     0.074 A 
ATOM     40  C   UNL     1      10.004   8.827   0.892  1.00  0.00     0.031 C 
ATOM     41  C   UNL     1       8.039   3.892   5.292  1.00  0.00     0.029 A 
ATOM     42  C   UNL     1       8.229   5.221   5.859  1.00  0.00     0.049 A 
ATOM     43  H   UNL     1       8.766   6.963   4.848  1.00  0.00     0.167 HD
ATOM     44  C   UNL     1      10.171  10.495   2.717  1.00  0.00     0.037 A 
ATOM     45  C   UNL     1       8.092   5.527   7.164  1.00  0.00     0.037 A 
ATOM     46  C   UNL     1      10.009  10.927   4.082  1.00  0.00     0.049 A 
ATOM     47  C   UNL     1       8.384   6.930   7.623  1.00  0.00     0.074 A 
ATOM     48  C   UNL     1      10.170  12.198   4.606  1.00  0.00     0.029 A 
ATOM     49  N   UNL     1       9.636  10.106   5.134  1.00  0.00    -0.354 N 
ATOM     50  N   UNL     1       8.734   7.977   6.917  1.00  0.00    -0.248 NA
ATOM     51  C   UNL     1       8.276   7.191   9.066  1.00  0.00     0.031 C 
ATOM     52  C   UNL     1       9.954  12.135   5.986  1.00  0.00     0.029 A 
ATOM     53  C   UNL     1       9.594  10.838   6.311  1.00  0.00     0.049 A 
ATOM     54  H   UNL     1       9.431   9.146   5.057  1.00  0.00     0.167 HD
ATOM     55  C   UNL     1       8.865   9.021   7.824  1.00  0.00     0.074 A 
ATOM     56  C   UNL     1       8.527   8.489   9.126  1.00  0.00     0.031 C 
ATOM     57  C   UNL     1       9.242  10.302   7.599  1.00  0.00     0.037 A 
BRANCH  44  58
ATOM     58  C   UNL     1      10.672  11.512   1.729  1.00  0.00     0.064 A 
ATOM     59  C   UNL     1       9.846  12.074   0.746  1.00  0.00     0.173 A 
ATOM     60  C   UNL     1      11.986  11.998   1.837  1.00  0.00     0.173 A 
ATOM     61  F   UNL     1       8.586  11.642   0.595  1.00  0.00    -0.203 F 
ATOM     62  C   UNL     1      10.321  13.075  -0.101  1.00  0.00     0.198 A 
ATOM     63  C   UNL     1      12.447  13.019   1.010  1.00  0.00     0.198 A 
ATOM     64  F   UNL     1      12.816  11.502   2.767  1.00  0.00    -0.203 F 
ATOM     65  F   UNL     1       9.523  13.577  -1.054  1.00  0.00    -0.200 F 
ATOM     66  C   UNL     1      11.615  13.554   0.040  1.00  0.00     0.200 A 
ATOM     67  F   UNL     1      13.691  13.492   1.162  1.00  0.00    -0.200 F 
ATOM     68  F   UNL     1      12.060  14.533  -0.760  1.00  0.00    -0.200 F 
ENDBRANCH  44  58
BRANCH  45  69
ATOM     69  C   UNL     1       7.724   4.474   8.153  1.00  0.00     0.064 A 
ATOM     70  C   UNL     1       6.535   4.552   8.893  1.00  0.00     0.173 A 
ATOM     71  C   UNL     1       8.582   3.395   8.419  1.00  0.00     0.173 A 
ATOM     72  F   UNL     1       5.692   5.577   8.699  1.00  0.00    -0.203 F 
ATOM     73  C   UNL     1       6.239   3.617   9.883  1.00  0.00     0.198 A 
ATOM     74  C   UNL     1       8.264   2.436   9.378  1.00  0.00     0.198 A 
ATOM     75  F   UNL     1       9.734   3.268   7.744  1.00  0.00    -0.203 F 
ATOM     76  F   UNL     1       5.135   3.761  10.628  1.00  0.00    -0.200 F 
ATOM     77  C   UNL     1       7.101   2.557  10.121  1.00  0.00     0.200 A 
ATOM     78  F   UNL     1       9.092   1.405   9.591  1.00  0.00    -0.200 F 
ATOM     79  F   UNL     1       6.818   1.662  11.077  1.00  0.00    -0.200 F 
ENDBRANCH  45  69
BRANCH  57  80
ATOM     80  C   UNL     1       9.266  11.229   8.781  1.00  0.00     0.064 A 
ATOM     81  C   UNL     1      10.222  11.102   9.800  1.00  0.00     0.173 A 
ATOM     82  C   UNL     1       8.331  12.271   8.884  1.00  0.00     0.173 A 
ATOM     83  F   UNL     1      11.127  10.113   9.757  1.00  0.00    -0.203 F 
ATOM     84  C   UNL     1      10.217  11.960  10.896  1.00  0.00     0.198 A 
ATOM     85  C   UNL     1       8.353  13.149   9.963  1.00  0.00     0.198 A 
ATOM     86  F   UNL     1       7.401  12.442   7.933  1.00  0.00    -0.203 F 
ATOM     87  F   UNL     1      11.100  11.780  11.889  1.00  0.00    -0.200 F 
ATOM     88  C   UNL     1       9.288  12.986  10.974  1.00  0.00     0.200 A 
ATOM     89  F   UNL     1       7.465  14.151  10.028  1.00  0.00    -0.200 F 
ATOM     90  F   UNL     1       9.289  13.814  12.028  1.00  0.00    -0.200 F 
ENDBRANCH  57  80
ENDBRANCH  31  32
ENDBRANCH  24  26
ENDBRANCH  23  24
ENDBRANCH  22  23
ENDBRANCH   1  22
TORSDOF 14
