REMARK SMILES Cc1cc(Cl)cc2c1O[C@H](C(F)(F)F)C(C(=O)OCCOC(=O)c1ccc(-c3c4nc(c(-c5c(F)c(F)c(F)c(F)c5F)c5ccc([nH]5)c(-c5c(F)c(F)c(F)c(F)c5F)c5nc(c(-c6c(F)c(F)c(F)c(F)c6F)c6ccc3[nH]6)C=C5)C=C4)cc1)=C2
REMARK SMILES IDX 20 1 19 2 18 3 16 4 17 5 15 6 1 7 2 8 3 9 8 10 4 11 7 12
REMARK SMILES IDX 9 13 5 14 6 15 87 16 10 17 11 18 12 19 13 20 14 21 21 22
REMARK SMILES IDX 22 23 23 24 24 25 25 26 86 27 26 28 85 29 27 30 28 31 29 32
REMARK SMILES IDX 79 33 30 34 84 35 78 36 80 37 31 38 83 39 77 40 76 41 32 43
REMARK SMILES IDX 64 44 44 45 63 46 45 47 48 48 62 49 81 50 46 51 47 52 61 54
REMARK SMILES IDX 82 55 49 56 33 57 34 58 42 59 35 60 36 61 40 62 43 63 37 64
REMARK SMILES IDX 38 65 41 66 39 67 65 68 66 69 74 70 67 71 68 72 72 73 75 74
REMARK SMILES IDX 69 75 70 76 73 77 71 78 50 79 51 80 59 81 52 82 53 83 57 84
REMARK SMILES IDX 60 85 54 86 55 87 58 88 56 89
REMARK H PARENT 80 42 48 53
REMARK Flexibility Score: inf
ROOT
ATOM      1  C   UNL     1      -5.432   1.166  -6.358  1.00  0.00     0.275 C 
ENDROOT
BRANCH   1   2
ATOM      2  C   UNL     1      -4.239   0.212  -6.407  1.00  0.00     0.275 C 
BRANCH   2   3
ATOM      3  O   UNL     1      -3.497   0.235  -5.167  1.00  0.00    -0.459 OA
BRANCH   3   4
ATOM      4  C   UNL     1      -2.347   0.946  -5.194  1.00  0.00     0.338 C 
ATOM      5  O   UNL     1      -1.879   1.546  -6.149  1.00  0.00    -0.246 OA
BRANCH   4   6
ATOM      6  C   UNL     1      -1.699   0.935  -3.870  1.00  0.00     0.087 C 
ATOM      7  C   UNL     1       1.088  -0.332   0.284  1.00  0.00     0.048 C 
ATOM      8  C   UNL     1       0.651   0.928  -0.407  1.00  0.00    -0.007 A 
ATOM      9  C   UNL     1       1.114   2.158   0.095  1.00  0.00     0.027 A 
ATOM     10  C   UNL     1      -0.192   0.919  -1.528  1.00  0.00     0.131 A 
ATOM     11  C   UNL     1       0.741   3.355  -0.512  1.00  0.00     0.042 A 
ATOM     12  C   UNL     1      -0.545   2.125  -2.139  1.00  0.00     0.019 A 
ATOM     13  O   UNL     1      -0.654  -0.292  -1.970  1.00  0.00    -0.475 OA
ATOM     14  Cl  UNL     1       1.320   4.851   0.107  1.00  0.00    -0.084 Cl
ATOM     15  C   UNL     1      -0.087   3.345  -1.627  1.00  0.00     0.032 A 
ATOM     16  C   UNL     1      -1.351   2.113  -3.343  1.00  0.00     0.027 C 
ATOM     17  C   UNL     1      -1.320  -0.381  -3.261  1.00  0.00     0.316 C 
BRANCH  17  18
ATOM     18  C   UNL     1      -0.447  -1.214  -4.213  1.00  0.00     0.430 C 
ATOM     19  F   UNL     1      -0.087  -2.391  -3.649  1.00  0.00    -0.167 F 
ATOM     20  F   UNL     1      -1.111  -1.519  -5.354  1.00  0.00    -0.167 F 
ATOM     21  F   UNL     1       0.687  -0.566  -4.564  1.00  0.00    -0.167 F 
ENDBRANCH  17  18
ENDBRANCH   4   6
ENDBRANCH   3   4
ENDBRANCH   2   3
ENDBRANCH   1   2
BRANCH   1  22
ATOM     22  O   UNL     1      -4.975   2.529  -6.283  1.00  0.00    -0.458 OA
BRANCH  22  23
ATOM     23  C   UNL     1      -5.177   3.143  -5.096  1.00  0.00     0.338 C 
ATOM     24  O   UNL     1      -5.736   2.694  -4.111  1.00  0.00    -0.246 OA
BRANCH  23  25
ATOM     25  C   UNL     1      -4.542   4.471  -5.096  1.00  0.00     0.060 A 
ATOM     26  C   UNL     1      -3.160   4.551  -5.218  1.00  0.00     0.016 A 
ATOM     27  C   UNL     1      -5.277   5.606  -4.762  1.00  0.00     0.016 A 
ATOM     28  C   UNL     1      -2.494   5.709  -4.830  1.00  0.00     0.010 A 
ATOM     29  C   UNL     1      -4.611   6.816  -4.530  1.00  0.00     0.010 A 
ATOM     30  C   UNL     1      -3.205   6.870  -4.499  1.00  0.00    -0.014 A 
BRANCH  30  31
ATOM     31  C   UNL     1      -2.478   8.110  -4.087  1.00  0.00     0.031 A 
ATOM     32  C   UNL     1      -2.810   8.792  -2.781  1.00  0.00     0.074 A 
ATOM     33  C   UNL     1      -1.490   8.613  -4.856  1.00  0.00     0.049 A 
ATOM     34  N   UNL     1      -2.425   9.963  -2.335  1.00  0.00    -0.248 NA
ATOM     35  C   UNL     1      -3.701   8.071  -1.858  1.00  0.00     0.031 C 
ATOM     36  C   UNL     1      -1.016   8.034  -6.114  1.00  0.00     0.029 A 
ATOM     37  N   UNL     1      -0.688   9.717  -4.685  1.00  0.00    -0.354 N 
ATOM     38  C   UNL     1      -3.073  10.141  -1.118  1.00  0.00     0.074 A 
ATOM     39  C   UNL     1      -3.884   8.965  -0.896  1.00  0.00     0.031 C 
ATOM     40  C   UNL     1       0.034   8.737  -6.560  1.00  0.00     0.029 A 
ATOM     41  C   UNL     1       0.233   9.890  -5.691  1.00  0.00     0.049 A 
ATOM     42  H   UNL     1      -0.766  10.325  -3.915  1.00  0.00     0.167 HD
ATOM     43  C   UNL     1      -2.991  11.189  -0.262  1.00  0.00     0.037 A 
ATOM     44  C   UNL     1       1.108  10.887  -5.925  1.00  0.00     0.037 A 
ATOM     45  C   UNL     1      -2.128  12.326  -0.454  1.00  0.00     0.049 A 
ATOM     46  C   UNL     1       1.136  12.065  -4.995  1.00  0.00     0.074 A 
ATOM     47  C   UNL     1      -1.965  13.432   0.363  1.00  0.00     0.029 A 
ATOM     48  N   UNL     1      -1.264  12.491  -1.526  1.00  0.00    -0.354 N 
ATOM     49  N   UNL     1       0.461  12.259  -3.889  1.00  0.00    -0.248 NA
ATOM     50  C   UNL     1       2.020  13.180  -5.364  1.00  0.00     0.031 C 
ATOM     51  C   UNL     1      -1.034  14.285  -0.236  1.00  0.00     0.029 A 
ATOM     52  C   UNL     1      -0.581  13.690  -1.402  1.00  0.00     0.049 A 
ATOM     53  H   UNL     1      -1.152  11.850  -2.265  1.00  0.00     0.167 HD
ATOM     54  C   UNL     1       0.837  13.512  -3.429  1.00  0.00     0.074 A 
ATOM     55  C   UNL     1       1.822  14.023  -4.360  1.00  0.00     0.031 C 
ATOM     56  C   UNL     1       0.395  14.185  -2.339  1.00  0.00     0.037 A 
BRANCH  43  57
ATOM     57  C   UNL     1      -3.870  11.176   0.957  1.00  0.00     0.064 A 
ATOM     58  C   UNL     1      -3.625  10.321   2.040  1.00  0.00     0.173 A 
ATOM     59  C   UNL     1      -4.935  12.085   1.067  1.00  0.00     0.173 A 
ATOM     60  F   UNL     1      -2.628   9.427   1.982  1.00  0.00    -0.203 F 
ATOM     61  C   UNL     1      -4.424  10.364   3.182  1.00  0.00     0.198 A 
ATOM     62  C   UNL     1      -5.713  12.145   2.221  1.00  0.00     0.198 A 
ATOM     63  F   UNL     1      -5.209  12.932   0.063  1.00  0.00    -0.203 F 
ATOM     64  F   UNL     1      -4.194   9.512   4.190  1.00  0.00    -0.200 F 
ATOM     65  C   UNL     1      -5.460  11.281   3.275  1.00  0.00     0.200 A 
ATOM     66  F   UNL     1      -6.703  13.044   2.315  1.00  0.00    -0.200 F 
ATOM     67  F   UNL     1      -6.217  11.331   4.380  1.00  0.00    -0.200 F 
ENDBRANCH  43  57
BRANCH  44  68
ATOM     68  C   UNL     1       1.994  10.827  -7.119  1.00  0.00     0.064 A 
ATOM     69  C   UNL     1       3.380  10.678  -6.978  1.00  0.00     0.173 A 
ATOM     70  C   UNL     1       1.474  10.887  -8.421  1.00  0.00     0.173 A 
ATOM     71  F   UNL     1       3.929  10.644  -5.755  1.00  0.00    -0.203 F 
ATOM     72  C   UNL     1       4.211  10.588  -8.094  1.00  0.00     0.198 A 
ATOM     73  C   UNL     1       2.301  10.762  -9.535  1.00  0.00     0.198 A 
ATOM     74  F   UNL     1       0.154  11.034  -8.613  1.00  0.00    -0.203 F 
ATOM     75  F   UNL     1       5.536  10.477  -7.932  1.00  0.00    -0.200 F 
ATOM     76  C   UNL     1       3.669  10.617  -9.371  1.00  0.00     0.200 A 
ATOM     77  F   UNL     1       1.770  10.773 -10.765  1.00  0.00    -0.200 F 
ATOM     78  F   UNL     1       4.467  10.510 -10.442  1.00  0.00    -0.200 F 
ENDBRANCH  44  68
BRANCH  56  79
ATOM     79  C   UNL     1       0.971  15.546  -2.087  1.00  0.00     0.064 A 
ATOM     80  C   UNL     1       0.599  16.649  -2.869  1.00  0.00     0.173 A 
ATOM     81  C   UNL     1       1.847  15.764  -1.013  1.00  0.00     0.173 A 
ATOM     82  F   UNL     1      -0.224  16.487  -3.916  1.00  0.00    -0.203 F 
ATOM     83  C   UNL     1       1.091  17.920  -2.590  1.00  0.00     0.198 A 
ATOM     84  C   UNL     1       2.315  17.041  -0.721  1.00  0.00     0.198 A 
ATOM     85  F   UNL     1       2.227  14.741  -0.233  1.00  0.00    -0.203 F 
ATOM     86  F   UNL     1       0.748  18.955  -3.369  1.00  0.00    -0.200 F 
ATOM     87  C   UNL     1       1.940  18.117  -1.511  1.00  0.00     0.200 A 
ATOM     88  F   UNL     1       3.124  17.232   0.331  1.00  0.00    -0.200 F 
ATOM     89  F   UNL     1       2.400  19.345  -1.234  1.00  0.00    -0.200 F 
ENDBRANCH  56  79
ENDBRANCH  30  31
ENDBRANCH  23  25
ENDBRANCH  22  23
ENDBRANCH   1  22
TORSDOF 12
