REMARK SMILES CC(C)[C@@H](NC(=O)/C(=C\c1ccccc1F)NC(=O)c1ccccc1)C(=O)OCCOC(=O)c1ccc(-c2c3nc(c(-c4c(F)c(F)c(F)c(F)c4F)c4ccc([nH]4)c(-c4c(F)c(F)c(F)c(F)c4F)c4nc(c(-c5c(F)c(F)c(F)c(F)c5F)c5ccc2[nH]5)C=C4)C=C3)cc1
REMARK SMILES IDX 29 1 28 2 26 3 27 4 4 5 2 6 1 7 3 8 5 9 6 10 7 12 8 13 9 14
REMARK SMILES IDX 17 15 18 16 19 18 20 19 21 20 25 21 22 22 24 23 23 24 10 25
REMARK SMILES IDX 11 26 15 27 12 28 14 29 16 30 13 31 30 32 31 33 32 34 33 35
REMARK SMILES IDX 34 36 35 37 96 38 36 39 95 40 37 41 38 42 39 43 89 44 40 45
REMARK SMILES IDX 94 46 88 47 90 48 41 49 93 50 87 51 86 52 42 54 74 55 54 56
REMARK SMILES IDX 73 57 55 58 58 59 72 60 91 61 56 62 57 63 71 65 92 66 59 67
REMARK SMILES IDX 43 68 44 69 52 70 45 71 46 72 50 73 53 74 47 75 48 76 51 77
REMARK SMILES IDX 49 78 75 79 76 80 84 81 77 82 78 83 82 84 85 85 79 86 80 87
REMARK SMILES IDX 83 88 81 89 60 90 61 91 69 92 62 93 63 94 67 95 70 96 64 97
REMARK SMILES IDX 65 98 68 99 66 100
REMARK H PARENT 5 11 17 17 90 53 58 64
REMARK Flexibility Score: inf
ROOT
ATOM      1  C   UNL     1      -0.676  -5.635   1.057  1.00  0.00     0.274 C 
ENDROOT
BRANCH   1   2
ATOM      2  O   UNL     1      -0.153  -4.346   0.677  1.00  0.00    -0.461 OA
BRANCH   2   3
ATOM      3  C   UNL     1      -0.598  -3.839  -0.512  1.00  0.00     0.329 C 
ATOM      4  O   UNL     1      -1.345  -4.436  -1.277  1.00  0.00    -0.250 OA
BRANCH   3   5
ATOM      5  C   UNL     1      -0.118  -2.382  -0.700  1.00  0.00     0.195 C 
BRANCH   5   6
ATOM      6  C   UNL     1       1.411  -2.171  -0.857  1.00  0.00     0.017 C 
ATOM      7  C   UNL     1       1.738  -0.678  -1.075  1.00  0.00     0.010 C 
ATOM      8  C   UNL     1       2.202  -2.613   0.385  1.00  0.00     0.010 C 
ENDBRANCH   5   6
BRANCH   5   9
ATOM      9  N   UNL     1      -0.873  -1.648  -1.728  1.00  0.00    -0.337 N 
ATOM     10  C   UNL     1      -2.105  -1.064  -1.609  1.00  0.00     0.268 C 
ATOM     11  H   UNL     1      -0.439  -1.567  -2.608  1.00  0.00     0.164 HD
ATOM     12  O   UNL     1      -2.358  -0.035  -2.228  1.00  0.00    -0.268 OA
BRANCH  10  13
ATOM     13  C   UNL     1      -3.148  -1.747  -0.783  1.00  0.00     0.107 C 
ATOM     14  C   UNL     1      -3.282  -1.417   0.516  1.00  0.00     0.043 C 
BRANCH  13  15
ATOM     15  N   UNL     1      -3.928  -2.757  -1.324  1.00  0.00    -0.317 N 
ATOM     16  C   UNL     1      -4.074  -3.226  -2.617  1.00  0.00     0.255 C 
ATOM     17  H   UNL     1      -4.484  -3.229  -0.663  1.00  0.00     0.170 HD
ATOM     18  O   UNL     1      -4.668  -4.281  -2.831  1.00  0.00    -0.269 OA
BRANCH  16  19
ATOM     19  C   UNL     1      -3.666  -2.404  -3.765  1.00  0.00     0.040 A 
ATOM     20  C   UNL     1      -4.569  -1.448  -4.240  1.00  0.00     0.014 A 
ATOM     21  C   UNL     1      -2.407  -2.557  -4.352  1.00  0.00     0.014 A 
ATOM     22  C   UNL     1      -4.176  -0.578  -5.254  1.00  0.00     0.001 A 
ATOM     23  C   UNL     1      -2.010  -1.663  -5.348  1.00  0.00     0.001 A 
ATOM     24  C   UNL     1      -2.889  -0.668  -5.787  1.00  0.00     0.000 A 
ENDBRANCH  16  19
ENDBRANCH  13  15
BRANCH  14  25
ATOM     25  C   UNL     1      -2.416  -0.487   1.256  1.00  0.00     0.012 A 
ATOM     26  C   UNL     1      -1.400  -1.026   2.061  1.00  0.00     0.011 A 
ATOM     27  C   UNL     1      -2.522   0.899   1.176  1.00  0.00     0.130 A 
ATOM     28  C   UNL     1      -0.492  -0.214   2.738  1.00  0.00     0.001 A 
ATOM     29  C   UNL     1      -1.623   1.722   1.856  1.00  0.00     0.040 A 
ATOM     30  F   UNL     1      -3.499   1.463   0.454  1.00  0.00    -0.206 F 
ATOM     31  C   UNL     1      -0.603   1.166   2.631  1.00  0.00     0.003 A 
ENDBRANCH  14  25
ENDBRANCH  10  13
ENDBRANCH   5   9
ENDBRANCH   3   5
ENDBRANCH   2   3
ENDBRANCH   1   2
BRANCH   1  32
ATOM     32  C   UNL     1      -0.778  -5.720   2.583  1.00  0.00     0.275 C 
BRANCH  32  33
ATOM     33  O   UNL     1      -1.556  -4.629   3.130  1.00  0.00    -0.458 OA
BRANCH  33  34
ATOM     34  C   UNL     1      -1.679  -4.687   4.490  1.00  0.00     0.338 C 
ATOM     35  O   UNL     1      -1.304  -5.617   5.189  1.00  0.00    -0.246 OA
BRANCH  34  36
ATOM     36  C   UNL     1      -2.177  -3.403   5.064  1.00  0.00     0.060 A 
ATOM     37  C   UNL     1      -2.890  -2.476   4.318  1.00  0.00     0.016 A 
ATOM     38  C   UNL     1      -1.855  -3.070   6.382  1.00  0.00     0.016 A 
ATOM     39  C   UNL     1      -3.095  -1.172   4.812  1.00  0.00     0.010 A 
ATOM     40  C   UNL     1      -2.179  -1.803   6.912  1.00  0.00     0.010 A 
ATOM     41  C   UNL     1      -2.748  -0.790   6.120  1.00  0.00    -0.014 A 
BRANCH  41  42
ATOM     42  C   UNL     1      -2.930   0.626   6.640  1.00  0.00     0.031 A 
ATOM     43  C   UNL     1      -1.865   1.295   7.503  1.00  0.00     0.074 A 
ATOM     44  C   UNL     1      -4.018   1.384   6.361  1.00  0.00     0.049 A 
ATOM     45  N   UNL     1      -1.962   2.350   8.283  1.00  0.00    -0.248 NA
ATOM     46  C   UNL     1      -0.521   0.698   7.496  1.00  0.00     0.031 C 
ATOM     47  C   UNL     1      -5.140   1.003   5.508  1.00  0.00     0.029 A 
ATOM     48  N   UNL     1      -4.350   2.665   6.767  1.00  0.00    -0.354 N 
ATOM     49  C   UNL     1      -0.736   2.475   8.929  1.00  0.00     0.074 A 
ATOM     50  C   UNL     1       0.101   1.402   8.433  1.00  0.00     0.031 C 
ATOM     51  C   UNL     1      -5.978   2.040   5.377  1.00  0.00     0.029 A 
ATOM     52  C   UNL     1      -5.546   3.118   6.261  1.00  0.00     0.049 A 
ATOM     53  H   UNL     1      -3.782   3.203   7.364  1.00  0.00     0.167 HD
ATOM     54  C   UNL     1      -0.338   3.389   9.851  1.00  0.00     0.037 A 
ATOM     55  C   UNL     1      -6.274   4.227   6.510  1.00  0.00     0.037 A 
ATOM     56  C   UNL     1      -1.098   4.541  10.274  1.00  0.00     0.049 A 
ATOM     57  C   UNL     1      -5.836   5.216   7.551  1.00  0.00     0.074 A 
ATOM     58  C   UNL     1      -0.745   5.515  11.197  1.00  0.00     0.029 A 
ATOM     59  N   UNL     1      -2.337   4.905   9.777  1.00  0.00    -0.354 N 
ATOM     60  N   UNL     1      -4.748   5.227   8.276  1.00  0.00    -0.248 NA
ATOM     61  C   UNL     1      -6.758   6.328   7.840  1.00  0.00     0.031 C 
ATOM     62  C   UNL     1      -1.780   6.452  11.279  1.00  0.00     0.029 A 
ATOM     63  C   UNL     1      -2.760   6.085  10.375  1.00  0.00     0.049 A 
ATOM     64  H   UNL     1      -2.844   4.403   9.098  1.00  0.00     0.167 HD
ATOM     65  C   UNL     1      -4.855   6.335   9.107  1.00  0.00     0.074 A 
ATOM     66  C   UNL     1      -6.099   6.995   8.777  1.00  0.00     0.031 C 
ATOM     67  C   UNL     1      -3.997   6.752  10.068  1.00  0.00     0.037 A 
BRANCH  54  68
ATOM     68  C   UNL     1       0.995   3.188  10.520  1.00  0.00     0.064 A 
ATOM     69  C   UNL     1       1.044   2.819  11.876  1.00  0.00     0.173 A 
ATOM     70  C   UNL     1       2.205   3.467   9.873  1.00  0.00     0.173 A 
ATOM     71  F   UNL     1      -0.088   2.558  12.547  1.00  0.00    -0.203 F 
ATOM     72  C   UNL     1       2.254   2.756  12.561  1.00  0.00     0.198 A 
ATOM     73  C   UNL     1       3.418   3.374  10.555  1.00  0.00     0.198 A 
ATOM     74  F   UNL     1       2.214   3.818   8.579  1.00  0.00    -0.203 F 
ATOM     75  F   UNL     1       2.270   2.445  13.865  1.00  0.00    -0.200 F 
ATOM     76  C   UNL     1       3.440   3.030  11.899  1.00  0.00     0.200 A 
ATOM     77  F   UNL     1       4.566   3.620   9.910  1.00  0.00    -0.200 F 
ATOM     78  F   UNL     1       4.606   2.966  12.557  1.00  0.00    -0.200 F 
ENDBRANCH  54  68
BRANCH  55  79
ATOM     79  C   UNL     1      -7.565   4.428   5.795  1.00  0.00     0.064 A 
ATOM     80  C   UNL     1      -8.669   3.596   6.036  1.00  0.00     0.173 A 
ATOM     81  C   UNL     1      -7.712   5.452   4.850  1.00  0.00     0.173 A 
ATOM     82  F   UNL     1      -8.583   2.612   6.943  1.00  0.00    -0.203 F 
ATOM     83  C   UNL     1      -9.855   3.751   5.324  1.00  0.00     0.198 A 
ATOM     84  C   UNL     1      -8.912   5.628   4.165  1.00  0.00     0.198 A 
ATOM     85  F   UNL     1      -6.700   6.301   4.619  1.00  0.00    -0.203 F 
ATOM     86  F   UNL     1     -10.875   2.909   5.537  1.00  0.00    -0.200 F 
ATOM     87  C   UNL     1      -9.977   4.769   4.391  1.00  0.00     0.200 A 
ATOM     88  F   UNL     1      -9.040   6.637   3.291  1.00  0.00    -0.200 F 
ATOM     89  F   UNL     1     -11.124   4.925   3.716  1.00  0.00    -0.200 F 
ENDBRANCH  55  79
BRANCH  67  90
ATOM     90  C   UNL     1      -4.358   7.990  10.837  1.00  0.00     0.064 A 
ATOM     91  C   UNL     1      -3.659   9.190  10.633  1.00  0.00     0.173 A 
ATOM     92  C   UNL     1      -5.381   7.984  11.797  1.00  0.00     0.173 A 
ATOM     93  F   UNL     1      -2.668   9.250   9.731  1.00  0.00    -0.203 F 
ATOM     94  C   UNL     1      -3.971  10.336  11.361  1.00  0.00     0.198 A 
ATOM     95  C   UNL     1      -5.707   9.138  12.507  1.00  0.00     0.198 A 
ATOM     96  F   UNL     1      -6.090   6.867  12.020  1.00  0.00    -0.203 F 
ATOM     97  F   UNL     1      -3.280  11.466  11.159  1.00  0.00    -0.200 F 
ATOM     98  C   UNL     1      -4.999  10.311  12.292  1.00  0.00     0.200 A 
ATOM     99  F   UNL     1      -6.716   9.119  13.388  1.00  0.00    -0.200 F 
ATOM    100  F   UNL     1      -5.312  11.420  12.977  1.00  0.00    -0.200 F 
ENDBRANCH  67  90
ENDBRANCH  41  42
ENDBRANCH  34  36
ENDBRANCH  33  34
ENDBRANCH  32  33
ENDBRANCH   1  32
TORSDOF 17
