REMARK SMILES O=C(/C=C/[C@@]12C=C(O)C(=O)C=C1C(=O)C1=Cc3cc(O)c(O)cc3O[C@@H](c3ccc(O)c(O)c3)[C@@H]12)OCCOC(=O)c1ccc(-c2c3nc(c(-c4c(F)c(F)c(F)c(F)c4F)c4ccc([nH]4)c(-c4c(F)c(F)c(F)c(F)c4F)c4nc(c(-c5c(F)c(F)c(F)c(F)c5F)c5ccc2[nH]5)C=C4)C=C3)cc1
REMARK SMILES IDX 1 1 2 2 3 3 4 4 5 5 6 6 12 7 35 8 7 9 11 10 13 11 15 12 9 14
REMARK SMILES IDX 14 15 16 16 10 17 8 18 17 20 18 21 24 22 19 23 23 24 21 25
REMARK SMILES IDX 25 26 26 27 27 29 28 30 34 31 29 32 32 33 30 34 33 35 31 37
REMARK SMILES IDX 20 39 22 41 36 43 37 44 38 45 39 46 40 47 41 48 42 49 43 50
REMARK SMILES IDX 104 51 44 52 103 53 45 54 46 55 47 56 97 57 48 58 102 59
REMARK SMILES IDX 96 60 98 61 49 62 101 63 95 64 94 65 50 67 82 68 62 69 81 70
REMARK SMILES IDX 63 71 66 72 80 73 99 74 64 75 65 76 79 78 100 79 67 80 51 81
REMARK SMILES IDX 52 82 60 83 53 84 54 85 58 86 61 87 55 88 56 89 59 90 57 91
REMARK SMILES IDX 83 92 84 93 92 94 85 95 86 96 90 97 93 98 87 99 88 100
REMARK SMILES IDX 91 101 89 102 68 103 69 104 77 105 70 106 71 107 75 108
REMARK SMILES IDX 78 109 72 110 73 111 76 112 74 113
REMARK H PARENT 8 19 33 36 31 38 20 40 22 42 98 66 66 77
REMARK Flexibility Score: 80.00
ROOT
ATOM      1  O   UNL     1       1.939   1.125  -1.754  1.00  0.00    -0.247 OA
ATOM      2  C   UNL     1       2.739   0.691  -0.937  1.00  0.00     0.330 C 
ENDROOT
BRANCH   2   3
ATOM      3  C   UNL     1       3.539  -0.502  -1.241  1.00  0.00     0.090 C 
ATOM      4  C   UNL     1       4.851  -0.497  -1.545  1.00  0.00    -0.003 C 
BRANCH   4   5
ATOM      5  C   UNL     1       5.783  -1.743  -1.637  1.00  0.00     0.051 C 
ATOM      6  C   UNL     1       6.959  -1.419  -0.743  1.00  0.00     0.040 C 
ATOM      7  C   UNL     1       5.083  -2.980  -1.136  1.00  0.00     0.018 C 
ATOM      8  C   UNL     1       5.988  -2.166  -3.148  1.00  0.00     0.087 CG0
ATOM      9  C   UNL     1       7.193  -2.023   0.434  1.00  0.00     0.160 C 
ATOM     10  C   UNL     1       5.350  -3.696  -0.043  1.00  0.00     0.065 C 
ATOM     11  C   UNL     1       4.166  -3.394  -2.203  1.00  0.00     0.186 C 
ATOM     12  C   UNL     1       4.616  -2.708  -3.417  1.00  0.00     0.009 C 
ATOM     13  G   UNL     1       6.890  -3.374  -3.553  1.00  0.00     0.000 G0
ATOM     14  C   UNL     1       6.377  -3.194   0.881  1.00  0.00     0.220 C 
ATOM     15  O   UNL     1       3.292  -4.221  -2.140  1.00  0.00    -0.289 OA
ATOM     16  C   UNL     1       3.981  -2.789  -4.577  1.00  0.00     0.020 C 
ATOM     17  O   UNL     1       6.606  -3.732   1.958  1.00  0.00    -0.286 OA
BRANCH   9  18
ATOM     18  O   UNL     1       8.221  -1.616   1.260  1.00  0.00    -0.504 OA
ATOM     19  H   UNL     1       8.757  -0.887   1.016  1.00  0.00     0.293 HD
ENDBRANCH   9  18
BRANCH  16  20
ATOM     20  C   UNL     1       4.764  -2.638  -5.791  1.00  0.00     0.021 A 
ATOM     21  C   UNL     1       4.114  -2.103  -6.913  1.00  0.00     0.062 A 
ATOM     22  C   UNL     1       6.064  -3.183  -5.902  1.00  0.00     0.131 A 
ATOM     23  C   UNL     1       4.762  -2.114  -8.138  1.00  0.00     0.158 A 
ATOM     24  C   UNL     1       6.682  -3.207  -7.151  1.00  0.00     0.097 A 
ATOM     25  C   UNL     1       6.038  -2.656  -8.249  1.00  0.00     0.161 A 
BRANCH  22  26
ATOM     26  O   UNL     1       6.767  -3.841  -4.924  1.00  0.00    -0.484 OA
BRANCH  26  27
ATOM     27  C   UNL     1       6.890  -3.374  -3.553  1.00  0.00     0.213 CG0
ATOM     28  G   UNL     1       5.988  -2.166  -3.148  1.00  0.00     0.000 G0
BRANCH  27  29
ATOM     29  C   UNL     1       8.345  -3.059  -3.294  1.00  0.00    -0.003 A 
ATOM     30  C   UNL     1       8.921  -3.345  -2.048  1.00  0.00     0.011 A 
ATOM     31  C   UNL     1       9.093  -2.355  -4.243  1.00  0.00     0.057 A 
ATOM     32  C   UNL     1      10.114  -2.731  -1.673  1.00  0.00     0.050 A 
ATOM     33  C   UNL     1      10.318  -1.807  -3.892  1.00  0.00     0.157 A 
ATOM     34  C   UNL     1      10.783  -1.924  -2.587  1.00  0.00     0.157 A 
BRANCH  33  35
ATOM     35  O   UNL     1      11.027  -1.100  -4.818  1.00  0.00    -0.504 OA
ATOM     36  H   UNL     1      11.855  -0.727  -4.588  1.00  0.00     0.293 HD
ENDBRANCH  33  35
BRANCH  34  37
ATOM     37  O   UNL     1      11.884  -1.221  -2.197  1.00  0.00    -0.504 OA
ATOM     38  H   UNL     1      12.201  -1.297  -1.318  1.00  0.00     0.293 HD
ENDBRANCH  34  37
ENDBRANCH  27  29
ENDBRANCH  26  27
ENDBRANCH  22  26
BRANCH  23  39
ATOM     39  O   UNL     1       4.165  -1.649  -9.274  1.00  0.00    -0.504 OA
ATOM     40  H   UNL     1       3.305  -1.278  -9.233  1.00  0.00     0.293 HD
ENDBRANCH  23  39
BRANCH  25  41
ATOM     41  O   UNL     1       6.664  -2.686  -9.461  1.00  0.00    -0.504 OA
ATOM     42  H   UNL     1       6.244  -2.318 -10.214  1.00  0.00     0.293 HD
ENDBRANCH  25  41
ENDBRANCH  16  20
ENDBRANCH   4   5
ENDBRANCH   2   3
BRANCH   2  43
ATOM     43  O   UNL     1       2.815   1.137   0.341  1.00  0.00    -0.459 OA
BRANCH  43  44
ATOM     44  C   UNL     1       3.884   0.781   1.244  1.00  0.00     0.275 C 
BRANCH  44  45
ATOM     45  C   UNL     1       3.589  -0.425   2.147  1.00  0.00     0.275 C 
BRANCH  45  46
ATOM     46  O   UNL     1       3.157  -1.613   1.451  1.00  0.00    -0.458 OA
BRANCH  46  47
ATOM     47  C   UNL     1       1.829  -1.916   1.538  1.00  0.00     0.338 C 
ATOM     48  O   UNL     1       0.966  -1.241   2.067  1.00  0.00    -0.246 OA
BRANCH  47  49
ATOM     49  C   UNL     1       1.549  -3.168   0.785  1.00  0.00     0.060 A 
ATOM     50  C   UNL     1       2.317  -4.310   0.989  1.00  0.00     0.016 A 
ATOM     51  C   UNL     1       0.526  -3.197  -0.170  1.00  0.00     0.016 A 
ATOM     52  C   UNL     1       2.156  -5.417   0.139  1.00  0.00     0.010 A 
ATOM     53  C   UNL     1       0.335  -4.332  -0.988  1.00  0.00     0.010 A 
ATOM     54  C   UNL     1       1.186  -5.444  -0.893  1.00  0.00    -0.014 A 
BRANCH  54  55
ATOM     55  C   UNL     1       1.123  -6.616  -1.844  1.00  0.00     0.031 A 
ATOM     56  C   UNL     1       1.329  -6.524  -3.354  1.00  0.00     0.074 A 
ATOM     57  C   UNL     1       0.959  -7.852  -1.336  1.00  0.00     0.049 A 
ATOM     58  N   UNL     1       1.508  -7.494  -4.231  1.00  0.00    -0.248 NA
ATOM     59  C   UNL     1       1.369  -5.194  -3.968  1.00  0.00     0.031 C 
ATOM     60  C   UNL     1       0.781  -8.164   0.080  1.00  0.00     0.029 A 
ATOM     61  N   UNL     1       0.915  -9.076  -1.959  1.00  0.00    -0.354 N 
ATOM     62  C   UNL     1       1.806  -6.882  -5.447  1.00  0.00     0.074 A 
ATOM     63  C   UNL     1       1.719  -5.462  -5.221  1.00  0.00     0.031 C 
ATOM     64  C   UNL     1       0.664  -9.490   0.221  1.00  0.00     0.029 A 
ATOM     65  C   UNL     1       0.668 -10.113  -1.100  1.00  0.00     0.049 A 
ATOM     66  H   UNL     1       1.048  -9.196  -2.927  1.00  0.00     0.167 HD
ATOM     67  C   UNL     1       2.111  -7.432  -6.649  1.00  0.00     0.037 A 
ATOM     68  C   UNL     1       0.411 -11.414  -1.330  1.00  0.00     0.037 A 
ATOM     69  C   UNL     1       1.964  -8.825  -6.980  1.00  0.00     0.049 A 
ATOM     70  C   UNL     1       0.429 -11.963  -2.722  1.00  0.00     0.074 A 
ATOM     71  C   UNL     1       2.127  -9.441  -8.211  1.00  0.00     0.029 A 
ATOM     72  N   UNL     1       1.534  -9.801  -6.101  1.00  0.00    -0.354 N 
ATOM     73  N   UNL     1       0.777 -11.375  -3.837  1.00  0.00    -0.248 NA
ATOM     74  C   UNL     1       0.006 -13.360  -2.885  1.00  0.00     0.031 C 
ATOM     75  C   UNL     1       1.705 -10.770  -8.096  1.00  0.00     0.029 A 
ATOM     76  C   UNL     1       1.349 -10.996  -6.778  1.00  0.00     0.049 A 
ATOM     77  H   UNL     1       1.381  -9.666  -5.138  1.00  0.00     0.167 HD
ATOM     78  C   UNL     1       0.629 -12.330  -4.834  1.00  0.00     0.074 A 
ATOM     79  C   UNL     1       0.171 -13.541  -4.188  1.00  0.00     0.031 C 
ATOM     80  C   UNL     1       0.861 -12.202  -6.163  1.00  0.00     0.037 A 
BRANCH  67  81
ATOM     81  C   UNL     1       2.579  -6.540  -7.767  1.00  0.00     0.064 A 
ATOM     82  C   UNL     1       3.950  -6.325  -7.976  1.00  0.00     0.173 A 
ATOM     83  C   UNL     1       1.685  -6.081  -8.744  1.00  0.00     0.173 A 
ATOM     84  F   UNL     1       4.847  -6.762  -7.080  1.00  0.00    -0.203 F 
ATOM     85  C   UNL     1       4.408  -5.705  -9.138  1.00  0.00     0.198 A 
ATOM     86  C   UNL     1       2.146  -5.444  -9.894  1.00  0.00     0.198 A 
ATOM     87  F   UNL     1       0.369  -6.293  -8.604  1.00  0.00    -0.203 F 
ATOM     88  F   UNL     1       5.724  -5.572  -9.352  1.00  0.00    -0.200 F 
ATOM     89  C   UNL     1       3.506  -5.261 -10.094  1.00  0.00     0.200 A 
ATOM     90  F   UNL     1       1.274  -5.037 -10.828  1.00  0.00    -0.200 F 
ATOM     91  F   UNL     1       3.947  -4.670 -11.214  1.00  0.00    -0.200 F 
ENDBRANCH  67  81
BRANCH  68  92
ATOM     92  C   UNL     1       0.061 -12.260  -0.166  1.00  0.00     0.064 A 
ATOM     93  C   UNL     1       0.966 -13.196   0.341  1.00  0.00     0.173 A 
ATOM     94  C   UNL     1      -1.139 -12.048   0.533  1.00  0.00     0.173 A 
ATOM     95  F   UNL     1       2.111 -13.443  -0.310  1.00  0.00    -0.203 F 
ATOM     96  C   UNL     1       0.698 -13.869   1.530  1.00  0.00     0.198 A 
ATOM     97  C   UNL     1      -1.389 -12.697   1.736  1.00  0.00     0.198 A 
ATOM     98  F   UNL     1      -2.031 -11.154   0.080  1.00  0.00    -0.203 F 
ATOM     99  F   UNL     1       1.580 -14.759   2.005  1.00  0.00    -0.200 F 
ATOM    100  C   UNL     1      -0.468 -13.604   2.236  1.00  0.00     0.200 A 
ATOM    101  F   UNL     1      -2.502 -12.417   2.427  1.00  0.00    -0.200 F 
ATOM    102  F   UNL     1      -0.699 -14.216   3.405  1.00  0.00    -0.200 F 
ENDBRANCH  68  92
BRANCH  80 103
ATOM    103  C   UNL     1       0.616 -13.400  -7.033  1.00  0.00     0.064 A 
ATOM    104  C   UNL     1      -0.682 -13.868  -7.285  1.00  0.00     0.173 A 
ATOM    105  C   UNL     1       1.685 -14.073  -7.644  1.00  0.00     0.173 A 
ATOM    106  F   UNL     1      -1.739 -13.264  -6.720  1.00  0.00    -0.203 F 
ATOM    107  C   UNL     1      -0.898 -14.985  -8.088  1.00  0.00     0.198 A 
ATOM    108  C   UNL     1       1.463 -15.171  -8.471  1.00  0.00     0.198 A 
ATOM    109  F   UNL     1       2.946 -13.660  -7.448  1.00  0.00    -0.203 F 
ATOM    110  F   UNL     1      -2.144 -15.445  -8.271  1.00  0.00    -0.200 F 
ATOM    111  C   UNL     1       0.173 -15.632  -8.684  1.00  0.00     0.200 A 
ATOM    112  F   UNL     1       2.499 -15.785  -9.059  1.00  0.00    -0.200 F 
ATOM    113  F   UNL     1      -0.036 -16.707  -9.456  1.00  0.00    -0.200 F 
ENDBRANCH  80 103
ENDBRANCH  54  55
ENDBRANCH  47  49
ENDBRANCH  46  47
ENDBRANCH  45  46
ENDBRANCH  44  45
ENDBRANCH  43  44
ENDBRANCH   2  43
TORSDOF 18
