REMARK SMILES CCC(CC)N(CC(C)C)C(=O)N[C@H](C)C(=O)OCCOC(=O)c1ccc(-c2c3nc(c(-c4c(F)c(F)c(F)c(F)c4F)c4ccc([nH]4)c(-c4c(F)c(F)c(F)c(F)c4F)c4nc(c(-c5c(F)c(F)c(F)c(F)c5F)c5ccc2[nH]5)C=C4)C=C3)cc1
REMARK SMILES IDX 19 1 18 2 16 3 17 4 14 5 15 6 13 7 11 8 12 9 6 11 3 12 2 13
REMARK SMILES IDX 1 14 4 15 5 16 7 17 8 18 9 19 10 20 20 21 21 22 22 23 23 24
REMARK SMILES IDX 24 25 25 26 86 27 26 28 85 29 27 30 28 31 29 32 79 33 30 34
REMARK SMILES IDX 84 35 78 36 80 37 31 38 83 39 77 40 76 41 32 43 64 44 44 45
REMARK SMILES IDX 63 46 45 47 48 48 62 49 81 50 46 51 47 52 61 54 82 55 49 56
REMARK SMILES IDX 33 57 34 58 42 59 35 60 36 61 40 62 43 63 37 64 38 65 41 66
REMARK SMILES IDX 39 67 65 68 66 69 74 70 67 71 68 72 72 73 75 74 69 75 70 76
REMARK SMILES IDX 73 77 71 78 50 79 51 80 59 81 52 82 53 83 57 84 60 85 54 86
REMARK SMILES IDX 55 87 58 88 56 89
REMARK H PARENT 13 10 80 42 48 53
REMARK Flexibility Score: inf
ROOT
ATOM      1  C   UNL     1      -2.192   8.755  -0.653  1.00  0.00     0.274 C 
ENDROOT
BRANCH   1   2
ATOM      2  O   UNL     1      -2.368   7.524  -1.379  1.00  0.00    -0.461 OA
BRANCH   2   3
ATOM      3  C   UNL     1      -1.487   7.260  -2.379  1.00  0.00     0.328 C 
ATOM      4  O   UNL     1      -0.599   8.026  -2.740  1.00  0.00    -0.250 OA
BRANCH   3   5
ATOM      5  C   UNL     1      -1.651   5.837  -2.954  1.00  0.00     0.190 C 
ATOM      6  C   UNL     1      -3.025   5.233  -2.683  1.00  0.00     0.043 C 
BRANCH   5   7
ATOM      7  N   UNL     1      -1.405   5.896  -4.403  1.00  0.00    -0.325 N 
ATOM      8  C   UNL     1      -1.131   5.058  -5.415  1.00  0.00     0.318 C 
ATOM      9  O   UNL     1      -1.301   5.567  -6.527  1.00  0.00    -0.249 OA
ATOM     10  H   UNL     1      -1.458   6.825  -4.726  1.00  0.00     0.166 HD
BRANCH   8  11
ATOM     11  N   UNL     1      -0.696   3.766  -5.256  1.00  0.00    -0.322 N 
BRANCH  11  12
ATOM     12  C   UNL     1      -0.478   2.917  -6.468  1.00  0.00     0.086 C 
BRANCH  12  13
ATOM     13  C   UNL     1      -1.731   2.816  -7.367  1.00  0.00     0.022 C 
ATOM     14  C   UNL     1      -1.653   1.675  -8.375  1.00  0.00     0.006 C 
ENDBRANCH  12  13
BRANCH  12  15
ATOM     15  C   UNL     1       0.848   3.186  -7.221  1.00  0.00     0.022 C 
ATOM     16  C   UNL     1       0.949   4.467  -8.032  1.00  0.00     0.006 C 
ENDBRANCH  12  15
ENDBRANCH  11  12
BRANCH  11  17
ATOM     17  C   UNL     1      -0.298   3.139  -3.994  1.00  0.00     0.124 C 
BRANCH  17  18
ATOM     18  C   UNL     1       1.206   3.245  -3.667  1.00  0.00     0.002 C 
ATOM     19  C   UNL     1       1.809   4.628  -3.920  1.00  0.00     0.009 C 
ATOM     20  C   UNL     1       1.444   2.821  -2.216  1.00  0.00     0.009 C 
ENDBRANCH  17  18
ENDBRANCH  11  17
ENDBRANCH   8  11
ENDBRANCH   5   7
ENDBRANCH   3   5
ENDBRANCH   2   3
ENDBRANCH   1   2
BRANCH   1  21
ATOM     21  C   UNL     1      -1.776   8.462   0.790  1.00  0.00     0.275 C 
BRANCH  21  22
ATOM     22  O   UNL     1      -0.411   8.005   0.867  1.00  0.00    -0.458 OA
BRANCH  22  23
ATOM     23  C   UNL     1      -0.241   6.670   0.766  1.00  0.00     0.338 C 
ATOM     24  O   UNL     1      -1.097   5.813   0.606  1.00  0.00    -0.246 OA
BRANCH  23  25
ATOM     25  C   UNL     1       1.191   6.357   0.772  1.00  0.00     0.060 A 
ATOM     26  C   UNL     1       1.808   6.106  -0.451  1.00  0.00     0.016 A 
ATOM     27  C   UNL     1       1.885   6.177   1.969  1.00  0.00     0.016 A 
ATOM     28  C   UNL     1       3.109   5.607  -0.481  1.00  0.00     0.010 A 
ATOM     29  C   UNL     1       3.209   5.722   1.932  1.00  0.00     0.010 A 
ATOM     30  C   UNL     1       3.824   5.400   0.709  1.00  0.00    -0.014 A 
BRANCH  30  31
ATOM     31  C   UNL     1       5.190   4.808   0.667  1.00  0.00     0.031 A 
ATOM     32  C   UNL     1       5.462   3.469   1.301  1.00  0.00     0.074 A 
ATOM     33  C   UNL     1       6.195   5.453   0.045  1.00  0.00     0.049 A 
ATOM     34  N   UNL     1       6.606   2.861   1.496  1.00  0.00    -0.248 NA
ATOM     35  C   UNL     1       4.295   2.720   1.789  1.00  0.00     0.031 C 
ATOM     36  C   UNL     1       6.078   6.738  -0.642  1.00  0.00     0.029 A 
ATOM     37  N   UNL     1       7.516   5.108  -0.114  1.00  0.00    -0.354 N 
ATOM     38  C   UNL     1       6.304   1.695   2.186  1.00  0.00     0.074 A 
ATOM     39  C   UNL     1       4.867   1.668   2.360  1.00  0.00     0.031 C 
ATOM     40  C   UNL     1       7.267   7.061  -1.174  1.00  0.00     0.029 A 
ATOM     41  C   UNL     1       8.245   6.038  -0.812  1.00  0.00     0.049 A 
ATOM     42  H   UNL     1       7.902   4.274   0.239  1.00  0.00     0.167 HD
ATOM     43  C   UNL     1       7.149   0.738   2.640  1.00  0.00     0.037 A 
ATOM     44  C   UNL     1       9.558   6.083  -1.104  1.00  0.00     0.037 A 
ATOM     45  C   UNL     1       8.570   0.717   2.409  1.00  0.00     0.049 A 
ATOM     46  C   UNL     1      10.471   4.995  -0.620  1.00  0.00     0.074 A 
ATOM     47  C   UNL     1       9.495  -0.235   2.802  1.00  0.00     0.029 A 
ATOM     48  N   UNL     1       9.268   1.685   1.704  1.00  0.00    -0.354 N 
ATOM     49  N   UNL     1      10.182   3.929   0.084  1.00  0.00    -0.248 NA
ATOM     50  C   UNL     1      11.897   5.128  -0.953  1.00  0.00     0.031 C 
ATOM     51  C   UNL     1      10.759   0.167   2.352  1.00  0.00     0.029 A 
ATOM     52  C   UNL     1      10.614   1.356   1.657  1.00  0.00     0.049 A 
ATOM     53  H   UNL     1       8.867   2.486   1.296  1.00  0.00     0.167 HD
ATOM     54  C   UNL     1      11.387   3.273   0.292  1.00  0.00     0.074 A 
ATOM     55  C   UNL     1      12.408   4.043  -0.387  1.00  0.00     0.031 C 
ATOM     56  C   UNL     1      11.623   2.140   0.996  1.00  0.00     0.037 A 
BRANCH  43  57
ATOM     57  C   UNL     1       6.562  -0.360   3.474  1.00  0.00     0.064 A 
ATOM     58  C   UNL     1       5.851  -1.425   2.905  1.00  0.00     0.173 A 
ATOM     59  C   UNL     1       6.753  -0.361   4.864  1.00  0.00     0.173 A 
ATOM     60  F   UNL     1       5.631  -1.459   1.583  1.00  0.00    -0.203 F 
ATOM     61  C   UNL     1       5.335  -2.444   3.702  1.00  0.00     0.198 A 
ATOM     62  C   UNL     1       6.253  -1.391   5.655  1.00  0.00     0.198 A 
ATOM     63  F   UNL     1       7.431   0.636   5.454  1.00  0.00    -0.203 F 
ATOM     64  F   UNL     1       4.628  -3.436   3.144  1.00  0.00    -0.200 F 
ATOM     65  C   UNL     1       5.541  -2.429   5.074  1.00  0.00     0.200 A 
ATOM     66  F   UNL     1       6.458  -1.378   6.980  1.00  0.00    -0.200 F 
ATOM     67  F   UNL     1       5.046  -3.412   5.839  1.00  0.00    -0.200 F 
ENDBRANCH  43  57
BRANCH  44  68
ATOM     68  C   UNL     1      10.089   7.234  -1.874  1.00  0.00     0.064 A 
ATOM     69  C   UNL     1      10.447   7.095  -3.221  1.00  0.00     0.173 A 
ATOM     70  C   UNL     1      10.216   8.501  -1.286  1.00  0.00     0.173 A 
ATOM     71  F   UNL     1      10.365   5.895  -3.814  1.00  0.00    -0.203 F 
ATOM     72  C   UNL     1      10.909   8.184  -3.955  1.00  0.00     0.198 A 
ATOM     73  C   UNL     1      10.659   9.593  -2.026  1.00  0.00     0.198 A 
ATOM     74  F   UNL     1       9.886   8.678   0.001  1.00  0.00    -0.203 F 
ATOM     75  F   UNL     1      11.266   8.024  -5.236  1.00  0.00    -0.200 F 
ATOM     76  C   UNL     1      11.007   9.434  -3.360  1.00  0.00     0.200 A 
ATOM     77  F   UNL     1      10.742  10.800  -1.451  1.00  0.00    -0.200 F 
ATOM     78  F   UNL     1      11.439  10.485  -4.070  1.00  0.00    -0.200 F 
ENDBRANCH  44  68
BRANCH  56  79
ATOM     79  C   UNL     1      13.044   1.675   1.083  1.00  0.00     0.064 A 
ATOM     80  C   UNL     1      13.952   2.286   1.960  1.00  0.00     0.173 A 
ATOM     81  C   UNL     1      13.494   0.594   0.312  1.00  0.00     0.173 A 
ATOM     82  F   UNL     1      13.569   3.333   2.705  1.00  0.00    -0.203 F 
ATOM     83  C   UNL     1      15.267   1.838   2.052  1.00  0.00     0.198 A 
ATOM     84  C   UNL     1      14.806   0.139   0.418  1.00  0.00     0.198 A 
ATOM     85  F   UNL     1      12.661  -0.022  -0.540  1.00  0.00    -0.203 F 
ATOM     86  F   UNL     1      16.127   2.454   2.874  1.00  0.00    -0.200 F 
ATOM     87  C   UNL     1      15.692   0.763   1.284  1.00  0.00     0.200 A 
ATOM     88  F   UNL     1      15.215  -0.901  -0.321  1.00  0.00    -0.200 F 
ATOM     89  F   UNL     1      16.958   0.333   1.375  1.00  0.00    -0.200 F 
ENDBRANCH  56  79
ENDBRANCH  30  31
ENDBRANCH  23  25
ENDBRANCH  22  23
ENDBRANCH  21  22
ENDBRANCH   1  21
TORSDOF 18
