REMARK SMILES CC1(C)[C@H](C(=O)OCCOC(=O)c2ccc(-c3c4nc(c(-c5c(F)c(F)c(F)c(F)c5F)c5ccc([nH]5)c(-c5c(F)c(F)c(F)c(F)c5F)c5nc(c(-c6c(F)c(F)c(F)c(F)c6F)c6ccc3[nH]6)C=C5)C=C4)cc2)[C@@H]1C(=O)Nc1ccc(NC(=O)C2CCC2)cc1
REMARK SMILES IDX 8 1 7 2 5 3 6 4 4 5 1 6 2 7 3 8 76 9 77 10 78 11 79 12 80 14
REMARK SMILES IDX 81 15 92 16 82 17 91 18 83 19 84 20 85 21 86 23 87 24 88 25
REMARK SMILES IDX 90 26 89 27 9 28 10 29 11 30 12 31 13 32 14 33 75 34 15 35
REMARK SMILES IDX 74 36 16 37 17 38 18 39 68 40 19 41 73 42 67 43 69 44 20 45
REMARK SMILES IDX 72 46 66 47 65 48 21 50 53 51 33 52 52 53 34 54 37 55 51 56
REMARK SMILES IDX 70 57 35 58 36 59 50 61 71 62 38 63 22 64 23 65 31 66 24 67
REMARK SMILES IDX 25 68 29 69 32 70 26 71 27 72 30 73 28 74 54 75 55 76 63 77
REMARK SMILES IDX 56 78 57 79 61 80 64 81 58 82 59 83 62 84 60 85 39 86 40 87
REMARK SMILES IDX 48 88 41 89 42 90 46 91 49 92 43 93 44 94 47 95 45 96
REMARK H PARENT 79 13 84 22 69 49 37 60
REMARK Flexibility Score: inf
ROOT
ATOM      1  C   UNL     1      -1.213   3.120  -2.493  1.00  0.00     0.274 C 
ENDROOT
BRANCH   1   2
ATOM      2  O   UNL     1      -0.645   2.212  -1.524  1.00  0.00    -0.462 OA
BRANCH   2   3
ATOM      3  C   UNL     1      -1.325   1.044  -1.380  1.00  0.00     0.310 C 
ATOM      4  O   UNL     1      -2.285   0.729  -2.058  1.00  0.00    -0.252 OA
BRANCH   3   5
ATOM      5  C   UNL     1      -0.756   0.040  -0.454  1.00  0.00     0.118 C 
ATOM      6  C   UNL     1       1.388  -1.015   0.387  1.00  0.00     0.013 C 
ATOM      7  C   UNL     1       0.443   0.166   0.440  1.00  0.00    -0.009 C 
ATOM      8  C   UNL     1       1.158   1.488   0.552  1.00  0.00     0.013 C 
ATOM      9  C   UNL     1      -0.972  -0.046   1.030  1.00  0.00     0.100 C 
BRANCH   9  10
ATOM     10  C   UNL     1      -1.572   0.962   1.931  1.00  0.00     0.228 C 
ATOM     11  O   UNL     1      -0.894   1.440   2.837  1.00  0.00    -0.274 OA
ATOM     12  N   UNL     1      -2.890   1.336   1.823  1.00  0.00    -0.326 N 
ATOM     13  H   UNL     1      -3.281   1.782   2.609  1.00  0.00     0.169 HD
BRANCH  12  14
ATOM     14  C   UNL     1      -3.738   1.159   0.730  1.00  0.00     0.041 A 
ATOM     15  C   UNL     1      -4.056   2.317   0.035  1.00  0.00     0.028 A 
ATOM     16  C   UNL     1      -4.198  -0.074   0.273  1.00  0.00     0.028 A 
ATOM     17  C   UNL     1      -4.698   2.223  -1.194  1.00  0.00     0.028 A 
ATOM     18  C   UNL     1      -4.964  -0.130  -0.910  1.00  0.00     0.028 A 
ATOM     19  C   UNL     1      -5.196   1.027  -1.676  1.00  0.00     0.041 A 
BRANCH  19  20
ATOM     20  N   UNL     1      -5.834   0.895  -2.916  1.00  0.00    -0.326 N 
ATOM     21  C   UNL     1      -6.200   1.754  -3.933  1.00  0.00     0.227 C 
ATOM     22  H   UNL     1      -6.083  -0.038  -3.109  1.00  0.00     0.169 HD
ATOM     23  O   UNL     1      -6.688   1.174  -4.924  1.00  0.00    -0.274 OA
BRANCH  21  24
ATOM     24  C   UNL     1      -6.044   3.295  -3.959  1.00  0.00     0.079 C 
ATOM     25  C   UNL     1      -7.257   4.019  -4.658  1.00  0.00     0.013 C 
ATOM     26  C   UNL     1      -6.329   4.283  -2.787  1.00  0.00     0.013 C 
ATOM     27  C   UNL     1      -6.954   5.247  -3.798  1.00  0.00     0.002 C 
ENDBRANCH  21  24
ENDBRANCH  19  20
ENDBRANCH  12  14
ENDBRANCH   9  10
ENDBRANCH   3   5
ENDBRANCH   2   3
ENDBRANCH   1   2
BRANCH   1  28
ATOM     28  C   UNL     1      -0.768   2.877  -3.945  1.00  0.00     0.275 C 
BRANCH  28  29
ATOM     29  O   UNL     1      -1.260   1.643  -4.506  1.00  0.00    -0.458 OA
BRANCH  29  30
ATOM     30  C   UNL     1      -0.439   0.581  -4.332  1.00  0.00     0.338 C 
ATOM     31  O   UNL     1       0.655   0.582  -3.788  1.00  0.00    -0.246 OA
BRANCH  30  32
ATOM     32  C   UNL     1      -1.075  -0.671  -4.776  1.00  0.00     0.060 A 
ATOM     33  C   UNL     1      -1.340  -1.641  -3.805  1.00  0.00     0.016 A 
ATOM     34  C   UNL     1      -1.229  -0.976  -6.125  1.00  0.00     0.016 A 
ATOM     35  C   UNL     1      -1.710  -2.929  -4.154  1.00  0.00     0.010 A 
ATOM     36  C   UNL     1      -1.605  -2.276  -6.486  1.00  0.00     0.010 A 
ATOM     37  C   UNL     1      -1.811  -3.264  -5.502  1.00  0.00    -0.014 A 
BRANCH  37  38
ATOM     38  C   UNL     1      -1.982  -4.683  -5.876  1.00  0.00     0.031 A 
ATOM     39  C   UNL     1      -0.806  -5.428  -6.434  1.00  0.00     0.074 A 
ATOM     40  C   UNL     1      -3.155  -5.308  -5.670  1.00  0.00     0.049 A 
ATOM     41  N   UNL     1      -0.761  -6.605  -7.001  1.00  0.00    -0.248 NA
ATOM     42  C   UNL     1       0.498  -4.752  -6.340  1.00  0.00     0.031 C 
ATOM     43  C   UNL     1      -4.325  -4.716  -5.024  1.00  0.00     0.029 A 
ATOM     44  N   UNL     1      -3.555  -6.577  -5.999  1.00  0.00    -0.354 N 
ATOM     45  C   UNL     1       0.564  -6.790  -7.373  1.00  0.00     0.074 A 
ATOM     46  C   UNL     1       1.293  -5.609  -6.964  1.00  0.00     0.031 C 
ATOM     47  C   UNL     1      -5.324  -5.614  -5.026  1.00  0.00     0.029 A 
ATOM     48  C   UNL     1      -4.880  -6.813  -5.732  1.00  0.00     0.049 A 
ATOM     49  H   UNL     1      -2.952  -7.252  -6.387  1.00  0.00     0.167 HD
ATOM     50  C   UNL     1       1.111  -7.851  -8.010  1.00  0.00     0.037 A 
ATOM     51  C   UNL     1      -5.657  -7.857  -6.075  1.00  0.00     0.037 A 
ATOM     52  C   UNL     1       0.370  -9.025  -8.387  1.00  0.00     0.049 A 
ATOM     53  C   UNL     1      -5.048  -8.988  -6.861  1.00  0.00     0.074 A 
ATOM     54  C   UNL     1       0.815 -10.155  -9.048  1.00  0.00     0.029 A 
ATOM     55  N   UNL     1      -0.980  -9.217  -8.127  1.00  0.00    -0.354 N 
ATOM     56  N   UNL     1      -3.811  -9.141  -7.267  1.00  0.00    -0.248 NA
ATOM     57  C   UNL     1      -5.945 -10.085  -7.247  1.00  0.00     0.031 C 
ATOM     58  C   UNL     1      -0.275 -11.012  -9.227  1.00  0.00     0.029 A 
ATOM     59  C   UNL     1      -1.388 -10.442  -8.628  1.00  0.00     0.049 A 
ATOM     60  H   UNL     1      -1.562  -8.578  -7.656  1.00  0.00     0.167 HD
ATOM     61  C   UNL     1      -3.771 -10.362  -7.926  1.00  0.00     0.074 A 
ATOM     62  C   UNL     1      -5.110 -10.911  -7.862  1.00  0.00     0.031 C 
ATOM     63  C   UNL     1      -2.723 -10.975  -8.527  1.00  0.00     0.037 A 
BRANCH  50  64
ATOM     64  C   UNL     1       2.561  -7.765  -8.386  1.00  0.00     0.064 A 
ATOM     65  C   UNL     1       3.584  -7.840  -7.430  1.00  0.00     0.173 A 
ATOM     66  C   UNL     1       2.930  -7.626  -9.733  1.00  0.00     0.173 A 
ATOM     67  F   UNL     1       3.285  -7.955  -6.128  1.00  0.00    -0.203 F 
ATOM     68  C   UNL     1       4.923  -7.755  -7.807  1.00  0.00     0.198 A 
ATOM     69  C   UNL     1       4.269  -7.571 -10.109  1.00  0.00     0.198 A 
ATOM     70  F   UNL     1       1.990  -7.550 -10.687  1.00  0.00    -0.203 F 
ATOM     71  F   UNL     1       5.883  -7.782  -6.873  1.00  0.00    -0.200 F 
ATOM     72  C   UNL     1       5.264  -7.628  -9.146  1.00  0.00     0.200 A 
ATOM     73  F   UNL     1       4.596  -7.458 -11.404  1.00  0.00    -0.200 F 
ATOM     74  F   UNL     1       6.553  -7.553  -9.507  1.00  0.00    -0.200 F 
ENDBRANCH  50  64
BRANCH  51  75
ATOM     75  C   UNL     1      -7.101  -7.855  -5.722  1.00  0.00     0.064 A 
ATOM     76  C   UNL     1      -7.618  -8.766  -4.793  1.00  0.00     0.173 A 
ATOM     77  C   UNL     1      -7.992  -6.943  -6.308  1.00  0.00     0.173 A 
ATOM     78  F   UNL     1      -6.811  -9.674  -4.224  1.00  0.00    -0.203 F 
ATOM     79  C   UNL     1      -8.975  -8.774  -4.472  1.00  0.00     0.198 A 
ATOM     80  C   UNL     1      -9.342  -6.932  -5.964  1.00  0.00     0.198 A 
ATOM     81  F   UNL     1      -7.548  -6.051  -7.205  1.00  0.00    -0.203 F 
ATOM     82  F   UNL     1      -9.451  -9.684  -3.611  1.00  0.00    -0.200 F 
ATOM     83  C   UNL     1      -9.834  -7.853  -5.052  1.00  0.00     0.200 A 
ATOM     84  F   UNL     1     -10.165  -6.031  -6.516  1.00  0.00    -0.200 F 
ATOM     85  F   UNL     1     -11.136  -7.857  -4.737  1.00  0.00    -0.200 F 
ENDBRANCH  51  75
BRANCH  63  86
ATOM     86  C   UNL     1      -2.962 -12.338  -9.105  1.00  0.00     0.064 A 
ATOM     87  C   UNL     1      -3.681 -12.521 -10.294  1.00  0.00     0.173 A 
ATOM     88  C   UNL     1      -2.407 -13.470  -8.488  1.00  0.00     0.173 A 
ATOM     89  F   UNL     1      -4.243 -11.471 -10.912  1.00  0.00    -0.203 F 
ATOM     90  C   UNL     1      -3.851 -13.792 -10.836  1.00  0.00     0.198 A 
ATOM     91  C   UNL     1      -2.554 -14.735  -9.048  1.00  0.00     0.198 A 
ATOM     92  F   UNL     1      -1.704 -13.345  -7.352  1.00  0.00    -0.203 F 
ATOM     93  F   UNL     1      -4.574 -13.951 -11.953  1.00  0.00    -0.200 F 
ATOM     94  C   UNL     1      -3.280 -14.896 -10.219  1.00  0.00     0.200 A 
ATOM     95  F   UNL     1      -1.990 -15.797  -8.458  1.00  0.00    -0.200 F 
ATOM     96  F   UNL     1      -3.433 -16.116 -10.750  1.00  0.00    -0.200 F 
ENDBRANCH  63  86
ENDBRANCH  37  38
ENDBRANCH  30  32
ENDBRANCH  29  30
ENDBRANCH  28  29
ENDBRANCH   1  28
TORSDOF 15
