REMARK SMILES Cn1cc(C(=O)OCCOC(=O)c2ccc(-c3c4nc(c(-c5c(F)c(F)c(F)c(F)c5F)c5ccc([nH]5)c(-c5c(F)c(F)c(F)c(F)c5F)c5nc(c(-c6c(F)c(F)c(F)c(F)c6F)c6ccc3[nH]6)C=C5)C=C4)cc2)c(C(F)F)n1
REMARK SMILES IDX 9 1 8 2 7 3 5 4 6 5 4 6 1 7 2 8 3 9 80 10 76 11 77 12 78 13
REMARK SMILES IDX 79 14 10 15 11 16 12 17 13 18 14 19 75 20 15 21 74 22 16 23
REMARK SMILES IDX 17 24 18 25 68 26 19 27 73 28 67 29 69 30 20 31 72 32 66 33
REMARK SMILES IDX 65 34 21 36 53 37 33 38 52 39 34 40 37 41 51 42 70 43 35 44
REMARK SMILES IDX 36 45 50 47 71 48 38 49 22 50 23 51 31 52 24 53 25 54 29 55
REMARK SMILES IDX 32 56 26 57 27 58 30 59 28 60 54 61 55 62 63 63 56 64 57 65
REMARK SMILES IDX 61 66 64 67 58 68 59 69 62 70 60 71 39 72 40 73 48 74 41 75
REMARK SMILES IDX 42 76 46 77 49 78 43 79 44 80 47 81 45 82
REMARK H PARENT 69 35 37 46
REMARK Flexibility Score: inf
ROOT
ATOM      1  C   UNL     1       4.435  -3.123  -1.372  1.00  0.00     0.275 C 
ENDROOT
BRANCH   1   2
ATOM      2  C   UNL     1       3.705  -3.287  -0.037  1.00  0.00     0.275 C 
BRANCH   2   3
ATOM      3  O   UNL     1       2.430  -2.613  -0.040  1.00  0.00    -0.458 OA
BRANCH   3   4
ATOM      4  C   UNL     1       2.369  -1.409   0.599  1.00  0.00     0.341 C 
ATOM      5  O   UNL     1       3.319  -0.862   1.144  1.00  0.00    -0.246 OA
BRANCH   4   6
ATOM      6  C   UNL     1       1.052  -0.798   0.542  1.00  0.00     0.107 A 
ATOM      7  C   UNL     1      -2.481  -0.544  -0.162  1.00  0.00     0.173 C 
ATOM      8  N   UNL     1      -1.090  -0.425   0.204  1.00  0.00    -0.274 N 
ATOM      9  C   UNL     1      -0.124  -1.379   0.102  1.00  0.00     0.124 A 
ATOM     10  N   UNL     1      -0.639   0.740   0.683  1.00  0.00    -0.171 NA
ATOM     11  C   UNL     1       0.673   0.534   0.905  1.00  0.00     0.143 A 
BRANCH  11  12
ATOM     12  C   UNL     1       1.543   1.650   1.410  1.00  0.00     0.394 C 
ATOM     13  F   UNL     1       1.563   2.687   0.522  1.00  0.00    -0.203 F 
ATOM     14  F   UNL     1       1.081   2.170   2.582  1.00  0.00    -0.203 F 
ENDBRANCH  11  12
ENDBRANCH   4   6
ENDBRANCH   3   4
ENDBRANCH   2   3
ENDBRANCH   1   2
BRANCH   1  15
ATOM     15  O   UNL     1       4.931  -1.779  -1.520  1.00  0.00    -0.458 OA
BRANCH  15  16
ATOM     16  C   UNL     1       4.236  -0.989  -2.370  1.00  0.00     0.338 C 
ATOM     17  O   UNL     1       3.287  -1.300  -3.068  1.00  0.00    -0.246 OA
BRANCH  16  18
ATOM     18  C   UNL     1       4.669   0.404  -2.180  1.00  0.00     0.060 A 
ATOM     19  C   UNL     1       3.810   1.233  -1.461  1.00  0.00     0.016 A 
ATOM     20  C   UNL     1       5.841   0.915  -2.739  1.00  0.00     0.016 A 
ATOM     21  C   UNL     1       4.126   2.572  -1.270  1.00  0.00     0.010 A 
ATOM     22  C   UNL     1       6.153   2.271  -2.556  1.00  0.00     0.010 A 
ATOM     23  C   UNL     1       5.295   3.107  -1.817  1.00  0.00    -0.014 A 
BRANCH  23  24
ATOM     24  C   UNL     1       5.522   4.568  -1.688  1.00  0.00     0.031 A 
ATOM     25  C   UNL     1       5.247   5.464  -2.860  1.00  0.00     0.074 A 
ATOM     26  C   UNL     1       5.841   5.109  -0.496  1.00  0.00     0.049 A 
ATOM     27  N   UNL     1       5.427   6.755  -2.980  1.00  0.00    -0.248 NA
ATOM     28  C   UNL     1       4.677   4.820  -4.053  1.00  0.00     0.031 C 
ATOM     29  C   UNL     1       6.005   4.363   0.751  1.00  0.00     0.029 A 
ATOM     30  N   UNL     1       6.059   6.416  -0.136  1.00  0.00    -0.354 N 
ATOM     31  C   UNL     1       5.014   7.074  -4.266  1.00  0.00     0.074 A 
ATOM     32  C   UNL     1       4.580   5.842  -4.890  1.00  0.00     0.031 C 
ATOM     33  C   UNL     1       6.285   5.226   1.742  1.00  0.00     0.029 A 
ATOM     34  C   UNL     1       6.388   6.575   1.188  1.00  0.00     0.049 A 
ATOM     35  H   UNL     1       5.987   7.168  -0.767  1.00  0.00     0.167 HD
ATOM     36  C   UNL     1       5.000   8.287  -4.869  1.00  0.00     0.037 A 
ATOM     37  C   UNL     1       6.767   7.676   1.867  1.00  0.00     0.037 A 
ATOM     38  C   UNL     1       5.408   9.514  -4.237  1.00  0.00     0.049 A 
ATOM     39  C   UNL     1       6.857   8.993   1.139  1.00  0.00     0.074 A 
ATOM     40  C   UNL     1       5.457  10.788  -4.776  1.00  0.00     0.029 A 
ATOM     41  N   UNL     1       5.832   9.622  -2.920  1.00  0.00    -0.354 N 
ATOM     42  N   UNL     1       6.535   9.280  -0.099  1.00  0.00    -0.248 NA
ATOM     43  C   UNL     1       7.382  10.136   1.899  1.00  0.00     0.031 C 
ATOM     44  C   UNL     1       5.960  11.657  -3.802  1.00  0.00     0.029 A 
ATOM     45  C   UNL     1       6.171  10.936  -2.638  1.00  0.00     0.049 A 
ATOM     46  H   UNL     1       5.883   8.875  -2.280  1.00  0.00     0.167 HD
ATOM     47  C   UNL     1       6.798  10.634  -0.259  1.00  0.00     0.074 A 
ATOM     48  C   UNL     1       7.287  11.118   1.014  1.00  0.00     0.031 C 
ATOM     49  C   UNL     1       6.652  11.406  -1.364  1.00  0.00     0.037 A 
BRANCH  36  50
ATOM     50  C   UNL     1       4.586   8.336  -6.310  1.00  0.00     0.064 A 
ATOM     51  C   UNL     1       3.253   8.169  -6.709  1.00  0.00     0.173 A 
ATOM     52  C   UNL     1       5.545   8.583  -7.304  1.00  0.00     0.173 A 
ATOM     53  F   UNL     1       2.301   7.914  -5.799  1.00  0.00    -0.203 F 
ATOM     54  C   UNL     1       2.899   8.225  -8.056  1.00  0.00     0.198 A 
ATOM     55  C   UNL     1       5.183   8.667  -8.645  1.00  0.00     0.198 A 
ATOM     56  F   UNL     1       6.835   8.752  -6.974  1.00  0.00    -0.203 F 
ATOM     57  F   UNL     1       1.626   8.017  -8.421  1.00  0.00    -0.200 F 
ATOM     58  C   UNL     1       3.862   8.481  -9.021  1.00  0.00     0.200 A 
ATOM     59  F   UNL     1       6.114   8.926  -9.574  1.00  0.00    -0.200 F 
ATOM     60  F   UNL     1       3.518   8.540 -10.314  1.00  0.00    -0.200 F 
ENDBRANCH  36  50
BRANCH  37  61
ATOM     61  C   UNL     1       7.159   7.576   3.299  1.00  0.00     0.064 A 
ATOM     62  C   UNL     1       6.436   8.235   4.303  1.00  0.00     0.173 A 
ATOM     63  C   UNL     1       8.298   6.853   3.687  1.00  0.00     0.173 A 
ATOM     64  F   UNL     1       5.361   8.970   3.982  1.00  0.00    -0.203 F 
ATOM     65  C   UNL     1       6.847   8.190   5.634  1.00  0.00     0.198 A 
ATOM     66  C   UNL     1       8.688   6.780   5.022  1.00  0.00     0.198 A 
ATOM     67  F   UNL     1       9.035   6.214   2.767  1.00  0.00    -0.203 F 
ATOM     68  F   UNL     1       6.173   8.879   6.566  1.00  0.00    -0.200 F 
ATOM     69  C   UNL     1       7.968   7.457   5.994  1.00  0.00     0.200 A 
ATOM     70  F   UNL     1       9.767   6.063   5.364  1.00  0.00    -0.200 F 
ATOM     71  F   UNL     1       8.365   7.417   7.273  1.00  0.00    -0.200 F 
ENDBRANCH  37  61
BRANCH  49  72
ATOM     72  C   UNL     1       6.997  12.863  -1.240  1.00  0.00     0.064 A 
ATOM     73  C   UNL     1       8.325  13.297  -1.120  1.00  0.00     0.173 A 
ATOM     74  C   UNL     1       5.989  13.839  -1.285  1.00  0.00     0.173 A 
ATOM     75  F   UNL     1       9.325  12.404  -1.057  1.00  0.00    -0.203 F 
ATOM     76  C   UNL     1       8.630  14.653  -1.024  1.00  0.00     0.198 A 
ATOM     77  C   UNL     1       6.300  15.195  -1.221  1.00  0.00     0.198 A 
ATOM     78  F   UNL     1       4.703  13.478  -1.407  1.00  0.00    -0.203 F 
ATOM     79  F   UNL     1       9.902  15.042  -0.863  1.00  0.00    -0.200 F 
ATOM     80  C   UNL     1       7.619  15.600  -1.083  1.00  0.00     0.200 A 
ATOM     81  F   UNL     1       5.323  16.109  -1.293  1.00  0.00    -0.200 F 
ATOM     82  F   UNL     1       7.915  16.905  -1.001  1.00  0.00    -0.200 F 
ENDBRANCH  49  72
ENDBRANCH  23  24
ENDBRANCH  16  18
ENDBRANCH  15  16
ENDBRANCH   1  15
TORSDOF 12
