REMARK SMILES C=CCN(CC(=O)OCCOC(=O)c1ccc(-c2c3nc(c(-c4c(F)c(F)c(F)c(F)c4F)c4ccc([nH]4)c(-c4c(F)c(F)c(F)c(F)c4F)c4nc(c(-c5c(F)c(F)c(F)c(F)c5F)c5ccc2[nH]5)C=C4)C=C3)cc1)S(=O)(=O)c1ccccc1OC
REMARK SMILES IDX 9 1 8 2 6 3 7 4 5 5 4 6 3 7 2 8 1 9 77 10 78 11 79 12 80 13
REMARK SMILES IDX 81 14 85 15 82 16 84 17 83 18 86 19 87 20 10 21 11 22 12 23
REMARK SMILES IDX 13 24 14 25 15 26 76 27 16 28 75 29 17 30 18 31 19 32 69 33
REMARK SMILES IDX 20 34 74 35 68 36 70 37 21 38 73 39 67 40 66 41 22 43 54 44
REMARK SMILES IDX 34 45 53 46 35 47 38 48 52 49 71 50 36 51 37 52 51 54 72 55
REMARK SMILES IDX 39 56 23 57 24 58 32 59 25 60 26 61 30 62 33 63 27 64 28 65
REMARK SMILES IDX 31 66 29 67 55 68 56 69 64 70 57 71 58 72 62 73 65 74 59 75
REMARK SMILES IDX 60 76 63 77 61 78 40 79 41 80 49 81 42 82 43 83 47 84 50 85
REMARK SMILES IDX 44 86 45 87 48 88 46 89
REMARK H PARENT 70 42 38 53
REMARK Flexibility Score: inf
ROOT
ATOM      1  C   UNL     1      -3.744  -0.517   1.407  1.00  0.00     0.274 C 
ENDROOT
BRANCH   1   2
ATOM      2  O   UNL     1      -2.855   0.038   0.412  1.00  0.00    -0.461 OA
BRANCH   2   3
ATOM      3  C   UNL     1      -3.379   0.915  -0.490  1.00  0.00     0.321 C 
ATOM      4  O   UNL     1      -4.561   1.242  -0.524  1.00  0.00    -0.251 OA
BRANCH   3   5
ATOM      5  C   UNL     1      -2.372   1.310  -1.568  1.00  0.00     0.225 C 
BRANCH   5   6
ATOM      6  N   UNL     1      -0.922   1.556  -1.231  1.00  0.00    -0.183 NA
BRANCH   6   7
ATOM      7  C   UNL     1      -0.285   0.221  -0.979  1.00  0.00     0.130 C 
BRANCH   7   8
ATOM      8  C   UNL     1       1.188   0.228  -1.214  1.00  0.00    -0.018 C 
ATOM      9  C   UNL     1       2.060  -0.215  -0.296  1.00  0.00     0.005 C 
ENDBRANCH   7   8
ENDBRANCH   6   7
BRANCH   6  10
ATOM     10  S   UNL     1      -0.621   2.717   0.015  1.00  0.00     0.247 S 
ATOM     11  O   UNL     1      -1.605   2.529   1.060  1.00  0.00    -0.207 OA
ATOM     12  O   UNL     1       0.786   2.611   0.353  1.00  0.00    -0.207 OA
BRANCH  10  13
ATOM     13  C   UNL     1      -0.811   4.407  -0.568  1.00  0.00     0.124 A 
ATOM     14  C   UNL     1       0.212   5.314  -0.218  1.00  0.00     0.026 A 
ATOM     15  C   UNL     1      -1.984   4.935  -1.100  1.00  0.00     0.138 A 
ATOM     16  C   UNL     1       0.049   6.698  -0.375  1.00  0.00     0.002 A 
ATOM     17  C   UNL     1      -2.126   6.322  -1.301  1.00  0.00     0.048 A 
ATOM     18  C   UNL     1      -1.127   7.204  -0.911  1.00  0.00     0.004 A 
BRANCH  15  19
ATOM     19  O   UNL     1      -3.045   4.169  -1.470  1.00  0.00    -0.495 OA
ATOM     20  C   UNL     1      -4.046   4.234  -0.465  1.00  0.00     0.278 C 
ENDBRANCH  15  19
ENDBRANCH  10  13
ENDBRANCH   6  10
ENDBRANCH   5   6
ENDBRANCH   3   5
ENDBRANCH   2   3
ENDBRANCH   1   2
BRANCH   1  21
ATOM     21  C   UNL     1      -3.586   0.177   2.763  1.00  0.00     0.275 C 
BRANCH  21  22
ATOM     22  O   UNL     1      -4.220   1.463   2.714  1.00  0.00    -0.458 OA
BRANCH  22  23
ATOM     23  C   UNL     1      -3.955   2.295   3.754  1.00  0.00     0.338 C 
ATOM     24  O   UNL     1      -3.298   2.026   4.745  1.00  0.00    -0.246 OA
BRANCH  23  25
ATOM     25  C   UNL     1      -4.557   3.633   3.487  1.00  0.00     0.060 A 
ATOM     26  C   UNL     1      -5.393   3.837   2.393  1.00  0.00     0.016 A 
ATOM     27  C   UNL     1      -4.232   4.729   4.292  1.00  0.00     0.016 A 
ATOM     28  C   UNL     1      -5.762   5.133   2.023  1.00  0.00     0.010 A 
ATOM     29  C   UNL     1      -4.692   6.021   3.964  1.00  0.00     0.010 A 
ATOM     30  C   UNL     1      -5.422   6.260   2.786  1.00  0.00    -0.014 A 
BRANCH  30  31
ATOM     31  C   UNL     1      -5.770   7.653   2.327  1.00  0.00     0.031 A 
ATOM     32  C   UNL     1      -4.747   8.772   2.383  1.00  0.00     0.074 A 
ATOM     33  C   UNL     1      -6.978   7.959   1.801  1.00  0.00     0.049 A 
ATOM     34  N   UNL     1      -4.935  10.070   2.335  1.00  0.00    -0.248 NA
ATOM     35  C   UNL     1      -3.334   8.385   2.515  1.00  0.00     0.031 C 
ATOM     36  C   UNL     1      -8.078   7.024   1.573  1.00  0.00     0.029 A 
ATOM     37  N   UNL     1      -7.479   9.160   1.343  1.00  0.00    -0.354 N 
ATOM     38  C   UNL     1      -3.687  10.649   2.537  1.00  0.00     0.074 A 
ATOM     39  C   UNL     1      -2.740   9.562   2.671  1.00  0.00     0.031 C 
ATOM     40  C   UNL     1      -9.078   7.654   0.944  1.00  0.00     0.029 A 
ATOM     41  C   UNL     1      -8.771   9.077   0.881  1.00  0.00     0.049 A 
ATOM     42  H   UNL     1      -6.961   9.997   1.346  1.00  0.00     0.167 HD
ATOM     43  C   UNL     1      -3.364  11.965   2.612  1.00  0.00     0.037 A 
ATOM     44  C   UNL     1      -9.663  10.025   0.531  1.00  0.00     0.037 A 
ATOM     45  C   UNL     1      -4.274  13.056   2.361  1.00  0.00     0.049 A 
ATOM     46  C   UNL     1      -9.310  11.474   0.672  1.00  0.00     0.074 A 
ATOM     47  C   UNL     1      -4.017  14.418   2.390  1.00  0.00     0.029 A 
ATOM     48  N   UNL     1      -5.602  12.913   1.997  1.00  0.00    -0.354 N 
ATOM     49  N   UNL     1      -8.177  12.015   1.038  1.00  0.00    -0.248 NA
ATOM     50  C   UNL     1     -10.383  12.444   0.404  1.00  0.00     0.031 C 
ATOM     51  C   UNL     1      -5.196  15.099   2.066  1.00  0.00     0.029 A 
ATOM     52  C   UNL     1      -6.177  14.160   1.803  1.00  0.00     0.049 A 
ATOM     53  H   UNL     1      -6.069  12.053   1.891  1.00  0.00     0.167 HD
ATOM     54  C   UNL     1      -8.400  13.384   1.059  1.00  0.00     0.074 A 
ATOM     55  C   UNL     1      -9.769  13.596   0.641  1.00  0.00     0.031 C 
ATOM     56  C   UNL     1      -7.543  14.373   1.408  1.00  0.00     0.037 A 
BRANCH  43  57
ATOM     57  C   UNL     1      -1.966  12.328   3.020  1.00  0.00     0.064 A 
ATOM     58  C   UNL     1      -0.884  12.244   2.135  1.00  0.00     0.173 A 
ATOM     59  C   UNL     1      -1.733  12.870   4.295  1.00  0.00     0.173 A 
ATOM     60  F   UNL     1      -1.052  11.725   0.909  1.00  0.00    -0.203 F 
ATOM     61  C   UNL     1       0.383  12.686   2.513  1.00  0.00     0.198 A 
ATOM     62  C   UNL     1      -0.472  13.332   4.661  1.00  0.00     0.198 A 
ATOM     63  F   UNL     1      -2.740  12.983   5.175  1.00  0.00    -0.203 F 
ATOM     64  F   UNL     1       1.410  12.580   1.658  1.00  0.00    -0.200 F 
ATOM     65  C   UNL     1       0.585  13.239   3.770  1.00  0.00     0.200 A 
ATOM     66  F   UNL     1      -0.285  13.881   5.869  1.00  0.00    -0.200 F 
ATOM     67  F   UNL     1       1.800  13.684   4.121  1.00  0.00    -0.200 F 
ENDBRANCH  43  57
BRANCH  44  68
ATOM     68  C   UNL     1     -11.034   9.616   0.124  1.00  0.00     0.064 A 
ATOM     69  C   UNL     1     -11.469   9.758  -1.199  1.00  0.00     0.173 A 
ATOM     70  C   UNL     1     -11.918   9.037   1.048  1.00  0.00     0.173 A 
ATOM     71  F   UNL     1     -10.673  10.341  -2.107  1.00  0.00    -0.203 F 
ATOM     72  C   UNL     1     -12.733   9.319  -1.587  1.00  0.00     0.198 A 
ATOM     73  C   UNL     1     -13.166   8.567   0.652  1.00  0.00     0.198 A 
ATOM     74  F   UNL     1     -11.549   8.888   2.329  1.00  0.00    -0.203 F 
ATOM     75  F   UNL     1     -13.139   9.485  -2.853  1.00  0.00    -0.200 F 
ATOM     76  C   UNL     1     -13.574   8.710  -0.665  1.00  0.00     0.200 A 
ATOM     77  F   UNL     1     -13.965   7.963   1.542  1.00  0.00    -0.200 F 
ATOM     78  F   UNL     1     -14.777   8.261  -1.046  1.00  0.00    -0.200 F 
ENDBRANCH  44  68
BRANCH  56  79
ATOM     79  C   UNL     1      -8.061  15.777   1.343  1.00  0.00     0.064 A 
ATOM     80  C   UNL     1      -8.929  16.279   2.324  1.00  0.00     0.173 A 
ATOM     81  C   UNL     1      -7.686  16.630   0.296  1.00  0.00     0.173 A 
ATOM     82  F   UNL     1      -9.332  15.493   3.334  1.00  0.00    -0.203 F 
ATOM     83  C   UNL     1      -9.421  17.579   2.245  1.00  0.00     0.198 A 
ATOM     84  C   UNL     1      -8.164  17.936   0.231  1.00  0.00     0.198 A 
ATOM     85  F   UNL     1      -6.857  16.196  -0.666  1.00  0.00    -0.203 F 
ATOM     86  F   UNL     1     -10.284  18.025   3.168  1.00  0.00    -0.200 F 
ATOM     87  C   UNL     1      -9.036  18.407   1.201  1.00  0.00     0.200 A 
ATOM     88  F   UNL     1      -7.789  18.736  -0.777  1.00  0.00    -0.200 F 
ATOM     89  F   UNL     1      -9.516  19.656   1.123  1.00  0.00    -0.200 F 
ENDBRANCH  56  79
ENDBRANCH  30  31
ENDBRANCH  23  25
ENDBRANCH  22  23
ENDBRANCH  21  22
ENDBRANCH   1  21
TORSDOF 17
