REMARK SMILES O=C(OCCOC(=O)c1nccnc1C(=O)Nc1ccc2c(c1)OCO2)c1ccc(-c2c3nc(c(-c4c(F)c(F)c(F)c(F)c4F)c4ccc([nH]4)c(-c4c(F)c(F)c(F)c(F)c4F)c4nc(c(-c5c(F)c(F)c(F)c(F)c5F)c5ccc2[nH]5)C=C4)C=C3)cc1
REMARK SMILES IDX 4 1 3 2 2 3 1 4 27 5 28 6 89 7 29 8 88 9 30 10 31 11 32 12
REMARK SMILES IDX 82 13 33 14 87 15 81 16 83 17 34 18 86 19 80 20 79 21 35 23
REMARK SMILES IDX 67 24 47 25 66 26 48 27 51 28 65 29 84 30 49 31 50 32 64 34
REMARK SMILES IDX 85 35 52 36 36 37 37 38 45 39 38 40 39 41 43 42 46 43 40 44
REMARK SMILES IDX 41 45 44 46 42 47 68 48 69 49 77 50 70 51 71 52 75 53 78 54
REMARK SMILES IDX 72 55 73 56 76 57 74 58 53 59 54 60 62 61 55 62 56 63 60 64
REMARK SMILES IDX 63 65 57 66 58 67 61 68 59 69 5 70 6 71 7 72 8 73 9 74 10 75
REMARK SMILES IDX 14 76 11 77 13 78 12 79 15 80 16 81 17 82 18 84 19 85 23 86
REMARK SMILES IDX 20 87 22 88 21 89 24 90 26 91 25 92
REMARK H PARENT 83 22 51 33 17 83
REMARK Flexibility Score: inf
ROOT
ATOM      1  C   UNL     1       5.051   0.432  -0.460  1.00  0.00     0.275 C 
ENDROOT
BRANCH   1   2
ATOM      2  O   UNL     1       3.826  -0.026  -1.094  1.00  0.00    -0.458 OA
BRANCH   2   3
ATOM      3  C   UNL     1       3.533  -1.302  -1.488  1.00  0.00     0.338 C 
ATOM      4  O   UNL     1       2.777  -1.562  -2.394  1.00  0.00    -0.246 OA
BRANCH   3   5
ATOM      5  C   UNL     1       4.059  -2.366  -0.611  1.00  0.00     0.060 A 
ATOM      6  C   UNL     1       5.433  -2.542  -0.482  1.00  0.00     0.016 A 
ATOM      7  C   UNL     1       3.162  -3.077   0.198  1.00  0.00     0.016 A 
ATOM      8  C   UNL     1       5.914  -3.254   0.604  1.00  0.00     0.010 A 
ATOM      9  C   UNL     1       3.647  -3.836   1.264  1.00  0.00     0.010 A 
ATOM     10  C   UNL     1       5.026  -3.880   1.495  1.00  0.00    -0.014 A 
BRANCH  10  11
ATOM     11  C   UNL     1       5.636  -4.771   2.497  1.00  0.00     0.031 A 
ATOM     12  C   UNL     1       6.170  -6.055   1.964  1.00  0.00     0.074 A 
ATOM     13  C   UNL     1       5.910  -4.368   3.749  1.00  0.00     0.049 A 
ATOM     14  N   UNL     1       7.100  -6.817   2.462  1.00  0.00    -0.248 NA
ATOM     15  C   UNL     1       5.685  -6.460   0.632  1.00  0.00     0.031 C 
ATOM     16  C   UNL     1       5.546  -3.080   4.320  1.00  0.00     0.029 A 
ATOM     17  N   UNL     1       6.589  -4.993   4.762  1.00  0.00    -0.354 N 
ATOM     18  C   UNL     1       7.419  -7.696   1.444  1.00  0.00     0.074 A 
ATOM     19  C   UNL     1       6.529  -7.434   0.335  1.00  0.00     0.031 C 
ATOM     20  C   UNL     1       5.933  -3.029   5.606  1.00  0.00     0.029 A 
ATOM     21  C   UNL     1       6.635  -4.264   5.927  1.00  0.00     0.049 A 
ATOM     22  H   UNL     1       7.004  -5.881   4.665  1.00  0.00     0.167 HD
ATOM     23  C   UNL     1       8.410  -8.609   1.431  1.00  0.00     0.037 A 
ATOM     24  C   UNL     1       7.210  -4.564   7.107  1.00  0.00     0.037 A 
ATOM     25  C   UNL     1       9.167  -8.959   2.597  1.00  0.00     0.049 A 
ATOM     26  C   UNL     1       8.085  -5.788   7.163  1.00  0.00     0.074 A 
ATOM     27  C   UNL     1      10.066  -9.992   2.768  1.00  0.00     0.029 A 
ATOM     28  N   UNL     1       9.059  -8.304   3.818  1.00  0.00    -0.354 N 
ATOM     29  N   UNL     1       8.424  -6.601   6.189  1.00  0.00    -0.248 NA
ATOM     30  C   UNL     1       8.693  -6.116   8.457  1.00  0.00     0.031 C 
ATOM     31  C   UNL     1      10.456 -10.000   4.112  1.00  0.00     0.029 A 
ATOM     32  C   UNL     1       9.842  -8.939   4.764  1.00  0.00     0.049 A 
ATOM     33  H   UNL     1       8.507  -7.507   3.985  1.00  0.00     0.167 HD
ATOM     34  C   UNL     1       9.317  -7.507   6.738  1.00  0.00     0.074 A 
ATOM     35  C   UNL     1       9.471  -7.139   8.133  1.00  0.00     0.031 C 
ATOM     36  C   UNL     1       9.962  -8.542   6.145  1.00  0.00     0.037 A 
BRANCH  23  37
ATOM     37  C   UNL     1       8.646  -9.297   0.129  1.00  0.00     0.064 A 
ATOM     38  C   UNL     1       9.307  -8.639  -0.921  1.00  0.00     0.173 A 
ATOM     39  C   UNL     1       8.123 -10.572  -0.111  1.00  0.00     0.173 A 
ATOM     40  F   UNL     1       9.781  -7.395  -0.748  1.00  0.00    -0.203 F 
ATOM     41  C   UNL     1       9.423  -9.234  -2.174  1.00  0.00     0.198 A 
ATOM     42  C   UNL     1       8.252 -11.168  -1.361  1.00  0.00     0.198 A 
ATOM     43  F   UNL     1       7.453 -11.219   0.854  1.00  0.00    -0.203 F 
ATOM     44  F   UNL     1      10.012  -8.570  -3.179  1.00  0.00    -0.200 F 
ATOM     45  C   UNL     1       8.895 -10.498  -2.392  1.00  0.00     0.200 A 
ATOM     46  F   UNL     1       7.726 -12.382  -1.578  1.00  0.00    -0.200 F 
ATOM     47  F   UNL     1       8.985 -11.061  -3.605  1.00  0.00    -0.200 F 
ENDBRANCH  23  37
BRANCH  24  48
ATOM     48  C   UNL     1       6.986  -3.712   8.306  1.00  0.00     0.064 A 
ATOM     49  C   UNL     1       8.027  -3.010   8.929  1.00  0.00     0.173 A 
ATOM     50  C   UNL     1       5.715  -3.647   8.902  1.00  0.00     0.173 A 
ATOM     51  F   UNL     1       9.265  -3.055   8.417  1.00  0.00    -0.203 F 
ATOM     52  C   UNL     1       7.815  -2.309  10.117  1.00  0.00     0.198 A 
ATOM     53  C   UNL     1       5.500  -2.928  10.076  1.00  0.00     0.198 A 
ATOM     54  F   UNL     1       4.681  -4.305   8.354  1.00  0.00    -0.203 F 
ATOM     55  F   UNL     1       8.843  -1.701  10.726  1.00  0.00    -0.200 F 
ATOM     56  C   UNL     1       6.553  -2.270  10.691  1.00  0.00     0.200 A 
ATOM     57  F   UNL     1       4.277  -2.895  10.625  1.00  0.00    -0.200 F 
ATOM     58  F   UNL     1       6.356  -1.616  11.844  1.00  0.00    -0.200 F 
ENDBRANCH  24  48
BRANCH  36  59
ATOM     59  C   UNL     1      10.899  -9.334   7.004  1.00  0.00     0.064 A 
ATOM     60  C   UNL     1      10.423 -10.205   7.994  1.00  0.00     0.173 A 
ATOM     61  C   UNL     1      12.284  -9.252   6.801  1.00  0.00     0.173 A 
ATOM     62  F   UNL     1       9.107 -10.302   8.233  1.00  0.00    -0.203 F 
ATOM     63  C   UNL     1      11.306 -10.951   8.768  1.00  0.00     0.198 A 
ATOM     64  C   UNL     1      13.161 -10.023   7.556  1.00  0.00     0.198 A 
ATOM     65  F   UNL     1      12.783  -8.437   5.860  1.00  0.00    -0.203 F 
ATOM     66  F   UNL     1      10.834 -11.742   9.741  1.00  0.00    -0.200 F 
ATOM     67  C   UNL     1      12.672 -10.866   8.543  1.00  0.00     0.200 A 
ATOM     68  F   UNL     1      14.479  -9.952   7.327  1.00  0.00    -0.200 F 
ATOM     69  F   UNL     1      13.519 -11.593   9.283  1.00  0.00    -0.200 F 
ENDBRANCH  36  59
ENDBRANCH  10  11
ENDBRANCH   3   5
ENDBRANCH   2   3
ENDBRANCH   1   2
BRANCH   1  70
ATOM     70  C   UNL     1       5.243   0.118   1.041  1.00  0.00     0.275 C 
BRANCH  70  71
ATOM     71  O   UNL     1       4.074  -0.515   1.597  1.00  0.00    -0.457 OA
BRANCH  71  72
ATOM     72  C   UNL     1       3.719  -0.176   2.860  1.00  0.00     0.359 C 
ATOM     73  O   UNL     1       4.366   0.528   3.615  1.00  0.00    -0.244 OA
BRANCH  72  74
ATOM     74  C   UNL     1       2.495  -0.920   3.236  1.00  0.00     0.179 A 
ATOM     75  N   UNL     1       2.708  -1.675   4.367  1.00  0.00    -0.245 NA
ATOM     76  C   UNL     1       1.337  -1.038   2.478  1.00  0.00     0.161 A 
ATOM     77  C   UNL     1       1.804  -2.632   4.646  1.00  0.00     0.132 A 
ATOM     78  N   UNL     1       0.419  -2.016   2.803  1.00  0.00    -0.247 NA
ATOM     79  C   UNL     1       0.689  -2.813   3.862  1.00  0.00     0.132 A 
BRANCH  76  80
ATOM     80  C   UNL     1       0.942  -0.334   1.203  1.00  0.00     0.276 C 
ATOM     81  O   UNL     1       0.667  -1.040   0.230  1.00  0.00    -0.267 OA
ATOM     82  N   UNL     1       0.496   0.983   1.203  1.00  0.00    -0.320 N 
ATOM     83  H   UNL     1      -0.453   1.109   0.973  1.00  0.00     0.170 HD
BRANCH  82  84
ATOM     84  C   UNL     1       1.210   2.161   1.484  1.00  0.00     0.045 A 
ATOM     85  C   UNL     1       2.598   2.145   1.482  1.00  0.00     0.030 A 
ATOM     86  C   UNL     1       0.575   3.393   1.618  1.00  0.00     0.076 A 
ATOM     87  C   UNL     1       3.390   3.224   1.854  1.00  0.00     0.053 A 
ATOM     88  C   UNL     1       1.371   4.497   1.898  1.00  0.00     0.167 A 
ATOM     89  C   UNL     1       2.735   4.399   2.060  1.00  0.00     0.165 A 
ATOM     90  O   UNL     1       0.950   5.785   2.028  1.00  0.00    -0.454 OA
ATOM     91  O   UNL     1       3.333   5.579   2.351  1.00  0.00    -0.454 OA
ATOM     92  C   UNL     1       2.208   6.468   2.238  1.00  0.00     0.468 C 
ENDBRANCH  82  84
ENDBRANCH  76  80
ENDBRANCH  72  74
ENDBRANCH  71  72
ENDBRANCH  70  71
ENDBRANCH   1  70
TORSDOF 13
