REMARK SMILES CC[C@@H](O)CC[C@H]([NH3+])C(=O)OCCOC(=O)c1ccc(-c2c3nc(c(-c4c(F)c(F)c(F)c(F)c4F)c4ccc([nH]4)c(-c4c(F)c(F)c(F)c(F)c4F)c4nc(c(-c5c(F)c(F)c(F)c(F)c5F)c5ccc2[nH]5)C=C4)C=C3)cc1
REMARK SMILES IDX 12 1 11 2 9 3 10 4 7 5 6 6 5 7 3 8 2 9 1 10 4 11 8 13 13 17
REMARK SMILES IDX 14 18 15 19 16 20 17 21 18 22 79 23 19 24 78 25 20 26 21 27
REMARK SMILES IDX 22 28 72 29 23 30 77 31 71 32 73 33 24 34 76 35 70 36 69 37
REMARK SMILES IDX 25 39 57 40 37 41 56 42 38 43 41 44 55 45 74 46 39 47 40 48
REMARK SMILES IDX 54 50 75 51 42 52 26 53 27 54 35 55 28 56 29 57 33 58 36 59
REMARK SMILES IDX 30 60 31 61 34 62 32 63 58 64 59 65 67 66 60 67 61 68 65 69
REMARK SMILES IDX 68 70 62 71 63 72 66 73 64 74 43 75 44 76 52 77 45 78 46 79
REMARK SMILES IDX 50 80 53 81 47 82 48 83 51 84 49 85
REMARK H PARENT 4 12 8 14 8 15 8 16 73 38 41 49
REMARK Flexibility Score: inf
ROOT
ATOM      1  C   UNL     1       2.836  -5.239   5.125  1.00  0.00     0.274 C 
ENDROOT
BRANCH   1   2
ATOM      2  O   UNL     1       2.314  -3.898   5.168  1.00  0.00    -0.458 OA
BRANCH   2   3
ATOM      3  C   UNL     1       3.032  -2.974   4.473  1.00  0.00     0.364 C 
ATOM      4  O   UNL     1       4.048  -3.221   3.829  1.00  0.00    -0.245 OA
BRANCH   3   5
ATOM      5  C   UNL     1       2.455  -1.562   4.581  1.00  0.00     0.291 C 
BRANCH   5   6
ATOM      6  C   UNL     1       3.004  -0.714   5.740  1.00  0.00     0.080 C 
BRANCH   6   7
ATOM      7  C   UNL     1       3.989  -1.345   6.734  1.00  0.00     0.038 C 
BRANCH   7   8
ATOM      8  C   UNL     1       5.354  -1.835   6.224  1.00  0.00     0.114 C 
BRANCH   8   9
ATOM      9  C   UNL     1       6.134  -0.807   5.399  1.00  0.00     0.028 C 
ATOM     10  C   UNL     1       7.339  -1.428   4.699  1.00  0.00     0.006 C 
ENDBRANCH   8   9
BRANCH   8  11
ATOM     11  O   UNL     1       6.118  -2.201   7.378  1.00  0.00    -0.393 OA
ATOM     12  H   UNL     1       6.242  -1.423   7.944  1.00  0.00     0.210 HD
ENDBRANCH   8  11
ENDBRANCH   7   8
ENDBRANCH   6   7
ENDBRANCH   5   6
BRANCH   5  13
ATOM     13  N   UNL     1       0.973  -1.576   4.574  1.00  0.00    -0.346 N 
ATOM     14  H   UNL     1       0.633  -2.047   5.413  1.00  0.00     0.345 HD
ATOM     15  H   UNL     1       0.641  -2.073   3.748  1.00  0.00     0.345 HD
ATOM     16  H   UNL     1       0.623  -0.618   4.558  1.00  0.00     0.345 HD
ENDBRANCH   5  13
ENDBRANCH   3   5
ENDBRANCH   2   3
ENDBRANCH   1   2
BRANCH   1  17
ATOM     17  C   UNL     1       2.290  -6.059   3.948  1.00  0.00     0.275 C 
BRANCH  17  18
ATOM     18  O   UNL     1       2.788  -5.614   2.672  1.00  0.00    -0.458 OA
BRANCH  18  19
ATOM     19  C   UNL     1       2.073  -4.626   2.077  1.00  0.00     0.338 C 
ATOM     20  O   UNL     1       1.046  -4.112   2.486  1.00  0.00    -0.246 OA
BRANCH  19  21
ATOM     21  C   UNL     1       2.824  -4.110   0.917  1.00  0.00     0.060 A 
ATOM     22  C   UNL     1       3.148  -2.748   0.895  1.00  0.00     0.016 A 
ATOM     23  C   UNL     1       3.173  -4.935  -0.151  1.00  0.00     0.016 A 
ATOM     24  C   UNL     1       3.841  -2.203  -0.180  1.00  0.00     0.010 A 
ATOM     25  C   UNL     1       3.850  -4.384  -1.243  1.00  0.00     0.010 A 
ATOM     26  C   UNL     1       4.182  -3.016  -1.263  1.00  0.00    -0.014 A 
BRANCH  26  27
ATOM     27  C   UNL     1       4.798  -2.420  -2.470  1.00  0.00     0.031 A 
ATOM     28  C   UNL     1       3.949  -2.215  -3.688  1.00  0.00     0.074 A 
ATOM     29  C   UNL     1       6.097  -2.077  -2.474  1.00  0.00     0.049 A 
ATOM     30  N   UNL     1       4.301  -1.874  -4.899  1.00  0.00    -0.248 NA
ATOM     31  C   UNL     1       2.504  -2.432  -3.516  1.00  0.00     0.031 C 
ATOM     32  C   UNL     1       6.997  -2.162  -1.324  1.00  0.00     0.029 A 
ATOM     33  N   UNL     1       6.890  -1.605  -3.489  1.00  0.00    -0.354 N 
ATOM     34  C   UNL     1       3.128  -1.862  -5.641  1.00  0.00     0.074 A 
ATOM     35  C   UNL     1       2.056  -2.245  -4.748  1.00  0.00     0.031 C 
ATOM     36  C   UNL     1       8.227  -1.778  -1.705  1.00  0.00     0.029 A 
ATOM     37  C   UNL     1       8.211  -1.476  -3.135  1.00  0.00     0.049 A 
ATOM     38  H   UNL     1       6.547  -1.382  -4.384  1.00  0.00     0.167 HD
ATOM     39  C   UNL     1       2.969  -1.560  -6.951  1.00  0.00     0.037 A 
ATOM     40  C   UNL     1       9.287  -1.192  -3.893  1.00  0.00     0.037 A 
ATOM     41  C   UNL     1       4.048  -1.173  -7.822  1.00  0.00     0.049 A 
ATOM     42  C   UNL     1       9.097  -0.947  -5.368  1.00  0.00     0.074 A 
ATOM     43  C   UNL     1       3.997  -0.837  -9.162  1.00  0.00     0.029 A 
ATOM     44  N   UNL     1       5.377  -1.077  -7.434  1.00  0.00    -0.354 N 
ATOM     45  N   UNL     1       7.990  -0.946  -6.072  1.00  0.00    -0.248 NA
ATOM     46  C   UNL     1      10.306  -0.671  -6.156  1.00  0.00     0.031 C 
ATOM     47  C   UNL     1       5.303  -0.595  -9.601  1.00  0.00     0.029 A 
ATOM     48  C   UNL     1       6.160  -0.714  -8.518  1.00  0.00     0.049 A 
ATOM     49  H   UNL     1       5.714  -1.242  -6.524  1.00  0.00     0.167 HD
ATOM     50  C   UNL     1       8.363  -0.636  -7.373  1.00  0.00     0.074 A 
ATOM     51  C   UNL     1       9.799  -0.449  -7.361  1.00  0.00     0.031 C 
ATOM     52  C   UNL     1       7.587  -0.515  -8.479  1.00  0.00     0.037 A 
BRANCH  39  53
ATOM     53  C   UNL     1       1.589  -1.679  -7.529  1.00  0.00     0.064 A 
ATOM     54  C   UNL     1       0.559  -0.791  -7.185  1.00  0.00     0.173 A 
ATOM     55  C   UNL     1       1.300  -2.687  -8.462  1.00  0.00     0.173 A 
ATOM     56  F   UNL     1       0.777   0.181  -6.286  1.00  0.00    -0.203 F 
ATOM     57  C   UNL     1      -0.715  -0.924  -7.731  1.00  0.00     0.198 A 
ATOM     58  C   UNL     1       0.034  -2.797  -9.031  1.00  0.00     0.198 A 
ATOM     59  F   UNL     1       2.248  -3.562  -8.829  1.00  0.00    -0.203 F 
ATOM     60  F   UNL     1      -1.697  -0.097  -7.348  1.00  0.00    -0.200 F 
ATOM     61  C   UNL     1      -0.974  -1.922  -8.659  1.00  0.00     0.200 A 
ATOM     62  F   UNL     1      -0.209  -3.754  -9.938  1.00  0.00    -0.200 F 
ATOM     63  F   UNL     1      -2.199  -2.045  -9.190  1.00  0.00    -0.200 F 
ENDBRANCH  39  53
BRANCH  40  64
ATOM     64  C   UNL     1      10.642  -1.157  -3.281  1.00  0.00     0.064 A 
ATOM     65  C   UNL     1      11.367   0.039  -3.199  1.00  0.00     0.173 A 
ATOM     66  C   UNL     1      11.249  -2.321  -2.784  1.00  0.00     0.173 A 
ATOM     67  F   UNL     1      10.843   1.174  -3.684  1.00  0.00    -0.203 F 
ATOM     68  C   UNL     1      12.652   0.068  -2.660  1.00  0.00     0.198 A 
ATOM     69  C   UNL     1      12.521  -2.285  -2.216  1.00  0.00     0.198 A 
ATOM     70  F   UNL     1      10.601  -3.494  -2.841  1.00  0.00    -0.203 F 
ATOM     71  F   UNL     1      13.342   1.216  -2.640  1.00  0.00    -0.200 F 
ATOM     72  C   UNL     1      13.225  -1.093  -2.163  1.00  0.00     0.200 A 
ATOM     73  F   UNL     1      13.065  -3.408  -1.725  1.00  0.00    -0.200 F 
ATOM     74  F   UNL     1      14.460  -1.064  -1.643  1.00  0.00    -0.200 F 
ENDBRANCH  40  64
BRANCH  52  75
ATOM     75  C   UNL     1       8.262  -0.109  -9.758  1.00  0.00     0.064 A 
ATOM     76  C   UNL     1       9.097  -0.985 -10.466  1.00  0.00     0.173 A 
ATOM     77  C   UNL     1       8.015   1.156 -10.314  1.00  0.00     0.173 A 
ATOM     78  F   UNL     1       9.376  -2.200  -9.970  1.00  0.00    -0.203 F 
ATOM     79  C   UNL     1       9.676  -0.602 -11.673  1.00  0.00     0.198 A 
ATOM     80  C   UNL     1       8.568   1.523 -11.537  1.00  0.00     0.198 A 
ATOM     81  F   UNL     1       7.217   2.030  -9.681  1.00  0.00    -0.203 F 
ATOM     82  F   UNL     1      10.505  -1.440 -12.312  1.00  0.00    -0.200 F 
ATOM     83  C   UNL     1       9.402   0.646 -12.213  1.00  0.00     0.200 A 
ATOM     84  F   UNL     1       8.288   2.723 -12.065  1.00  0.00    -0.200 F 
ATOM     85  F   UNL     1       9.947   1.006 -13.383  1.00  0.00    -0.200 F 
ENDBRANCH  52  75
ENDBRANCH  26  27
ENDBRANCH  19  21
ENDBRANCH  18  19
ENDBRANCH  17  18
ENDBRANCH   1  17
TORSDOF 17
