REMARK SMILES O=C(N[C@@H](CS)C(=O)N[C@@H](CO)C(=O)OCCOC(=O)c1ccc(-c2c3nc(c(-c4c(F)c(F)c(F)c(F)c4F)c4ccc([nH]4)c(-c4c(F)c(F)c(F)c(F)c4F)c4nc(c(-c5c(F)c(F)c(F)c(F)c5F)c5ccc2[nH]5)C=C4)C=C3)cc1)c1ccc(F)cc1
REMARK SMILES IDX 16 1 15 2 13 3 14 4 10 5 9 6 7 7 8 8 4 10 3 11 1 12 2 13
REMARK SMILES IDX 84 15 85 16 90 17 86 18 89 19 87 20 88 21 5 22 6 23 11 25
REMARK SMILES IDX 12 26 17 28 18 29 19 30 20 31 21 32 22 33 83 34 23 35 82 36
REMARK SMILES IDX 24 37 25 38 26 39 76 40 27 41 81 42 75 43 77 44 28 45 80 46
REMARK SMILES IDX 74 47 73 48 29 50 61 51 41 52 60 53 42 54 45 55 59 56 78 57
REMARK SMILES IDX 43 58 44 59 58 61 79 62 46 63 30 64 31 65 39 66 32 67 33 68
REMARK SMILES IDX 37 69 40 70 34 71 35 72 38 73 36 74 62 75 63 76 71 77 64 78
REMARK SMILES IDX 65 79 69 80 72 81 66 82 67 83 70 84 68 85 47 86 48 87 56 88
REMARK SMILES IDX 49 89 50 90 54 91 57 92 51 93 52 94 55 95 53 96
REMARK H PARENT 9 9 3 14 6 24 12 27 77 49 45 60
REMARK Flexibility Score: inf
ROOT
ATOM      1  C   UNL     1       5.469  -7.186  -0.613  1.00  0.00     0.274 C 
ENDROOT
BRANCH   1   2
ATOM      2  O   UNL     1       5.011  -5.901  -1.087  1.00  0.00    -0.460 OA
BRANCH   2   3
ATOM      3  C   UNL     1       3.824  -5.450  -0.585  1.00  0.00     0.331 C 
ATOM      4  O   UNL     1       3.181  -6.002   0.301  1.00  0.00    -0.250 OA
BRANCH   3   5
ATOM      5  C   UNL     1       3.301  -4.228  -1.364  1.00  0.00     0.218 C 
BRANCH   5   6
ATOM      6  N   UNL     1       4.346  -3.574  -2.165  1.00  0.00    -0.339 N 
ATOM      7  C   UNL     1       4.881  -2.331  -2.188  1.00  0.00     0.244 C 
ATOM      8  O   UNL     1       5.913  -2.208  -2.861  1.00  0.00    -0.273 OA
ATOM      9  H   UNL     1       4.745  -4.174  -2.836  1.00  0.00     0.164 HD
BRANCH   7  10
ATOM     10  C   UNL     1       4.394  -1.128  -1.349  1.00  0.00     0.181 C 
BRANCH  10  11
ATOM     11  N   UNL     1       2.946  -0.878  -1.312  1.00  0.00    -0.339 N 
ATOM     12  O   UNL     1       1.061   0.142  -0.638  1.00  0.00    -0.269 OA
ATOM     13  C   UNL     1       2.272   0.221  -0.826  1.00  0.00     0.251 C 
ATOM     14  H   UNL     1       2.382  -1.593  -1.686  1.00  0.00     0.164 HD
BRANCH  13  15
ATOM     15  C   UNL     1       2.992   1.465  -0.456  1.00  0.00     0.040 A 
ATOM     16  C   UNL     1       3.889   2.076  -1.341  1.00  0.00     0.017 A 
ATOM     17  C   UNL     1       2.725   2.062   0.786  1.00  0.00     0.017 A 
ATOM     18  C   UNL     1       4.570   3.233  -0.958  1.00  0.00     0.040 A 
ATOM     19  C   UNL     1       3.396   3.232   1.158  1.00  0.00     0.040 A 
ATOM     20  C   UNL     1       4.321   3.798   0.288  1.00  0.00     0.123 A 
ATOM     21  F   UNL     1       4.970   4.913   0.645  1.00  0.00    -0.207 F 
ENDBRANCH  13  15
ENDBRANCH  10  11
BRANCH  10  22
ATOM     22  C   UNL     1       5.069  -1.137   0.031  1.00  0.00     0.101 C 
BRANCH  22  23
ATOM     23  S   UNL     1       4.085  -1.938   1.321  1.00  0.00    -0.177 SA
ATOM     24  H   UNL     1       2.919  -1.258   1.489  1.00  0.00     0.102 HD
ENDBRANCH  22  23
ENDBRANCH  10  22
ENDBRANCH   7  10
ENDBRANCH   5   6
BRANCH   5  25
ATOM     25  C   UNL     1       2.172  -4.728  -2.278  1.00  0.00     0.193 C 
BRANCH  25  26
ATOM     26  O   UNL     1       2.692  -5.466  -3.387  1.00  0.00    -0.394 OA
ATOM     27  H   UNL     1       3.270  -4.893  -3.915  1.00  0.00     0.210 HD
ENDBRANCH  25  26
ENDBRANCH   5  25
ENDBRANCH   3   5
ENDBRANCH   2   3
ENDBRANCH   1   2
BRANCH   1  28
ATOM     28  C   UNL     1       6.691  -7.022   0.285  1.00  0.00     0.275 C 
BRANCH  28  29
ATOM     29  O   UNL     1       6.297  -6.336   1.485  1.00  0.00    -0.458 OA
BRANCH  29  30
ATOM     30  C   UNL     1       7.170  -5.428   1.970  1.00  0.00     0.338 C 
ATOM     31  O   UNL     1       8.298  -5.198   1.538  1.00  0.00    -0.246 OA
BRANCH  30  32
ATOM     32  C   UNL     1       6.564  -4.657   3.082  1.00  0.00     0.060 A 
ATOM     33  C   UNL     1       5.183  -4.539   3.199  1.00  0.00     0.016 A 
ATOM     34  C   UNL     1       7.381  -3.907   3.933  1.00  0.00     0.016 A 
ATOM     35  C   UNL     1       4.645  -3.551   4.033  1.00  0.00     0.010 A 
ATOM     36  C   UNL     1       6.821  -2.989   4.838  1.00  0.00     0.010 A 
ATOM     37  C   UNL     1       5.443  -2.717   4.838  1.00  0.00    -0.014 A 
BRANCH  37  38
ATOM     38  C   UNL     1       4.868  -1.512   5.549  1.00  0.00     0.031 A 
ATOM     39  C   UNL     1       5.579  -0.166   5.515  1.00  0.00     0.074 A 
ATOM     40  C   UNL     1       3.668  -1.541   6.173  1.00  0.00     0.049 A 
ATOM     41  N   UNL     1       5.397   0.893   6.273  1.00  0.00    -0.248 NA
ATOM     42  C   UNL     1       6.645   0.011   4.517  1.00  0.00     0.031 C 
ATOM     43  C   UNL     1       2.782  -2.698   6.272  1.00  0.00     0.029 A 
ATOM     44  N   UNL     1       2.966  -0.543   6.818  1.00  0.00    -0.354 N 
ATOM     45  C   UNL     1       6.398   1.797   5.929  1.00  0.00     0.074 A 
ATOM     46  C   UNL     1       7.165   1.181   4.867  1.00  0.00     0.031 C 
ATOM     47  C   UNL     1       1.621  -2.324   6.825  1.00  0.00     0.029 A 
ATOM     48  C   UNL     1       1.736  -0.945   7.282  1.00  0.00     0.049 A 
ATOM     49  H   UNL     1       3.314   0.370   6.936  1.00  0.00     0.167 HD
ATOM     50  C   UNL     1       6.662   3.020   6.456  1.00  0.00     0.037 A 
ATOM     51  C   UNL     1       0.821  -0.323   8.052  1.00  0.00     0.037 A 
ATOM     52  C   UNL     1       5.822   3.708   7.407  1.00  0.00     0.049 A 
ATOM     53  C   UNL     1       1.111   1.042   8.604  1.00  0.00     0.074 A 
ATOM     54  C   UNL     1       6.004   4.959   7.978  1.00  0.00     0.029 A 
ATOM     55  N   UNL     1       4.614   3.230   7.888  1.00  0.00    -0.354 N 
ATOM     56  N   UNL     1       2.154   1.808   8.412  1.00  0.00    -0.248 NA
ATOM     57  C   UNL     1       0.110   1.606   9.522  1.00  0.00     0.031 C 
ATOM     58  C   UNL     1       4.918   5.228   8.819  1.00  0.00     0.029 A 
ATOM     59  C   UNL     1       4.038   4.163   8.739  1.00  0.00     0.049 A 
ATOM     60  H   UNL     1       4.221   2.357   7.659  1.00  0.00     0.167 HD
ATOM     61  C   UNL     1       1.945   2.936   9.194  1.00  0.00     0.074 A 
ATOM     62  C   UNL     1       0.655   2.774   9.830  1.00  0.00     0.031 C 
ATOM     63  C   UNL     1       2.762   4.000   9.381  1.00  0.00     0.037 A 
BRANCH  50  64
ATOM     64  C   UNL     1       7.942   3.705   6.059  1.00  0.00     0.064 A 
ATOM     65  C   UNL     1       8.126   4.297   4.803  1.00  0.00     0.173 A 
ATOM     66  C   UNL     1       8.975   3.841   7.003  1.00  0.00     0.173 A 
ATOM     67  F   UNL     1       7.176   4.189   3.861  1.00  0.00    -0.203 F 
ATOM     68  C   UNL     1       9.300   4.985   4.500  1.00  0.00     0.198 A 
ATOM     69  C   UNL     1      10.133   4.556   6.709  1.00  0.00     0.198 A 
ATOM     70  F   UNL     1       8.847   3.306   8.227  1.00  0.00    -0.203 F 
ATOM     71  F   UNL     1       9.469   5.515   3.280  1.00  0.00    -0.200 F 
ATOM     72  C   UNL     1      10.297   5.124   5.456  1.00  0.00     0.200 A 
ATOM     73  F   UNL     1      11.084   4.705   7.641  1.00  0.00    -0.200 F 
ATOM     74  F   UNL     1      11.415   5.804   5.168  1.00  0.00    -0.200 F 
ENDBRANCH  50  64
BRANCH  51  75
ATOM     75  C   UNL     1      -0.430  -1.038   8.425  1.00  0.00     0.064 A 
ATOM     76  C   UNL     1      -1.677  -0.609   7.953  1.00  0.00     0.173 A 
ATOM     77  C   UNL     1      -0.397  -2.174   9.247  1.00  0.00     0.173 A 
ATOM     78  F   UNL     1      -1.765   0.496   7.199  1.00  0.00    -0.203 F 
ATOM     79  C   UNL     1      -2.844  -1.296   8.284  1.00  0.00     0.198 A 
ATOM     80  C   UNL     1      -1.557  -2.884   9.542  1.00  0.00     0.198 A 
ATOM     81  F   UNL     1       0.771  -2.617   9.735  1.00  0.00    -0.203 F 
ATOM     82  F   UNL     1      -4.030  -0.845   7.853  1.00  0.00    -0.200 F 
ATOM     83  C   UNL     1      -2.780  -2.442   9.065  1.00  0.00     0.200 A 
ATOM     84  F   UNL     1      -1.486  -4.000  10.280  1.00  0.00    -0.200 F 
ATOM     85  F   UNL     1      -3.899  -3.116   9.361  1.00  0.00    -0.200 F 
ENDBRANCH  51  75
BRANCH  63  86
ATOM     86  C   UNL     1       2.267   5.082  10.296  1.00  0.00     0.064 A 
ATOM     87  C   UNL     1       2.202   4.894  11.685  1.00  0.00     0.173 A 
ATOM     88  C   UNL     1       1.828   6.309   9.777  1.00  0.00     0.173 A 
ATOM     89  F   UNL     1       2.593   3.732  12.228  1.00  0.00    -0.203 F 
ATOM     90  C   UNL     1       1.676   5.880  12.517  1.00  0.00     0.198 A 
ATOM     91  C   UNL     1       1.327   7.302  10.615  1.00  0.00     0.198 A 
ATOM     92  F   UNL     1       1.873   6.540   8.457  1.00  0.00    -0.203 F 
ATOM     93  F   UNL     1       1.563   5.654  13.833  1.00  0.00    -0.200 F 
ATOM     94  C   UNL     1       1.240   7.083  11.981  1.00  0.00     0.200 A 
ATOM     95  F   UNL     1       0.911   8.466  10.097  1.00  0.00    -0.200 F 
ATOM     96  F   UNL     1       0.720   8.024  12.781  1.00  0.00    -0.200 F 
ENDBRANCH  63  86
ENDBRANCH  37  38
ENDBRANCH  30  32
ENDBRANCH  29  30
ENDBRANCH  28  29
ENDBRANCH   1  28
TORSDOF 19
