REMARK SMILES O=C(N[C@@H](Cc1c[nH]c2ccccc12)C(=O)N[C@@H](CS)C(=O)N[C@@H](CO)C(=O)OCCOC(=O)c1ccc(-c2c3nc(c(-c4c(F)c(F)c(F)c(F)c4F)c4ccc([nH]4)c(-c4c(F)c(F)c(F)c(F)c4F)c4nc(c(-c5c(F)c(F)c(F)c(F)c5F)c5ccc2[nH]5)C=C4)C=C3)cc1)c1ccc(F)cc1
REMARK SMILES IDX 27 1 28 2 24 3 23 4 21 5 22 6 18 8 17 9 15 10 16 11 4 13
REMARK SMILES IDX 3 14 1 15 2 16 98 18 99 19 104 20 100 21 103 22 101 23
REMARK SMILES IDX 102 24 5 25 6 26 7 27 14 28 8 29 9 30 13 31 10 33 12 34
REMARK SMILES IDX 11 35 19 36 20 37 25 39 26 40 29 42 30 43 31 44 32 45 33 46
REMARK SMILES IDX 34 47 35 48 36 49 97 50 37 51 96 52 38 53 39 54 40 55 90 56
REMARK SMILES IDX 41 57 95 58 89 59 91 60 42 61 94 62 88 63 87 64 43 66 75 67
REMARK SMILES IDX 55 68 74 69 56 70 59 71 73 72 92 73 57 74 58 75 72 77 93 78
REMARK SMILES IDX 60 79 44 80 45 81 53 82 46 83 47 84 51 85 54 86 48 87 49 88
REMARK SMILES IDX 52 89 50 90 76 91 77 92 85 93 78 94 79 95 83 96 86 97 80 98
REMARK SMILES IDX 81 99 84 100 82 101 61 102 62 103 70 104 63 105 64 106
REMARK SMILES IDX 68 107 71 108 65 109 66 110 69 111 67 112
REMARK H PARENT 23 7 17 12 3 17 8 32 20 38 26 41 91 65 59 76
REMARK Flexibility Score: inf
ROOT
ATOM      1  C   UNL     1       4.720  -8.535  -0.887  1.00  0.00     0.331 C 
ATOM      2  O   UNL     1       4.425  -8.958  -1.999  1.00  0.00    -0.250 OA
ENDROOT
BRANCH   1   3
ATOM      3  C   UNL     1       5.571  -7.275  -0.671  1.00  0.00     0.218 C 
BRANCH   3   4
ATOM      4  N   UNL     1       5.601  -6.822   0.730  1.00  0.00    -0.339 N 
ATOM      5  C   UNL     1       6.002  -5.570   1.090  1.00  0.00     0.244 C 
ATOM      6  O   UNL     1       7.120  -5.451   1.595  1.00  0.00    -0.273 OA
ATOM      7  H   UNL     1       5.320  -7.449   1.435  1.00  0.00     0.164 HD
BRANCH   5   8
ATOM      8  C   UNL     1       5.072  -4.352   0.863  1.00  0.00     0.181 C 
BRANCH   8   9
ATOM      9  N   UNL     1       5.620  -3.346  -0.040  1.00  0.00    -0.342 N 
ATOM     10  C   UNL     1       5.593  -1.989  -0.017  1.00  0.00     0.243 C 
ATOM     11  O   UNL     1       6.148  -1.451  -0.987  1.00  0.00    -0.273 OA
ATOM     12  H   UNL     1       6.101  -3.723  -0.812  1.00  0.00     0.164 HD
BRANCH  10  13
ATOM     13  C   UNL     1       4.827  -1.096   1.008  1.00  0.00     0.176 C 
BRANCH  13  14
ATOM     14  N   UNL     1       3.380  -1.089   0.760  1.00  0.00    -0.340 N 
ATOM     15  O   UNL     1       1.363  -0.247   0.247  1.00  0.00    -0.269 OA
ATOM     16  C   UNL     1       2.582  -0.103   0.229  1.00  0.00     0.251 C 
ATOM     17  H   UNL     1       2.910  -1.916   1.013  1.00  0.00     0.164 HD
BRANCH  16  18
ATOM     18  C   UNL     1       3.167   1.161  -0.276  1.00  0.00     0.040 A 
ATOM     19  C   UNL     1       4.124   1.173  -1.299  1.00  0.00     0.017 A 
ATOM     20  C   UNL     1       2.733   2.367   0.291  1.00  0.00     0.017 A 
ATOM     21  C   UNL     1       4.707   2.381  -1.691  1.00  0.00     0.040 A 
ATOM     22  C   UNL     1       3.312   3.574  -0.112  1.00  0.00     0.040 A 
ATOM     23  C   UNL     1       4.304   3.567  -1.086  1.00  0.00     0.123 A 
ATOM     24  F   UNL     1       4.880   4.721  -1.449  1.00  0.00    -0.207 F 
ENDBRANCH  16  18
ENDBRANCH  13  14
BRANCH  13  25
ATOM     25  C   UNL     1       5.234  -1.061   2.498  1.00  0.00     0.072 C 
BRANCH  25  26
ATOM     26  C   UNL     1       4.849  -2.196   3.399  1.00  0.00    -0.020 A 
ATOM     27  C   UNL     1       5.737  -3.117   3.933  1.00  0.00     0.087 A 
ATOM     28  C   UNL     1       3.554  -2.547   3.910  1.00  0.00     0.003 A 
ATOM     29  N   UNL     1       5.022  -4.094   4.569  1.00  0.00    -0.361 N 
ATOM     30  C   UNL     1       3.685  -3.779   4.558  1.00  0.00     0.046 A 
ATOM     31  C   UNL     1       2.273  -1.958   3.861  1.00  0.00     0.010 A 
ATOM     32  H   UNL     1       5.409  -4.904   4.974  1.00  0.00     0.166 HD
ATOM     33  C   UNL     1       2.597  -4.484   5.085  1.00  0.00     0.026 A 
ATOM     34  C   UNL     1       1.181  -2.628   4.431  1.00  0.00     0.001 A 
ATOM     35  C   UNL     1       1.340  -3.882   5.015  1.00  0.00     0.002 A 
ENDBRANCH  25  26
ENDBRANCH  13  25
ENDBRANCH  10  13
ENDBRANCH   8   9
BRANCH   8  36
ATOM     36  C   UNL     1       3.585  -4.657   0.707  1.00  0.00     0.101 C 
BRANCH  36  37
ATOM     37  S   UNL     1       3.089  -4.716  -1.030  1.00  0.00    -0.177 SA
ATOM     38  H   UNL     1       3.318  -3.507  -1.608  1.00  0.00     0.102 HD
ENDBRANCH  36  37
ENDBRANCH   8  36
ENDBRANCH   5   8
ENDBRANCH   3   4
BRANCH   3  39
ATOM     39  C   UNL     1       7.003  -7.578  -1.149  1.00  0.00     0.193 C 
BRANCH  39  40
ATOM     40  O   UNL     1       7.727  -8.293  -0.142  1.00  0.00    -0.394 OA
ATOM     41  H   UNL     1       7.778  -7.756   0.664  1.00  0.00     0.210 HD
ENDBRANCH  39  40
ENDBRANCH   3  39
ENDBRANCH   1   3
BRANCH   1  42
ATOM     42  O   UNL     1       4.402  -9.142   0.293  1.00  0.00    -0.460 OA
BRANCH  42  43
ATOM     43  C   UNL     1       3.674 -10.387   0.216  1.00  0.00     0.274 C 
BRANCH  43  44
ATOM     44  C   UNL     1       2.301 -10.216   0.864  1.00  0.00     0.275 C 
BRANCH  44  45
ATOM     45  O   UNL     1       1.539  -9.309   0.053  1.00  0.00    -0.458 OA
BRANCH  45  46
ATOM     46  C   UNL     1       0.587  -8.578   0.683  1.00  0.00     0.338 C 
ATOM     47  O   UNL     1       0.227  -8.703   1.839  1.00  0.00    -0.246 OA
BRANCH  46  48
ATOM     48  C   UNL     1       0.083  -7.526  -0.242  1.00  0.00     0.060 A 
ATOM     49  C   UNL     1       0.783  -7.213  -1.402  1.00  0.00     0.016 A 
ATOM     50  C   UNL     1      -1.041  -6.764   0.093  1.00  0.00     0.016 A 
ATOM     51  C   UNL     1       0.418  -6.095  -2.153  1.00  0.00     0.010 A 
ATOM     52  C   UNL     1      -1.455  -5.697  -0.731  1.00  0.00     0.010 A 
ATOM     53  C   UNL     1      -0.711  -5.315  -1.860  1.00  0.00    -0.014 A 
BRANCH  53  54
ATOM     54  C   UNL     1      -1.069  -4.116  -2.701  1.00  0.00     0.031 A 
ATOM     55  C   UNL     1      -1.504  -2.809  -2.071  1.00  0.00     0.074 A 
ATOM     56  C   UNL     1      -0.974  -4.138  -4.050  1.00  0.00     0.049 A 
ATOM     57  N   UNL     1      -2.166  -1.809  -2.607  1.00  0.00    -0.248 NA
ATOM     58  C   UNL     1      -1.158  -2.600  -0.658  1.00  0.00     0.031 C 
ATOM     59  C   UNL     1      -0.487  -5.255  -4.859  1.00  0.00     0.029 A 
ATOM     60  N   UNL     1      -1.266  -3.170  -4.989  1.00  0.00    -0.354 N 
ATOM     61  C   UNL     1      -2.395  -0.902  -1.576  1.00  0.00     0.074 A 
ATOM     62  C   UNL     1      -1.772  -1.453  -0.391  1.00  0.00     0.031 C 
ATOM     63  C   UNL     1      -0.406  -4.879  -6.140  1.00  0.00     0.029 A 
ATOM     64  C   UNL     1      -1.038  -3.576  -6.282  1.00  0.00     0.049 A 
ATOM     65  H   UNL     1      -1.606  -2.276  -4.755  1.00  0.00     0.167 HD
ATOM     66  C   UNL     1      -3.077   0.271  -1.618  1.00  0.00     0.037 A 
ATOM     67  C   UNL     1      -1.389  -3.042  -7.468  1.00  0.00     0.037 A 
ATOM     68  C   UNL     1      -3.589   0.879  -2.823  1.00  0.00     0.049 A 
ATOM     69  C   UNL     1      -2.232  -1.808  -7.498  1.00  0.00     0.074 A 
ATOM     70  C   UNL     1      -4.261   2.082  -2.969  1.00  0.00     0.029 A 
ATOM     71  N   UNL     1      -3.454   0.346  -4.095  1.00  0.00    -0.354 N 
ATOM     72  N   UNL     1      -2.620  -1.051  -6.504  1.00  0.00    -0.248 NA
ATOM     73  C   UNL     1      -2.743  -1.393  -8.811  1.00  0.00     0.031 C 
ATOM     74  C   UNL     1      -4.569   2.256  -4.324  1.00  0.00     0.029 A 
ATOM     75  C   UNL     1      -4.053   1.181  -5.027  1.00  0.00     0.049 A 
ATOM     76  H   UNL     1      -2.999  -0.501  -4.306  1.00  0.00     0.167 HD
ATOM     77  C   UNL     1      -3.434  -0.080  -7.063  1.00  0.00     0.074 A 
ATOM     78  C   UNL     1      -3.463  -0.326  -8.491  1.00  0.00     0.031 C 
ATOM     79  C   UNL     1      -4.106   0.919  -6.441  1.00  0.00     0.037 A 
BRANCH  66  80
ATOM     80  C   UNL     1      -3.387   0.956  -0.316  1.00  0.00     0.064 A 
ATOM     81  C   UNL     1      -2.429   1.665   0.420  1.00  0.00     0.173 A 
ATOM     82  C   UNL     1      -4.709   0.956   0.163  1.00  0.00     0.173 A 
ATOM     83  F   UNL     1      -1.156   1.717   0.003  1.00  0.00    -0.203 F 
ATOM     84  C   UNL     1      -2.775   2.321   1.601  1.00  0.00     0.198 A 
ATOM     85  C   UNL     1      -5.058   1.639   1.325  1.00  0.00     0.198 A 
ATOM     86  F   UNL     1      -5.673   0.312  -0.513  1.00  0.00    -0.203 F 
ATOM     87  F   UNL     1      -1.835   2.964   2.310  1.00  0.00    -0.200 F 
ATOM     88  C   UNL     1      -4.088   2.314   2.048  1.00  0.00     0.200 A 
ATOM     89  F   UNL     1      -6.333   1.649   1.739  1.00  0.00    -0.200 F 
ATOM     90  F   UNL     1      -4.421   2.959   3.175  1.00  0.00    -0.200 F 
ENDBRANCH  66  80
BRANCH  67  91
ATOM     91  C   UNL     1      -1.052  -3.779  -8.714  1.00  0.00     0.064 A 
ATOM     92  C   UNL     1      -0.082  -3.294  -9.598  1.00  0.00     0.173 A 
ATOM     93  C   UNL     1      -1.635  -5.025  -8.998  1.00  0.00     0.173 A 
ATOM     94  F   UNL     1       0.474  -2.092  -9.391  1.00  0.00    -0.203 F 
ATOM     95  C   UNL     1       0.319  -4.046 -10.701  1.00  0.00     0.198 A 
ATOM     96  C   UNL     1      -1.206  -5.792 -10.076  1.00  0.00     0.198 A 
ATOM     97  F   UNL     1      -2.576  -5.527  -8.184  1.00  0.00    -0.203 F 
ATOM     98  F   UNL     1       1.245  -3.561 -11.539  1.00  0.00    -0.200 F 
ATOM     99  C   UNL     1      -0.227  -5.302 -10.927  1.00  0.00     0.200 A 
ATOM    100  F   UNL     1      -1.719  -7.014 -10.273  1.00  0.00    -0.200 F 
ATOM    101  F   UNL     1       0.193  -6.043 -11.961  1.00  0.00    -0.200 F 
ENDBRANCH  67  91
BRANCH  79 102
ATOM    102  C   UNL     1      -4.926   1.823  -7.308  1.00  0.00     0.064 A 
ATOM    103  C   UNL     1      -6.153   1.403  -7.843  1.00  0.00     0.173 A 
ATOM    104  C   UNL     1      -4.481   3.117  -7.616  1.00  0.00     0.173 A 
ATOM    105  F   UNL     1      -6.607   0.165  -7.596  1.00  0.00    -0.203 F 
ATOM    106  C   UNL     1      -6.894   2.238  -8.674  1.00  0.00     0.198 A 
ATOM    107  C   UNL     1      -5.235   3.958  -8.430  1.00  0.00     0.198 A 
ATOM    108  F   UNL     1      -3.313   3.564  -7.130  1.00  0.00    -0.203 F 
ATOM    109  F   UNL     1      -8.039   1.799  -9.214  1.00  0.00    -0.200 F 
ATOM    110  C   UNL     1      -6.436   3.515  -8.964  1.00  0.00     0.200 A 
ATOM    111  F   UNL     1      -4.794   5.192  -8.707  1.00  0.00    -0.200 F 
ATOM    112  F   UNL     1      -7.147   4.315  -9.771  1.00  0.00    -0.200 F 
ENDBRANCH  79 102
ENDBRANCH  53  54
ENDBRANCH  46  48
ENDBRANCH  45  46
ENDBRANCH  44  45
ENDBRANCH  43  44
ENDBRANCH  42  43
ENDBRANCH   1  42
TORSDOF 23
