REMARK SMILES O=C(OCCOC(=O)c1ccc(Cl)nc1NC[C@@H]1C[N@@H+]2CCC[C@@H]2CO1)c1ccc(-c2c3nc(c(-c4c(F)c(F)c(F)c(F)c4F)c4ccc([nH]4)c(-c4c(F)c(F)c(F)c(F)c4F)c4nc(c(-c5c(F)c(F)c(F)c(F)c5F)c5ccc2[nH]5)C=C4)C=C3)cc1
REMARK SMILES IDX 5 1 4 2 3 3 2 4 1 5 27 6 28 7 89 8 29 9 88 10 30 11 31 12
REMARK SMILES IDX 32 13 82 14 33 15 87 16 81 17 83 18 34 19 86 20 80 21 79 22
REMARK SMILES IDX 35 24 67 25 47 26 66 27 48 28 51 29 65 30 84 31 49 32 50 33
REMARK SMILES IDX 64 35 85 36 52 37 36 38 37 39 45 40 38 41 39 42 43 43 46 44
REMARK SMILES IDX 40 45 41 46 44 47 42 48 68 49 69 50 77 51 70 52 71 53 75 54
REMARK SMILES IDX 78 55 72 56 73 57 76 58 74 59 53 60 54 61 62 62 55 63 56 64
REMARK SMILES IDX 60 65 63 66 57 67 58 68 61 69 59 70 6 71 7 72 8 73 9 74
REMARK SMILES IDX 10 75 15 76 11 77 14 78 12 79 13 80 16 81 17 83 18 84 19 85
REMARK SMILES IDX 26 86 20 87 25 88 21 89 24 90 22 92 23 93
REMARK H PARENT 83 23 51 34 16 82 20 91
REMARK Flexibility Score: inf
ROOT
ATOM      1  C   UNL     1      -4.934   7.535   2.047  1.00  0.00     0.275 C 
ENDROOT
BRANCH   1   2
ATOM      2  C   UNL     1      -3.757   7.731   3.010  1.00  0.00     0.275 C 
BRANCH   2   3
ATOM      3  O   UNL     1      -2.708   6.758   2.878  1.00  0.00    -0.458 OA
BRANCH   3   4
ATOM      4  C   UNL     1      -2.512   5.610   3.567  1.00  0.00     0.338 C 
ATOM      5  O   UNL     1      -1.400   5.084   3.538  1.00  0.00    -0.246 OA
BRANCH   4   6
ATOM      6  C   UNL     1      -3.628   4.849   4.211  1.00  0.00     0.060 A 
ATOM      7  C   UNL     1      -4.773   5.388   4.800  1.00  0.00     0.016 A 
ATOM      8  C   UNL     1      -3.495   3.451   4.206  1.00  0.00     0.016 A 
ATOM      9  C   UNL     1      -5.786   4.565   5.298  1.00  0.00     0.010 A 
ATOM     10  C   UNL     1      -4.518   2.618   4.656  1.00  0.00     0.010 A 
ATOM     11  C   UNL     1      -5.662   3.178   5.232  1.00  0.00    -0.014 A 
BRANCH  11  12
ATOM     12  C   UNL     1      -6.593   2.318   5.990  1.00  0.00     0.031 A 
ATOM     13  C   UNL     1      -6.096   1.740   7.280  1.00  0.00     0.074 A 
ATOM     14  C   UNL     1      -7.846   2.089   5.563  1.00  0.00     0.049 A 
ATOM     15  N   UNL     1      -6.702   0.948   8.123  1.00  0.00    -0.248 NA
ATOM     16  C   UNL     1      -4.733   2.126   7.686  1.00  0.00     0.031 C 
ATOM     17  C   UNL     1      -8.454   2.682   4.377  1.00  0.00     0.029 A 
ATOM     18  N   UNL     1      -8.828   1.279   6.070  1.00  0.00    -0.354 N 
ATOM     19  C   UNL     1      -5.803   0.762   9.162  1.00  0.00     0.074 A 
ATOM     20  C   UNL     1      -4.583   1.448   8.810  1.00  0.00     0.031 C 
ATOM     21  C   UNL     1      -9.679   2.159   4.199  1.00  0.00     0.029 A 
ATOM     22  C   UNL     1      -9.942   1.204   5.271  1.00  0.00     0.049 A 
ATOM     23  H   UNL     1      -8.743   0.798   6.925  1.00  0.00     0.167 HD
ATOM     24  C   UNL     1      -5.998   0.113  10.331  1.00  0.00     0.037 A 
ATOM     25  C   UNL     1     -11.043   0.439   5.396  1.00  0.00     0.037 A 
ATOM     26  C   UNL     1      -7.212  -0.579  10.654  1.00  0.00     0.049 A 
ATOM     27  C   UNL     1     -11.188  -0.400   6.638  1.00  0.00     0.074 A 
ATOM     28  C   UNL     1      -7.532  -1.278  11.801  1.00  0.00     0.029 A 
ATOM     29  N   UNL     1      -8.307  -0.671   9.803  1.00  0.00    -0.354 N 
ATOM     30  N   UNL     1     -10.357  -0.531   7.645  1.00  0.00    -0.248 NA
ATOM     31  C   UNL     1     -12.435  -1.159   6.786  1.00  0.00     0.031 C 
ATOM     32  C   UNL     1      -8.801  -1.840  11.621  1.00  0.00     0.029 A 
ATOM     33  C   UNL     1      -9.297  -1.439  10.389  1.00  0.00     0.049 A 
ATOM     34  H   UNL     1      -8.369  -0.251   8.915  1.00  0.00     0.167 HD
ATOM     35  C   UNL     1     -11.001  -1.336   8.572  1.00  0.00     0.074 A 
ATOM     36  C   UNL     1     -12.289  -1.676   7.998  1.00  0.00     0.031 C 
ATOM     37  C   UNL     1     -10.578  -1.740   9.796  1.00  0.00     0.037 A 
BRANCH  24  38
ATOM     38  C   UNL     1      -4.855   0.120  11.301  1.00  0.00     0.064 A 
ATOM     39  C   UNL     1      -4.435   1.302  11.936  1.00  0.00     0.173 A 
ATOM     40  C   UNL     1      -4.123  -1.050  11.546  1.00  0.00     0.173 A 
ATOM     41  F   UNL     1      -5.085   2.455  11.713  1.00  0.00    -0.203 F 
ATOM     42  C   UNL     1      -3.296   1.321  12.736  1.00  0.00     0.198 A 
ATOM     43  C   UNL     1      -3.004  -1.034  12.374  1.00  0.00     0.198 A 
ATOM     44  F   UNL     1      -4.478  -2.204  10.962  1.00  0.00    -0.203 F 
ATOM     45  F   UNL     1      -2.868   2.478  13.261  1.00  0.00    -0.200 F 
ATOM     46  C   UNL     1      -2.583   0.153  12.956  1.00  0.00     0.200 A 
ATOM     47  F   UNL     1      -2.318  -2.164  12.591  1.00  0.00    -0.200 F 
ATOM     48  F   UNL     1      -1.477   0.175  13.713  1.00  0.00    -0.200 F 
ENDBRANCH  24  38
BRANCH  25  49
ATOM     49  C   UNL     1     -12.089   0.460   4.341  1.00  0.00     0.064 A 
ATOM     50  C   UNL     1     -13.342   1.046   4.565  1.00  0.00     0.173 A 
ATOM     51  C   UNL     1     -11.853  -0.105   3.078  1.00  0.00     0.173 A 
ATOM     52  F   UNL     1     -13.620   1.593   5.757  1.00  0.00    -0.203 F 
ATOM     53  C   UNL     1     -14.324   1.050   3.575  1.00  0.00     0.198 A 
ATOM     54  C   UNL     1     -12.828  -0.083   2.082  1.00  0.00     0.198 A 
ATOM     55  F   UNL     1     -10.666  -0.668   2.805  1.00  0.00    -0.203 F 
ATOM     56  F   UNL     1     -15.524   1.591   3.827  1.00  0.00    -0.200 F 
ATOM     57  C   UNL     1     -14.066   0.488   2.334  1.00  0.00     0.200 A 
ATOM     58  F   UNL     1     -12.568  -0.611   0.878  1.00  0.00    -0.200 F 
ATOM     59  F   UNL     1     -15.008   0.498   1.381  1.00  0.00    -0.200 F 
ENDBRANCH  25  49
BRANCH  37  60
ATOM     60  C   UNL     1     -11.538  -2.536  10.628  1.00  0.00     0.064 A 
ATOM     61  C   UNL     1     -11.844  -3.870  10.332  1.00  0.00     0.173 A 
ATOM     62  C   UNL     1     -12.097  -1.968  11.784  1.00  0.00     0.173 A 
ATOM     63  F   UNL     1     -11.346  -4.450   9.230  1.00  0.00    -0.203 F 
ATOM     64  C   UNL     1     -12.691  -4.605  11.157  1.00  0.00     0.198 A 
ATOM     65  C   UNL     1     -12.915  -2.716  12.623  1.00  0.00     0.198 A 
ATOM     66  F   UNL     1     -11.828  -0.696  12.111  1.00  0.00    -0.203 F 
ATOM     67  F   UNL     1     -13.004  -5.868  10.836  1.00  0.00    -0.200 F 
ATOM     68  C   UNL     1     -13.215  -4.032  12.306  1.00  0.00     0.200 A 
ATOM     69  F   UNL     1     -13.406  -2.166  13.742  1.00  0.00    -0.200 F 
ATOM     70  F   UNL     1     -14.014  -4.748  13.109  1.00  0.00    -0.200 F 
ENDBRANCH  37  60
ENDBRANCH  11  12
ENDBRANCH   4   6
ENDBRANCH   3   4
ENDBRANCH   2   3
ENDBRANCH   1   2
BRANCH   1  71
ATOM     71  O   UNL     1      -5.452   6.195   1.996  1.00  0.00    -0.458 OA
BRANCH  71  72
ATOM     72  C   UNL     1      -4.878   5.396   1.058  1.00  0.00     0.342 C 
ATOM     73  O   UNL     1      -3.970   5.706   0.302  1.00  0.00    -0.246 OA
BRANCH  72  74
ATOM     74  C   UNL     1      -5.446   4.038   1.117  1.00  0.00     0.102 A 
ATOM     75  C   UNL     1      -6.832   3.852   1.137  1.00  0.00     0.023 A 
ATOM     76  C   UNL     1      -4.592   2.923   1.114  1.00  0.00     0.142 A 
ATOM     77  C   UNL     1      -7.337   2.558   1.179  1.00  0.00     0.042 A 
ATOM     78  N   UNL     1      -5.094   1.669   1.180  1.00  0.00    -0.218 NA
ATOM     79  C   UNL     1      -6.432   1.516   1.221  1.00  0.00     0.131 A 
ATOM     80  Cl  UNL     1      -6.962  -0.107   1.366  1.00  0.00    -0.062 Cl
BRANCH  76  81
ATOM     81  N   UNL     1      -3.219   3.074   1.159  1.00  0.00    -0.366 N 
ATOM     82  H   UNL     1      -2.841   3.982   1.185  1.00  0.00     0.162 HD
BRANCH  81  83
ATOM     83  C   UNL     1      -2.316   1.939   1.169  1.00  0.00     0.152 C 
BRANCH  83  84
ATOM     84  C   UNL     1      -1.473   1.778  -0.117  1.00  0.00     0.192 C 
ATOM     85  C   UNL     1      -1.927   2.551  -1.388  1.00  0.00     0.296 C 
ATOM     86  O   UNL     1      -1.242   0.378  -0.382  1.00  0.00    -0.364 OA
ATOM     87  N   UNL     1      -2.645   1.836  -2.435  1.00  0.00    -0.328 N 
ATOM     88  C   UNL     1      -2.398  -0.227  -0.968  1.00  0.00     0.225 C 
ATOM     89  C   UNL     1      -3.954   2.347  -2.800  1.00  0.00     0.262 C 
ATOM     90  C   UNL     1      -2.679   0.374  -2.345  1.00  0.00     0.210 C 
ATOM     91  H   UNL     1      -2.015   2.062  -3.204  1.00  0.00     0.348 HD
ATOM     92  C   UNL     1      -4.510   1.216  -3.646  1.00  0.00     0.068 C 
ATOM     93  C   UNL     1      -4.058  -0.017  -2.881  1.00  0.00     0.073 C 
ENDBRANCH  83  84
ENDBRANCH  81  83
ENDBRANCH  76  81
ENDBRANCH  72  74
ENDBRANCH  71  72
ENDBRANCH   1  71
TORSDOF 14
