REMARK SMILES O=C(Nc1ccc(N2CC[NH+](CC(=O)N3CCOCC3)CC2)c(C(=O)OCCOC(=O)c2ccc(-c3c4nc(c(-c5c(F)c(F)c(F)c(F)c5F)c5ccc([nH]5)c(-c5c(F)c(F)c(F)c(F)c5F)c5nc(c(-c6c(F)c(F)c(F)c(F)c6F)c6ccc3[nH]6)C=C5)C=C4)cc2)c1)c1cccc(Cl)c1
REMARK SMILES IDX 27 1 26 2 24 3 25 4 23 5 4 6 5 7 95 8 6 9 7 10 3 11 1 12
REMARK SMILES IDX 2 13 96 15 97 16 102 17 98 18 100 19 99 20 101 21 8 22 9 23
REMARK SMILES IDX 22 24 10 25 21 26 11 27 12 29 13 30 14 31 15 32 16 33 20 34
REMARK SMILES IDX 17 35 19 36 18 37 28 38 29 39 30 40 31 41 32 42 33 43 94 44
REMARK SMILES IDX 34 45 93 46 35 47 36 48 37 49 87 50 38 51 92 52 86 53 88 54
REMARK SMILES IDX 39 55 91 56 85 57 84 58 40 60 72 61 52 62 71 63 53 64 56 65
REMARK SMILES IDX 70 66 89 67 54 68 55 69 69 71 90 72 57 73 41 74 42 75 50 76
REMARK SMILES IDX 43 77 44 78 48 79 51 80 45 81 46 82 49 83 47 84 73 85 74 86
REMARK SMILES IDX 82 87 75 88 76 89 80 90 83 91 77 92 78 93 81 94 79 95 58 96
REMARK SMILES IDX 59 97 67 98 60 99 61 100 65 101 68 102 62 103 63 104 66 105
REMARK SMILES IDX 64 106
REMARK H PARENT 3 14 11 28 88 59 56 70
REMARK Flexibility Score: inf
ROOT
ATOM      1  C   UNL     1       7.445   0.992   4.142  1.00  0.00     0.275 C 
ENDROOT
BRANCH   1   2
ATOM      2  O   UNL     1       6.980   0.204   3.029  1.00  0.00    -0.458 OA
BRANCH   2   3
ATOM      3  C   UNL     1       6.688   0.935   1.917  1.00  0.00     0.340 C 
ATOM      4  O   UNL     1       6.789   2.134   1.792  1.00  0.00    -0.246 OA
BRANCH   3   5
ATOM      5  C   UNL     1       6.253  -0.008   0.864  1.00  0.00     0.085 A 
ATOM      6  C   UNL     1       4.343  -1.191  -0.019  1.00  0.00     0.042 A 
ATOM      7  C   UNL     1       5.119  -1.754  -1.006  1.00  0.00     0.028 A 
ATOM      8  C   UNL     1       4.946  -0.479   1.014  1.00  0.00     0.044 A 
ATOM      9  C   UNL     1       6.423  -1.294  -1.137  1.00  0.00     0.029 A 
ATOM     10  C   UNL     1       6.980  -0.287  -0.305  1.00  0.00     0.052 A 
BRANCH   6  11
ATOM     11  N   UNL     1       2.960  -1.159  -0.225  1.00  0.00    -0.322 N 
ATOM     12  O   UNL     1       0.933  -0.121  -0.207  1.00  0.00    -0.269 OA
ATOM     13  C   UNL     1       2.151  -0.038  -0.094  1.00  0.00     0.255 C 
ATOM     14  H   UNL     1       2.523  -2.002  -0.484  1.00  0.00     0.170 HD
BRANCH  13  15
ATOM     15  C   UNL     1       2.774   1.299   0.121  1.00  0.00     0.041 A 
ATOM     16  C   UNL     1       3.764   1.794  -0.747  1.00  0.00     0.014 A 
ATOM     17  C   UNL     1       2.441   1.999   1.281  1.00  0.00     0.034 A 
ATOM     18  C   UNL     1       4.480   2.942  -0.402  1.00  0.00     0.002 A 
ATOM     19  C   UNL     1       3.157   3.148   1.610  1.00  0.00     0.041 A 
ATOM     20  C   UNL     1       4.182   3.613   0.784  1.00  0.00     0.020 A 
ATOM     21  Cl  UNL     1       2.819   3.964   3.086  1.00  0.00    -0.084 Cl
ENDBRANCH  13  15
ENDBRANCH   6  11
BRANCH  10  22
ATOM     22  N   UNL     1       8.160   0.341  -0.687  1.00  0.00    -0.360 N 
ATOM     23  C   UNL     1       8.576   0.308  -2.120  1.00  0.00     0.178 C 
ATOM     24  C   UNL     1       9.100   0.962   0.304  1.00  0.00     0.178 C 
ATOM     25  C   UNL     1      10.084   0.246  -2.288  1.00  0.00     0.284 C 
ATOM     26  C   UNL     1      10.588   0.719  -0.055  1.00  0.00     0.284 C 
ATOM     27  N   UNL     1      10.716  -0.321  -1.106  1.00  0.00    -0.324 N 
ATOM     28  H   UNL     1      11.663  -0.584  -1.376  1.00  0.00     0.348 HD
BRANCH  27  29
ATOM     29  C   UNL     1      10.086  -1.573  -0.546  1.00  0.00     0.363 C 
BRANCH  29  30
ATOM     30  C   UNL     1       9.745  -2.854  -1.348  1.00  0.00     0.277 C 
ATOM     31  O   UNL     1      10.054  -2.999  -2.529  1.00  0.00    -0.268 OA
ATOM     32  N   UNL     1       9.231  -3.940  -0.570  1.00  0.00    -0.333 N 
ATOM     33  C   UNL     1       8.149  -3.851   0.439  1.00  0.00     0.148 C 
ATOM     34  C   UNL     1       9.587  -5.326  -0.924  1.00  0.00     0.148 C 
ATOM     35  C   UNL     1       8.288  -4.860   1.604  1.00  0.00     0.181 C 
ATOM     36  C   UNL     1       9.679  -6.237   0.322  1.00  0.00     0.181 C 
ATOM     37  O   UNL     1       8.477  -6.187   1.104  1.00  0.00    -0.378 OA
ENDBRANCH  29  30
ENDBRANCH  27  29
ENDBRANCH  10  22
ENDBRANCH   3   5
ENDBRANCH   2   3
ENDBRANCH   1   2
BRANCH   1  38
ATOM     38  C   UNL     1       8.167   0.076   5.140  1.00  0.00     0.275 C 
BRANCH  38  39
ATOM     39  O   UNL     1       9.420  -0.399   4.550  1.00  0.00    -0.458 OA
BRANCH  39  40
ATOM     40  C   UNL     1       9.780  -1.694   4.791  1.00  0.00     0.338 C 
ATOM     41  O   UNL     1       9.178  -2.480   5.505  1.00  0.00    -0.246 OA
BRANCH  40  42
ATOM     42  C   UNL     1      10.867  -2.137   3.851  1.00  0.00     0.060 A 
ATOM     43  C   UNL     1      10.443  -2.492   2.595  1.00  0.00     0.016 A 
ATOM     44  C   UNL     1      12.191  -2.481   4.141  1.00  0.00     0.016 A 
ATOM     45  C   UNL     1      11.316  -3.153   1.685  1.00  0.00     0.010 A 
ATOM     46  C   UNL     1      13.099  -2.986   3.111  1.00  0.00     0.010 A 
ATOM     47  C   UNL     1      12.688  -3.264   1.794  1.00  0.00    -0.014 A 
BRANCH  47  48
ATOM     48  C   UNL     1      13.531  -3.778   0.580  1.00  0.00     0.031 A 
ATOM     49  C   UNL     1      13.697  -5.269   0.341  1.00  0.00     0.074 A 
ATOM     50  C   UNL     1      13.910  -3.100  -0.550  1.00  0.00     0.049 A 
ATOM     51  N   UNL     1      14.191  -5.883  -0.713  1.00  0.00    -0.248 NA
ATOM     52  C   UNL     1      13.110  -6.176   1.328  1.00  0.00     0.031 C 
ATOM     53  C   UNL     1      13.345  -1.873  -1.064  1.00  0.00     0.029 A 
ATOM     54  N   UNL     1      14.840  -3.382  -1.553  1.00  0.00    -0.354 N 
ATOM     55  C   UNL     1      13.889  -7.222  -0.572  1.00  0.00     0.074 A 
ATOM     56  C   UNL     1      13.190  -7.343   0.696  1.00  0.00     0.031 C 
ATOM     57  C   UNL     1      14.053  -1.366  -2.083  1.00  0.00     0.029 A 
ATOM     58  C   UNL     1      15.102  -2.312  -2.393  1.00  0.00     0.049 A 
ATOM     59  H   UNL     1      15.270  -4.262  -1.654  1.00  0.00     0.167 HD
ATOM     60  C   UNL     1      14.179  -8.258  -1.399  1.00  0.00     0.037 A 
ATOM     61  C   UNL     1      15.990  -2.065  -3.378  1.00  0.00     0.037 A 
ATOM     62  C   UNL     1      15.063  -8.216  -2.544  1.00  0.00     0.049 A 
ATOM     63  C   UNL     1      16.736  -3.213  -3.953  1.00  0.00     0.074 A 
ATOM     64  C   UNL     1      15.587  -9.290  -3.252  1.00  0.00     0.029 A 
ATOM     65  N   UNL     1      15.625  -7.077  -3.103  1.00  0.00    -0.354 N 
ATOM     66  N   UNL     1      16.486  -4.480  -3.766  1.00  0.00    -0.248 NA
ATOM     67  C   UNL     1      17.812  -2.939  -4.915  1.00  0.00     0.031 C 
ATOM     68  C   UNL     1      16.584  -8.815  -4.112  1.00  0.00     0.029 A 
ATOM     69  C   UNL     1      16.605  -7.436  -4.031  1.00  0.00     0.049 A 
ATOM     70  H   UNL     1      15.371  -6.153  -2.879  1.00  0.00     0.167 HD
ATOM     71  C   UNL     1      17.345  -5.161  -4.601  1.00  0.00     0.074 A 
ATOM     72  C   UNL     1      18.112  -4.166  -5.322  1.00  0.00     0.031 C 
ATOM     73  C   UNL     1      17.453  -6.502  -4.735  1.00  0.00     0.037 A 
BRANCH  60  74
ATOM     74  C   UNL     1      13.691  -9.604  -0.960  1.00  0.00     0.064 A 
ATOM     75  C   UNL     1      12.389 -10.057  -1.212  1.00  0.00     0.173 A 
ATOM     76  C   UNL     1      14.572 -10.457  -0.278  1.00  0.00     0.173 A 
ATOM     77  F   UNL     1      11.508  -9.272  -1.849  1.00  0.00    -0.203 F 
ATOM     78  C   UNL     1      11.983 -11.320  -0.780  1.00  0.00     0.198 A 
ATOM     79  C   UNL     1      14.167 -11.718   0.140  1.00  0.00     0.198 A 
ATOM     80  F   UNL     1      15.826 -10.059  -0.020  1.00  0.00    -0.203 F 
ATOM     81  F   UNL     1      10.728 -11.733  -1.002  1.00  0.00    -0.200 F 
ATOM     82  C   UNL     1      12.872 -12.147  -0.105  1.00  0.00     0.200 A 
ATOM     83  F   UNL     1      15.030 -12.512   0.788  1.00  0.00    -0.200 F 
ATOM     84  F   UNL     1      12.477 -13.354   0.321  1.00  0.00    -0.200 F 
ENDBRANCH  60  74
BRANCH  61  85
ATOM     85  C   UNL     1      16.205  -0.665  -3.860  1.00  0.00     0.064 A 
ATOM     86  C   UNL     1      16.025  -0.273  -5.194  1.00  0.00     0.173 A 
ATOM     87  C   UNL     1      16.642   0.322  -2.955  1.00  0.00     0.173 A 
ATOM     88  F   UNL     1      15.634  -1.169  -6.112  1.00  0.00    -0.203 F 
ATOM     89  C   UNL     1      16.279   1.039  -5.603  1.00  0.00     0.198 A 
ATOM     90  C   UNL     1      16.869   1.636  -3.359  1.00  0.00     0.198 A 
ATOM     91  F   UNL     1      16.862   0.005  -1.670  1.00  0.00    -0.203 F 
ATOM     92  F   UNL     1      16.139   1.377  -6.892  1.00  0.00    -0.200 F 
ATOM     93  C   UNL     1      16.695   1.993  -4.685  1.00  0.00     0.200 A 
ATOM     94  F   UNL     1      17.269   2.550  -2.465  1.00  0.00    -0.200 F 
ATOM     95  F   UNL     1      16.939   3.250  -5.080  1.00  0.00    -0.200 F 
ENDBRANCH  61  85
BRANCH  73  96
ATOM     96  C   UNL     1      18.520  -7.009  -5.659  1.00  0.00     0.064 A 
ATOM     97  C   UNL     1      19.880  -6.804  -5.374  1.00  0.00     0.173 A 
ATOM     98  C   UNL     1      18.198  -7.708  -6.832  1.00  0.00     0.173 A 
ATOM     99  F   UNL     1      20.245  -6.126  -4.275  1.00  0.00    -0.203 F 
ATOM    100  C   UNL     1      20.874  -7.250  -6.240  1.00  0.00     0.198 A 
ATOM    101  C   UNL     1      19.197  -8.185  -7.679  1.00  0.00     0.198 A 
ATOM    102  F   UNL     1      16.917  -7.931  -7.159  1.00  0.00    -0.203 F 
ATOM    103  F   UNL     1      22.160  -6.988  -5.973  1.00  0.00    -0.200 F 
ATOM    104  C   UNL     1      20.532  -7.948  -7.388  1.00  0.00     0.200 A 
ATOM    105  F   UNL     1      18.866  -8.870  -8.782  1.00  0.00    -0.200 F 
ATOM    106  F   UNL     1      21.489  -8.384  -8.218  1.00  0.00    -0.200 F 
ENDBRANCH  73  96
ENDBRANCH  47  48
ENDBRANCH  40  42
ENDBRANCH  39  40
ENDBRANCH  38  39
ENDBRANCH   1  38
TORSDOF 16
