REMARK SMILES Cc1cc(Br)c(C)c([C@@H]2[NH2+][C@H](C(=O)OCCOC(=O)c3ccc(-c4c5nc(c(-c6c(F)c(F)c(F)c(F)c6F)c6ccc([nH]6)c(-c6c(F)c(F)c(F)c(F)c6F)c6nc(c(-c7c(F)c(F)c(F)c(F)c7F)c7ccc4[nH]7)C=C6)C=C5)cc3)CS2)c1O
REMARK SMILES IDX 15 1 14 2 12 3 13 4 11 5 9 6 10 7 84 8 83 11 8 12 1 13 2 14
REMARK SMILES IDX 3 15 85 16 4 17 5 18 6 19 7 20 86 21 16 23 17 24 18 25 19 26
REMARK SMILES IDX 20 27 21 28 82 29 22 30 81 31 23 32 24 33 25 34 75 35 26 36
REMARK SMILES IDX 80 37 74 38 76 39 27 40 79 41 73 42 72 43 28 45 60 46 40 47
REMARK SMILES IDX 59 48 41 49 44 50 58 51 77 52 42 53 43 54 57 56 78 57 45 58
REMARK SMILES IDX 29 59 30 60 38 61 31 62 32 63 36 64 39 65 33 66 34 67 37 68
REMARK SMILES IDX 35 69 61 70 62 71 70 72 63 73 64 74 68 75 71 76 65 77 66 78
REMARK SMILES IDX 69 79 67 80 46 81 47 82 55 83 48 84 49 85 53 86 56 87 50 88
REMARK SMILES IDX 51 89 54 90 52 91
REMARK H PARENT 10 9 10 10 86 22 76 44 44 55
REMARK Flexibility Score: inf
ROOT
ATOM      1  C   UNL     1       4.946   2.479   0.517  1.00  0.00     0.274 C 
ENDROOT
BRANCH   1   2
ATOM      2  O   UNL     1       3.749   3.272   0.459  1.00  0.00    -0.458 OA
BRANCH   2   3
ATOM      3  C   UNL     1       3.550   4.220   1.421  1.00  0.00     0.365 C 
ATOM      4  O   UNL     1       4.228   4.325   2.438  1.00  0.00    -0.245 OA
BRANCH   3   5
ATOM      5  C   UNL     1       2.393   5.178   1.083  1.00  0.00     0.304 C 
ATOM      6  C   UNL     1       0.542   4.895  -0.455  1.00  0.00     0.278 C 
ATOM      7  N   UNL     1       1.980   5.035  -0.323  1.00  0.00    -0.319 N 
ATOM      8  S   UNL     1      -0.257   5.259   1.121  1.00  0.00    -0.087 SA
ATOM      9  H   UNL     1       2.280   5.862  -0.840  1.00  0.00     0.348 HD
ATOM     10  H   UNL     1       2.415   4.190  -0.694  1.00  0.00     0.348 HD
ATOM     11  C   UNL     1       1.250   5.010   2.076  1.00  0.00     0.153 C 
BRANCH   6  12
ATOM     12  C   UNL     1       0.194   3.545  -1.079  1.00  0.00     0.066 A 
ATOM     13  C   UNL     1       0.698  -0.179  -0.222  1.00  0.00     0.048 C 
ATOM     14  C   UNL     1       0.286   1.068  -0.950  1.00  0.00    -0.008 A 
ATOM     15  C   UNL     1      -0.325   0.987  -2.196  1.00  0.00     0.023 A 
ATOM     16  C   UNL     1       0.517   2.338  -0.408  1.00  0.00     0.128 A 
ATOM     17  C   UNL     1      -0.664   2.149  -2.894  1.00  0.00     0.021 A 
ATOM     18  Br  UNL     1      -1.544   1.884  -4.566  1.00  0.00    -0.051 Br
ATOM     19  C   UNL     1      -0.373   3.438  -2.383  1.00  0.00    -0.023 A 
ATOM     20  C   UNL     1      -0.696   4.642  -3.237  1.00  0.00     0.046 C 
BRANCH  16  21
ATOM     21  O   UNL     1       1.102   2.373   0.830  1.00  0.00    -0.507 OA
ATOM     22  H   UNL     1       1.315   1.574   1.270  1.00  0.00     0.293 HD
ENDBRANCH  16  21
ENDBRANCH   6  12
ENDBRANCH   3   5
ENDBRANCH   2   3
ENDBRANCH   1   2
BRANCH   1  23
ATOM     23  C   UNL     1       5.987   3.011  -0.471  1.00  0.00     0.275 C 
BRANCH  23  24
ATOM     24  O   UNL     1       6.555   4.249  -0.009  1.00  0.00    -0.458 OA
BRANCH  24  25
ATOM     25  C   UNL     1       5.942   5.380  -0.436  1.00  0.00     0.338 C 
ATOM     26  O   UNL     1       4.999   5.483  -1.196  1.00  0.00    -0.246 OA
BRANCH  25  27
ATOM     27  C   UNL     1       6.513   6.520   0.298  1.00  0.00     0.060 A 
ATOM     28  C   UNL     1       7.887   6.752   0.303  1.00  0.00     0.016 A 
ATOM     29  C   UNL     1       5.644   7.377   0.979  1.00  0.00     0.016 A 
ATOM     30  C   UNL     1       8.390   7.830   1.030  1.00  0.00     0.010 A 
ATOM     31  C   UNL     1       6.144   8.459   1.696  1.00  0.00     0.010 A 
ATOM     32  C   UNL     1       7.523   8.684   1.739  1.00  0.00    -0.014 A 
BRANCH  32  33
ATOM     33  C   UNL     1       8.076   9.821   2.507  1.00  0.00     0.031 A 
ATOM     34  C   UNL     1       8.078   9.796   4.008  1.00  0.00     0.074 A 
ATOM     35  C   UNL     1       8.606  10.859   1.834  1.00  0.00     0.049 A 
ATOM     36  N   UNL     1       8.636  10.636   4.842  1.00  0.00    -0.248 NA
ATOM     37  C   UNL     1       7.356   8.693   4.664  1.00  0.00     0.031 C 
ATOM     38  C   UNL     1       8.603  11.003   0.377  1.00  0.00     0.029 A 
ATOM     39  N   UNL     1       9.271  11.972   2.279  1.00  0.00    -0.354 N 
ATOM     40  C   UNL     1       8.359  10.149   6.111  1.00  0.00     0.074 A 
ATOM     41  C   UNL     1       7.522   8.982   5.947  1.00  0.00     0.031 C 
ATOM     42  C   UNL     1       9.287  12.109   0.045  1.00  0.00     0.029 A 
ATOM     43  C   UNL     1       9.751  12.764   1.264  1.00  0.00     0.049 A 
ATOM     44  H   UNL     1       9.392  12.184   3.232  1.00  0.00     0.167 HD
ATOM     45  C   UNL     1       8.802  10.615   7.301  1.00  0.00     0.037 A 
ATOM     46  C   UNL     1      10.498  13.884   1.317  1.00  0.00     0.037 A 
ATOM     47  C   UNL     1       9.646  11.771   7.450  1.00  0.00     0.049 A 
ATOM     48  C   UNL     1      10.934  14.402   2.662  1.00  0.00     0.074 A 
ATOM     49  C   UNL     1      10.183  12.301   8.609  1.00  0.00     0.029 A 
ATOM     50  N   UNL     1      10.072  12.576   6.404  1.00  0.00    -0.354 N 
ATOM     51  N   UNL     1      10.751  13.876   3.849  1.00  0.00    -0.248 NA
ATOM     52  C   UNL     1      11.681  15.667   2.676  1.00  0.00     0.031 C 
ATOM     53  C   UNL     1      10.897  13.452   8.271  1.00  0.00     0.029 A 
ATOM     54  C   UNL     1      10.842  13.617   6.897  1.00  0.00     0.049 A 
ATOM     55  H   UNL     1       9.860  12.429   5.454  1.00  0.00     0.167 HD
ATOM     56  C   UNL     1      11.372  14.735   4.746  1.00  0.00     0.074 A 
ATOM     57  C   UNL     1      11.965  15.799   3.964  1.00  0.00     0.031 C 
ATOM     58  C   UNL     1      11.434  14.658   6.097  1.00  0.00     0.037 A 
BRANCH  45  59
ATOM     59  C   UNL     1       8.434   9.860   8.543  1.00  0.00     0.064 A 
ATOM     60  C   UNL     1       9.025   8.621   8.835  1.00  0.00     0.173 A 
ATOM     61  C   UNL     1       7.587  10.427   9.507  1.00  0.00     0.173 A 
ATOM     62  F   UNL     1       9.838   8.034   7.944  1.00  0.00    -0.203 F 
ATOM     63  C   UNL     1       8.781   7.979  10.046  1.00  0.00     0.198 A 
ATOM     64  C   UNL     1       7.366   9.794  10.727  1.00  0.00     0.198 A 
ATOM     65  F   UNL     1       7.005  11.614   9.281  1.00  0.00    -0.203 F 
ATOM     66  F   UNL     1       9.348   6.790  10.297  1.00  0.00    -0.200 F 
ATOM     67  C   UNL     1       7.964   8.572  10.996  1.00  0.00     0.200 A 
ATOM     68  F   UNL     1       6.590  10.376  11.652  1.00  0.00    -0.200 F 
ATOM     69  F   UNL     1       7.757   7.967  12.174  1.00  0.00    -0.200 F 
ENDBRANCH  45  59
BRANCH  46  70
ATOM     70  C   UNL     1      10.910  14.571   0.065  1.00  0.00     0.064 A 
ATOM     71  C   UNL     1      12.260  14.641  -0.307  1.00  0.00     0.173 A 
ATOM     72  C   UNL     1       9.972  15.190  -0.774  1.00  0.00     0.173 A 
ATOM     73  F   UNL     1      13.199  14.079   0.469  1.00  0.00    -0.203 F 
ATOM     74  C   UNL     1      12.658  15.327  -1.453  1.00  0.00     0.198 A 
ATOM     75  C   UNL     1      10.367  15.847  -1.938  1.00  0.00     0.198 A 
ATOM     76  F   UNL     1       8.667  15.150  -0.469  1.00  0.00    -0.203 F 
ATOM     77  F   UNL     1      13.960  15.425  -1.754  1.00  0.00    -0.200 F 
ATOM     78  C   UNL     1      11.711  15.925  -2.270  1.00  0.00     0.200 A 
ATOM     79  F   UNL     1       9.447  16.410  -2.733  1.00  0.00    -0.200 F 
ATOM     80  F   UNL     1      12.094  16.585  -3.372  1.00  0.00    -0.200 F 
ENDBRANCH  46  70
BRANCH  58  81
ATOM     81  C   UNL     1      12.159  15.750   6.825  1.00  0.00     0.064 A 
ATOM     82  C   UNL     1      11.604  17.031   6.947  1.00  0.00     0.173 A 
ATOM     83  C   UNL     1      13.364  15.486   7.495  1.00  0.00     0.173 A 
ATOM     84  F   UNL     1      10.460  17.334   6.315  1.00  0.00    -0.203 F 
ATOM     85  C   UNL     1      12.230  18.012   7.709  1.00  0.00     0.198 A 
ATOM     86  C   UNL     1      13.972  16.460   8.281  1.00  0.00     0.198 A 
ATOM     87  F   UNL     1      13.931  14.273   7.417  1.00  0.00    -0.203 F 
ATOM     88  F   UNL     1      11.695  19.237   7.791  1.00  0.00    -0.200 F 
ATOM     89  C   UNL     1      13.406  17.722   8.386  1.00  0.00     0.200 A 
ATOM     90  F   UNL     1      15.097  16.173   8.951  1.00  0.00    -0.200 F 
ATOM     91  F   UNL     1      13.992  18.659   9.143  1.00  0.00    -0.200 F 
ENDBRANCH  58  81
ENDBRANCH  32  33
ENDBRANCH  25  27
ENDBRANCH  24  25
ENDBRANCH  23  24
ENDBRANCH   1  23
TORSDOF 13
