REMARK SMILES CCC[C@](C)(C(=O)OCCOC(=O)c1ccc(-c2c3nc(c(-c4c(F)c(F)c(F)c(F)c4F)c4ccc([nH]4)c(-c4c(F)c(F)c(F)c(F)c4F)c4nc(c(-c5c(F)c(F)c(F)c(F)c5F)c5ccc2[nH]5)C=C4)C=C3)cc1)[C@@H]1CCO[C@]2(CCSC2)C1
REMARK SMILES IDX 9 1 8 2 6 3 7 4 4 5 5 6 3 7 2 8 1 9 77 10 78 11 86 12 79 13
REMARK SMILES IDX 81 14 80 15 82 16 85 17 83 18 84 19 10 20 11 21 12 22 13 23
REMARK SMILES IDX 14 24 15 25 76 26 16 27 75 28 17 29 18 30 19 31 69 32 20 33
REMARK SMILES IDX 74 34 68 35 70 36 21 37 73 38 67 39 66 40 22 42 54 43 34 44
REMARK SMILES IDX 53 45 35 46 38 47 52 48 71 49 36 50 37 51 51 53 72 54 39 55
REMARK SMILES IDX 23 56 24 57 32 58 25 59 26 60 30 61 33 62 27 63 28 64 31 65
REMARK SMILES IDX 29 66 55 67 56 68 64 69 57 70 58 71 62 72 65 73 59 74 60 75
REMARK SMILES IDX 63 76 61 77 40 78 41 79 49 80 42 81 43 82 47 83 50 84 44 85
REMARK SMILES IDX 45 86 48 87 46 88
REMARK H PARENT 70 41 38 52
REMARK Flexibility Score: inf
ROOT
ATOM      1  C   UNL     1       0.949   2.805   6.009  1.00  0.00     0.274 C 
ENDROOT
BRANCH   1   2
ATOM      2  O   UNL     1       0.634   1.821   5.005  1.00  0.00    -0.462 OA
BRANCH   2   3
ATOM      3  C   UNL     1       0.162   2.240   3.801  1.00  0.00     0.312 C 
ATOM      4  O   UNL     1      -0.093   3.408   3.533  1.00  0.00    -0.252 OA
BRANCH   3   5
ATOM      5  C   UNL     1      -0.013   1.063   2.799  1.00  0.00     0.068 C 
ATOM      6  C   UNL     1       0.748  -0.175   3.374  1.00  0.00     0.024 C 
BRANCH   5   7
ATOM      7  C   UNL     1      -1.519   0.666   2.835  1.00  0.00     0.018 C 
BRANCH   7   8
ATOM      8  C   UNL     1      -2.606   1.577   2.258  1.00  0.00    -0.002 C 
ATOM      9  C   UNL     1      -3.458   0.858   1.220  1.00  0.00     0.004 C 
ENDBRANCH   7   8
ENDBRANCH   5   7
BRANCH   5  10
ATOM     10  C   UNL     1       0.717   1.480   1.449  1.00  0.00     0.011 C 
ATOM     11  C   UNL     1       0.100   2.566   0.546  1.00  0.00     0.033 C 
ATOM     12  C   UNL     1       1.297   0.389   0.528  1.00  0.00     0.041 C 
ATOM     13  C   UNL     1      -0.443   2.051  -0.786  1.00  0.00     0.161 C 
ATOM     14  C   UNL     1       0.298  -0.219  -0.473  1.00  0.00     0.078 C 
ATOM     15  O   UNL     1      -0.787   0.676  -0.730  1.00  0.00    -0.374 OA
ATOM     16  C   UNL     1      -0.334  -1.533   0.009  1.00  0.00     0.047 C 
ATOM     17  C   UNL     1       0.997  -0.640  -1.782  1.00  0.00     0.105 C 
ATOM     18  C   UNL     1       0.732  -2.611   0.019  1.00  0.00     0.072 C 
ATOM     19  S   UNL     1       1.719  -2.284  -1.466  1.00  0.00    -0.159 SA
ENDBRANCH   5  10
ENDBRANCH   3   5
ENDBRANCH   2   3
ENDBRANCH   1   2
BRANCH   1  20
ATOM     20  C   UNL     1       2.464   2.889   6.181  1.00  0.00     0.275 C 
BRANCH  20  21
ATOM     21  O   UNL     1       3.025   3.582   5.053  1.00  0.00    -0.458 OA
BRANCH  21  22
ATOM     22  C   UNL     1       3.758   2.840   4.201  1.00  0.00     0.338 C 
ATOM     23  O   UNL     1       4.070   1.660   4.298  1.00  0.00    -0.246 OA
BRANCH  22  24
ATOM     24  C   UNL     1       4.127   3.672   3.051  1.00  0.00     0.060 A 
ATOM     25  C   UNL     1       3.127   4.122   2.191  1.00  0.00     0.016 A 
ATOM     26  C   UNL     1       5.468   3.916   2.764  1.00  0.00     0.016 A 
ATOM     27  C   UNL     1       3.468   4.725   0.985  1.00  0.00     0.010 A 
ATOM     28  C   UNL     1       5.800   4.631   1.610  1.00  0.00     0.010 A 
ATOM     29  C   UNL     1       4.805   5.019   0.692  1.00  0.00    -0.014 A 
BRANCH  29  30
ATOM     30  C   UNL     1       5.179   5.716  -0.569  1.00  0.00     0.031 A 
ATOM     31  C   UNL     1       6.181   5.090  -1.498  1.00  0.00     0.074 A 
ATOM     32  C   UNL     1       4.646   6.915  -0.878  1.00  0.00     0.049 A 
ATOM     33  N   UNL     1       6.882   5.641  -2.456  1.00  0.00    -0.248 NA
ATOM     34  C   UNL     1       6.440   3.653  -1.314  1.00  0.00     0.031 C 
ATOM     35  C   UNL     1       3.604   7.607  -0.118  1.00  0.00     0.029 A 
ATOM     36  N   UNL     1       4.917   7.771  -1.918  1.00  0.00    -0.354 N 
ATOM     37  C   UNL     1       7.719   4.641  -2.934  1.00  0.00     0.074 A 
ATOM     38  C   UNL     1       7.422   3.442  -2.180  1.00  0.00     0.031 C 
ATOM     39  C   UNL     1       3.303   8.762  -0.730  1.00  0.00     0.029 A 
ATOM     40  C   UNL     1       4.211   8.948  -1.855  1.00  0.00     0.049 A 
ATOM     41  H   UNL     1       5.555   7.562  -2.638  1.00  0.00     0.167 HD
ATOM     42  C   UNL     1       8.661   4.731  -3.903  1.00  0.00     0.037 A 
ATOM     43  C   UNL     1       4.327  10.081  -2.573  1.00  0.00     0.037 A 
ATOM     44  C   UNL     1       8.901   5.916  -4.685  1.00  0.00     0.049 A 
ATOM     45  C   UNL     1       5.399  10.173  -3.619  1.00  0.00     0.074 A 
ATOM     46  C   UNL     1       9.842   6.123  -5.678  1.00  0.00     0.029 A 
ATOM     47  N   UNL     1       8.168   7.089  -4.576  1.00  0.00    -0.354 N 
ATOM     48  N   UNL     1       6.272   9.267  -3.987  1.00  0.00    -0.248 NA
ATOM     49  C   UNL     1       5.527  11.454  -4.326  1.00  0.00     0.031 C 
ATOM     50  C   UNL     1       9.692   7.430  -6.156  1.00  0.00     0.029 A 
ATOM     51  C   UNL     1       8.635   8.023  -5.485  1.00  0.00     0.049 A 
ATOM     52  H   UNL     1       7.426   7.236  -3.945  1.00  0.00     0.167 HD
ATOM     53  C   UNL     1       7.045   9.861  -4.973  1.00  0.00     0.074 A 
ATOM     54  C   UNL     1       6.530  11.203  -5.156  1.00  0.00     0.031 C 
ATOM     55  C   UNL     1       8.093   9.345  -5.659  1.00  0.00     0.037 A 
BRANCH  42  56
ATOM     56  C   UNL     1       9.536   3.536  -4.139  1.00  0.00     0.064 A 
ATOM     57  C   UNL     1       9.071   2.391  -4.798  1.00  0.00     0.173 A 
ATOM     58  C   UNL     1      10.878   3.558  -3.727  1.00  0.00     0.173 A 
ATOM     59  F   UNL     1       7.793   2.314  -5.197  1.00  0.00    -0.203 F 
ATOM     60  C   UNL     1       9.913   1.303  -5.021  1.00  0.00     0.198 A 
ATOM     61  C   UNL     1      11.723   2.480  -3.973  1.00  0.00     0.198 A 
ATOM     62  F   UNL     1      11.373   4.633  -3.094  1.00  0.00    -0.203 F 
ATOM     63  F   UNL     1       9.439   0.202  -5.620  1.00  0.00    -0.200 F 
ATOM     64  C   UNL     1      11.239   1.351  -4.615  1.00  0.00     0.200 A 
ATOM     65  F   UNL     1      13.006   2.534  -3.588  1.00  0.00    -0.200 F 
ATOM     66  F   UNL     1      12.049   0.306  -4.836  1.00  0.00    -0.200 F 
ENDBRANCH  42  56
BRANCH  43  67
ATOM     67  C   UNL     1       3.443  11.237  -2.271  1.00  0.00     0.064 A 
ATOM     68  C   UNL     1       2.450  11.637  -3.173  1.00  0.00     0.173 A 
ATOM     69  C   UNL     1       3.554  11.945  -1.064  1.00  0.00     0.173 A 
ATOM     70  F   UNL     1       2.322  11.008  -4.351  1.00  0.00    -0.203 F 
ATOM     71  C   UNL     1       1.600  12.702  -2.880  1.00  0.00     0.198 A 
ATOM     72  C   UNL     1       2.685  12.989  -0.759  1.00  0.00     0.198 A 
ATOM     73  F   UNL     1       4.490  11.601  -0.167  1.00  0.00    -0.203 F 
ATOM     74  F   UNL     1       0.677  13.085  -3.773  1.00  0.00    -0.200 F 
ATOM     75  C   UNL     1       1.711  13.370  -1.669  1.00  0.00     0.200 A 
ATOM     76  F   UNL     1       2.787  13.620   0.418  1.00  0.00    -0.200 F 
ATOM     77  F   UNL     1       0.883  14.383  -1.381  1.00  0.00    -0.200 F 
ENDBRANCH  43  67
BRANCH  55  78
ATOM     78  C   UNL     1       8.722  10.217  -6.701  1.00  0.00     0.064 A 
ATOM     79  C   UNL     1       9.600  11.252  -6.355  1.00  0.00     0.173 A 
ATOM     80  C   UNL     1       8.479   9.978  -8.061  1.00  0.00     0.173 A 
ATOM     81  F   UNL     1       9.847  11.526  -5.065  1.00  0.00    -0.203 F 
ATOM     82  C   UNL     1      10.208  12.027  -7.338  1.00  0.00     0.198 A 
ATOM     83  C   UNL     1       9.104  10.742  -9.041  1.00  0.00     0.198 A 
ATOM     84  F   UNL     1       7.647   8.996  -8.437  1.00  0.00    -0.203 F 
ATOM     85  F   UNL     1      11.024  13.032  -6.988  1.00  0.00    -0.200 F 
ATOM     86  C   UNL     1       9.965  11.767  -8.680  1.00  0.00     0.200 A 
ATOM     87  F   UNL     1       8.874  10.486 -10.337  1.00  0.00    -0.200 F 
ATOM     88  F   UNL     1      10.558  12.510  -9.625  1.00  0.00    -0.200 F 
ENDBRANCH  55  78
ENDBRANCH  29  30
ENDBRANCH  22  24
ENDBRANCH  21  22
ENDBRANCH  20  21
ENDBRANCH   1  20
TORSDOF 14
