REMARK SMILES C[NH+](C)CCc1nc(Nc2ccc(O)c(C(=O)OCCOC(=O)c3ccc(-c4c5nc(c(-c6c(F)c(F)c(F)c(F)c6F)c6ccc([nH]6)c(-c6c(F)c(F)c(F)c(F)c6F)c6nc(c(-c7c(F)c(F)c(F)c(F)c7F)c7ccc4[nH]7)C=C6)C=C5)cc3)c2)c2ccccc2n1
REMARK SMILES IDX 18 1 16 2 17 3 15 4 10 5 11 6 87 7 12 8 13 9 9 10 8 12 6 13
REMARK SMILES IDX 7 14 94 15 93 16 88 17 92 18 89 19 91 20 90 21 5 22 4 23
REMARK SMILES IDX 2 24 1 25 3 26 14 28 19 30 20 31 21 32 22 33 23 34 24 35
REMARK SMILES IDX 25 36 86 37 26 38 85 39 27 40 28 41 29 42 79 43 30 44 84 45
REMARK SMILES IDX 78 46 80 47 31 48 83 49 77 50 76 51 32 53 64 54 44 55 63 56
REMARK SMILES IDX 45 57 48 58 62 59 81 60 46 61 47 62 61 64 82 65 49 66 33 67
REMARK SMILES IDX 34 68 42 69 35 70 36 71 40 72 43 73 37 74 38 75 41 76 39 77
REMARK SMILES IDX 65 78 66 79 74 80 67 81 68 82 72 83 75 84 69 85 70 86 73 87
REMARK SMILES IDX 71 88 50 89 51 90 59 91 52 92 53 93 57 94 60 95 54 96 55 97
REMARK SMILES IDX 58 98 56 99
REMARK H PARENT 9 11 2 27 14 29 80 52 48 63
REMARK Flexibility Score: inf
ROOT
ATOM      1  O   UNL     1       0.248   9.638  -4.459  1.00  0.00    -0.458 OA
ENDROOT
BRANCH   1   2
ATOM      2  C   UNL     1       0.837   8.444  -4.195  1.00  0.00     0.342 C 
ATOM      3  O   UNL     1       1.994   8.138  -4.426  1.00  0.00    -0.246 OA
BRANCH   2   4
ATOM      4  C   UNL     1      -0.063   7.577  -3.404  1.00  0.00     0.103 A 
ATOM      5  C   UNL     1      -0.281   6.133  -1.444  1.00  0.00     0.041 A 
ATOM      6  C   UNL     1      -1.584   5.830  -1.837  1.00  0.00     0.030 A 
ATOM      7  C   UNL     1       0.482   6.963  -2.268  1.00  0.00     0.045 A 
ATOM      8  C   UNL     1      -2.138   6.417  -2.984  1.00  0.00     0.049 A 
ATOM      9  C   UNL     1      -1.381   7.301  -3.760  1.00  0.00     0.130 A 
BRANCH   5  10
ATOM     10  N   UNL     1       0.317   5.559  -0.307  1.00  0.00    -0.340 N 
ATOM     11  H   UNL     1       0.438   6.138   0.480  1.00  0.00     0.168 HD
BRANCH  10  12
ATOM     12  C   UNL     1       0.761   4.217  -0.199  1.00  0.00     0.142 A 
ATOM     13  C   UNL     1       1.027   2.147  -1.163  1.00  0.00     0.137 A 
ATOM     14  N   UNL     1       0.522   3.386  -1.230  1.00  0.00    -0.215 NA
ATOM     15  N   UNL     1       1.808   1.710  -0.167  1.00  0.00    -0.233 NA
ATOM     16  C   UNL     1       1.967   2.502   0.894  1.00  0.00     0.076 A 
ATOM     17  C   UNL     1       1.438   3.795   0.962  1.00  0.00     0.043 A 
ATOM     18  C   UNL     1       2.672   2.005   1.983  1.00  0.00     0.029 A 
ATOM     19  C   UNL     1       1.626   4.557   2.147  1.00  0.00     0.014 A 
ATOM     20  C   UNL     1       2.852   2.751   3.150  1.00  0.00     0.002 A 
ATOM     21  C   UNL     1       2.325   4.031   3.234  1.00  0.00     0.001 A 
BRANCH  13  22
ATOM     22  C   UNL     1       0.696   1.229  -2.306  1.00  0.00     0.138 C 
BRANCH  22  23
ATOM     23  C   UNL     1       1.000  -0.270  -2.124  1.00  0.00     0.269 C 
BRANCH  23  24
ATOM     24  N   UNL     1       0.179  -1.112  -1.234  1.00  0.00    -0.339 N 
ATOM     25  C   UNL     1       0.545  -0.994   0.174  1.00  0.00     0.332 C 
ATOM     26  C   UNL     1      -1.256  -0.934  -1.411  1.00  0.00     0.332 C 
ATOM     27  H   UNL     1       0.399  -2.063  -1.528  1.00  0.00     0.347 HD
ENDBRANCH  23  24
ENDBRANCH  22  23
ENDBRANCH  13  22
ENDBRANCH  10  12
ENDBRANCH   5  10
BRANCH   9  28
ATOM     28  O   UNL     1      -1.920   7.844  -4.890  1.00  0.00    -0.507 OA
ATOM     29  H   UNL     1      -2.807   7.654  -5.125  1.00  0.00     0.293 HD
ENDBRANCH   9  28
ENDBRANCH   2   4
ENDBRANCH   1   2
BRANCH   1  30
ATOM     30  C   UNL     1       1.061  10.605  -5.153  1.00  0.00     0.275 C 
BRANCH  30  31
ATOM     31  C   UNL     1       1.496  11.719  -4.204  1.00  0.00     0.275 C 
BRANCH  31  32
ATOM     32  O   UNL     1       2.379  11.173  -3.207  1.00  0.00    -0.458 OA
BRANCH  32  33
ATOM     33  C   UNL     1       2.072  11.447  -1.923  1.00  0.00     0.338 C 
ATOM     34  O   UNL     1       1.187  12.183  -1.504  1.00  0.00    -0.246 OA
BRANCH  33  35
ATOM     35  C   UNL     1       2.958  10.685  -1.027  1.00  0.00     0.060 A 
ATOM     36  C   UNL     1       3.062   9.306  -1.181  1.00  0.00     0.016 A 
ATOM     37  C   UNL     1       3.577  11.310   0.052  1.00  0.00     0.016 A 
ATOM     38  C   UNL     1       3.665   8.532  -0.192  1.00  0.00     0.010 A 
ATOM     39  C   UNL     1       4.294  10.542   0.979  1.00  0.00     0.010 A 
ATOM     40  C   UNL     1       4.299   9.136   0.905  1.00  0.00    -0.014 A 
BRANCH  40  41
ATOM     41  C   UNL     1       4.911   8.303   1.986  1.00  0.00     0.031 A 
ATOM     42  C   UNL     1       4.493   8.487   3.426  1.00  0.00     0.074 A 
ATOM     43  C   UNL     1       5.821   7.351   1.694  1.00  0.00     0.049 A 
ATOM     44  N   UNL     1       5.000   7.961   4.515  1.00  0.00    -0.248 NA
ATOM     45  C   UNL     1       3.363   9.394   3.678  1.00  0.00     0.031 C 
ATOM     46  C   UNL     1       6.306   7.024   0.353  1.00  0.00     0.029 A 
ATOM     47  N   UNL     1       6.484   6.464   2.508  1.00  0.00    -0.354 N 
ATOM     48  C   UNL     1       4.306   8.531   5.576  1.00  0.00     0.074 A 
ATOM     49  C   UNL     1       3.338   9.441   5.002  1.00  0.00     0.031 C 
ATOM     50  C   UNL     1       7.125   5.964   0.426  1.00  0.00     0.029 A 
ATOM     51  C   UNL     1       7.304   5.597   1.826  1.00  0.00     0.049 A 
ATOM     52  H   UNL     1       6.381   6.450   3.487  1.00  0.00     0.167 HD
ATOM     53  C   UNL     1       4.459   8.318   6.907  1.00  0.00     0.037 A 
ATOM     54  C   UNL     1       8.133   4.635   2.272  1.00  0.00     0.037 A 
ATOM     55  C   UNL     1       5.373   7.366   7.483  1.00  0.00     0.049 A 
ATOM     56  C   UNL     1       8.289   4.418   3.750  1.00  0.00     0.074 A 
ATOM     57  C   UNL     1       5.581   7.065   8.819  1.00  0.00     0.029 A 
ATOM     58  N   UNL     1       6.221   6.544   6.755  1.00  0.00    -0.354 N 
ATOM     59  N   UNL     1       7.673   5.010   4.743  1.00  0.00    -0.248 NA
ATOM     60  C   UNL     1       9.280   3.416   4.166  1.00  0.00     0.031 C 
ATOM     61  C   UNL     1       6.574   6.081   8.901  1.00  0.00     0.029 A 
ATOM     62  C   UNL     1       6.955   5.739   7.614  1.00  0.00     0.049 A 
ATOM     63  H   UNL     1       6.291   6.534   5.774  1.00  0.00     0.167 HD
ATOM     64  C   UNL     1       8.199   4.454   5.901  1.00  0.00     0.074 A 
ATOM     65  C   UNL     1       9.162   3.455   5.486  1.00  0.00     0.031 C 
ATOM     66  C   UNL     1       7.916   4.754   7.192  1.00  0.00     0.037 A 
BRANCH  53  67
ATOM     67  C   UNL     1       3.635   9.161   7.840  1.00  0.00     0.064 A 
ATOM     68  C   UNL     1       2.252   8.975   7.985  1.00  0.00     0.173 A 
ATOM     69  C   UNL     1       4.246  10.162   8.612  1.00  0.00     0.173 A 
ATOM     70  F   UNL     1       1.618   8.041   7.260  1.00  0.00    -0.203 F 
ATOM     71  C   UNL     1       1.507   9.783   8.841  1.00  0.00     0.198 A 
ATOM     72  C   UNL     1       3.502  10.947   9.489  1.00  0.00     0.198 A 
ATOM     73  F   UNL     1       5.567  10.376   8.518  1.00  0.00    -0.203 F 
ATOM     74  F   UNL     1       0.178   9.624   8.920  1.00  0.00    -0.200 F 
ATOM     75  C   UNL     1       2.132  10.764   9.595  1.00  0.00     0.200 A 
ATOM     76  F   UNL     1       4.112  11.886  10.226  1.00  0.00    -0.200 F 
ATOM     77  F   UNL     1       1.413  11.540  10.418  1.00  0.00    -0.200 F 
ENDBRANCH  53  67
BRANCH  54  78
ATOM     78  C   UNL     1       8.899   3.813   1.299  1.00  0.00     0.064 A 
ATOM     79  C   UNL     1       8.599   2.457   1.116  1.00  0.00     0.173 A 
ATOM     80  C   UNL     1       9.930   4.366   0.524  1.00  0.00     0.173 A 
ATOM     81  F   UNL     1       7.645   1.876   1.859  1.00  0.00    -0.203 F 
ATOM     82  C   UNL     1       9.302   1.683   0.194  1.00  0.00     0.198 A 
ATOM     83  C   UNL     1      10.611   3.599  -0.418  1.00  0.00     0.198 A 
ATOM     84  F   UNL     1      10.259   5.658   0.668  1.00  0.00    -0.203 F 
ATOM     85  F   UNL     1       9.020   0.380   0.064  1.00  0.00    -0.200 F 
ATOM     86  C   UNL     1      10.299   2.258  -0.580  1.00  0.00     0.200 A 
ATOM     87  F   UNL     1      11.566   4.161  -1.171  1.00  0.00    -0.200 F 
ATOM     88  F   UNL     1      10.965   1.517  -1.476  1.00  0.00    -0.200 F 
ENDBRANCH  54  78
BRANCH  66  89
ATOM     89  C   UNL     1       8.645   3.972   8.245  1.00  0.00     0.064 A 
ATOM     90  C   UNL     1      10.005   4.192   8.512  1.00  0.00     0.173 A 
ATOM     91  C   UNL     1       7.978   2.990   8.992  1.00  0.00     0.173 A 
ATOM     92  F   UNL     1      10.691   5.107   7.811  1.00  0.00    -0.203 F 
ATOM     93  C   UNL     1      10.678   3.434   9.467  1.00  0.00     0.198 A 
ATOM     94  C   UNL     1       8.648   2.252   9.964  1.00  0.00     0.198 A 
ATOM     95  F   UNL     1       6.677   2.744   8.776  1.00  0.00    -0.203 F 
ATOM     96  F   UNL     1      11.989   3.622   9.667  1.00  0.00    -0.200 F 
ATOM     97  C   UNL     1       9.998   2.467  10.194  1.00  0.00     0.200 A 
ATOM     98  F   UNL     1       7.988   1.324  10.670  1.00  0.00    -0.200 F 
ATOM     99  F   UNL     1      10.649   1.734  11.107  1.00  0.00    -0.200 F 
ENDBRANCH  66  89
ENDBRANCH  40  41
ENDBRANCH  33  35
ENDBRANCH  32  33
ENDBRANCH  31  32
ENDBRANCH  30  31
ENDBRANCH   1  30
TORSDOF 17
