REMARK SMILES O=C(OCCOC(=O)c1ccc(-c2c3nc(c(-c4c(F)c(F)c(F)c(F)c4F)c4ccc([nH]4)c(-c4c(F)c(F)c(F)c(F)c4F)c4nc(c(-c5c(F)c(F)c(F)c(F)c5F)c5ccc2[nH]5)C=C4)C=C3)cc1)C1=Cc2cc(Cl)cc(-c3ccc(O)cc3)c2O[C@@H]1C(F)(F)F
REMARK SMILES IDX 4 1 3 2 2 3 1 4 72 5 73 6 89 7 74 8 88 9 75 10 87 11 76 12
REMARK SMILES IDX 79 13 77 14 78 15 90 16 91 17 92 18 93 19 80 20 81 21 86 22
REMARK SMILES IDX 82 23 85 24 83 25 84 26 5 28 6 29 7 30 8 31 9 32 10 33 71 34
REMARK SMILES IDX 11 35 70 36 12 37 13 38 14 39 64 40 15 41 69 42 63 43 65 44
REMARK SMILES IDX 16 45 68 46 62 47 61 48 17 50 49 51 29 52 48 53 30 54 33 55
REMARK SMILES IDX 47 56 66 57 31 58 32 59 46 61 67 62 34 63 18 64 19 65 27 66
REMARK SMILES IDX 20 67 21 68 25 69 28 70 22 71 23 72 26 73 24 74 50 75 51 76
REMARK SMILES IDX 59 77 52 78 53 79 57 80 60 81 54 82 55 83 58 84 56 85 35 86
REMARK SMILES IDX 36 87 44 88 37 89 38 90 42 91 45 92 39 93 40 94 43 95 41 96
REMARK H PARENT 84 27 65 49 33 60
REMARK Flexibility Score: inf
ROOT
ATOM      1  C   UNL     1       3.839  -1.098  -0.538  1.00  0.00     0.275 C 
ENDROOT
BRANCH   1   2
ATOM      2  O   UNL     1       2.833  -2.135  -0.038  1.00  0.00    -0.459 OA
BRANCH   2   3
ATOM      3  C   UNL     1       2.994  -2.424   1.258  1.00  0.00     0.338 C 
ATOM      4  O   UNL     1       2.252  -3.030   1.990  1.00  0.00    -0.246 OA
BRANCH   3   5
ATOM      5  C   UNL     1       3.959  -1.371   1.533  1.00  0.00     0.087 C 
ATOM      6  C   UNL     1       5.315  -1.628   1.124  1.00  0.00     0.027 C 
ATOM      7  C   UNL     1       2.821   0.006   0.836  1.00  0.00     0.316 C 
ATOM      8  C   UNL     1       6.071  -0.898  -0.308  1.00  0.00     0.019 A 
ATOM      9  O   UNL     1       3.568   0.754  -0.805  1.00  0.00    -0.475 OA
ATOM     10  C   UNL     1       7.282  -1.418  -0.667  1.00  0.00     0.032 A 
ATOM     11  C   UNL     1       5.222   0.183  -1.376  1.00  0.00     0.135 A 
ATOM     12  C   UNL     1       7.721  -1.049  -1.935  1.00  0.00     0.042 A 
ATOM     13  C   UNL     1       5.705   0.429  -2.641  1.00  0.00     0.026 A 
ATOM     14  Cl  UNL     1       9.220  -1.732  -2.471  1.00  0.00    -0.084 Cl
ATOM     15  C   UNL     1       6.981  -0.205  -2.853  1.00  0.00     0.033 A 
BRANCH   7  16
ATOM     16  C   UNL     1       2.591   0.520   2.391  1.00  0.00     0.430 C 
ATOM     17  F   UNL     1       1.308   0.838   2.610  1.00  0.00    -0.167 F 
ATOM     18  F   UNL     1       2.779  -0.508   3.285  1.00  0.00    -0.167 F 
ATOM     19  F   UNL     1       3.417   1.448   2.902  1.00  0.00    -0.167 F 
ENDBRANCH   7  16
BRANCH  13  20
ATOM     20  C   UNL     1       5.068   1.051  -3.789  1.00  0.00    -0.014 A 
ATOM     21  C   UNL     1       4.697   0.243  -4.886  1.00  0.00     0.012 A 
ATOM     22  C   UNL     1       5.002   2.440  -3.931  1.00  0.00     0.012 A 
ATOM     23  C   UNL     1       4.270   0.807  -6.086  1.00  0.00     0.047 A 
ATOM     24  C   UNL     1       4.574   3.008  -5.136  1.00  0.00     0.047 A 
ATOM     25  C   UNL     1       4.213   2.187  -6.202  1.00  0.00     0.115 A 
BRANCH  25  26
ATOM     26  O   UNL     1       3.807   2.703  -7.396  1.00  0.00    -0.508 OA
ATOM     27  H   UNL     1       3.569   2.130  -8.098  1.00  0.00     0.293 HD
ENDBRANCH  25  26
ENDBRANCH  13  20
ENDBRANCH   3   5
ENDBRANCH   2   3
ENDBRANCH   1   2
BRANCH   1  28
ATOM     28  C   UNL     1       4.714   0.534   0.621  1.00  0.00     0.275 C 
BRANCH  28  29
ATOM     29  O   UNL     1       3.917   2.084   0.873  1.00  0.00    -0.458 OA
BRANCH  29  30
ATOM     30  C   UNL     1       2.905   2.893   0.387  1.00  0.00     0.338 C 
ATOM     31  O   UNL     1       2.381   2.902  -0.713  1.00  0.00    -0.246 OA
BRANCH  30  32
ATOM     32  C   UNL     1       2.194   3.474   1.580  1.00  0.00     0.060 A 
ATOM     33  C   UNL     1       0.842   3.127   1.796  1.00  0.00     0.016 A 
ATOM     34  C   UNL     1       2.940   3.997   2.636  1.00  0.00     0.016 A 
ATOM     35  C   UNL     1       0.320   3.099   3.107  1.00  0.00     0.010 A 
ATOM     36  C   UNL     1       2.427   3.939   3.939  1.00  0.00     0.010 A 
ATOM     37  C   UNL     1       1.138   3.429   4.198  1.00  0.00    -0.014 A 
BRANCH  37  38
ATOM     38  C   UNL     1       0.580   3.531   5.577  1.00  0.00     0.031 A 
ATOM     39  C   UNL     1       0.102   4.902   5.956  1.00  0.00     0.074 A 
ATOM     40  C   UNL     1       0.526   2.522   6.476  1.00  0.00     0.049 A 
ATOM     41  N   UNL     1      -0.392   5.344   7.080  1.00  0.00    -0.248 NA
ATOM     42  C   UNL     1       0.241   5.932   4.908  1.00  0.00     0.031 C 
ATOM     43  C   UNL     1       0.979   1.148   6.265  1.00  0.00     0.029 A 
ATOM     44  N   UNL     1       0.065   2.511   7.779  1.00  0.00    -0.354 N 
ATOM     45  C   UNL     1      -0.641   6.690   6.857  1.00  0.00     0.074 A 
ATOM     46  C   UNL     1      -0.137   7.020   5.547  1.00  0.00     0.031 C 
ATOM     47  C   UNL     1       0.775   0.433   7.391  1.00  0.00     0.029 A 
ATOM     48  C   UNL     1       0.183   1.293   8.415  1.00  0.00     0.049 A 
ATOM     49  H   UNL     1      -0.317   3.307   8.216  1.00  0.00     0.167 HD
ATOM     50  C   UNL     1      -1.290   7.572   7.647  1.00  0.00     0.037 A 
ATOM     51  C   UNL     1      -0.155   0.930   9.675  1.00  0.00     0.037 A 
ATOM     52  C   UNL     1      -1.763   7.261   8.961  1.00  0.00     0.049 A 
ATOM     53  C   UNL     1      -0.797   1.964  10.584  1.00  0.00     0.074 A 
ATOM     54  C   UNL     1      -2.405   8.085   9.863  1.00  0.00     0.029 A 
ATOM     55  N   UNL     1      -1.626   6.019   9.564  1.00  0.00    -0.354 N 
ATOM     56  N   UNL     1      -1.102   3.217  10.336  1.00  0.00    -0.248 NA
ATOM     57  C   UNL     1      -1.157   1.529  11.944  1.00  0.00     0.031 C 
ATOM     58  C   UNL     1      -2.612   7.354  11.037  1.00  0.00     0.029 A 
ATOM     59  C   UNL     1      -2.162   6.058  10.838  1.00  0.00     0.049 A 
ATOM     60  H   UNL     1      -1.210   5.230   9.148  1.00  0.00     0.167 HD
ATOM     61  C   UNL     1      -1.728   3.699  11.482  1.00  0.00     0.074 A 
ATOM     62  C   UNL     1      -1.775   2.600  12.422  1.00  0.00     0.031 C 
ATOM     63  C   UNL     1      -2.220   4.937  11.740  1.00  0.00     0.037 A 
BRANCH  50  64
ATOM     64  C   UNL     1      -1.506   8.938   7.074  1.00  0.00     0.064 A 
ATOM     65  C   UNL     1      -2.352   9.136   5.968  1.00  0.00     0.173 A 
ATOM     66  C   UNL     1      -0.812  10.044   7.579  1.00  0.00     0.173 A 
ATOM     67  F   UNL     1      -3.006   8.098   5.423  1.00  0.00    -0.203 F 
ATOM     68  C   UNL     1      -2.457  10.383   5.362  1.00  0.00     0.198 A 
ATOM     69  C   UNL     1      -0.952  11.299   6.994  1.00  0.00     0.198 A 
ATOM     70  F   UNL     1       0.020   9.904   8.621  1.00  0.00    -0.203 F 
ATOM     71  F   UNL     1      -3.198  10.527   4.255  1.00  0.00    -0.200 F 
ATOM     72  C   UNL     1      -1.762  11.465   5.880  1.00  0.00     0.200 A 
ATOM     73  F   UNL     1      -0.281  12.346   7.495  1.00  0.00    -0.200 F 
ATOM     74  F   UNL     1      -1.856  12.665   5.291  1.00  0.00    -0.200 F 
ENDBRANCH  50  64
BRANCH  51  75
ATOM     75  C   UNL     1       0.077  -0.459  10.189  1.00  0.00     0.064 A 
ATOM     76  C   UNL     1      -0.993  -1.282  10.585  1.00  0.00     0.173 A 
ATOM     77  C   UNL     1       1.372  -0.955  10.404  1.00  0.00     0.173 A 
ATOM     78  F   UNL     1      -2.256  -0.852  10.442  1.00  0.00    -0.203 F 
ATOM     79  C   UNL     1      -0.778  -2.512  11.211  1.00  0.00     0.198 A 
ATOM     80  C   UNL     1       1.586  -2.202  10.999  1.00  0.00     0.198 A 
ATOM     81  F   UNL     1       2.438  -0.217  10.065  1.00  0.00    -0.203 F 
ATOM     82  F   UNL     1      -1.820  -3.229  11.656  1.00  0.00    -0.200 F 
ATOM     83  C   UNL     1       0.512  -2.972  11.416  1.00  0.00     0.200 A 
ATOM     84  F   UNL     1       2.837  -2.643  11.194  1.00  0.00    -0.200 F 
ATOM     85  F   UNL     1       0.721  -4.143  12.035  1.00  0.00    -0.200 F 
ENDBRANCH  51  75
BRANCH  63  86
ATOM     86  C   UNL     1      -2.908   5.157  13.058  1.00  0.00     0.064 A 
ATOM     87  C   UNL     1      -2.208   5.164  14.273  1.00  0.00     0.173 A 
ATOM     88  C   UNL     1      -4.285   5.435  13.094  1.00  0.00     0.173 A 
ATOM     89  F   UNL     1      -0.892   4.902  14.296  1.00  0.00    -0.203 F 
ATOM     90  C   UNL     1      -2.865   5.405  15.476  1.00  0.00     0.198 A 
ATOM     91  C   UNL     1      -4.930   5.717  14.293  1.00  0.00     0.198 A 
ATOM     92  F   UNL     1      -5.000   5.458  11.959  1.00  0.00    -0.203 F 
ATOM     93  F   UNL     1      -2.185   5.351  16.630  1.00  0.00    -0.200 F 
ATOM     94  C   UNL     1      -4.222   5.691  15.484  1.00  0.00     0.200 A 
ATOM     95  F   UNL     1      -6.235   6.021  14.295  1.00  0.00    -0.200 F 
ATOM     96  F   UNL     1      -4.849   5.939  16.642  1.00  0.00    -0.200 F 
ENDBRANCH  63  86
ENDBRANCH  37  38
ENDBRANCH  30  32
ENDBRANCH  29  30
ENDBRANCH  28  29
ENDBRANCH   1  28
TORSDOF 14
