REMARK SMILES COc1ccc(OCc2nc(C)no2)c(/C=C/C(=O)OCCOC(=O)c2ccc(-c3c4nc(c(-c5c(F)c(F)c(F)c(F)c5F)c5ccc([nH]5)c(-c5c(F)c(F)c(F)c(F)c5F)c5nc(c(-c6c(F)c(F)c(F)c(F)c6F)c6ccc3[nH]6)C=C5)C=C4)cc2)c1
REMARK SMILES IDX 21 1 20 2 18 3 19 4 17 5 16 6 15 7 3 8 4 9 89 10 5 11 6 12
REMARK SMILES IDX 2 13 1 14 7 15 8 16 9 17 10 18 14 19 11 20 13 21 12 22 22 23
REMARK SMILES IDX 23 24 24 25 25 26 26 27 27 28 88 29 28 30 87 31 29 32 30 33
REMARK SMILES IDX 31 34 81 35 32 36 86 37 80 38 82 39 33 40 85 41 79 42 78 43
REMARK SMILES IDX 34 45 66 46 46 47 65 48 47 49 50 50 64 51 83 52 48 53 49 54
REMARK SMILES IDX 63 56 84 57 51 58 35 59 36 60 44 61 37 62 38 63 42 64 45 65
REMARK SMILES IDX 39 66 40 67 43 68 41 69 67 70 68 71 76 72 69 73 70 74 74 75
REMARK SMILES IDX 77 76 71 77 72 78 75 79 73 80 52 81 53 82 61 83 54 84 55 85
REMARK SMILES IDX 59 86 62 87 56 88 57 89 60 90 58 91
REMARK H PARENT 82 44 50 55
REMARK Flexibility Score: inf
ROOT
ATOM      1  C   UNL     1       8.537   3.683  -2.904  1.00  0.00     0.275 C 
ENDROOT
BRANCH   1   2
ATOM      2  O   UNL     1       7.274   3.025  -3.112  1.00  0.00    -0.459 OA
BRANCH   2   3
ATOM      3  C   UNL     1       6.196   3.810  -2.914  1.00  0.00     0.330 C 
ATOM      4  O   UNL     1       6.189   4.961  -2.510  1.00  0.00    -0.247 OA
BRANCH   3   5
ATOM      5  C   UNL     1       4.965   3.120  -3.327  1.00  0.00     0.094 C 
ATOM      6  C   UNL     1       4.056   2.959  -2.357  1.00  0.00     0.019 C 
BRANCH   6   7
ATOM      7  C   UNL     1       2.647   2.599  -2.533  1.00  0.00     0.020 A 
ATOM      8  C   UNL     1       0.999   0.871  -2.043  1.00  0.00     0.119 A 
ATOM      9  C   UNL     1      -0.004   1.639  -2.609  1.00  0.00     0.050 A 
ATOM     10  C   UNL     1       2.321   1.313  -2.062  1.00  0.00     0.058 A 
ATOM     11  C   UNL     1       0.302   2.916  -3.066  1.00  0.00     0.051 A 
ATOM     12  C   UNL     1       1.605   3.441  -2.970  1.00  0.00     0.127 A 
BRANCH   8  13
ATOM     13  O   UNL     1       0.647  -0.314  -1.457  1.00  0.00    -0.497 OA
ATOM     14  C   UNL     1       0.900  -0.264  -0.049  1.00  0.00     0.278 C 
ENDBRANCH   8  13
BRANCH  12  15
ATOM     15  O   UNL     1       1.586   4.777  -3.261  1.00  0.00    -0.483 OA
BRANCH  15  16
ATOM     16  C   UNL     1       2.706   5.646  -3.138  1.00  0.00     0.329 C 
BRANCH  16  17
ATOM     17  C   UNL     1       3.101   5.913  -1.730  1.00  0.00     0.264 A 
ATOM     18  N   UNL     1       3.119   5.120  -0.680  1.00  0.00    -0.193 NA
ATOM     19  O   UNL     1       3.784   7.082  -1.520  1.00  0.00    -0.336 OA
ATOM     20  C   UNL     1       3.997   5.758   0.150  1.00  0.00     0.169 A 
ATOM     21  N   UNL     1       4.373   6.976  -0.255  1.00  0.00    -0.063 NA
ATOM     22  C   UNL     1       4.626   5.058   1.286  1.00  0.00     0.093 C 
ENDBRANCH  16  17
ENDBRANCH  15  16
ENDBRANCH  12  15
ENDBRANCH   6   7
ENDBRANCH   3   5
ENDBRANCH   2   3
ENDBRANCH   1   2
BRANCH   1  23
ATOM     23  C   UNL     1       9.139   4.095  -4.247  1.00  0.00     0.275 C 
BRANCH  23  24
ATOM     24  O   UNL     1       8.346   5.118  -4.886  1.00  0.00    -0.458 OA
BRANCH  24  25
ATOM     25  C   UNL     1       7.494   4.689  -5.841  1.00  0.00     0.338 C 
ATOM     26  O   UNL     1       7.312   3.539  -6.223  1.00  0.00    -0.246 OA
BRANCH  25  27
ATOM     27  C   UNL     1       6.729   5.823  -6.374  1.00  0.00     0.060 A 
ATOM     28  C   UNL     1       5.612   6.279  -5.676  1.00  0.00     0.016 A 
ATOM     29  C   UNL     1       7.052   6.365  -7.617  1.00  0.00     0.016 A 
ATOM     30  C   UNL     1       4.789   7.257  -6.234  1.00  0.00     0.010 A 
ATOM     31  C   UNL     1       6.265   7.397  -8.143  1.00  0.00     0.010 A 
ATOM     32  C   UNL     1       5.120   7.849  -7.462  1.00  0.00    -0.014 A 
BRANCH  32  33
ATOM     33  C   UNL     1       4.298   8.962  -8.018  1.00  0.00     0.031 A 
ATOM     34  C   UNL     1       3.612   8.823  -9.350  1.00  0.00     0.074 A 
ATOM     35  C   UNL     1       4.196  10.123  -7.338  1.00  0.00     0.049 A 
ATOM     36  N   UNL     1       3.018   9.739 -10.075  1.00  0.00    -0.248 NA
ATOM     37  C   UNL     1       3.594   7.480  -9.950  1.00  0.00     0.031 C 
ATOM     38  C   UNL     1       4.781  10.389  -6.023  1.00  0.00     0.029 A 
ATOM     39  N   UNL     1       3.574  11.304  -7.667  1.00  0.00    -0.354 N 
ATOM     40  C   UNL     1       2.596   9.095 -11.232  1.00  0.00     0.074 A 
ATOM     41  C   UNL     1       2.997   7.709 -11.113  1.00  0.00     0.031 C 
ATOM     42  C   UNL     1       4.485  11.644  -5.654  1.00  0.00     0.029 A 
ATOM     43  C   UNL     1       3.762  12.300  -6.738  1.00  0.00     0.049 A 
ATOM     44  H   UNL     1       3.046  11.426  -8.489  1.00  0.00     0.167 HD
ATOM     45  C   UNL     1       1.937   9.618 -12.294  1.00  0.00     0.037 A 
ATOM     46  C   UNL     1       3.443  13.608  -6.773  1.00  0.00     0.037 A 
ATOM     47  C   UNL     1       1.491  10.985 -12.390  1.00  0.00     0.049 A 
ATOM     48  C   UNL     1       2.767  14.171  -7.992  1.00  0.00     0.074 A 
ATOM     49  C   UNL     1       0.755  11.582 -13.400  1.00  0.00     0.029 A 
ATOM     50  N   UNL     1       1.738  11.966 -11.443  1.00  0.00    -0.354 N 
ATOM     51  N   UNL     1       2.373  13.555  -9.079  1.00  0.00    -0.248 NA
ATOM     52  C   UNL     1       2.513  15.619  -7.999  1.00  0.00     0.031 C 
ATOM     53  C   UNL     1       0.600  12.936 -13.089  1.00  0.00     0.029 A 
ATOM     54  C   UNL     1       1.201  13.173 -11.864  1.00  0.00     0.049 A 
ATOM     55  H   UNL     1       2.222  11.827 -10.598  1.00  0.00     0.167 HD
ATOM     56  C   UNL     1       1.819  14.533  -9.892  1.00  0.00     0.074 A 
ATOM     57  C   UNL     1       1.903  15.782  -9.164  1.00  0.00     0.031 C 
ATOM     58  C   UNL     1       1.295  14.409 -11.135  1.00  0.00     0.037 A 
BRANCH  45  59
ATOM     59  C   UNL     1       1.665   8.726 -13.469  1.00  0.00     0.064 A 
ATOM     60  C   UNL     1       0.651   7.759 -13.447  1.00  0.00     0.173 A 
ATOM     61  C   UNL     1       2.367   8.916 -14.670  1.00  0.00     0.173 A 
ATOM     62  F   UNL     1      -0.044   7.536 -12.321  1.00  0.00    -0.203 F 
ATOM     63  C   UNL     1       0.352   7.011 -14.583  1.00  0.00     0.198 A 
ATOM     64  C   UNL     1       2.052   8.182 -15.810  1.00  0.00     0.198 A 
ATOM     65  F   UNL     1       3.341   9.836 -14.744  1.00  0.00    -0.203 F 
ATOM     66  F   UNL     1      -0.611   6.080 -14.537  1.00  0.00    -0.200 F 
ATOM     67  C   UNL     1       1.045   7.230 -15.765  1.00  0.00     0.200 A 
ATOM     68  F   UNL     1       2.712   8.406 -16.954  1.00  0.00    -0.200 F 
ATOM     69  F   UNL     1       0.741   6.524 -16.863  1.00  0.00    -0.200 F 
ENDBRANCH  45  59
BRANCH  46  70
ATOM     70  C   UNL     1       3.822  14.498  -5.644  1.00  0.00     0.064 A 
ATOM     71  C   UNL     1       2.846  15.094  -4.834  1.00  0.00     0.173 A 
ATOM     72  C   UNL     1       5.167  14.796  -5.373  1.00  0.00     0.173 A 
ATOM     73  F   UNL     1       1.547  14.866  -5.074  1.00  0.00    -0.203 F 
ATOM     74  C   UNL     1       3.200  15.969  -3.809  1.00  0.00     0.198 A 
ATOM     75  C   UNL     1       5.520  15.644  -4.327  1.00  0.00     0.198 A 
ATOM     76  F   UNL     1       6.139  14.257  -6.123  1.00  0.00    -0.203 F 
ATOM     77  F   UNL     1       2.245  16.569  -3.085  1.00  0.00    -0.200 F 
ATOM     78  C   UNL     1       4.536  16.238  -3.552  1.00  0.00     0.200 A 
ATOM     79  F   UNL     1       6.812  15.892  -4.076  1.00  0.00    -0.200 F 
ATOM     80  F   UNL     1       4.875  17.080  -2.567  1.00  0.00    -0.200 F 
ENDBRANCH  46  70
BRANCH  58  81
ATOM     81  C   UNL     1       0.764  15.653 -11.782  1.00  0.00     0.064 A 
ATOM     82  C   UNL     1       1.626  16.642 -12.278  1.00  0.00     0.173 A 
ATOM     83  C   UNL     1      -0.617  15.847 -11.934  1.00  0.00     0.173 A 
ATOM     84  F   UNL     1       2.954  16.511 -12.139  1.00  0.00    -0.203 F 
ATOM     85  C   UNL     1       1.123  17.789 -12.886  1.00  0.00     0.198 A 
ATOM     86  C   UNL     1      -1.116  16.983 -12.566  1.00  0.00     0.198 A 
ATOM     87  F   UNL     1      -1.483  14.929 -11.478  1.00  0.00    -0.203 F 
ATOM     88  F   UNL     1       1.963  18.741 -13.314  1.00  0.00    -0.200 F 
ATOM     89  C   UNL     1      -0.246  17.955 -13.035  1.00  0.00     0.200 A 
ATOM     90  F   UNL     1      -2.438  17.137 -12.718  1.00  0.00    -0.200 F 
ATOM     91  F   UNL     1      -0.728  19.058 -13.625  1.00  0.00    -0.200 F 
ENDBRANCH  58  81
ENDBRANCH  32  33
ENDBRANCH  25  27
ENDBRANCH  24  25
ENDBRANCH  23  24
ENDBRANCH   1  23
TORSDOF 16
