REMARK SMILES Nc1nc(N)nc(N/C=C/C(=O)OCCOC(=O)c2ccc(-c3c4nc(c(-c5c(F)c(F)c(F)c(F)c5F)c5ccc([nH]5)c(-c5c(F)c(F)c(F)c(F)c5F)c5nc(c(-c6c(F)c(F)c(F)c(F)c6F)c6ccc3[nH]6)C=C5)C=C4)cc2)n1
REMARK SMILES IDX 14 1 13 2 11 3 12 4 10 5 9 6 8 7 7 9 2 10 3 11 82 12 4 13
REMARK SMILES IDX 6 14 1 15 5 18 15 21 16 22 17 23 18 24 19 25 20 26 81 27
REMARK SMILES IDX 21 28 80 29 22 30 23 31 24 32 74 33 25 34 79 35 73 36 75 37
REMARK SMILES IDX 26 38 78 39 72 40 71 41 27 43 59 44 39 45 58 46 40 47 43 48
REMARK SMILES IDX 57 49 76 50 41 51 42 52 56 54 77 55 44 56 28 57 29 58 37 59
REMARK SMILES IDX 30 60 31 61 35 62 38 63 32 64 33 65 36 66 34 67 60 68 61 69
REMARK SMILES IDX 69 70 62 71 63 72 67 73 70 74 64 75 65 76 68 77 66 78 45 79
REMARK SMILES IDX 46 80 54 81 47 82 48 83 52 84 55 85 49 86 50 87 53 88 51 89
REMARK H PARENT 8 8 1 16 1 17 5 19 5 20 75 42 43 53
REMARK Flexibility Score: inf
ROOT
ATOM      1  C   UNL     1       4.898   6.039   0.020  1.00  0.00     0.275 C 
ENDROOT
BRANCH   1   2
ATOM      2  O   UNL     1       3.749   5.182   0.154  1.00  0.00    -0.459 OA
BRANCH   2   3
ATOM      3  C   UNL     1       2.715   5.691   0.863  1.00  0.00     0.332 C 
ATOM      4  O   UNL     1       2.695   6.769   1.441  1.00  0.00    -0.247 OA
BRANCH   3   5
ATOM      5  C   UNL     1       1.512   4.841   0.803  1.00  0.00     0.111 C 
ATOM      6  C   UNL     1       1.464   3.585   0.343  1.00  0.00     0.093 C 
BRANCH   6   7
ATOM      7  N   UNL     1       0.337   2.812   0.262  1.00  0.00    -0.330 N 
ATOM      8  H   UNL     1      -0.520   3.288   0.351  1.00  0.00     0.169 HD
BRANCH   7   9
ATOM      9  C   UNL     1       0.255   1.434   0.070  1.00  0.00     0.233 A 
ATOM     10  C   UNL     1      -1.047  -0.384  -0.058  1.00  0.00     0.226 A 
ATOM     11  N   UNL     1      -0.009  -1.198  -0.122  1.00  0.00    -0.177 NA
ATOM     12  N   UNL     1      -0.975   0.933   0.045  1.00  0.00    -0.177 NA
ATOM     13  C   UNL     1       1.170  -0.601  -0.095  1.00  0.00     0.226 A 
ATOM     14  N   UNL     1       1.360   0.703  -0.008  1.00  0.00    -0.177 NA
BRANCH  10  15
ATOM     15  N   UNL     1      -2.291  -0.946  -0.081  1.00  0.00    -0.368 N 
ATOM     16  H   UNL     1      -2.389  -1.923  -0.156  1.00  0.00     0.159 HD
ATOM     17  H   UNL     1      -3.091  -0.374  -0.022  1.00  0.00     0.159 HD
ENDBRANCH  10  15
BRANCH  13  18
ATOM     18  N   UNL     1       2.282  -1.394  -0.131  1.00  0.00    -0.368 N 
ATOM     19  H   UNL     1       2.187  -2.372  -0.196  1.00  0.00     0.159 HD
ATOM     20  H   UNL     1       3.178  -0.988  -0.093  1.00  0.00     0.159 HD
ENDBRANCH  13  18
ENDBRANCH   7   9
ENDBRANCH   6   7
ENDBRANCH   3   5
ENDBRANCH   2   3
ENDBRANCH   1   2
BRANCH   1  21
ATOM     21  C   UNL     1       4.884   6.800  -1.310  1.00  0.00     0.275 C 
BRANCH  21  22
ATOM     22  O   UNL     1       3.834   7.786  -1.357  1.00  0.00    -0.458 OA
BRANCH  22  23
ATOM     23  C   UNL     1       2.663   7.355  -1.884  1.00  0.00     0.338 C 
ATOM     24  O   UNL     1       2.427   6.255  -2.354  1.00  0.00    -0.246 OA
BRANCH  23  25
ATOM     25  C   UNL     1       1.619   8.379  -1.697  1.00  0.00     0.060 A 
ATOM     26  C   UNL     1       0.406   7.975  -1.127  1.00  0.00     0.016 A 
ATOM     27  C   UNL     1       1.792   9.696  -2.128  1.00  0.00     0.016 A 
ATOM     28  C   UNL     1      -0.636   8.887  -0.981  1.00  0.00     0.010 A 
ATOM     29  C   UNL     1       0.741  10.609  -1.991  1.00  0.00     0.010 A 
ATOM     30  C   UNL     1      -0.481  10.207  -1.424  1.00  0.00    -0.014 A 
BRANCH  30  31
ATOM     31  C   UNL     1      -1.625  11.146  -1.335  1.00  0.00     0.031 A 
ATOM     32  C   UNL     1      -2.446  11.443  -2.556  1.00  0.00     0.074 A 
ATOM     33  C   UNL     1      -1.941  11.707  -0.154  1.00  0.00     0.049 A 
ATOM     34  N   UNL     1      -3.467  12.251  -2.692  1.00  0.00    -0.248 NA
ATOM     35  C   UNL     1      -2.071  10.733  -3.788  1.00  0.00     0.031 C 
ATOM     36  C   UNL     1      -1.239  11.468   1.106  1.00  0.00     0.029 A 
ATOM     37  N   UNL     1      -2.936  12.592   0.177  1.00  0.00    -0.354 N 
ATOM     38  C   UNL     1      -3.851  12.154  -4.022  1.00  0.00     0.074 A 
ATOM     39  C   UNL     1      -2.942  11.224  -4.659  1.00  0.00     0.031 C 
ATOM     40  C   UNL     1      -1.823  12.193   2.075  1.00  0.00     0.029 A 
ATOM     41  C   UNL     1      -2.918  12.969   1.497  1.00  0.00     0.049 A 
ATOM     42  H   UNL     1      -3.599  12.925  -0.470  1.00  0.00     0.167 HD
ATOM     43  C   UNL     1      -4.874  12.781  -4.651  1.00  0.00     0.037 A 
ATOM     44  C   UNL     1      -3.686  13.857   2.158  1.00  0.00     0.037 A 
ATOM     45  C   UNL     1      -5.781  13.700  -4.015  1.00  0.00     0.049 A 
ATOM     46  C   UNL     1      -4.781  14.579   1.420  1.00  0.00     0.074 A 
ATOM     47  C   UNL     1      -6.858  14.371  -4.567  1.00  0.00     0.029 A 
ATOM     48  N   UNL     1      -5.715  14.078  -2.683  1.00  0.00    -0.354 N 
ATOM     49  N   UNL     1      -5.148  14.468   0.167  1.00  0.00    -0.248 NA
ATOM     50  C   UNL     1      -5.569  15.552   2.190  1.00  0.00     0.031 C 
ATOM     51  C   UNL     1      -7.420  15.187  -3.579  1.00  0.00     0.029 A 
ATOM     52  C   UNL     1      -6.719  14.991  -2.400  1.00  0.00     0.049 A 
ATOM     53  H   UNL     1      -5.053  13.748  -2.034  1.00  0.00     0.167 HD
ATOM     54  C   UNL     1      -6.220  15.335   0.004  1.00  0.00     0.074 A 
ATOM     55  C   UNL     1      -6.455  15.957   1.290  1.00  0.00     0.031 C 
ATOM     56  C   UNL     1      -6.944  15.594  -1.112  1.00  0.00     0.037 A 
BRANCH  43  57
ATOM     57  C   UNL     1      -5.057  12.510  -6.114  1.00  0.00     0.064 A 
ATOM     58  C   UNL     1      -5.587  11.297  -6.577  1.00  0.00     0.173 A 
ATOM     59  C   UNL     1      -4.745  13.497  -7.062  1.00  0.00     0.173 A 
ATOM     60  F   UNL     1      -5.889  10.319  -5.711  1.00  0.00    -0.203 F 
ATOM     61  C   UNL     1      -5.782  11.075  -7.938  1.00  0.00     0.198 A 
ATOM     62  C   UNL     1      -4.963  13.280  -8.420  1.00  0.00     0.198 A 
ATOM     63  F   UNL     1      -4.240  14.676  -6.669  1.00  0.00    -0.203 F 
ATOM     64  F   UNL     1      -6.258   9.896  -8.361  1.00  0.00    -0.200 F 
ATOM     65  C   UNL     1      -5.477  12.069  -8.857  1.00  0.00     0.200 A 
ATOM     66  F   UNL     1      -4.678  14.245  -9.305  1.00  0.00    -0.200 F 
ATOM     67  F   UNL     1      -5.674  11.856 -10.165  1.00  0.00    -0.200 F 
ENDBRANCH  43  57
BRANCH  44  68
ATOM     68  C   UNL     1      -3.438  14.123   3.598  1.00  0.00     0.064 A 
ATOM     69  C   UNL     1      -4.357  13.720   4.576  1.00  0.00     0.173 A 
ATOM     70  C   UNL     1      -2.286  14.801   4.022  1.00  0.00     0.173 A 
ATOM     71  F   UNL     1      -5.487  13.093   4.216  1.00  0.00    -0.203 F 
ATOM     72  C   UNL     1      -4.141  14.001   5.924  1.00  0.00     0.198 A 
ATOM     73  C   UNL     1      -2.058  15.058   5.372  1.00  0.00     0.198 A 
ATOM     74  F   UNL     1      -1.379  15.211   3.123  1.00  0.00    -0.203 F 
ATOM     75  F   UNL     1      -5.057  13.647   6.835  1.00  0.00    -0.200 F 
ATOM     76  C   UNL     1      -2.989  14.665   6.321  1.00  0.00     0.200 A 
ATOM     77  F   UNL     1      -0.941  15.692   5.752  1.00  0.00    -0.200 F 
ATOM     78  F   UNL     1      -2.782  14.934   7.617  1.00  0.00    -0.200 F 
ENDBRANCH  44  68
BRANCH  56  79
ATOM     79  C   UNL     1      -8.078  16.568  -0.985  1.00  0.00     0.064 A 
ATOM     80  C   UNL     1      -7.852  17.946  -0.864  1.00  0.00     0.173 A 
ATOM     81  C   UNL     1      -9.407  16.119  -1.024  1.00  0.00     0.173 A 
ATOM     82  F   UNL     1      -6.598  18.422  -0.807  1.00  0.00    -0.203 F 
ATOM     83  C   UNL     1      -8.915  18.839  -0.766  1.00  0.00     0.198 A 
ATOM     84  C   UNL     1     -10.468  17.017  -0.951  1.00  0.00     0.198 A 
ATOM     85  F   UNL     1      -9.676  14.810  -1.144  1.00  0.00    -0.203 F 
ATOM     86  F   UNL     1      -8.676  20.149  -0.610  1.00  0.00    -0.200 F 
ATOM     87  C   UNL     1     -10.222  18.375  -0.816  1.00  0.00     0.200 A 
ATOM     88  F   UNL     1     -11.729  16.568  -1.010  1.00  0.00    -0.200 F 
ATOM     89  F   UNL     1     -11.244  19.237  -0.727  1.00  0.00    -0.200 F 
ENDBRANCH  56  79
ENDBRANCH  30  31
ENDBRANCH  23  25
ENDBRANCH  22  23
ENDBRANCH  21  22
ENDBRANCH   1  21
TORSDOF 15
