REMARK SMILES O=C(CC1CCN(S(=O)(=O)c2cc[nH]c2)CC1)OCCOC(=O)c1ccc(-c2c3nc(c(-c4c(F)c(F)c(F)c(F)c4F)c4ccc([nH]4)c(-c4c(F)c(F)c(F)c(F)c4F)c4nc(c(-c5c(F)c(F)c(F)c(F)c5F)c5ccc2[nH]5)C=C4)C=C3)cc1
REMARK SMILES IDX 19 1 18 2 2 3 1 4 3 5 4 6 5 7 17 8 6 9 16 10 7 11 8 12 9 13
REMARK SMILES IDX 10 14 11 15 12 16 15 17 13 18 14 19 20 21 21 22 22 23 23 24
REMARK SMILES IDX 24 25 25 26 86 27 26 28 85 29 27 30 28 31 29 32 79 33 30 34
REMARK SMILES IDX 84 35 78 36 80 37 31 38 83 39 77 40 76 41 32 43 64 44 44 45
REMARK SMILES IDX 63 46 45 47 48 48 62 49 81 50 46 51 47 52 61 54 82 55 49 56
REMARK SMILES IDX 33 57 34 58 42 59 35 60 36 61 40 62 43 63 37 64 38 65 41 66
REMARK SMILES IDX 39 67 65 68 66 69 74 70 67 71 68 72 72 73 75 74 69 75 70 76
REMARK SMILES IDX 73 77 71 78 50 79 51 80 59 81 52 82 53 83 57 84 60 85 54 86
REMARK SMILES IDX 55 87 58 88 56 89
REMARK H PARENT 14 20 80 42 48 53
REMARK Flexibility Score: inf
ROOT
ATOM      1  C   UNL     1       4.533   1.140  -0.968  1.00  0.00     0.274 C 
ENDROOT
BRANCH   1   2
ATOM      2  O   UNL     1       3.134   0.864  -1.180  1.00  0.00    -0.462 OA
BRANCH   2   3
ATOM      3  C   UNL     1       2.453  -0.243  -0.817  1.00  0.00     0.306 C 
ATOM      4  O   UNL     1       1.292  -0.405  -1.193  1.00  0.00    -0.252 OA
BRANCH   3   5
ATOM      5  C   UNL     1       3.108  -1.297   0.047  1.00  0.00     0.126 C 
BRANCH   5   6
ATOM      6  C   UNL     1       4.032  -2.279  -0.675  1.00  0.00     0.003 C 
ATOM      7  C   UNL     1       3.354  -2.995  -1.841  1.00  0.00     0.021 C 
ATOM      8  C   UNL     1       4.574  -3.322   0.312  1.00  0.00     0.021 C 
ATOM      9  C   UNL     1       2.264  -3.948  -1.366  1.00  0.00     0.103 C 
ATOM     10  C   UNL     1       3.502  -4.307   0.764  1.00  0.00     0.103 C 
ATOM     11  N   UNL     1       2.833  -4.938  -0.405  1.00  0.00    -0.198 NA
BRANCH  11  12
ATOM     12  S   UNL     1       1.661  -6.119   0.031  1.00  0.00     0.244 S 
ATOM     13  O   UNL     1       0.756  -5.518   0.988  1.00  0.00    -0.207 OA
ATOM     14  O   UNL     1       1.187  -6.759  -1.177  1.00  0.00    -0.207 OA
BRANCH  12  15
ATOM     15  C   UNL     1       2.463  -7.370   0.914  1.00  0.00     0.100 A 
ATOM     16  C   UNL     1       2.846  -7.306   2.280  1.00  0.00     0.041 A 
ATOM     17  C   UNL     1       2.877  -8.594   0.427  1.00  0.00     0.104 A 
ATOM     18  C   UNL     1       3.518  -8.472   2.570  1.00  0.00     0.083 A 
ATOM     19  N   UNL     1       3.510  -9.258   1.444  1.00  0.00    -0.366 N 
ATOM     20  H   UNL     1       3.899 -10.160   1.379  1.00  0.00     0.165 HD
ENDBRANCH  12  15
ENDBRANCH  11  12
ENDBRANCH   5   6
ENDBRANCH   3   5
ENDBRANCH   2   3
ENDBRANCH   1   2
BRANCH   1  21
ATOM     21  C   UNL     1       4.811   1.953   0.285  1.00  0.00     0.275 C 
BRANCH  21  22
ATOM     22  O   UNL     1       4.528   1.193   1.450  1.00  0.00    -0.458 OA
BRANCH  22  23
ATOM     23  C   UNL     1       3.255   1.310   1.898  1.00  0.00     0.338 C 
ATOM     24  O   UNL     1       2.318   1.836   1.343  1.00  0.00    -0.246 OA
BRANCH  23  25
ATOM     25  C   UNL     1       3.207   0.805   3.271  1.00  0.00     0.060 A 
ATOM     26  C   UNL     1       1.953   0.807   3.884  1.00  0.00     0.016 A 
ATOM     27  C   UNL     1       4.406   0.721   3.991  1.00  0.00     0.016 A 
ATOM     28  C   UNL     1       1.908   0.974   5.245  1.00  0.00     0.010 A 
ATOM     29  C   UNL     1       4.365   0.962   5.338  1.00  0.00     0.010 A 
ATOM     30  C   UNL     1       3.115   1.134   5.936  1.00  0.00    -0.014 A 
BRANCH  30  31
ATOM     31  C   UNL     1       3.046   1.302   7.380  1.00  0.00     0.031 A 
ATOM     32  C   UNL     1       3.005  -0.106   8.019  1.00  0.00     0.074 A 
ATOM     33  C   UNL     1       2.978   2.609   7.800  1.00  0.00     0.049 A 
ATOM     34  N   UNL     1       2.469  -0.488   9.130  1.00  0.00    -0.248 NA
ATOM     35  C   UNL     1       3.574  -1.288   7.293  1.00  0.00     0.031 C 
ATOM     36  C   UNL     1       3.107   3.810   6.927  1.00  0.00     0.029 A 
ATOM     37  N   UNL     1       2.780   3.214   9.023  1.00  0.00    -0.354 N 
ATOM     38  C   UNL     1       2.845  -1.832   9.354  1.00  0.00     0.074 A 
ATOM     39  C   UNL     1       3.395  -2.311   8.130  1.00  0.00     0.031 C 
ATOM     40  C   UNL     1       2.880   4.954   7.617  1.00  0.00     0.029 A 
ATOM     41  C   UNL     1       2.604   4.633   9.004  1.00  0.00     0.049 A 
ATOM     42  H   UNL     1       2.761   2.698   9.861  1.00  0.00     0.167 HD
ATOM     43  C   UNL     1       2.844  -2.375  10.606  1.00  0.00     0.037 A 
ATOM     44  C   UNL     1       2.213   5.458  10.034  1.00  0.00     0.037 A 
ATOM     45  C   UNL     1       2.317  -1.415  11.517  1.00  0.00     0.049 A 
ATOM     46  C   UNL     1       2.238   4.572  11.200  1.00  0.00     0.074 A 
ATOM     47  C   UNL     1       1.054  -0.903  11.656  1.00  0.00     0.029 A 
ATOM     48  N   UNL     1       3.231  -0.555  12.078  1.00  0.00    -0.354 N 
ATOM     49  N   UNL     1       3.325   4.140  11.765  1.00  0.00    -0.248 NA
ATOM     50  C   UNL     1       0.968   4.029  11.693  1.00  0.00     0.031 C 
ATOM     51  C   UNL     1       1.304   0.474  11.810  1.00  0.00     0.029 A 
ATOM     52  C   UNL     1       2.658   0.687  12.100  1.00  0.00     0.049 A 
ATOM     53  H   UNL     1       4.130  -0.789  12.403  1.00  0.00     0.167 HD
ATOM     54  C   UNL     1       2.870   3.022  12.415  1.00  0.00     0.074 A 
ATOM     55  C   UNL     1       1.447   3.204  12.618  1.00  0.00     0.031 C 
ATOM     56  C   UNL     1       3.511   1.841  12.219  1.00  0.00     0.037 A 
BRANCH  43  57
ATOM     57  C   UNL     1       3.544  -3.559  11.213  1.00  0.00     0.064 A 
ATOM     58  C   UNL     1       3.187  -3.901  12.543  1.00  0.00     0.173 A 
ATOM     59  C   UNL     1       4.773  -4.048  10.756  1.00  0.00     0.173 A 
ATOM     60  F   UNL     1       1.995  -3.545  13.049  1.00  0.00    -0.203 F 
ATOM     61  C   UNL     1       4.091  -4.497  13.417  1.00  0.00     0.198 A 
ATOM     62  C   UNL     1       5.652  -4.706  11.622  1.00  0.00     0.198 A 
ATOM     63  F   UNL     1       5.199  -3.812   9.510  1.00  0.00    -0.203 F 
ATOM     64  F   UNL     1       3.783  -4.616  14.716  1.00  0.00    -0.200 F 
ATOM     65  C   UNL     1       5.336  -4.876  12.960  1.00  0.00     0.200 A 
ATOM     66  F   UNL     1       6.854  -5.094  11.172  1.00  0.00    -0.200 F 
ATOM     67  F   UNL     1       6.243  -5.369  13.813  1.00  0.00    -0.200 F 
ENDBRANCH  43  57
BRANCH  44  68
ATOM     68  C   UNL     1       1.723   6.870  10.315  1.00  0.00     0.064 A 
ATOM     69  C   UNL     1       1.684   7.940   9.416  1.00  0.00     0.173 A 
ATOM     70  C   UNL     1       1.134   7.169  11.586  1.00  0.00     0.173 A 
ATOM     71  F   UNL     1       2.311   7.864   8.237  1.00  0.00    -0.203 F 
ATOM     72  C   UNL     1       0.998   9.142   9.717  1.00  0.00     0.198 A 
ATOM     73  C   UNL     1       0.397   8.321  11.857  1.00  0.00     0.198 A 
ATOM     74  F   UNL     1       1.247   6.340  12.632  1.00  0.00    -0.203 F 
ATOM     75  F   UNL     1       0.987  10.145   8.828  1.00  0.00    -0.200 F 
ATOM     76  C   UNL     1       0.311   9.307  10.911  1.00  0.00     0.200 A 
ATOM     77  F   UNL     1      -0.239   8.442  13.033  1.00  0.00    -0.200 F 
ATOM     78  F   UNL     1      -0.411  10.409  11.154  1.00  0.00    -0.200 F 
ENDBRANCH  44  68
BRANCH  56  79
ATOM     79  C   UNL     1       4.966   1.964  11.787  1.00  0.00     0.064 A 
ATOM     80  C   UNL     1       5.869   2.682  12.589  1.00  0.00     0.173 A 
ATOM     81  C   UNL     1       5.482   1.500  10.564  1.00  0.00     0.173 A 
ATOM     82  F   UNL     1       5.481   3.125  13.795  1.00  0.00    -0.203 F 
ATOM     83  C   UNL     1       7.179   2.951  12.178  1.00  0.00     0.198 A 
ATOM     84  C   UNL     1       6.790   1.772  10.144  1.00  0.00     0.198 A 
ATOM     85  F   UNL     1       4.739   0.752   9.752  1.00  0.00    -0.203 F 
ATOM     86  F   UNL     1       8.002   3.638  12.981  1.00  0.00    -0.200 F 
ATOM     87  C   UNL     1       7.637   2.504  10.951  1.00  0.00     0.200 A 
ATOM     88  F   UNL     1       7.226   1.310   8.960  1.00  0.00    -0.200 F 
ATOM     89  F   UNL     1       8.896   2.753  10.561  1.00  0.00    -0.200 F 
ENDBRANCH  56  79
ENDBRANCH  30  31
ENDBRANCH  23  25
ENDBRANCH  22  23
ENDBRANCH  21  22
ENDBRANCH   1  21
TORSDOF 14
