REMARK SMILES O=C(OCCOC(=O)c1ccnc(-n2cnnn2)c1)c1ccc(-c2c3nc(c(-c4c(F)c(F)c(F)c(F)c4F)c4ccc([nH]4)c(-c4c(F)c(F)c(F)c(F)c4F)c4nc(c(-c5c(F)c(F)c(F)c(F)c5F)c5ccc2[nH]5)C=C4)C=C3)cc1
REMARK SMILES IDX 4 1 3 2 2 3 1 4 20 5 21 6 82 7 22 8 81 9 23 10 24 11 25 12
REMARK SMILES IDX 75 13 26 14 80 15 74 16 76 17 27 18 79 19 73 20 72 21 28 23
REMARK SMILES IDX 60 24 40 25 59 26 41 27 44 28 58 29 77 30 42 31 43 32 57 34
REMARK SMILES IDX 78 35 45 36 29 37 30 38 38 39 31 40 32 41 36 42 39 43 33 44
REMARK SMILES IDX 34 45 37 46 35 47 61 48 62 49 70 50 63 51 64 52 68 53 71 54
REMARK SMILES IDX 65 55 66 56 69 57 67 58 46 59 47 60 55 61 48 62 49 63 53 64
REMARK SMILES IDX 56 65 50 66 51 67 54 68 52 69 5 70 6 71 7 72 8 73 9 74 10 75
REMARK SMILES IDX 19 76 11 77 13 78 12 79 14 80 15 81 18 82 16 83 17 84
REMARK H PARENT 76 22 44 33
REMARK Flexibility Score: inf
ROOT
ATOM      1  C   UNL     1       4.793   0.077   0.972  1.00  0.00     0.275 C 
ENDROOT
BRANCH   1   2
ATOM      2  O   UNL     1       3.729   1.044   1.081  1.00  0.00    -0.458 OA
BRANCH   2   3
ATOM      3  C   UNL     1       2.575   0.819   0.424  1.00  0.00     0.338 C 
ATOM      4  O   UNL     1       1.675   0.087   0.798  1.00  0.00    -0.246 OA
BRANCH   3   5
ATOM      5  C   UNL     1       2.459   1.687  -0.767  1.00  0.00     0.060 A 
ATOM      6  C   UNL     1       3.578   2.131  -1.478  1.00  0.00     0.016 A 
ATOM      7  C   UNL     1       1.172   2.022  -1.200  1.00  0.00     0.016 A 
ATOM      8  C   UNL     1       3.408   2.934  -2.599  1.00  0.00     0.010 A 
ATOM      9  C   UNL     1       1.006   2.824  -2.322  1.00  0.00     0.010 A 
ATOM     10  C   UNL     1       2.120   3.295  -3.018  1.00  0.00    -0.014 A 
BRANCH  10  11
ATOM     11  C   UNL     1       1.980   4.099  -4.233  1.00  0.00     0.031 A 
ATOM     12  C   UNL     1       2.646   3.561  -5.455  1.00  0.00     0.074 A 
ATOM     13  C   UNL     1       1.216   5.205  -4.342  1.00  0.00     0.049 A 
ATOM     14  N   UNL     1       3.680   4.037  -6.069  1.00  0.00    -0.248 NA
ATOM     15  C   UNL     1       2.151   2.300  -6.020  1.00  0.00     0.031 C 
ATOM     16  C   UNL     1       0.255   5.753  -3.384  1.00  0.00     0.029 A 
ATOM     17  N   UNL     1       1.095   6.045  -5.412  1.00  0.00    -0.354 N 
ATOM     18  C   UNL     1       3.865   3.245  -7.202  1.00  0.00     0.074 A 
ATOM     19  C   UNL     1       2.987   2.114  -7.043  1.00  0.00     0.031 C 
ATOM     20  C   UNL     1      -0.495   6.700  -3.991  1.00  0.00     0.029 A 
ATOM     21  C   UNL     1       0.043   6.946  -5.317  1.00  0.00     0.049 A 
ATOM     22  H   UNL     1       1.703   6.015  -6.186  1.00  0.00     0.167 HD
ATOM     23  C   UNL     1       4.576   3.697  -8.276  1.00  0.00     0.037 A 
ATOM     24  C   UNL     1      -0.364   7.828  -6.261  1.00  0.00     0.037 A 
ATOM     25  C   UNL     1       5.391   4.832  -7.919  1.00  0.00     0.049 A 
ATOM     26  C   UNL     1       0.770   8.052  -7.187  1.00  0.00     0.074 A 
ATOM     27  C   UNL     1       6.386   5.063  -6.988  1.00  0.00     0.029 A 
ATOM     28  N   UNL     1       4.992   6.078  -8.335  1.00  0.00    -0.354 N 
ATOM     29  N   UNL     1       1.856   8.697  -6.867  1.00  0.00    -0.248 NA
ATOM     30  C   UNL     1       0.869   7.210  -8.368  1.00  0.00     0.031 C 
ATOM     31  C   UNL     1       6.146   6.390  -6.519  1.00  0.00     0.029 A 
ATOM     32  C   UNL     1       5.071   6.903  -7.246  1.00  0.00     0.049 A 
ATOM     33  H   UNL     1       4.704   6.330  -9.242  1.00  0.00     0.167 HD
ATOM     34  C   UNL     1       2.870   8.007  -7.508  1.00  0.00     0.074 A 
ATOM     35  C   UNL     1       2.196   7.182  -8.507  1.00  0.00     0.031 C 
ATOM     36  C   UNL     1       4.127   7.960  -6.980  1.00  0.00     0.037 A 
BRANCH  23  37
ATOM     37  C   UNL     1       4.279   3.364  -9.725  1.00  0.00     0.064 A 
ATOM     38  C   UNL     1       5.144   3.848 -10.731  1.00  0.00     0.173 A 
ATOM     39  C   UNL     1       3.036   2.878 -10.184  1.00  0.00     0.173 A 
ATOM     40  F   UNL     1       6.354   4.337 -10.416  1.00  0.00    -0.203 F 
ATOM     41  C   UNL     1       4.749   3.944 -12.068  1.00  0.00     0.198 A 
ATOM     42  C   UNL     1       2.667   2.925 -11.529  1.00  0.00     0.198 A 
ATOM     43  F   UNL     1       2.086   2.448  -9.348  1.00  0.00    -0.203 F 
ATOM     44  F   UNL     1       5.550   4.550 -12.956  1.00  0.00    -0.200 F 
ATOM     45  C   UNL     1       3.505   3.493 -12.464  1.00  0.00     0.200 A 
ATOM     46  F   UNL     1       1.451   2.493 -11.893  1.00  0.00    -0.200 F 
ATOM     47  F   UNL     1       3.094   3.651 -13.729  1.00  0.00    -0.200 F 
ENDBRANCH  23  37
BRANCH  24  48
ATOM     48  C   UNL     1      -1.719   8.347  -6.547  1.00  0.00     0.064 A 
ATOM     49  C   UNL     1      -1.904   9.506  -7.319  1.00  0.00     0.173 A 
ATOM     50  C   UNL     1      -2.858   7.551  -6.323  1.00  0.00     0.173 A 
ATOM     51  F   UNL     1      -0.862  10.300  -7.606  1.00  0.00    -0.203 F 
ATOM     52  C   UNL     1      -3.147   9.827  -7.870  1.00  0.00     0.198 A 
ATOM     53  C   UNL     1      -4.100   7.877  -6.870  1.00  0.00     0.198 A 
ATOM     54  F   UNL     1      -2.764   6.394  -5.652  1.00  0.00    -0.203 F 
ATOM     55  F   UNL     1      -3.269  10.903  -8.661  1.00  0.00    -0.200 F 
ATOM     56  C   UNL     1      -4.240   9.004  -7.658  1.00  0.00     0.200 A 
ATOM     57  F   UNL     1      -5.143   7.056  -6.684  1.00  0.00    -0.200 F 
ATOM     58  F   UNL     1      -5.414   9.274  -8.245  1.00  0.00    -0.200 F 
ENDBRANCH  24  48
BRANCH  36  59
ATOM     59  C   UNL     1       4.469   8.922  -5.878  1.00  0.00     0.064 A 
ATOM     60  C   UNL     1       3.803   8.988  -4.642  1.00  0.00     0.173 A 
ATOM     61  C   UNL     1       5.604   9.730  -6.041  1.00  0.00     0.173 A 
ATOM     62  F   UNL     1       2.779   8.172  -4.360  1.00  0.00    -0.203 F 
ATOM     63  C   UNL     1       4.222   9.866  -3.643  1.00  0.00     0.198 A 
ATOM     64  C   UNL     1       6.045  10.573  -5.026  1.00  0.00     0.198 A 
ATOM     65  F   UNL     1       6.316   9.670  -7.178  1.00  0.00    -0.203 F 
ATOM     66  F   UNL     1       3.556   9.927  -2.480  1.00  0.00    -0.200 F 
ATOM     67  C   UNL     1       5.346  10.652  -3.833  1.00  0.00     0.200 A 
ATOM     68  F   UNL     1       7.164  11.291  -5.196  1.00  0.00    -0.200 F 
ATOM     69  F   UNL     1       5.772  11.466  -2.858  1.00  0.00    -0.200 F 
ENDBRANCH  36  59
ENDBRANCH  10  11
ENDBRANCH   3   5
ENDBRANCH   2   3
ENDBRANCH   1   2
BRANCH   1  70
ATOM     70  C   UNL     1       4.430  -1.349   0.553  1.00  0.00     0.275 C 
BRANCH  70  71
ATOM     71  O   UNL     1       3.921  -1.367  -0.795  1.00  0.00    -0.458 OA
BRANCH  71  72
ATOM     72  C   UNL     1       2.812  -2.127  -0.978  1.00  0.00     0.338 C 
ATOM     73  O   UNL     1       2.219  -2.804  -0.166  1.00  0.00    -0.246 OA
BRANCH  72  74
ATOM     74  C   UNL     1       2.423  -2.067  -2.394  1.00  0.00     0.065 A 
ATOM     75  C   UNL     1       3.179  -2.800  -3.303  1.00  0.00     0.036 A 
ATOM     76  C   UNL     1       1.244  -1.423  -2.783  1.00  0.00     0.065 A 
ATOM     77  C   UNL     1       2.699  -2.900  -4.590  1.00  0.00     0.114 A 
ATOM     78  C   UNL     1       0.837  -1.596  -4.103  1.00  0.00     0.157 A 
ATOM     79  N   UNL     1       1.545  -2.335  -4.997  1.00  0.00    -0.237 NA
BRANCH  78  80
ATOM     80  N   UNL     1      -0.362  -1.002  -4.564  1.00  0.00    -0.182 N 
ATOM     81  C   UNL     1      -0.888   0.221  -4.248  1.00  0.00     0.254 A 
ATOM     82  N   UNL     1      -1.143  -1.558  -5.516  1.00  0.00    -0.039 NA
ATOM     83  N   UNL     1      -2.001   0.406  -4.918  1.00  0.00    -0.117 NA
ATOM     84  N   UNL     1      -2.163  -0.724  -5.678  1.00  0.00    -0.024 NA
ENDBRANCH  78  80
ENDBRANCH  72  74
ENDBRANCH  71  72
ENDBRANCH  70  71
ENDBRANCH   1  70
TORSDOF 12
