REMARK SMILES Cn1ccnc1SCC[C@@H]1CCC[C@]1([NH3+])C(=O)OCCOC(=O)c1ccc(-c2c3nc(c(-c4c(F)c(F)c(F)c(F)c4F)c4ccc([nH]4)c(-c4c(F)c(F)c(F)c(F)c4F)c4nc(c(-c5c(F)c(F)c(F)c(F)c5F)c5ccc2[nH]5)C=C4)C=C3)cc1
REMARK SMILES IDX 19 1 18 2 16 3 17 4 14 5 10 6 11 7 12 8 13 9 9 10 8 11 7 12
REMARK SMILES IDX 6 13 1 14 2 15 3 16 4 17 5 18 15 19 20 23 21 24 22 25 23 26
REMARK SMILES IDX 24 27 25 28 86 29 26 30 85 31 27 32 28 33 29 34 79 35 30 36
REMARK SMILES IDX 84 37 78 38 80 39 31 40 83 41 77 42 76 43 32 45 64 46 44 47
REMARK SMILES IDX 63 48 45 49 48 50 62 51 81 52 46 53 47 54 61 56 82 57 49 58
REMARK SMILES IDX 33 59 34 60 42 61 35 62 36 63 40 64 43 65 37 66 38 67 41 68
REMARK SMILES IDX 39 69 65 70 66 71 74 72 67 73 68 74 72 75 75 76 69 77 70 78
REMARK SMILES IDX 73 79 71 80 50 81 51 82 59 83 52 84 53 85 57 86 60 87 54 88
REMARK SMILES IDX 55 89 58 90 56 91
REMARK H PARENT 15 20 15 21 15 22 80 44 48 55
REMARK Flexibility Score: inf
ROOT
ATOM      1  C   UNL     1       6.625   0.510   1.829  1.00  0.00     0.274 C 
ENDROOT
BRANCH   1   2
ATOM      2  O   UNL     1       5.195   0.552   1.630  1.00  0.00    -0.457 OA
BRANCH   2   3
ATOM      3  C   UNL     1       4.637  -0.571   1.111  1.00  0.00     0.368 C 
ATOM      4  O   UNL     1       5.262  -1.604   0.879  1.00  0.00    -0.245 OA
BRANCH   3   5
ATOM      5  C   UNL     1       3.151  -0.398   0.669  1.00  0.00     0.195 C 
ATOM      6  C   UNL     1       2.313   0.780   1.201  1.00  0.00     0.063 C 
ATOM      7  C   UNL     1       2.081   0.411   2.661  1.00  0.00     0.011 C 
ATOM      8  C   UNL     1       1.712  -1.065   2.566  1.00  0.00     0.008 C 
ATOM      9  C   UNL     1       2.342  -1.585   1.263  1.00  0.00     0.081 C 
BRANCH   6  10
ATOM     10  C   UNL     1       2.710   2.235   0.970  1.00  0.00     0.022 C 
BRANCH  10  11
ATOM     11  C   UNL     1       2.211   2.837  -0.353  1.00  0.00     0.079 C 
BRANCH  11  12
ATOM     12  S   UNL     1       0.431   3.209  -0.532  1.00  0.00    -0.088 SA
BRANCH  12  13
ATOM     13  C   UNL     1      -0.399   1.691  -0.468  1.00  0.00     0.167 A 
ATOM     14  C   UNL     1       0.475   0.621  -2.600  1.00  0.00     0.152 C 
ATOM     15  N   UNL     1      -0.295   0.676  -1.386  1.00  0.00    -0.329 N 
ATOM     16  C   UNL     1      -1.104  -0.349  -0.955  1.00  0.00     0.108 A 
ATOM     17  C   UNL     1      -1.692   0.115   0.196  1.00  0.00     0.132 A 
ATOM     18  N   UNL     1      -1.249   1.378   0.489  1.00  0.00    -0.231 NA
ENDBRANCH  12  13
ENDBRANCH  11  12
ENDBRANCH  10  11
ENDBRANCH   6  10
BRANCH   5  19
ATOM     19  N   UNL     1       3.133  -0.474  -0.815  1.00  0.00    -0.343 N 
ATOM     20  H   UNL     1       2.176  -0.365  -1.150  1.00  0.00     0.345 HD
ATOM     21  H   UNL     1       3.498  -1.378  -1.114  1.00  0.00     0.345 HD
ATOM     22  H   UNL     1       3.715   0.271  -1.200  1.00  0.00     0.345 HD
ENDBRANCH   5  19
ENDBRANCH   3   5
ENDBRANCH   2   3
ENDBRANCH   1   2
BRANCH   1  23
ATOM     23  C   UNL     1       6.979   0.301   3.297  1.00  0.00     0.275 C 
BRANCH  23  24
ATOM     24  O   UNL     1       6.359  -0.904   3.773  1.00  0.00    -0.458 OA
BRANCH  24  25
ATOM     25  C   UNL     1       5.606  -0.771   4.885  1.00  0.00     0.338 C 
ATOM     26  O   UNL     1       5.480   0.236   5.572  1.00  0.00    -0.246 OA
BRANCH  25  27
ATOM     27  C   UNL     1       4.872  -2.019   5.175  1.00  0.00     0.060 A 
ATOM     28  C   UNL     1       4.344  -2.799   4.147  1.00  0.00     0.016 A 
ATOM     29  C   UNL     1       4.561  -2.322   6.500  1.00  0.00     0.016 A 
ATOM     30  C   UNL     1       3.385  -3.775   4.435  1.00  0.00     0.010 A 
ATOM     31  C   UNL     1       3.686  -3.373   6.789  1.00  0.00     0.010 A 
ATOM     32  C   UNL     1       3.028  -4.068   5.759  1.00  0.00    -0.014 A 
BRANCH  32  33
ATOM     33  C   UNL     1       1.910  -5.003   6.091  1.00  0.00     0.031 A 
ATOM     34  C   UNL     1       0.803  -4.542   7.012  1.00  0.00     0.074 A 
ATOM     35  C   UNL     1       1.839  -6.250   5.587  1.00  0.00     0.049 A 
ATOM     36  N   UNL     1      -0.059  -5.249   7.699  1.00  0.00    -0.248 NA
ATOM     37  C   UNL     1       0.668  -3.089   7.201  1.00  0.00     0.031 C 
ATOM     38  C   UNL     1       2.756  -6.833   4.609  1.00  0.00     0.029 A 
ATOM     39  N   UNL     1       0.933  -7.256   5.830  1.00  0.00    -0.354 N 
ATOM     40  C   UNL     1      -0.758  -4.338   8.482  1.00  0.00     0.074 A 
ATOM     41  C   UNL     1      -0.245  -3.023   8.159  1.00  0.00     0.031 C 
ATOM     42  C   UNL     1       2.332  -8.065   4.288  1.00  0.00     0.029 A 
ATOM     43  C   UNL     1       1.187  -8.406   5.125  1.00  0.00     0.049 A 
ATOM     44  H   UNL     1       0.175  -7.160   6.450  1.00  0.00     0.167 HD
ATOM     45  C   UNL     1      -1.726  -4.582   9.400  1.00  0.00     0.037 A 
ATOM     46  C   UNL     1       0.604  -9.618   5.183  1.00  0.00     0.037 A 
ATOM     47  C   UNL     1      -2.312  -5.876   9.636  1.00  0.00     0.049 A 
ATOM     48  C   UNL     1      -0.471  -9.876   6.200  1.00  0.00     0.074 A 
ATOM     49  C   UNL     1      -3.292  -6.234  10.546  1.00  0.00     0.029 A 
ATOM     50  N   UNL     1      -1.999  -7.021   8.918  1.00  0.00    -0.354 N 
ATOM     51  N   UNL     1      -1.011  -9.050   7.061  1.00  0.00    -0.248 NA
ATOM     52  C   UNL     1      -0.986 -11.251   6.279  1.00  0.00     0.031 C 
ATOM     53  C   UNL     1      -3.564  -7.598  10.386  1.00  0.00     0.029 A 
ATOM     54  C   UNL     1      -2.775  -8.082   9.356  1.00  0.00     0.049 A 
ATOM     55  H   UNL     1      -1.325  -7.072   8.203  1.00  0.00     0.167 HD
ATOM     56  C   UNL     1      -1.931  -9.800   7.781  1.00  0.00     0.074 A 
ATOM     57  C   UNL     1      -1.890 -11.144   7.243  1.00  0.00     0.031 C 
ATOM     58  C   UNL     1      -2.730  -9.410   8.804  1.00  0.00     0.037 A 
BRANCH  45  59
ATOM     59  C   UNL     1      -2.174  -3.435  10.258  1.00  0.00     0.064 A 
ATOM     60  C   UNL     1      -2.985  -2.403   9.771  1.00  0.00     0.173 A 
ATOM     61  C   UNL     1      -1.791  -3.387  11.609  1.00  0.00     0.173 A 
ATOM     62  F   UNL     1      -3.366  -2.394   8.485  1.00  0.00    -0.203 F 
ATOM     63  C   UNL     1      -3.374  -1.349  10.596  1.00  0.00     0.198 A 
ATOM     64  C   UNL     1      -2.205  -2.348  12.438  1.00  0.00     0.198 A 
ATOM     65  F   UNL     1      -1.020  -4.355  12.129  1.00  0.00    -0.203 F 
ATOM     66  F   UNL     1      -4.111  -0.346  10.097  1.00  0.00    -0.200 F 
ATOM     67  C   UNL     1      -2.989  -1.325  11.928  1.00  0.00     0.200 A 
ATOM     68  F   UNL     1      -1.841  -2.335  13.728  1.00  0.00    -0.200 F 
ATOM     69  F   UNL     1      -3.367  -0.312  12.720  1.00  0.00    -0.200 F 
ENDBRANCH  45  59
BRANCH  46  70
ATOM     70  C   UNL     1       1.062 -10.697   4.271  1.00  0.00     0.064 A 
ATOM     71  C   UNL     1       0.243 -11.135   3.221  1.00  0.00     0.173 A 
ATOM     72  C   UNL     1       2.325 -11.289   4.408  1.00  0.00     0.173 A 
ATOM     73  F   UNL     1      -0.985 -10.618   3.069  1.00  0.00    -0.203 F 
ATOM     74  C   UNL     1       0.675 -12.122   2.338  1.00  0.00     0.198 A 
ATOM     75  C   UNL     1       2.767 -12.255   3.508  1.00  0.00     0.198 A 
ATOM     76  F   UNL     1       3.143 -10.906   5.399  1.00  0.00    -0.203 F 
ATOM     77  F   UNL     1      -0.136 -12.542   1.357  1.00  0.00    -0.200 F 
ATOM     78  C   UNL     1       1.940 -12.673   2.475  1.00  0.00     0.200 A 
ATOM     79  F   UNL     1       3.995 -12.775   3.635  1.00  0.00    -0.200 F 
ATOM     80  F   UNL     1       2.363 -13.609   1.615  1.00  0.00    -0.200 F 
ENDBRANCH  46  70
BRANCH  58  81
ATOM     81  C   UNL     1      -3.652 -10.442   9.379  1.00  0.00     0.064 A 
ATOM     82  C   UNL     1      -3.183 -11.448  10.235  1.00  0.00     0.173 A 
ATOM     83  C   UNL     1      -5.022 -10.413   9.082  1.00  0.00     0.173 A 
ATOM     84  F   UNL     1      -1.877 -11.526  10.533  1.00  0.00    -0.203 F 
ATOM     85  C   UNL     1      -4.051 -12.404  10.756  1.00  0.00     0.198 A 
ATOM     86  C   UNL     1      -5.891 -11.358   9.620  1.00  0.00     0.198 A 
ATOM     87  F   UNL     1      -5.517  -9.468   8.268  1.00  0.00    -0.203 F 
ATOM     88  F   UNL     1      -3.576 -13.383  11.539  1.00  0.00    -0.200 F 
ATOM     89  C   UNL     1      -5.404 -12.355  10.451  1.00  0.00     0.200 A 
ATOM     90  F   UNL     1      -7.198 -11.308   9.329  1.00  0.00    -0.200 F 
ATOM     91  F   UNL     1      -6.237 -13.278  10.951  1.00  0.00    -0.200 F 
ENDBRANCH  58  81
ENDBRANCH  32  33
ENDBRANCH  25  27
ENDBRANCH  24  25
ENDBRANCH  23  24
ENDBRANCH   1  23
TORSDOF 16
