REMARK SMILES C[NH+](C)Cc1noc(C[C@@](C)(C(=O)OCCOC(=O)c2ccc(-c3c4nc(c(-c5c(F)c(F)c(F)c(F)c5F)c5ccc([nH]5)c(-c5c(F)c(F)c(F)c(F)c5F)c5nc(c(-c6c(F)c(F)c(F)c(F)c6F)c6ccc3[nH]6)C=C5)C=C4)cc2)c2ccccc2)n1
REMARK SMILES IDX 15 1 14 2 12 3 13 4 10 5 11 6 9 7 8 8 5 9 6 10 89 11 7 12
REMARK SMILES IDX 4 13 2 14 1 15 3 16 83 18 84 19 88 20 85 21 87 22 86 23
REMARK SMILES IDX 16 24 17 25 18 26 19 27 20 28 21 29 82 30 22 31 81 32 23 33
REMARK SMILES IDX 24 34 25 35 75 36 26 37 80 38 74 39 76 40 27 41 79 42 73 43
REMARK SMILES IDX 72 44 28 46 60 47 40 48 59 49 41 50 44 51 58 52 77 53 42 54
REMARK SMILES IDX 43 55 57 57 78 58 45 59 29 60 30 61 38 62 31 63 32 64 36 65
REMARK SMILES IDX 39 66 33 67 34 68 37 69 35 70 61 71 62 72 70 73 63 74 64 75
REMARK SMILES IDX 68 76 71 77 65 78 66 79 69 80 67 81 46 82 47 83 55 84 48 85
REMARK SMILES IDX 49 86 53 87 56 88 50 89 51 90 54 91 52 92
REMARK H PARENT 2 17 76 45 44 56
REMARK Flexibility Score: inf
ROOT
ATOM      1  C   UNL     1      -0.326  -9.217  -3.744  1.00  0.00     0.274 C 
ENDROOT
BRANCH   1   2
ATOM      2  O   UNL     1      -0.313  -7.930  -3.081  1.00  0.00    -0.461 OA
BRANCH   2   3
ATOM      3  C   UNL     1      -1.495  -7.258  -2.950  1.00  0.00     0.316 C 
ATOM      4  O   UNL     1      -2.554  -7.686  -3.396  1.00  0.00    -0.251 OA
BRANCH   3   5
ATOM      5  C   UNL     1      -1.317  -5.855  -2.281  1.00  0.00     0.099 C 
ATOM      6  C   UNL     1      -1.482  -4.878  -3.466  1.00  0.00     0.029 C 
BRANCH   5   7
ATOM      7  C   UNL     1       0.137  -5.794  -1.693  1.00  0.00     0.123 C 
BRANCH   7   8
ATOM      8  C   UNL     1       0.603  -4.489  -1.159  1.00  0.00     0.228 A 
ATOM      9  C   UNL     1       1.113  -2.775  -0.061  1.00  0.00     0.226 A 
ATOM     10  N   UNL     1       1.352  -2.416  -1.332  1.00  0.00    -0.056 NA
ATOM     11  N   UNL     1       0.687  -4.077   0.085  1.00  0.00    -0.190 NA
ATOM     12  O   UNL     1       1.007  -3.552  -2.064  1.00  0.00    -0.339 OA
BRANCH   9  13
ATOM     13  C   UNL     1       1.336  -1.881   1.124  1.00  0.00     0.344 C 
BRANCH  13  14
ATOM     14  N   UNL     1       0.615  -0.590   1.136  1.00  0.00    -0.333 N 
ATOM     15  C   UNL     1       1.081   0.346   0.119  1.00  0.00     0.332 C 
ATOM     16  C   UNL     1      -0.836  -0.735   1.105  1.00  0.00     0.332 C 
ATOM     17  H   UNL     1       0.847  -0.179   2.039  1.00  0.00     0.348 HD
ENDBRANCH  13  14
ENDBRANCH   9  13
ENDBRANCH   7   8
ENDBRANCH   5   7
BRANCH   5  18
ATOM     18  C   UNL     1      -2.406  -5.525  -1.214  1.00  0.00    -0.030 A 
ATOM     19  C   UNL     1      -2.384  -4.296  -0.522  1.00  0.00     0.005 A 
ATOM     20  C   UNL     1      -3.473  -6.381  -0.893  1.00  0.00     0.005 A 
ATOM     21  C   UNL     1      -3.269  -4.001   0.521  1.00  0.00     0.000 A 
ATOM     22  C   UNL     1      -4.395  -6.067   0.119  1.00  0.00     0.000 A 
ATOM     23  C   UNL     1      -4.269  -4.897   0.854  1.00  0.00     0.000 A 
ENDBRANCH   5  18
ENDBRANCH   3   5
ENDBRANCH   2   3
ENDBRANCH   1   2
BRANCH   1  24
ATOM     24  C   UNL     1       0.283 -10.260  -2.810  1.00  0.00     0.275 C 
BRANCH  24  25
ATOM     25  O   UNL     1      -0.579 -10.362  -1.666  1.00  0.00    -0.458 OA
BRANCH  25  26
ATOM     26  C   UNL     1       0.021 -10.544  -0.467  1.00  0.00     0.338 C 
ATOM     27  O   UNL     1       1.194 -10.790  -0.256  1.00  0.00    -0.246 OA
BRANCH  26  28
ATOM     28  C   UNL     1      -0.998 -10.359   0.589  1.00  0.00     0.060 A 
ATOM     29  C   UNL     1      -1.939  -9.338   0.466  1.00  0.00     0.016 A 
ATOM     30  C   UNL     1      -0.979 -11.148   1.740  1.00  0.00     0.016 A 
ATOM     31  C   UNL     1      -2.836  -9.083   1.500  1.00  0.00     0.010 A 
ATOM     32  C   UNL     1      -1.931 -10.931   2.748  1.00  0.00     0.010 A 
ATOM     33  C   UNL     1      -2.861  -9.881   2.649  1.00  0.00    -0.014 A 
BRANCH  33  34
ATOM     34  C   UNL     1      -3.788  -9.539   3.768  1.00  0.00     0.031 A 
ATOM     35  C   UNL     1      -3.225  -9.191   5.120  1.00  0.00     0.074 A 
ATOM     36  C   UNL     1      -5.122  -9.453   3.584  1.00  0.00     0.049 A 
ATOM     37  N   UNL     1      -3.839  -9.062   6.269  1.00  0.00    -0.248 NA
ATOM     38  C   UNL     1      -1.774  -8.959   5.185  1.00  0.00     0.031 C 
ATOM     39  C   UNL     1      -5.824  -9.654   2.317  1.00  0.00     0.029 A 
ATOM     40  N   UNL     1      -6.130  -9.144   4.470  1.00  0.00    -0.354 N 
ATOM     41  C   UNL     1      -2.842  -8.816   7.204  1.00  0.00     0.074 A 
ATOM     42  C   UNL     1      -1.586  -8.787   6.486  1.00  0.00     0.031 C 
ATOM     43  C   UNL     1      -7.131  -9.402   2.491  1.00  0.00     0.029 A 
ATOM     44  C   UNL     1      -7.381  -9.123   3.902  1.00  0.00     0.049 A 
ATOM     45  H   UNL     1      -5.968  -8.955   5.423  1.00  0.00     0.167 HD
ATOM     46  C   UNL     1      -2.964  -8.642   8.541  1.00  0.00     0.037 A 
ATOM     47  C   UNL     1      -8.596  -8.944   4.458  1.00  0.00     0.037 A 
ATOM     48  C   UNL     1      -4.217  -8.592   9.248  1.00  0.00     0.049 A 
ATOM     49  C   UNL     1      -8.711  -8.781   5.951  1.00  0.00     0.074 A 
ATOM     50  C   UNL     1      -4.439  -8.459  10.608  1.00  0.00     0.029 A 
ATOM     51  N   UNL     1      -5.463  -8.636   8.643  1.00  0.00    -0.354 N 
ATOM     52  N   UNL     1      -7.762  -8.697   6.851  1.00  0.00    -0.248 NA
ATOM     53  C   UNL     1     -10.071  -8.733   6.509  1.00  0.00     0.031 C 
ATOM     54  C   UNL     1      -5.821  -8.443  10.828  1.00  0.00     0.029 A 
ATOM     55  C   UNL     1      -6.458  -8.533   9.601  1.00  0.00     0.049 A 
ATOM     56  H   UNL     1      -5.618  -8.728   7.675  1.00  0.00     0.167 HD
ATOM     57  C   UNL     1      -8.407  -8.593   8.076  1.00  0.00     0.074 A 
ATOM     58  C   UNL     1      -9.829  -8.588   7.804  1.00  0.00     0.031 C 
ATOM     59  C   UNL     1      -7.868  -8.527   9.318  1.00  0.00     0.037 A 
BRANCH  46  60
ATOM     60  C   UNL     1      -1.700  -8.552   9.340  1.00  0.00     0.064 A 
ATOM     61  C   UNL     1      -0.906  -7.399   9.354  1.00  0.00     0.173 A 
ATOM     62  C   UNL     1      -1.294  -9.642  10.126  1.00  0.00     0.173 A 
ATOM     63  F   UNL     1      -1.242  -6.339   8.603  1.00  0.00    -0.203 F 
ATOM     64  C   UNL     1       0.262  -7.346  10.110  1.00  0.00     0.198 A 
ATOM     65  C   UNL     1      -0.141  -9.577  10.901  1.00  0.00     0.198 A 
ATOM     66  F   UNL     1      -2.024 -10.768  10.148  1.00  0.00    -0.203 F 
ATOM     67  F   UNL     1       1.031  -6.249  10.077  1.00  0.00    -0.200 F 
ATOM     68  C   UNL     1       0.640  -8.432  10.887  1.00  0.00     0.200 A 
ATOM     69  F   UNL     1       0.217 -10.624  11.657  1.00  0.00    -0.200 F 
ATOM     70  F   UNL     1       1.762  -8.377  11.618  1.00  0.00    -0.200 F 
ENDBRANCH  46  60
BRANCH  47  71
ATOM     71  C   UNL     1      -9.819  -8.968   3.611  1.00  0.00     0.064 A 
ATOM     72  C   UNL     1     -10.602  -7.817   3.445  1.00  0.00     0.173 A 
ATOM     73  C   UNL     1     -10.243 -10.142   2.972  1.00  0.00     0.173 A 
ATOM     74  F   UNL     1     -10.260  -6.678   4.065  1.00  0.00    -0.203 F 
ATOM     75  C   UNL     1     -11.765  -7.843   2.677  1.00  0.00     0.198 A 
ATOM     76  C   UNL     1     -11.387 -10.159   2.178  1.00  0.00     0.198 A 
ATOM     77  F   UNL     1      -9.537 -11.274   3.110  1.00  0.00    -0.203 F 
ATOM     78  F   UNL     1     -12.520  -6.741   2.571  1.00  0.00    -0.200 F 
ATOM     79  C   UNL     1     -12.152  -9.011   2.037  1.00  0.00     0.200 A 
ATOM     80  F   UNL     1     -11.750 -11.287   1.554  1.00  0.00    -0.200 F 
ATOM     81  F   UNL     1     -13.266  -9.034   1.293  1.00  0.00    -0.200 F 
ENDBRANCH  47  71
BRANCH  59  82
ATOM     82  C   UNL     1      -8.817  -8.436  10.475  1.00  0.00     0.064 A 
ATOM     83  C   UNL     1      -9.542  -9.554  10.913  1.00  0.00     0.173 A 
ATOM     84  C   UNL     1      -8.976  -7.231  11.176  1.00  0.00     0.173 A 
ATOM     85  F   UNL     1      -9.434 -10.723  10.264  1.00  0.00    -0.203 F 
ATOM     86  C   UNL     1     -10.406  -9.464  12.000  1.00  0.00     0.198 A 
ATOM     87  C   UNL     1      -9.825  -7.151  12.276  1.00  0.00     0.198 A 
ATOM     88  F   UNL     1      -8.301  -6.135  10.798  1.00  0.00    -0.203 F 
ATOM     89  F   UNL     1     -11.118 -10.535  12.379  1.00  0.00    -0.200 F 
ATOM     90  C   UNL     1     -10.543  -8.265  12.684  1.00  0.00     0.200 A 
ATOM     91  F   UNL     1      -9.951  -5.994  12.941  1.00  0.00    -0.200 F 
ATOM     92  F   UNL     1     -11.374  -8.181  13.732  1.00  0.00    -0.200 F 
ENDBRANCH  59  82
ENDBRANCH  33  34
ENDBRANCH  26  28
ENDBRANCH  25  26
ENDBRANCH  24  25
ENDBRANCH   1  24
TORSDOF 16
