REMARK SMILES CC1=C(C#N)c2nc(N)c(C#N)c(C)c2/C1=C\c1ccc(OCC(=O)OCCOC(=O)c2ccc(-c3c4nc(c(-c5c(F)c(F)c(F)c(F)c5F)c5ccc([nH]5)c(-c5c(F)c(F)c(F)c(F)c5F)c5nc(c(-c6c(F)c(F)c(F)c(F)c6F)c6ccc3[nH]6)C=C5)C=C4)cc2)c(Cl)c1
REMARK SMILES IDX 27 1 26 2 24 3 25 4 23 5 22 6 21 7 18 8 19 9 97 10 20 11
REMARK SMILES IDX 95 12 96 13 17 14 1 15 2 16 3 17 16 18 6 19 15 20 7 21 13 22
REMARK SMILES IDX 8 23 10 24 14 25 4 26 5 27 9 28 11 31 12 32 28 33 29 34
REMARK SMILES IDX 30 35 31 36 32 37 33 38 94 39 34 40 93 41 35 42 36 43 37 44
REMARK SMILES IDX 87 45 38 46 92 47 86 48 88 49 39 50 91 51 85 52 84 53 40 55
REMARK SMILES IDX 72 56 52 57 71 58 53 59 56 60 70 61 89 62 54 63 55 64 69 66
REMARK SMILES IDX 90 67 57 68 41 69 42 70 50 71 43 72 44 73 48 74 51 75 45 76
REMARK SMILES IDX 46 77 49 78 47 79 73 80 74 81 82 82 75 83 76 84 80 85 83 86
REMARK SMILES IDX 77 87 78 88 81 89 79 90 58 91 59 92 67 93 60 94 61 95 65 96
REMARK SMILES IDX 68 97 62 98 63 99 66 100 64 101
REMARK H PARENT 9 29 9 30 88 54 56 65
REMARK Flexibility Score: inf
ROOT
ATOM      1  C   UNL     1      -0.023   7.578   6.748  1.00  0.00     0.274 C 
ENDROOT
BRANCH   1   2
ATOM      2  O   UNL     1       0.169   7.909   5.344  1.00  0.00    -0.460 OA
BRANCH   2   3
ATOM      3  C   UNL     1       1.320   8.567   5.052  1.00  0.00     0.344 C 
ATOM      4  O   UNL     1       2.111   8.960   5.911  1.00  0.00    -0.248 OA
BRANCH   3   5
ATOM      5  C   UNL     1       1.587   8.831   3.550  1.00  0.00     0.352 C 
BRANCH   5   6
ATOM      6  O   UNL     1       0.894   8.312   2.431  1.00  0.00    -0.480 OA
BRANCH   6   7
ATOM      7  C   UNL     1       1.178   7.095   1.877  1.00  0.00     0.138 A 
ATOM      8  C   UNL     1       1.152   4.371   1.083  1.00  0.00    -0.023 A 
ATOM      9  C   UNL     1       0.093   5.214   0.744  1.00  0.00     0.012 A 
ATOM     10  C   UNL     1       2.325   4.967   1.557  1.00  0.00     0.032 A 
ATOM     11  C   UNL     1       0.093   6.550   1.178  1.00  0.00     0.048 A 
ATOM     12  C   UNL     1       2.355   6.343   1.878  1.00  0.00     0.083 A 
ATOM     13  Cl  UNL     1       3.918   7.054   2.029  1.00  0.00    -0.080 Cl
BRANCH   8  14
ATOM     14  C   UNL     1       1.022   2.911   0.931  1.00  0.00     0.017 C 
ATOM     15  C   UNL     1       0.918  -0.012   0.076  1.00  0.00     0.046 C 
ATOM     16  C   UNL     1       0.473   0.528   1.395  1.00  0.00    -0.023 C 
ATOM     17  C   UNL     1      -0.020  -0.187   2.428  1.00  0.00     0.082 C 
ATOM     18  C   UNL     1       0.462   1.982   1.748  1.00  0.00    -0.011 C 
ATOM     19  C   UNL     1      -0.333   0.730   3.511  1.00  0.00     0.092 A 
ATOM     20  C   UNL     1      -0.188   2.059   3.097  1.00  0.00     0.014 A 
ATOM     21  N   UNL     1      -0.777   0.290   4.704  1.00  0.00    -0.228 NA
ATOM     22  C   UNL     1      -0.735   3.015   3.952  1.00  0.00    -0.019 A 
ATOM     23  C   UNL     1      -1.191   1.233   5.562  1.00  0.00     0.142 A 
ATOM     24  C   UNL     1      -1.266   2.582   5.198  1.00  0.00     0.098 A 
ATOM     25  C   UNL     1      -0.853   4.444   3.556  1.00  0.00     0.046 C 
BRANCH  17  26
ATOM     26  C   UNL     1      -0.304  -1.679   2.484  1.00  0.00     0.102 C 
ATOM     27  N   UNL     1      -0.541  -2.916   2.530  1.00  0.00    -0.192 NA
ENDBRANCH  17  26
BRANCH  23  28
ATOM     28  N   UNL     1      -1.616   0.762   6.788  1.00  0.00    -0.383 N 
ATOM     29  H   UNL     1      -1.543  -0.197   6.999  1.00  0.00     0.158 HD
ATOM     30  H   UNL     1      -1.992   1.385   7.451  1.00  0.00     0.158 HD
ENDBRANCH  23  28
BRANCH  24  31
ATOM     31  C   UNL     1      -1.928   3.493   6.091  1.00  0.00     0.103 C 
ATOM     32  N   UNL     1      -2.444   4.238   6.812  1.00  0.00    -0.192 NA
ENDBRANCH  24  31
ENDBRANCH   8  14
ENDBRANCH   6   7
ENDBRANCH   5   6
ENDBRANCH   3   5
ENDBRANCH   2   3
ENDBRANCH   1   2
BRANCH   1  33
ATOM     33  C   UNL     1       0.386   6.135   7.069  1.00  0.00     0.275 C 
BRANCH  33  34
ATOM     34  O   UNL     1       1.809   5.920   6.991  1.00  0.00    -0.458 OA
BRANCH  34  35
ATOM     35  C   UNL     1       2.215   5.646   5.738  1.00  0.00     0.338 C 
ATOM     36  O   UNL     1       1.526   5.598   4.736  1.00  0.00    -0.246 OA
BRANCH  35  37
ATOM     37  C   UNL     1       3.644   5.455   5.600  1.00  0.00     0.060 A 
ATOM     38  C   UNL     1       4.405   6.574   5.284  1.00  0.00     0.016 A 
ATOM     39  C   UNL     1       4.137   4.160   5.433  1.00  0.00     0.016 A 
ATOM     40  C   UNL     1       5.668   6.393   4.747  1.00  0.00     0.010 A 
ATOM     41  C   UNL     1       5.446   3.987   4.991  1.00  0.00     0.010 A 
ATOM     42  C   UNL     1       6.216   5.105   4.639  1.00  0.00    -0.014 A 
BRANCH  42  43
ATOM     43  C   UNL     1       7.640   4.969   4.264  1.00  0.00     0.031 A 
ATOM     44  C   UNL     1       8.069   4.230   3.036  1.00  0.00     0.074 A 
ATOM     45  C   UNL     1       8.543   5.547   5.077  1.00  0.00     0.049 A 
ATOM     46  N   UNL     1       9.281   3.968   2.619  1.00  0.00    -0.248 NA
ATOM     47  C   UNL     1       7.007   3.703   2.167  1.00  0.00     0.031 C 
ATOM     48  C   UNL     1       8.214   6.307   6.287  1.00  0.00     0.029 A 
ATOM     49  N   UNL     1       9.907   5.614   5.006  1.00  0.00    -0.354 N 
ATOM     50  C   UNL     1       9.132   3.232   1.452  1.00  0.00     0.074 A 
ATOM     51  C   UNL     1       7.709   3.054   1.247  1.00  0.00     0.031 C 
ATOM     52  C   UNL     1       9.333   6.826   6.800  1.00  0.00     0.029 A 
ATOM     53  C   UNL     1      10.466   6.343   6.024  1.00  0.00     0.049 A 
ATOM     54  H   UNL     1      10.435   5.182   4.296  1.00  0.00     0.167 HD
ATOM     55  C   UNL     1      10.103   2.762   0.630  1.00  0.00     0.037 A 
ATOM     56  C   UNL     1      11.754   6.575   6.326  1.00  0.00     0.037 A 
ATOM     57  C   UNL     1      11.514   2.960   0.863  1.00  0.00     0.049 A 
ATOM     58  C   UNL     1      12.806   5.977   5.448  1.00  0.00     0.074 A 
ATOM     59  C   UNL     1      12.584   2.530   0.100  1.00  0.00     0.029 A 
ATOM     60  N   UNL     1      12.050   3.646   1.948  1.00  0.00    -0.354 N 
ATOM     61  N   UNL     1      12.661   5.272   4.352  1.00  0.00    -0.248 NA
ATOM     62  C   UNL     1      14.199   6.191   5.852  1.00  0.00     0.031 C 
ATOM     63  C   UNL     1      13.764   2.898   0.754  1.00  0.00     0.029 A 
ATOM     64  C   UNL     1      13.436   3.621   1.891  1.00  0.00     0.049 A 
ATOM     65  H   UNL     1      11.523   4.085   2.654  1.00  0.00     0.167 HD
ATOM     66  C   UNL     1      13.941   4.967   3.923  1.00  0.00     0.074 A 
ATOM     67  C   UNL     1      14.852   5.585   4.869  1.00  0.00     0.031 C 
ATOM     68  C   UNL     1      14.326   4.237   2.847  1.00  0.00     0.037 A 
BRANCH  55  69
ATOM     69  C   UNL     1       9.677   1.968  -0.576  1.00  0.00     0.064 A 
ATOM     70  C   UNL     1       8.971   2.554  -1.639  1.00  0.00     0.173 A 
ATOM     71  C   UNL     1      10.000   0.606  -0.685  1.00  0.00     0.173 A 
ATOM     72  F   UNL     1       8.627   3.850  -1.588  1.00  0.00    -0.203 F 
ATOM     73  C   UNL     1       8.571   1.800  -2.740  1.00  0.00     0.198 A 
ATOM     74  C   UNL     1       9.633  -0.136  -1.805  1.00  0.00     0.198 A 
ATOM     75  F   UNL     1      10.681  -0.009   0.294  1.00  0.00    -0.203 F 
ATOM     76  F   UNL     1       7.841   2.369  -3.710  1.00  0.00    -0.200 F 
ATOM     77  C   UNL     1       8.908   0.458  -2.826  1.00  0.00     0.200 A 
ATOM     78  F   UNL     1       9.975  -1.429  -1.894  1.00  0.00    -0.200 F 
ATOM     79  F   UNL     1       8.524  -0.265  -3.887  1.00  0.00    -0.200 F 
ENDBRANCH  55  69
BRANCH  56  80
ATOM     80  C   UNL     1      12.074   7.424   7.500  1.00  0.00     0.064 A 
ATOM     81  C   UNL     1      12.595   8.711   7.323  1.00  0.00     0.173 A 
ATOM     82  C   UNL     1      11.758   7.018   8.806  1.00  0.00     0.173 A 
ATOM     83  F   UNL     1      12.919   9.139   6.094  1.00  0.00    -0.203 F 
ATOM     84  C   UNL     1      12.779   9.565   8.408  1.00  0.00     0.198 A 
ATOM     85  C   UNL     1      11.911   7.884   9.885  1.00  0.00     0.198 A 
ATOM     86  F   UNL     1      11.239   5.800   9.025  1.00  0.00    -0.203 F 
ATOM     87  F   UNL     1      13.288  10.789   8.214  1.00  0.00    -0.200 F 
ATOM     88  C   UNL     1      12.422   9.157   9.685  1.00  0.00     0.200 A 
ATOM     89  F   UNL     1      11.535   7.497  11.112  1.00  0.00    -0.200 F 
ATOM     90  F   UNL     1      12.564   9.994  10.722  1.00  0.00    -0.200 F 
ENDBRANCH  56  80
BRANCH  68  91
ATOM     91  C   UNL     1      15.802   4.073   2.626  1.00  0.00     0.064 A 
ATOM     92  C   UNL     1      16.587   3.275   3.470  1.00  0.00     0.173 A 
ATOM     93  C   UNL     1      16.425   4.672   1.520  1.00  0.00     0.173 A 
ATOM     94  F   UNL     1      16.042   2.696   4.551  1.00  0.00    -0.203 F 
ATOM     95  C   UNL     1      17.945   3.095   3.225  1.00  0.00     0.198 A 
ATOM     96  C   UNL     1      17.774   4.459   1.257  1.00  0.00     0.198 A 
ATOM     97  F   UNL     1      15.718   5.442   0.679  1.00  0.00    -0.203 F 
ATOM     98  F   UNL     1      18.685   2.364   4.070  1.00  0.00    -0.200 F 
ATOM     99  C   UNL     1      18.534   3.676   2.112  1.00  0.00     0.200 A 
ATOM    100  F   UNL     1      18.338   5.005   0.171  1.00  0.00    -0.200 F 
ATOM    101  F   UNL     1      19.837   3.483   1.866  1.00  0.00    -0.200 F 
ENDBRANCH  68  91
ENDBRANCH  42  43
ENDBRANCH  35  37
ENDBRANCH  34  35
ENDBRANCH  33  34
ENDBRANCH   1  33
TORSDOF 17
