REMARK SMILES Cc1cnn([C@H]2CC[C@@]([NH3+])(C(=O)OCCOC(=O)c3ccc(-c4c5nc(c(-c6c(F)c(F)c(F)c(F)c6F)c6ccc([nH]6)c(-c6c(F)c(F)c(F)c(F)c6F)c6nc(c(-c7c(F)c(F)c(F)c(F)c7F)c7ccc4[nH]7)C=C6)C=C5)cc3)C2)c1
REMARK SMILES IDX 15 1 14 2 13 3 11 4 12 5 9 6 6 7 7 8 82 9 8 10 5 11 1 12
REMARK SMILES IDX 2 13 3 14 83 15 4 16 10 17 16 21 17 22 18 23 19 24 20 25
REMARK SMILES IDX 81 26 21 27 80 28 22 29 23 30 24 31 74 32 25 33 79 34 73 35
REMARK SMILES IDX 75 36 26 37 78 38 72 39 71 40 27 42 59 43 39 44 58 45 40 46
REMARK SMILES IDX 43 47 57 48 76 49 41 50 42 51 56 53 77 54 44 55 28 56 29 57
REMARK SMILES IDX 37 58 30 59 31 60 35 61 38 62 32 63 33 64 36 65 34 66 60 67
REMARK SMILES IDX 61 68 69 69 62 70 63 71 67 72 70 73 64 74 65 75 68 76 66 77
REMARK SMILES IDX 45 78 46 79 54 80 47 81 48 82 52 83 55 84 49 85 50 86 53 87
REMARK SMILES IDX 51 88
REMARK H PARENT 10 18 10 19 10 20 75 41 43 52
REMARK Flexibility Score: inf
ROOT
ATOM      1  C   UNL     1      -0.315   7.641   6.845  1.00  0.00     0.275 C 
ENDROOT
BRANCH   1   2
ATOM      2  C   UNL     1       1.040   8.118   6.304  1.00  0.00     0.274 C 
BRANCH   2   3
ATOM      3  O   UNL     1       1.213   7.812   4.899  1.00  0.00    -0.457 OA
BRANCH   3   4
ATOM      4  C   UNL     1       2.000   6.736   4.613  1.00  0.00     0.368 C 
ATOM      5  O   UNL     1       2.848   6.283   5.382  1.00  0.00    -0.245 OA
BRANCH   4   6
ATOM      6  C   UNL     1       1.779   6.129   3.176  1.00  0.00     0.194 C 
ATOM      7  C   UNL     1       0.490   4.034   3.398  1.00  0.00     0.114 C 
ATOM      8  C   UNL     1      -0.315   4.959   2.483  1.00  0.00     0.034 C 
ATOM      9  C   UNL     1       1.914   4.583   3.229  1.00  0.00     0.108 C 
ATOM     10  C   UNL     1       0.404   6.329   2.494  1.00  0.00     0.083 C 
BRANCH   7  11
ATOM     11  N   UNL     1      -0.007   3.946   4.777  1.00  0.00    -0.269 N 
ATOM     12  C   UNL     1       0.520   4.318   9.148  1.00  0.00     0.048 C 
ATOM     13  C   UNL     1       0.079   4.266   7.714  1.00  0.00    -0.013 A 
ATOM     14  C   UNL     1      -1.784   4.508   7.069  1.00  0.00     0.138 A 
ATOM     15  C   UNL     1       1.072   3.931   6.281  1.00  0.00     0.112 A 
ATOM     16  N   UNL     1      -1.795   4.339   5.319  1.00  0.00    -0.181 NA
ENDBRANCH   7  11
BRANCH   6  17
ATOM     17  N   UNL     1       2.859   6.695   2.334  1.00  0.00    -0.343 N 
ATOM     18  H   UNL     1       2.767   7.711   2.301  1.00  0.00     0.345 HD
ATOM     19  H   UNL     1       2.787   6.317   1.389  1.00  0.00     0.345 HD
ATOM     20  H   UNL     1       3.765   6.449   2.731  1.00  0.00     0.345 HD
ENDBRANCH   6  17
ENDBRANCH   4   6
ENDBRANCH   3   4
ENDBRANCH   2   3
ENDBRANCH   1   2
BRANCH   1  21
ATOM     21  O   UNL     1      -0.297   6.244   7.201  1.00  0.00    -0.458 OA
BRANCH  21  22
ATOM     22  C   UNL     1      -0.370   5.226   6.085  1.00  0.00     0.338 C 
ATOM     23  O   UNL     1      -0.349   5.962   5.062  1.00  0.00    -0.246 OA
BRANCH  22  24
ATOM     24  C   UNL     1      -0.742   3.045   6.318  1.00  0.00     0.060 A 
ATOM     25  C   UNL     1      -1.337   2.080   5.326  1.00  0.00     0.016 A 
ATOM     26  C   UNL     1      -0.838   2.217   7.520  1.00  0.00     0.016 A 
ATOM     27  C   UNL     1      -2.472   1.338   5.636  1.00  0.00     0.010 A 
ATOM     28  C   UNL     1      -2.088   1.850   7.929  1.00  0.00     0.010 A 
ATOM     29  C   UNL     1      -2.939   1.425   6.935  1.00  0.00    -0.014 A 
BRANCH  29  30
ATOM     30  C   UNL     1      -3.994   0.564   7.396  1.00  0.00     0.031 A 
ATOM     31  C   UNL     1      -3.400  -0.797   7.537  1.00  0.00     0.074 A 
ATOM     32  C   UNL     1      -5.173   1.037   7.837  1.00  0.00     0.049 A 
ATOM     33  N   UNL     1      -3.458  -1.753   6.665  1.00  0.00    -0.248 NA
ATOM     34  C   UNL     1      -2.292  -0.989   8.511  1.00  0.00     0.031 C 
ATOM     35  C   UNL     1      -5.611   2.430   7.976  1.00  0.00     0.029 A 
ATOM     36  N   UNL     1      -6.214   0.333   8.359  1.00  0.00    -0.354 N 
ATOM     37  C   UNL     1      -2.640  -2.748   7.197  1.00  0.00     0.074 A 
ATOM     38  C   UNL     1      -1.696  -2.079   8.027  1.00  0.00     0.031 C 
ATOM     39  C   UNL     1      -6.725   2.478   8.748  1.00  0.00     0.029 A 
ATOM     40  C   UNL     1      -7.147   1.121   9.041  1.00  0.00     0.049 A 
ATOM     41  H   UNL     1      -6.303  -0.643   8.265  1.00  0.00     0.167 HD
ATOM     42  C   UNL     1      -3.148  -4.000   7.360  1.00  0.00     0.037 A 
ATOM     43  C   UNL     1      -8.128   0.616   9.833  1.00  0.00     0.037 A 
ATOM     44  C   UNL     1      -4.322  -4.141   6.529  1.00  0.00     0.049 A 
ATOM     45  C   UNL     1      -8.277  -0.814   9.448  1.00  0.00     0.074 A 
ATOM     46  C   UNL     1      -4.565  -4.157   5.173  1.00  0.00     0.029 A 
ATOM     47  N   UNL     1      -5.479  -3.738   7.150  1.00  0.00    -0.354 N 
ATOM     48  N   UNL     1      -8.702  -1.198   8.274  1.00  0.00    -0.248 NA
ATOM     49  C   UNL     1      -7.527  -1.815  10.198  1.00  0.00     0.031 C 
ATOM     50  C   UNL     1      -5.856  -3.574   4.998  1.00  0.00     0.029 A 
ATOM     51  C   UNL     1      -6.412  -3.308   6.249  1.00  0.00     0.049 A 
ATOM     52  H   UNL     1      -5.619  -3.756   8.124  1.00  0.00     0.167 HD
ATOM     53  C   UNL     1      -7.921  -2.300   7.966  1.00  0.00     0.074 A 
ATOM     54  C   UNL     1      -7.334  -2.722   9.235  1.00  0.00     0.031 C 
ATOM     55  C   UNL     1      -7.573  -2.553   6.669  1.00  0.00     0.037 A 
BRANCH  42  56
ATOM     56  C   UNL     1      -2.984  -4.828   8.631  1.00  0.00     0.064 A 
ATOM     57  C   UNL     1      -3.539  -6.122   8.638  1.00  0.00     0.173 A 
ATOM     58  C   UNL     1      -2.601  -4.342   9.907  1.00  0.00     0.173 A 
ATOM     59  F   UNL     1      -3.934  -6.696   7.492  1.00  0.00    -0.203 F 
ATOM     60  C   UNL     1      -3.779  -6.822   9.825  1.00  0.00     0.198 A 
ATOM     61  C   UNL     1      -2.810  -5.057  11.084  1.00  0.00     0.198 A 
ATOM     62  F   UNL     1      -2.089  -3.128  10.115  1.00  0.00    -0.203 F 
ATOM     63  F   UNL     1      -4.413  -8.001   9.782  1.00  0.00    -0.200 F 
ATOM     64  C   UNL     1      -3.427  -6.283  11.047  1.00  0.00     0.200 A 
ATOM     65  F   UNL     1      -2.475  -4.500  12.257  1.00  0.00    -0.200 F 
ATOM     66  F   UNL     1      -3.713  -6.921  12.189  1.00  0.00    -0.200 F 
ENDBRANCH  42  56
BRANCH  43  67
ATOM     67  C   UNL     1      -8.707   1.149  11.090  1.00  0.00     0.064 A 
ATOM     68  C   UNL     1      -9.916   0.649  11.605  1.00  0.00     0.173 A 
ATOM     69  C   UNL     1      -7.931   1.930  11.967  1.00  0.00     0.173 A 
ATOM     70  F   UNL     1     -10.694  -0.141  10.850  1.00  0.00    -0.203 F 
ATOM     71  C   UNL     1     -10.307   0.885  12.929  1.00  0.00     0.198 A 
ATOM     72  C   UNL     1      -8.322   2.164  13.287  1.00  0.00     0.198 A 
ATOM     73  F   UNL     1      -6.730   2.390  11.591  1.00  0.00    -0.203 F 
ATOM     74  F   UNL     1     -11.433   0.333  13.404  1.00  0.00    -0.200 F 
ATOM     75  C   UNL     1      -9.501   1.630  13.773  1.00  0.00     0.200 A 
ATOM     76  F   UNL     1      -7.512   2.850  14.107  1.00  0.00    -0.200 F 
ATOM     77  F   UNL     1      -9.836   1.795  15.060  1.00  0.00    -0.200 F 
ENDBRANCH  43  67
BRANCH  55  78
ATOM     78  C   UNL     1      -8.395  -1.903   5.595  1.00  0.00     0.064 A 
ATOM     79  C   UNL     1      -8.432  -0.525   5.327  1.00  0.00     0.173 A 
ATOM     80  C   UNL     1      -9.100  -2.748   4.729  1.00  0.00     0.173 A 
ATOM     81  F   UNL     1      -7.721   0.339   6.063  1.00  0.00    -0.203 F 
ATOM     82  C   UNL     1      -9.173  -0.018   4.258  1.00  0.00     0.198 A 
ATOM     83  C   UNL     1      -9.806  -2.246   3.643  1.00  0.00     0.198 A 
ATOM     84  F   UNL     1      -9.062  -4.077   4.913  1.00  0.00    -0.203 F 
ATOM     85  F   UNL     1      -9.208   1.303   4.028  1.00  0.00    -0.200 F 
ATOM     86  C   UNL     1      -9.853  -0.881   3.413  1.00  0.00     0.200 A 
ATOM     87  F   UNL     1     -10.421  -3.091   2.804  1.00  0.00    -0.200 F 
ATOM     88  F   UNL     1     -10.536  -0.401   2.365  1.00  0.00    -0.200 F 
ENDBRANCH  55  78
ENDBRANCH  29  30
ENDBRANCH  22  24
ENDBRANCH  21  22
ENDBRANCH   1  21
TORSDOF 13
