REMARK SMILES CC[C@](C)(NC(=O)[C@](C)([NH3+])c1ccccc1)C(=O)OCCOC(=O)c1ccc(-c2c3nc(c(-c4c(F)c(F)c(F)c(F)c4F)c4ccc([nH]4)c(-c4c(F)c(F)c(F)c(F)c4F)c4nc(c(-c5c(F)c(F)c(F)c(F)c5F)c5ccc2[nH]5)C=C4)C=C3)cc1
REMARK SMILES IDX 20 1 19 2 17 3 18 4 3 5 4 6 2 7 1 8 5 9 6 10 7 12 8 13 9 14
REMARK SMILES IDX 10 15 11 19 12 20 16 21 13 22 15 23 14 24 21 25 22 26 23 27
REMARK SMILES IDX 24 28 25 29 26 30 87 31 27 32 86 33 28 34 29 35 30 36 80 37
REMARK SMILES IDX 31 38 85 39 79 40 81 41 32 42 84 43 78 44 77 45 33 47 65 48
REMARK SMILES IDX 45 49 64 50 46 51 49 52 63 53 82 54 47 55 48 56 62 58 83 59
REMARK SMILES IDX 50 60 34 61 35 62 43 63 36 64 37 65 41 66 44 67 38 68 39 69
REMARK SMILES IDX 42 70 40 71 66 72 67 73 75 74 68 75 69 76 73 77 76 78 70 79
REMARK SMILES IDX 71 80 74 81 72 82 51 83 52 84 60 85 53 86 54 87 58 88 61 89
REMARK SMILES IDX 55 90 56 91 59 92 57 93
REMARK H PARENT 5 11 10 16 10 17 10 18 81 46 49 57
REMARK Flexibility Score: inf
ROOT
ATOM      1  C   UNL     1       4.098   7.526  -2.239  1.00  0.00     0.274 C 
ENDROOT
BRANCH   1   2
ATOM      2  O   UNL     1       4.774   6.628  -0.938  1.00  0.00    -0.460 OA
BRANCH   2   3
ATOM      3  C   UNL     1       5.392   6.369   0.815  1.00  0.00     0.331 C 
ATOM      4  O   UNL     1       5.716   7.293   1.620  1.00  0.00    -0.249 OA
BRANCH   3   5
ATOM      5  C   UNL     1       5.275   4.866   1.704  1.00  0.00     0.135 C 
ATOM      6  C   UNL     1       4.184   5.135   2.801  1.00  0.00     0.047 C 
BRANCH   5   7
ATOM      7  C   UNL     1       6.676   4.773   2.462  1.00  0.00     0.037 C 
ATOM      8  C   UNL     1       7.154   5.912   3.366  1.00  0.00     0.007 C 
ENDBRANCH   5   7
BRANCH   5   9
ATOM      9  N   UNL     1       5.060   3.410   1.324  1.00  0.00    -0.335 N 
ATOM     10  C   UNL     1       4.021   2.832   0.641  1.00  0.00     0.286 C 
ATOM     11  H   UNL     1       5.770   2.791   1.610  1.00  0.00     0.164 HD
ATOM     12  O   UNL     1       3.708   1.668   0.890  1.00  0.00    -0.267 OA
BRANCH  10  13
ATOM     13  C   UNL     1       3.435   3.620  -0.535  1.00  0.00     0.196 C 
ATOM     14  C   UNL     1       1.911   3.696  -0.443  1.00  0.00     0.096 C 
BRANCH  13  15
ATOM     15  N   UNL     1       3.762   2.902  -1.789  1.00  0.00    -0.341 N 
ATOM     16  H   UNL     1       3.379   3.413  -2.584  1.00  0.00     0.345 HD
ATOM     17  H   UNL     1       3.357   1.966  -1.759  1.00  0.00     0.345 HD
ATOM     18  H   UNL     1       4.775   2.831  -1.886  1.00  0.00     0.345 HD
ENDBRANCH  13  15
BRANCH  13  19
ATOM     19  C   UNL     1       4.111   4.953  -0.511  1.00  0.00     0.022 A 
ATOM     20  C   UNL     1       5.852   5.077  -1.033  1.00  0.00     0.011 A 
ATOM     21  C   UNL     1       3.286   6.420   0.170  1.00  0.00     0.011 A 
ATOM     22  C   UNL     1       6.709   6.658  -0.995  1.00  0.00     0.001 A 
ATOM     23  C   UNL     1       4.157   8.043   0.177  1.00  0.00     0.001 A 
ATOM     24  C   UNL     1       5.871   8.151  -0.442  1.00  0.00     0.000 A 
ENDBRANCH  13  19
ENDBRANCH  10  13
ENDBRANCH   5   9
ENDBRANCH   3   5
ENDBRANCH   2   3
ENDBRANCH   1   2
BRANCH   1  25
ATOM     25  C   UNL     1       2.517   7.653  -2.247  1.00  0.00     0.275 C 
BRANCH  25  26
ATOM     26  O   UNL     1       1.957   8.457  -1.148  1.00  0.00    -0.458 OA
BRANCH  26  27
ATOM     27  C   UNL     1       0.688   8.170  -0.736  1.00  0.00     0.338 C 
ATOM     28  O   UNL     1      -0.135   7.549  -1.390  1.00  0.00    -0.246 OA
BRANCH  27  29
ATOM     29  C   UNL     1       0.402   8.581   0.690  1.00  0.00     0.060 A 
ATOM     30  C   UNL     1       1.291   8.326   1.740  1.00  0.00     0.016 A 
ATOM     31  C   UNL     1      -0.871   9.029   1.045  1.00  0.00     0.016 A 
ATOM     32  C   UNL     1       0.943   8.423   3.082  1.00  0.00     0.010 A 
ATOM     33  C   UNL     1      -1.208   9.222   2.402  1.00  0.00     0.010 A 
ATOM     34  C   UNL     1      -0.307   8.900   3.434  1.00  0.00    -0.014 A 
BRANCH  34  35
ATOM     35  C   UNL     1      -0.674   8.991   4.869  1.00  0.00     0.031 A 
ATOM     36  C   UNL     1      -1.823   8.177   5.380  1.00  0.00     0.074 A 
ATOM     37  C   UNL     1       0.028   9.764   5.722  1.00  0.00     0.049 A 
ATOM     38  N   UNL     1      -2.523   8.321   6.474  1.00  0.00    -0.248 NA
ATOM     39  C   UNL     1      -2.244   7.048   4.535  1.00  0.00     0.031 C 
ATOM     40  C   UNL     1       1.261  10.488   5.405  1.00  0.00     0.029 A 
ATOM     41  N   UNL     1      -0.213  10.084   7.036  1.00  0.00    -0.354 N 
ATOM     42  C   UNL     1      -3.522   7.360   6.407  1.00  0.00     0.074 A 
ATOM     43  C   UNL     1      -3.316   6.614   5.184  1.00  0.00     0.031 C 
ATOM     44  C   UNL     1       1.659  11.177   6.486  1.00  0.00     0.029 A 
ATOM     45  C   UNL     1       0.657  11.024   7.533  1.00  0.00     0.049 A 
ATOM     46  H   UNL     1      -0.935   9.679   7.569  1.00  0.00     0.167 HD
ATOM     47  C   UNL     1      -4.534   7.151   7.282  1.00  0.00     0.037 A 
ATOM     48  C   UNL     1       0.609  11.741   8.672  1.00  0.00     0.037 A 
ATOM     49  C   UNL     1      -4.684   7.877   8.518  1.00  0.00     0.049 A 
ATOM     50  C   UNL     1      -0.557  11.543   9.601  1.00  0.00     0.074 A 
ATOM     51  C   UNL     1      -5.678   7.769   9.473  1.00  0.00     0.029 A 
ATOM     52  N   UNL     1      -3.793   8.840   8.975  1.00  0.00    -0.354 N 
ATOM     53  N   UNL     1      -1.575  10.725   9.488  1.00  0.00    -0.248 NA
ATOM     54  C   UNL     1      -0.590  12.382  10.805  1.00  0.00     0.031 C 
ATOM     55  C   UNL     1      -5.409   8.692  10.491  1.00  0.00     0.029 A 
ATOM     56  C   UNL     1      -4.218   9.338  10.195  1.00  0.00     0.049 A 
ATOM     57  H   UNL     1      -2.979   9.126   8.501  1.00  0.00     0.167 HD
ATOM     58  C   UNL     1      -2.356  10.928  10.617  1.00  0.00     0.074 A 
ATOM     59  C   UNL     1      -1.685  11.942  11.407  1.00  0.00     0.031 C 
ATOM     60  C   UNL     1      -3.522  10.333  10.970  1.00  0.00     0.037 A 
BRANCH  47  61
ATOM     61  C   UNL     1      -5.594   6.162   6.895  1.00  0.00     0.064 A 
ATOM     62  C   UNL     1      -5.363   4.779   6.875  1.00  0.00     0.173 A 
ATOM     63  C   UNL     1      -6.875   6.617   6.540  1.00  0.00     0.173 A 
ATOM     64  F   UNL     1      -4.152   4.293   7.184  1.00  0.00    -0.203 F 
ATOM     65  C   UNL     1      -6.366   3.892   6.490  1.00  0.00     0.198 A 
ATOM     66  C   UNL     1      -7.883   5.726   6.185  1.00  0.00     0.198 A 
ATOM     67  F   UNL     1      -7.149   7.930   6.540  1.00  0.00    -0.203 F 
ATOM     68  F   UNL     1      -6.108   2.578   6.428  1.00  0.00    -0.200 F 
ATOM     69  C   UNL     1      -7.626   4.365   6.152  1.00  0.00     0.200 A 
ATOM     70  F   UNL     1      -9.101   6.186   5.869  1.00  0.00    -0.200 F 
ATOM     71  F   UNL     1      -8.590   3.509   5.785  1.00  0.00    -0.200 F 
ENDBRANCH  47  61
BRANCH  48  72
ATOM     72  C   UNL     1       1.657  12.756   8.960  1.00  0.00     0.064 A 
ATOM     73  C   UNL     1       2.552  12.584  10.024  1.00  0.00     0.173 A 
ATOM     74  C   UNL     1       1.787  13.918   8.183  1.00  0.00     0.173 A 
ATOM     75  F   UNL     1       2.451  11.505  10.815  1.00  0.00    -0.203 F 
ATOM     76  C   UNL     1       3.529  13.537  10.306  1.00  0.00     0.198 A 
ATOM     77  C   UNL     1       2.784  14.855   8.446  1.00  0.00     0.198 A 
ATOM     78  F   UNL     1       0.954  14.136   7.155  1.00  0.00    -0.203 F 
ATOM     79  F   UNL     1       4.343  13.367  11.357  1.00  0.00    -0.200 F 
ATOM     80  C   UNL     1       3.650  14.667   9.512  1.00  0.00     0.200 A 
ATOM     81  F   UNL     1       2.905  15.938   7.667  1.00  0.00    -0.200 F 
ATOM     82  F   UNL     1       4.595  15.579   9.778  1.00  0.00    -0.200 F 
ENDBRANCH  48  72
BRANCH  60  83
ATOM     83  C   UNL     1      -4.103  10.716  12.298  1.00  0.00     0.064 A 
ATOM     84  C   UNL     1      -4.705  11.965  12.511  1.00  0.00     0.173 A 
ATOM     85  C   UNL     1      -4.067   9.810  13.368  1.00  0.00     0.173 A 
ATOM     86  F   UNL     1      -4.747  12.871  11.522  1.00  0.00    -0.203 F 
ATOM     87  C   UNL     1      -5.221  12.304  13.758  1.00  0.00     0.198 A 
ATOM     88  C   UNL     1      -4.610  10.142  14.605  1.00  0.00     0.198 A 
ATOM     89  F   UNL     1      -3.507   8.601  13.213  1.00  0.00    -0.203 F 
ATOM     90  F   UNL     1      -5.741  13.524  13.957  1.00  0.00    -0.200 F 
ATOM     91  C   UNL     1      -5.178  11.392  14.802  1.00  0.00     0.200 A 
ATOM     92  F   UNL     1      -4.577   9.255  15.610  1.00  0.00    -0.200 F 
ATOM     93  F   UNL     1      -5.674  11.721  16.003  1.00  0.00    -0.200 F 
ENDBRANCH  60  83
ENDBRANCH  34  35
ENDBRANCH  27  29
ENDBRANCH  26  27
ENDBRANCH  25  26
ENDBRANCH   1  25
TORSDOF 16
