REMARK SMILES COC[C@H]1CC[N@@H+](Cc2ccc(C(=O)OCCOC(=O)c3ccc(-c4c5nc(c(-c6c(F)c(F)c(F)c(F)c6F)c6ccc([nH]6)c(-c6c(F)c(F)c(F)c(F)c6F)c6nc(c(-c7c(F)c(F)c(F)c(F)c7F)c7ccc4[nH]7)C=C6)C=C5)cc3)cn2)C1
REMARK SMILES IDX 16 1 15 2 13 3 14 4 12 5 9 6 10 7 85 8 11 9 84 10 8 11 7 12
REMARK SMILES IDX 4 13 5 14 86 15 6 16 3 18 2 19 1 20 17 21 18 22 19 23 20 24
REMARK SMILES IDX 21 25 22 26 83 27 23 28 82 29 24 30 25 31 26 32 76 33 27 34
REMARK SMILES IDX 81 35 75 36 77 37 28 38 80 39 74 40 73 41 29 43 61 44 41 45
REMARK SMILES IDX 60 46 42 47 45 48 59 49 78 50 43 51 44 52 58 54 79 55 46 56
REMARK SMILES IDX 30 57 31 58 39 59 32 60 33 61 37 62 40 63 34 64 35 65 38 66
REMARK SMILES IDX 36 67 62 68 63 69 71 70 64 71 65 72 69 73 72 74 66 75 67 76
REMARK SMILES IDX 70 77 68 78 47 79 48 80 56 81 49 82 50 83 54 84 57 85 51 86
REMARK SMILES IDX 52 87 55 88 53 89
REMARK H PARENT 7 17 77 42 45 53
REMARK Flexibility Score: inf
ROOT
ATOM      1  C   UNL     1       3.294   2.360   8.539  1.00  0.00     0.275 C 
ENDROOT
BRANCH   1   2
ATOM      2  O   UNL     1       2.082   2.016   7.838  1.00  0.00    -0.458 OA
BRANCH   2   3
ATOM      3  C   UNL     1       2.208   0.972   6.984  1.00  0.00     0.339 C 
ATOM      4  O   UNL     1       3.238   0.377   6.730  1.00  0.00    -0.246 OA
BRANCH   3   5
ATOM      5  C   UNL     1       0.926   0.608   6.343  1.00  0.00     0.078 A 
ATOM      6  C   UNL     1      -1.100  -0.021   4.590  1.00  0.00     0.095 A 
ATOM      7  C   UNL     1      -1.204   1.134   5.371  1.00  0.00     0.031 A 
ATOM      8  N   UNL     1      -0.099  -0.916   4.766  1.00  0.00    -0.254 NA
ATOM      9  C   UNL     1      -0.180   1.448   6.270  1.00  0.00     0.019 A 
ATOM     10  C   UNL     1       0.898  -0.572   5.608  1.00  0.00     0.127 A 
BRANCH   6  11
ATOM     11  C   UNL     1      -2.011  -0.243   3.390  1.00  0.00     0.319 C 
BRANCH  11  12
ATOM     12  N   UNL     1      -1.457   0.109   2.060  1.00  0.00    -0.330 N 
ATOM     13  C   UNL     1       0.376   1.577   1.469  1.00  0.00     0.076 C 
ATOM     14  C   UNL     1       0.922   0.201   1.813  1.00  0.00     0.073 C 
ATOM     15  C   UNL     1      -1.094   1.524   1.903  1.00  0.00     0.268 C 
ATOM     16  C   UNL     1      -0.294  -0.699   1.663  1.00  0.00     0.263 C 
ATOM     17  H   UNL     1      -2.243  -0.100   1.445  1.00  0.00     0.348 HD
BRANCH  13  18
ATOM     18  C   UNL     1       1.116   2.805   2.017  1.00  0.00     0.169 C 
BRANCH  18  19
ATOM     19  O   UNL     1       2.459   2.522   2.407  1.00  0.00    -0.384 OA
ATOM     20  C   UNL     1       2.579   2.386   3.817  1.00  0.00     0.194 C 
ENDBRANCH  18  19
ENDBRANCH  13  18
ENDBRANCH  11  12
ENDBRANCH   6  11
ENDBRANCH   3   5
ENDBRANCH   2   3
ENDBRANCH   1   2
BRANCH   1  21
ATOM     21  C   UNL     1       3.295   1.768   9.948  1.00  0.00     0.275 C 
BRANCH  21  22
ATOM     22  O   UNL     1       3.174   0.333   9.896  1.00  0.00    -0.458 OA
BRANCH  22  23
ATOM     23  C   UNL     1       1.953  -0.153  10.216  1.00  0.00     0.338 C 
ATOM     24  O   UNL     1       0.977   0.476  10.595  1.00  0.00    -0.246 OA
BRANCH  23  25
ATOM     25  C   UNL     1       1.903  -1.604   9.981  1.00  0.00     0.060 A 
ATOM     26  C   UNL     1       1.973  -2.082   8.676  1.00  0.00     0.016 A 
ATOM     27  C   UNL     1       1.605  -2.476  11.023  1.00  0.00     0.016 A 
ATOM     28  C   UNL     1       1.634  -3.397   8.384  1.00  0.00     0.010 A 
ATOM     29  C   UNL     1       1.389  -3.831  10.744  1.00  0.00     0.010 A 
ATOM     30  C   UNL     1       1.361  -4.300   9.416  1.00  0.00    -0.014 A 
BRANCH  30  31
ATOM     31  C   UNL     1       1.015  -5.715   9.106  1.00  0.00     0.031 A 
ATOM     32  C   UNL     1      -0.283  -6.295   9.598  1.00  0.00     0.074 A 
ATOM     33  C   UNL     1       1.852  -6.482   8.378  1.00  0.00     0.049 A 
ATOM     34  N   UNL     1      -0.674  -7.544   9.637  1.00  0.00    -0.248 NA
ATOM     35  C   UNL     1      -1.268  -5.343  10.137  1.00  0.00     0.031 C 
ATOM     36  C   UNL     1       3.111  -6.035   7.779  1.00  0.00     0.029 A 
ATOM     37  N   UNL     1       1.768  -7.804   8.016  1.00  0.00    -0.354 N 
ATOM     38  C   UNL     1      -1.916  -7.534  10.261  1.00  0.00     0.074 A 
ATOM     39  C   UNL     1      -2.213  -6.156  10.588  1.00  0.00     0.031 C 
ATOM     40  C   UNL     1       3.663  -7.050   7.100  1.00  0.00     0.029 A 
ATOM     41  C   UNL     1       2.856  -8.246   7.302  1.00  0.00     0.049 A 
ATOM     42  H   UNL     1       1.003  -8.380   8.245  1.00  0.00     0.167 HD
ATOM     43  C   UNL     1      -2.728  -8.583  10.536  1.00  0.00     0.037 A 
ATOM     44  C   UNL     1       3.200  -9.486   6.904  1.00  0.00     0.037 A 
ATOM     45  C   UNL     1      -2.449  -9.943  10.151  1.00  0.00     0.049 A 
ATOM     46  C   UNL     1       2.307 -10.639   7.264  1.00  0.00     0.074 A 
ATOM     47  C   UNL     1      -3.216 -11.075  10.363  1.00  0.00     0.029 A 
ATOM     48  N   UNL     1      -1.318 -10.351   9.459  1.00  0.00    -0.354 N 
ATOM     49  N   UNL     1       1.165 -10.633   7.908  1.00  0.00    -0.248 NA
ATOM     50  C   UNL     1       2.761 -11.977   6.861  1.00  0.00     0.031 C 
ATOM     51  C   UNL     1      -2.527 -12.175   9.840  1.00  0.00     0.029 A 
ATOM     52  C   UNL     1      -1.356 -11.721   9.254  1.00  0.00     0.049 A 
ATOM     53  H   UNL     1      -0.594  -9.755   9.158  1.00  0.00     0.167 HD
ATOM     54  C   UNL     1       0.758 -11.957   7.975  1.00  0.00     0.074 A 
ATOM     55  C   UNL     1       1.764 -12.739   7.285  1.00  0.00     0.031 C 
ATOM     56  C   UNL     1      -0.347 -12.481   8.561  1.00  0.00     0.037 A 
BRANCH  43  57
ATOM     57  C   UNL     1      -3.977  -8.311  11.326  1.00  0.00     0.064 A 
ATOM     58  C   UNL     1      -5.069  -7.618  10.785  1.00  0.00     0.173 A 
ATOM     59  C   UNL     1      -4.090  -8.782  12.645  1.00  0.00     0.173 A 
ATOM     60  F   UNL     1      -5.011  -7.134   9.535  1.00  0.00    -0.203 F 
ATOM     61  C   UNL     1      -6.215  -7.381  11.543  1.00  0.00     0.198 A 
ATOM     62  C   UNL     1      -5.248  -8.572  13.388  1.00  0.00     0.198 A 
ATOM     63  F   UNL     1      -3.077  -9.456  13.211  1.00  0.00    -0.203 F 
ATOM     64  F   UNL     1      -7.226  -6.672  11.022  1.00  0.00    -0.200 F 
ATOM     65  C   UNL     1      -6.306  -7.864  12.840  1.00  0.00     0.200 A 
ATOM     66  F   UNL     1      -5.339  -9.052  14.636  1.00  0.00    -0.200 F 
ATOM     67  F   UNL     1      -7.412  -7.641  13.564  1.00  0.00    -0.200 F 
ENDBRANCH  43  57
BRANCH  44  68
ATOM     68  C   UNL     1       4.475  -9.703   6.170  1.00  0.00     0.064 A 
ATOM     69  C   UNL     1       4.477 -10.123   4.833  1.00  0.00     0.173 A 
ATOM     70  C   UNL     1       5.718  -9.494   6.789  1.00  0.00     0.173 A 
ATOM     71  F   UNL     1       3.317 -10.364   4.206  1.00  0.00    -0.203 F 
ATOM     72  C   UNL     1       5.672 -10.336   4.148  1.00  0.00     0.198 A 
ATOM     73  C   UNL     1       6.910  -9.673   6.092  1.00  0.00     0.198 A 
ATOM     74  F   UNL     1       5.774  -9.094   8.068  1.00  0.00    -0.203 F 
ATOM     75  F   UNL     1       5.646 -10.783   2.885  1.00  0.00    -0.200 F 
ATOM     76  C   UNL     1       6.887 -10.102   4.774  1.00  0.00     0.200 A 
ATOM     77  F   UNL     1       8.081  -9.430   6.697  1.00  0.00    -0.200 F 
ATOM     78  F   UNL     1       8.034 -10.299   4.111  1.00  0.00    -0.200 F 
ENDBRANCH  44  68
BRANCH  56  79
ATOM     79  C   UNL     1      -0.539 -13.965   8.450  1.00  0.00     0.064 A 
ATOM     80  C   UNL     1       0.259 -14.866   9.171  1.00  0.00     0.173 A 
ATOM     81  C   UNL     1      -1.552 -14.489   7.634  1.00  0.00     0.173 A 
ATOM     82  F   UNL     1       1.252 -14.414   9.951  1.00  0.00    -0.203 F 
ATOM     83  C   UNL     1       0.066 -16.240   9.056  1.00  0.00     0.198 A 
ATOM     84  C   UNL     1      -1.762 -15.862   7.546  1.00  0.00     0.198 A 
ATOM     85  F   UNL     1      -2.345 -13.669   6.928  1.00  0.00    -0.203 F 
ATOM     86  F   UNL     1       0.872 -17.084   9.713  1.00  0.00    -0.200 F 
ATOM     87  C   UNL     1      -0.949 -16.736   8.251  1.00  0.00     0.200 A 
ATOM     88  F   UNL     1      -2.751 -16.340   6.777  1.00  0.00    -0.200 F 
ATOM     89  F   UNL     1      -1.136 -18.059   8.146  1.00  0.00    -0.200 F 
ENDBRANCH  56  79
ENDBRANCH  30  31
ENDBRANCH  23  25
ENDBRANCH  22  23
ENDBRANCH  21  22
ENDBRANCH   1  21
TORSDOF 15
