REMARK SMILES O=C(OCCOC(=O)c1cccc(Nc2ccc([N+](=O)[O-])cc2)c1)c1ccc(-c2c3nc(c(-c4c(F)c(F)c(F)c(F)c4F)c4ccc([nH]4)c(-c4c(F)c(F)c(F)c(F)c4F)c4nc(c(-c5c(F)c(F)c(F)c(F)c5F)c5ccc2[nH]5)C=C4)C=C3)cc1
REMARK SMILES IDX 5 1 4 2 3 3 2 4 1 5 25 6 26 7 87 8 27 9 86 10 28 11 29 12
REMARK SMILES IDX 30 13 80 14 31 15 85 16 79 17 81 18 32 19 84 20 78 21 77 22
REMARK SMILES IDX 33 24 65 25 45 26 64 27 46 28 49 29 63 30 82 31 47 32 48 33
REMARK SMILES IDX 62 35 83 36 50 37 34 38 35 39 43 40 36 41 37 42 41 43 44 44
REMARK SMILES IDX 38 45 39 46 42 47 40 48 66 49 67 50 75 51 68 52 69 53 73 54
REMARK SMILES IDX 76 55 70 56 71 57 74 58 72 59 51 60 52 61 60 62 53 63 54 64
REMARK SMILES IDX 58 65 61 66 55 67 56 68 59 69 57 70 6 71 7 72 8 73 9 74
REMARK SMILES IDX 10 75 24 76 11 77 13 78 12 79 14 80 15 82 16 83 23 84 17 85
REMARK SMILES IDX 22 86 18 87 19 88 20 89 21 90
REMARK H PARENT 81 23 49 34 14 81
REMARK Flexibility Score: inf
ROOT
ATOM      1  C   UNL     1       4.098   0.169  -2.312  1.00  0.00     0.275 C 
ENDROOT
BRANCH   1   2
ATOM      2  C   UNL     1       4.158  -1.014  -1.342  1.00  0.00     0.275 C 
BRANCH   2   3
ATOM      3  O   UNL     1       3.024  -1.137  -0.463  1.00  0.00    -0.458 OA
BRANCH   3   4
ATOM      4  C   UNL     1       2.825  -0.619   0.771  1.00  0.00     0.338 C 
ATOM      5  O   UNL     1       1.915  -1.066   1.468  1.00  0.00    -0.246 OA
BRANCH   4   6
ATOM      6  C   UNL     1       3.556   0.578   1.289  1.00  0.00     0.060 A 
ATOM      7  C   UNL     1       4.897   0.881   1.050  1.00  0.00     0.016 A 
ATOM      8  C   UNL     1       2.823   1.440   2.129  1.00  0.00     0.016 A 
ATOM      9  C   UNL     1       5.478   2.032   1.584  1.00  0.00     0.010 A 
ATOM     10  C   UNL     1       3.396   2.598   2.664  1.00  0.00     0.010 A 
ATOM     11  C   UNL     1       4.738   2.886   2.406  1.00  0.00    -0.014 A 
BRANCH  11  12
ATOM     12  C   UNL     1       5.448   3.960   3.131  1.00  0.00     0.031 A 
ATOM     13  C   UNL     1       5.899   3.688   4.534  1.00  0.00     0.074 A 
ATOM     14  C   UNL     1       5.772   5.109   2.514  1.00  0.00     0.049 A 
ATOM     15  N   UNL     1       6.664   4.408   5.311  1.00  0.00    -0.248 NA
ATOM     16  C   UNL     1       5.451   2.419   5.132  1.00  0.00     0.031 C 
ATOM     17  C   UNL     1       5.435   5.444   1.134  1.00  0.00     0.029 A 
ATOM     18  N   UNL     1       6.467   6.202   2.963  1.00  0.00    -0.354 N 
ATOM     19  C   UNL     1       6.821   3.663   6.471  1.00  0.00     0.074 A 
ATOM     20  C   UNL     1       6.023   2.466   6.324  1.00  0.00     0.031 C 
ATOM     21  C   UNL     1       5.903   6.671   0.851  1.00  0.00     0.029 A 
ATOM     22  C   UNL     1       6.577   7.203   2.030  1.00  0.00     0.049 A 
ATOM     23  H   UNL     1       6.849   6.263   3.868  1.00  0.00     0.167 HD
ATOM     24  C   UNL     1       7.588   3.941   7.549  1.00  0.00     0.037 A 
ATOM     25  C   UNL     1       7.167   8.410   2.123  1.00  0.00     0.037 A 
ATOM     26  C   UNL     1       8.348   5.151   7.698  1.00  0.00     0.049 A 
ATOM     27  C   UNL     1       7.916   8.749   3.383  1.00  0.00     0.074 A 
ATOM     28  C   UNL     1       9.147   5.549   8.754  1.00  0.00     0.029 A 
ATOM     29  N   UNL     1       8.384   6.173   6.758  1.00  0.00    -0.354 N 
ATOM     30  N   UNL     1       8.105   8.016   4.454  1.00  0.00    -0.248 NA
ATOM     31  C   UNL     1       8.558  10.068   3.435  1.00  0.00     0.031 C 
ATOM     32  C   UNL     1       9.627   6.834   8.473  1.00  0.00     0.029 A 
ATOM     33  C   UNL     1       9.170   7.214   7.220  1.00  0.00     0.049 A 
ATOM     34  H   UNL     1       7.919   6.158   5.890  1.00  0.00     0.167 HD
ATOM     35  C   UNL     1       8.930   8.760   5.285  1.00  0.00     0.074 A 
ATOM     36  C   UNL     1       9.197  10.007   4.595  1.00  0.00     0.031 C 
ATOM     37  C   UNL     1       9.433   8.436   6.502  1.00  0.00     0.037 A 
BRANCH  24  38
ATOM     38  C   UNL     1       7.601   2.921   8.648  1.00  0.00     0.064 A 
ATOM     39  C   UNL     1       8.241   1.681   8.489  1.00  0.00     0.173 A 
ATOM     40  C   UNL     1       6.934   3.167   9.855  1.00  0.00     0.173 A 
ATOM     41  F   UNL     1       8.872   1.388   7.342  1.00  0.00    -0.203 F 
ATOM     42  C   UNL     1       8.179   0.711   9.486  1.00  0.00     0.198 A 
ATOM     43  C   UNL     1       6.895   2.204  10.860  1.00  0.00     0.198 A 
ATOM     44  F   UNL     1       6.302   4.334  10.053  1.00  0.00    -0.203 F 
ATOM     45  F   UNL     1       8.742  -0.489   9.288  1.00  0.00    -0.200 F 
ATOM     46  C   UNL     1       7.508   0.974  10.671  1.00  0.00     0.200 A 
ATOM     47  F   UNL     1       6.249   2.460  12.006  1.00  0.00    -0.200 F 
ATOM     48  F   UNL     1       7.438   0.035  11.625  1.00  0.00    -0.200 F 
ENDBRANCH  24  38
BRANCH  25  49
ATOM     49  C   UNL     1       7.104   9.362   0.985  1.00  0.00     0.064 A 
ATOM     50  C   UNL     1       8.238   9.659   0.218  1.00  0.00     0.173 A 
ATOM     51  C   UNL     1       5.903  10.004   0.650  1.00  0.00     0.173 A 
ATOM     52  F   UNL     1       9.414   9.087   0.513  1.00  0.00    -0.203 F 
ATOM     53  C   UNL     1       8.176  10.572  -0.835  1.00  0.00     0.198 A 
ATOM     54  C   UNL     1       5.835  10.895  -0.419  1.00  0.00     0.198 A 
ATOM     55  F   UNL     1       4.794   9.767   1.363  1.00  0.00    -0.203 F 
ATOM     56  F   UNL     1       9.283  10.866  -1.529  1.00  0.00    -0.200 F 
ATOM     57  C   UNL     1       6.973  11.184  -1.156  1.00  0.00     0.200 A 
ATOM     58  F   UNL     1       4.668  11.474  -0.733  1.00  0.00    -0.200 F 
ATOM     59  F   UNL     1       6.913  12.056  -2.172  1.00  0.00    -0.200 F 
ENDBRANCH  25  49
BRANCH  37  60
ATOM     60  C   UNL     1      10.372   9.419   7.134  1.00  0.00     0.064 A 
ATOM     61  C   UNL     1       9.921  10.633   7.671  1.00  0.00     0.173 A 
ATOM     62  C   UNL     1      11.739   9.120   7.232  1.00  0.00     0.173 A 
ATOM     63  F   UNL     1       8.625  10.969   7.585  1.00  0.00    -0.203 F 
ATOM     64  C   UNL     1      10.811  11.525   8.262  1.00  0.00     0.198 A 
ATOM     65  C   UNL     1      12.621  10.001   7.851  1.00  0.00     0.198 A 
ATOM     66  F   UNL     1      12.217   7.969   6.737  1.00  0.00    -0.203 F 
ATOM     67  F   UNL     1      10.368  12.702   8.725  1.00  0.00    -0.200 F 
ATOM     68  C   UNL     1      12.158  11.205   8.358  1.00  0.00     0.200 A 
ATOM     69  F   UNL     1      13.919   9.684   7.954  1.00  0.00    -0.200 F 
ATOM     70  F   UNL     1      13.011  12.063   8.933  1.00  0.00    -0.200 F 
ENDBRANCH  37  60
ENDBRANCH  11  12
ENDBRANCH   4   6
ENDBRANCH   3   4
ENDBRANCH   2   3
ENDBRANCH   1   2
BRANCH   1  71
ATOM     71  O   UNL     1       3.615   1.379  -1.710  1.00  0.00    -0.458 OA
BRANCH  71  72
ATOM     72  C   UNL     1       2.280   1.580  -1.855  1.00  0.00     0.338 C 
ATOM     73  O   UNL     1       1.501   0.878  -2.479  1.00  0.00    -0.246 OA
BRANCH  72  74
ATOM     74  C   UNL     1       1.844   2.722  -1.032  1.00  0.00     0.062 A 
ATOM     75  C   UNL     1       0.735   2.536  -0.203  1.00  0.00     0.016 A 
ATOM     76  C   UNL     1       2.480   3.967  -1.097  1.00  0.00     0.041 A 
ATOM     77  C   UNL     1       0.291   3.583   0.595  1.00  0.00     0.003 A 
ATOM     78  C   UNL     1       1.991   5.055  -0.351  1.00  0.00     0.039 A 
ATOM     79  C   UNL     1       0.916   4.831   0.520  1.00  0.00     0.026 A 
BRANCH  78  80
ATOM     80  N   UNL     1       2.592   6.320  -0.518  1.00  0.00    -0.355 N 
ATOM     81  H   UNL     1       3.356   6.337  -1.138  1.00  0.00     0.167 HD
BRANCH  80  82
ATOM     82  C   UNL     1       2.274   7.563   0.060  1.00  0.00     0.039 A 
ATOM     83  C   UNL     1       2.007   8.647  -0.790  1.00  0.00     0.033 A 
ATOM     84  C   UNL     1       2.121   7.740   1.441  1.00  0.00     0.033 A 
ATOM     85  C   UNL     1       1.576   9.876  -0.281  1.00  0.00     0.088 A 
ATOM     86  C   UNL     1       1.696   8.967   1.968  1.00  0.00     0.088 A 
ATOM     87  C   UNL     1       1.414  10.028   1.100  1.00  0.00     0.269 A 
BRANCH  87  88
ATOM     88  N   UNL     1       0.928  11.306   1.637  1.00  0.00     0.062 N 
ATOM     89  O   UNL     1       0.659  12.206   0.828  1.00  0.00    -0.258 OA
ATOM     90  O   UNL     1       0.806  11.408   2.866  1.00  0.00    -0.258 OA
ENDBRANCH  87  88
ENDBRANCH  80  82
ENDBRANCH  78  80
ENDBRANCH  72  74
ENDBRANCH  71  72
ENDBRANCH   1  71
TORSDOF 14
