REMARK SMILES C[C@]1(C(=O)NCc2ccc(C(=O)OCCOC(=O)c3ccc(-c4c5nc(c(-c6c(F)c(F)c(F)c(F)c6F)c6ccc([nH]6)c(-c6c(F)c(F)c(F)c(F)c6F)c6nc(c(-c7c(F)c(F)c(F)c(F)c7F)c7ccc4[nH]7)C=C6)C=C5)cc3)o2)CCC[NH2+]C1
REMARK SMILES IDX 14 1 13 2 11 3 12 4 10 5 7 6 8 7 82 8 9 9 6 10 5 11 3 12
REMARK SMILES IDX 4 13 2 15 1 16 83 17 87 18 84 19 86 20 85 21 15 24 16 25
REMARK SMILES IDX 17 26 18 27 19 28 20 29 81 30 21 31 80 32 22 33 23 34 24 35
REMARK SMILES IDX 74 36 25 37 79 38 73 39 75 40 26 41 78 42 72 43 71 44 27 46
REMARK SMILES IDX 59 47 39 48 58 49 40 50 43 51 57 52 76 53 41 54 42 55 56 57
REMARK SMILES IDX 77 58 44 59 28 60 29 61 37 62 30 63 31 64 35 65 38 66 32 67
REMARK SMILES IDX 33 68 36 69 34 70 60 71 61 72 69 73 62 74 63 75 67 76 70 77
REMARK SMILES IDX 64 78 65 79 68 80 66 81 45 82 46 83 54 84 47 85 48 86 52 87
REMARK SMILES IDX 55 88 49 89 50 90 53 91 51 92
REMARK H PARENT 5 14 86 22 86 23 75 45 43 56
REMARK Flexibility Score: inf
ROOT
ATOM      1  C   UNL     1       4.614   7.005  -3.455  1.00  0.00     0.275 C 
ENDROOT
BRANCH   1   2
ATOM      2  O   UNL     1       4.760   5.580  -3.603  1.00  0.00    -0.456 OA
BRANCH   2   3
ATOM      3  C   UNL     1       4.843   4.859  -2.444  1.00  0.00     0.374 C 
ATOM      4  O   UNL     1       4.943   5.350  -1.329  1.00  0.00    -0.242 OA
BRANCH   3   5
ATOM      5  C   UNL     1       4.698   3.450  -2.735  1.00  0.00     0.211 A 
ATOM      6  C   UNL     1       4.229   1.356  -2.203  1.00  0.00     0.124 A 
ATOM      7  C   UNL     1       4.353   1.390  -3.574  1.00  0.00     0.048 A 
ATOM      8  O   UNL     1       4.488   2.591  -1.684  1.00  0.00    -0.452 OA
ATOM      9  C   UNL     1       4.655   2.731  -3.916  1.00  0.00     0.058 A 
BRANCH   6  10
ATOM     10  C   UNL     1       3.905   0.275  -1.240  1.00  0.00     0.191 C 
BRANCH  10  11
ATOM     11  N   UNL     1       2.728   0.626  -0.475  1.00  0.00    -0.348 N 
ATOM     12  C   UNL     1       1.514   0.079  -0.245  1.00  0.00     0.232 C 
ATOM     13  O   UNL     1       0.904   0.602   0.702  1.00  0.00    -0.274 OA
ATOM     14  H   UNL     1       2.841   1.482  -0.001  1.00  0.00     0.163 HD
BRANCH  12  15
ATOM     15  C   UNL     1       0.779  -0.959  -1.124  1.00  0.00     0.095 C 
ATOM     16  C   UNL     1      -0.242  -0.136  -1.954  1.00  0.00     0.028 C 
ATOM     17  C   UNL     1       1.577  -1.838  -2.098  1.00  0.00     0.028 C 
ATOM     18  C   UNL     1      -0.016  -1.903  -0.171  1.00  0.00     0.277 C 
ATOM     19  C   UNL     1       2.397  -2.914  -1.386  1.00  0.00     0.063 C 
ATOM     20  N   UNL     1       0.840  -2.895   0.498  1.00  0.00    -0.345 N 
ATOM     21  C   UNL     1       1.521  -3.753  -0.464  1.00  0.00     0.260 C 
ATOM     22  H   UNL     1       1.539  -2.405   1.057  1.00  0.00     0.346 HD
ATOM     23  H   UNL     1       0.248  -3.482   1.086  1.00  0.00     0.346 HD
ENDBRANCH  12  15
ENDBRANCH  10  11
ENDBRANCH   6  10
ENDBRANCH   3   5
ENDBRANCH   2   3
ENDBRANCH   1   2
BRANCH   1  24
ATOM     24  C   UNL     1       3.146   7.426  -3.583  1.00  0.00     0.275 C 
BRANCH  24  25
ATOM     25  O   UNL     1       2.373   7.034  -2.431  1.00  0.00    -0.458 OA
BRANCH  25  26
ATOM     26  C   UNL     1       1.740   5.841  -2.534  1.00  0.00     0.338 C 
ATOM     27  O   UNL     1       1.738   5.092  -3.498  1.00  0.00    -0.246 OA
BRANCH  26  28
ATOM     28  C   UNL     1       1.151   5.478  -1.234  1.00  0.00     0.060 A 
ATOM     29  C   UNL     1       1.578   4.290  -0.641  1.00  0.00     0.016 A 
ATOM     30  C   UNL     1       0.157   6.250  -0.627  1.00  0.00     0.016 A 
ATOM     31  C   UNL     1       1.021   3.871   0.561  1.00  0.00     0.010 A 
ATOM     32  C   UNL     1      -0.415   5.815   0.577  1.00  0.00     0.010 A 
ATOM     33  C   UNL     1       0.009   4.616   1.174  1.00  0.00    -0.014 A 
BRANCH  33  34
ATOM     34  C   UNL     1      -0.623   4.081   2.405  1.00  0.00     0.031 A 
ATOM     35  C   UNL     1      -1.979   3.442   2.335  1.00  0.00     0.074 A 
ATOM     36  C   UNL     1       0.053   4.096   3.568  1.00  0.00     0.049 A 
ATOM     37  N   UNL     1      -2.726   2.968   3.302  1.00  0.00    -0.248 NA
ATOM     38  C   UNL     1      -2.581   3.326   0.999  1.00  0.00     0.031 C 
ATOM     39  C   UNL     1       1.408   4.616   3.748  1.00  0.00     0.029 A 
ATOM     40  N   UNL     1      -0.302   3.643   4.814  1.00  0.00    -0.354 N 
ATOM     41  C   UNL     1      -3.889   2.518   2.695  1.00  0.00     0.074 A 
ATOM     42  C   UNL     1      -3.760   2.790   1.278  1.00  0.00     0.031 C 
ATOM     43  C   UNL     1       1.777   4.439   5.027  1.00  0.00     0.029 A 
ATOM     44  C   UNL     1       0.670   3.835   5.764  1.00  0.00     0.049 A 
ATOM     45  H   UNL     1      -1.170   3.222   5.008  1.00  0.00     0.167 HD
ATOM     46  C   UNL     1      -4.965   1.929   3.269  1.00  0.00     0.037 A 
ATOM     47  C   UNL     1       0.660   3.570   7.085  1.00  0.00     0.037 A 
ATOM     48  C   UNL     1      -5.075   1.623   4.672  1.00  0.00     0.049 A 
ATOM     49  C   UNL     1      -0.565   2.957   7.706  1.00  0.00     0.074 A 
ATOM     50  C   UNL     1      -6.127   1.028   5.348  1.00  0.00     0.029 A 
ATOM     51  N   UNL     1      -4.088   1.875   5.613  1.00  0.00    -0.354 N 
ATOM     52  N   UNL     1      -1.682   2.578   7.134  1.00  0.00    -0.248 NA
ATOM     53  C   UNL     1      -0.536   2.746   9.160  1.00  0.00     0.031 C 
ATOM     54  C   UNL     1      -5.790   0.953   6.704  1.00  0.00     0.029 A 
ATOM     55  C   UNL     1      -4.514   1.466   6.867  1.00  0.00     0.049 A 
ATOM     56  H   UNL     1      -3.214   2.285   5.419  1.00  0.00     0.167 HD
ATOM     57  C   UNL     1      -2.481   2.075   8.150  1.00  0.00     0.074 A 
ATOM     58  C   UNL     1      -1.715   2.179   9.375  1.00  0.00     0.031 C 
ATOM     59  C   UNL     1      -3.739   1.578   8.076  1.00  0.00     0.037 A 
BRANCH  46  60
ATOM     60  C   UNL     1      -6.131   1.608   2.383  1.00  0.00     0.064 A 
ATOM     61  C   UNL     1      -6.106   0.531   1.486  1.00  0.00     0.173 A 
ATOM     62  C   UNL     1      -7.304   2.374   2.460  1.00  0.00     0.173 A 
ATOM     63  F   UNL     1      -5.003  -0.223   1.366  1.00  0.00    -0.203 F 
ATOM     64  C   UNL     1      -7.206   0.246   0.681  1.00  0.00     0.198 A 
ATOM     65  C   UNL     1      -8.411   2.071   1.672  1.00  0.00     0.198 A 
ATOM     66  F   UNL     1      -7.381   3.412   3.307  1.00  0.00    -0.203 F 
ATOM     67  F   UNL     1      -7.148  -0.764  -0.198  1.00  0.00    -0.200 F 
ATOM     68  C   UNL     1      -8.359   1.012   0.779  1.00  0.00     0.200 A 
ATOM     69  F   UNL     1      -9.527   2.806   1.774  1.00  0.00    -0.200 F 
ATOM     70  F   UNL     1      -9.418   0.733   0.007  1.00  0.00    -0.200 F 
ENDBRANCH  46  60
BRANCH  47  71
ATOM     71  C   UNL     1       1.845   3.909   7.913  1.00  0.00     0.064 A 
ATOM     72  C   UNL     1       2.651   2.906   8.468  1.00  0.00     0.173 A 
ATOM     73  C   UNL     1       2.190   5.244   8.170  1.00  0.00     0.173 A 
ATOM     74  F   UNL     1       2.342   1.615   8.277  1.00  0.00    -0.203 F 
ATOM     75  C   UNL     1       3.755   3.227   9.255  1.00  0.00     0.198 A 
ATOM     76  C   UNL     1       3.309   5.563   8.936  1.00  0.00     0.198 A 
ATOM     77  F   UNL     1       1.445   6.240   7.669  1.00  0.00    -0.203 F 
ATOM     78  F   UNL     1       4.488   2.250   9.808  1.00  0.00    -0.200 F 
ATOM     79  C   UNL     1       4.087   4.554   9.482  1.00  0.00     0.200 A 
ATOM     80  F   UNL     1       3.630   6.847   9.147  1.00  0.00    -0.200 F 
ATOM     81  F   UNL     1       5.151   4.861  10.237  1.00  0.00    -0.200 F 
ENDBRANCH  47  71
BRANCH  59  82
ATOM     82  C   UNL     1      -4.361   1.097   9.353  1.00  0.00     0.064 A 
ATOM     83  C   UNL     1      -4.832   1.998  10.319  1.00  0.00     0.173 A 
ATOM     84  C   UNL     1      -4.519  -0.275   9.597  1.00  0.00     0.173 A 
ATOM     85  F   UNL     1      -4.689   3.319  10.137  1.00  0.00    -0.203 F 
ATOM     86  C   UNL     1      -5.422   1.540  11.494  1.00  0.00     0.198 A 
ATOM     87  C   UNL     1      -5.130  -0.728  10.762  1.00  0.00     0.198 A 
ATOM     88  F   UNL     1      -4.089  -1.176   8.700  1.00  0.00    -0.203 F 
ATOM     89  F   UNL     1      -5.831   2.417  12.422  1.00  0.00    -0.200 F 
ATOM     90  C   UNL     1      -5.576   0.179  11.712  1.00  0.00     0.200 A 
ATOM     91  F   UNL     1      -5.287  -2.043  10.968  1.00  0.00    -0.200 F 
ATOM     92  F   UNL     1      -6.148  -0.259  12.842  1.00  0.00    -0.200 F 
ENDBRANCH  59  82
ENDBRANCH  33  34
ENDBRANCH  26  28
ENDBRANCH  25  26
ENDBRANCH  24  25
ENDBRANCH   1  24
TORSDOF 14
