REMARK SMILES O=C(OCCOC(=O)c1ccc(-c2c3nc(c(-c4c(F)c(F)c(F)c(F)c4F)c4ccc([nH]4)c(-c4c(F)c(F)c(F)c(F)c4F)c4nc(c(-c5c(F)c(F)c(F)c(F)c5F)c5ccc2[nH]5)C=C4)C=C3)cc1)c1ccc(Cn2ccnc2C[NH2+]C2CC2)cc1
REMARK SMILES IDX 3 1 2 2 1 3 72 4 73 5 88 6 74 7 87 8 75 9 76 10 77 11 78 12
REMARK SMILES IDX 81 13 79 14 80 15 82 16 83 17 84 20 85 21 86 22 4 23 5 24
REMARK SMILES IDX 6 25 7 26 8 27 9 28 10 29 71 30 11 31 70 32 12 33 13 34
REMARK SMILES IDX 14 35 64 36 15 37 69 38 63 39 65 40 16 41 68 42 62 43 61 44
REMARK SMILES IDX 17 46 49 47 29 48 48 49 30 50 33 51 47 52 66 53 31 54 32 55
REMARK SMILES IDX 46 57 67 58 34 59 18 60 19 61 27 62 20 63 21 64 25 65 28 66
REMARK SMILES IDX 22 67 23 68 26 69 24 70 50 71 51 72 59 73 52 74 53 75 57 76
REMARK SMILES IDX 60 77 54 78 55 79 58 80 56 81 35 82 36 83 44 84 37 85 38 86
REMARK SMILES IDX 42 87 45 88 39 89 40 90 43 91 41 92
REMARK H PARENT 83 18 83 19 65 45 33 56
REMARK Flexibility Score: inf
ROOT
ATOM      1  O   UNL     1       2.914   0.998   0.307  1.00  0.00    -0.458 OA
ENDROOT
BRANCH   1   2
ATOM      2  C   UNL     1       2.995   0.705  -1.015  1.00  0.00     0.338 C 
ATOM      3  O   UNL     1       2.187   1.226  -1.783  1.00  0.00    -0.246 OA
BRANCH   2   4
ATOM      4  C   UNL     1       3.890  -0.363  -1.572  1.00  0.00     0.060 A 
ATOM      5  C   UNL     1       4.992  -0.915  -0.930  1.00  0.00     0.016 A 
ATOM      6  C   UNL     1       3.534  -0.914  -2.818  1.00  0.00     0.016 A 
ATOM      7  C   UNL     1       5.581  -2.089  -1.391  1.00  0.00     0.006 A 
ATOM      8  C   UNL     1       4.187  -2.046  -3.329  1.00  0.00     0.006 A 
ATOM      9  C   UNL     1       5.163  -2.696  -2.575  1.00  0.00    -0.028 A 
BRANCH   9  10
ATOM     10  C   UNL     1       5.737  -4.035  -2.969  1.00  0.00     0.159 C 
BRANCH  10  11
ATOM     11  N   UNL     1       7.174  -3.939  -3.149  1.00  0.00    -0.326 N 
ATOM     12  C   UNL     1       8.099  -4.048  -2.142  1.00  0.00     0.108 A 
ATOM     13  C   UNL     1       7.849  -3.642  -4.308  1.00  0.00     0.164 A 
ATOM     14  C   UNL     1       9.276  -3.616  -2.696  1.00  0.00     0.131 A 
ATOM     15  N   UNL     1       9.117  -3.386  -4.034  1.00  0.00    -0.236 NA
BRANCH  13  16
ATOM     16  C   UNL     1       7.237  -3.721  -5.669  1.00  0.00     0.337 C 
BRANCH  16  17
ATOM     17  N   UNL     1       7.352  -2.474  -6.422  1.00  0.00    -0.338 N 
ATOM     18  H   UNL     1       8.335  -2.209  -6.483  1.00  0.00     0.346 HD
ATOM     19  H   UNL     1       6.817  -1.751  -5.940  1.00  0.00     0.346 HD
BRANCH  17  20
ATOM     20  C   UNL     1       6.814  -2.629  -7.772  1.00  0.00     0.183 C 
ATOM     21  C   UNL     1       7.509  -2.001  -8.943  1.00  0.00     0.071 C 
ATOM     22  C   UNL     1       7.603  -3.481  -8.730  1.00  0.00     0.071 C 
ENDBRANCH  17  20
ENDBRANCH  16  17
ENDBRANCH  13  16
ENDBRANCH  10  11
ENDBRANCH   9  10
ENDBRANCH   2   4
ENDBRANCH   1   2
BRANCH   1  23
ATOM     23  C   UNL     1       3.915   0.879   1.337  1.00  0.00     0.275 C 
BRANCH  23  24
ATOM     24  C   UNL     1       3.761  -0.383   2.203  1.00  0.00     0.275 C 
BRANCH  24  25
ATOM     25  O   UNL     1       3.545  -1.580   1.432  1.00  0.00    -0.458 OA
BRANCH  25  26
ATOM     26  C   UNL     1       2.241  -1.897   1.202  1.00  0.00     0.338 C 
ATOM     27  O   UNL     1       1.271  -1.353   1.689  1.00  0.00    -0.246 OA
BRANCH  26  28
ATOM     28  C   UNL     1       2.142  -2.942   0.148  1.00  0.00     0.060 A 
ATOM     29  C   UNL     1       1.101  -2.841  -0.785  1.00  0.00     0.016 A 
ATOM     30  C   UNL     1       3.037  -4.011   0.064  1.00  0.00     0.016 A 
ATOM     31  C   UNL     1       0.945  -3.805  -1.792  1.00  0.00     0.010 A 
ATOM     32  C   UNL     1       2.884  -4.970  -0.949  1.00  0.00     0.010 A 
ATOM     33  C   UNL     1       1.829  -4.887  -1.882  1.00  0.00    -0.014 A 
BRANCH  33  34
ATOM     34  C   UNL     1       1.601  -6.013  -2.839  1.00  0.00     0.031 A 
ATOM     35  C   UNL     1       1.154  -7.345  -2.297  1.00  0.00     0.074 A 
ATOM     36  C   UNL     1       1.805  -5.895  -4.167  1.00  0.00     0.049 A 
ATOM     37  N   UNL     1       0.987  -8.485  -2.918  1.00  0.00    -0.248 NA
ATOM     38  C   UNL     1       0.854  -7.392  -0.859  1.00  0.00     0.031 C 
ATOM     39  C   UNL     1       2.137  -4.663  -4.871  1.00  0.00     0.029 A 
ATOM     40  N   UNL     1       1.774  -6.842  -5.165  1.00  0.00    -0.354 N 
ATOM     41  C   UNL     1       0.567  -9.384  -1.948  1.00  0.00     0.074 A 
ATOM     42  C   UNL     1       0.560  -8.671  -0.688  1.00  0.00     0.031 C 
ATOM     43  C   UNL     1       2.328  -4.929  -6.176  1.00  0.00     0.029 A 
ATOM     44  C   UNL     1       2.112  -6.356  -6.406  1.00  0.00     0.049 A 
ATOM     45  H   UNL     1       1.530  -7.783  -5.005  1.00  0.00     0.167 HD
ATOM     46  C   UNL     1       0.194 -10.679  -2.088  1.00  0.00     0.037 A 
ATOM     47  C   UNL     1       2.223  -6.983  -7.593  1.00  0.00     0.037 A 
ATOM     48  C   UNL     1       0.174 -11.399  -3.333  1.00  0.00     0.049 A 
ATOM     49  C   UNL     1       1.923  -8.456  -7.704  1.00  0.00     0.074 A 
ATOM     50  C   UNL     1      -0.235 -12.700  -3.569  1.00  0.00     0.029 A 
ATOM     51  N   UNL     1       0.591 -10.886  -4.551  1.00  0.00    -0.354 N 
ATOM     52  N   UNL     1       1.501  -9.287  -6.785  1.00  0.00    -0.248 NA
ATOM     53  C   UNL     1       2.101  -9.071  -9.030  1.00  0.00     0.031 C 
ATOM     54  C   UNL     1      -0.006 -12.995  -4.917  1.00  0.00     0.029 A 
ATOM     55  C   UNL     1       0.487 -11.858  -5.534  1.00  0.00     0.049 A 
ATOM     56  H   UNL     1       0.914  -9.967  -4.697  1.00  0.00     0.167 HD
ATOM     57  C   UNL     1       1.308 -10.503  -7.430  1.00  0.00     0.074 A 
ATOM     58  C   UNL     1       1.680 -10.309  -8.815  1.00  0.00     0.031 C 
ATOM     59  C   UNL     1       0.843 -11.667  -6.917  1.00  0.00     0.037 A 
BRANCH  46  60
ATOM     60  C   UNL     1      -0.202 -11.412  -0.840  1.00  0.00     0.064 A 
ATOM     61  C   UNL     1      -1.387 -11.114  -0.151  1.00  0.00     0.173 A 
ATOM     62  C   UNL     1       0.622 -12.423  -0.325  1.00  0.00     0.173 A 
ATOM     63  F   UNL     1      -2.201 -10.145  -0.597  1.00  0.00    -0.203 F 
ATOM     64  C   UNL     1      -1.709 -11.768   1.034  1.00  0.00     0.198 A 
ATOM     65  C   UNL     1       0.280 -13.100   0.841  1.00  0.00     0.198 A 
ATOM     66  F   UNL     1       1.763 -12.751  -0.951  1.00  0.00    -0.203 F 
ATOM     67  F   UNL     1      -2.809 -11.418   1.714  1.00  0.00    -0.200 F 
ATOM     68  C   UNL     1      -0.877 -12.763   1.527  1.00  0.00     0.200 A 
ATOM     69  F   UNL     1       1.078 -14.069   1.310  1.00  0.00    -0.200 F 
ATOM     70  F   UNL     1      -1.184 -13.388   2.672  1.00  0.00    -0.200 F 
ENDBRANCH  46  60
BRANCH  47  71
ATOM     71  C   UNL     1       2.592  -6.231  -8.820  1.00  0.00     0.064 A 
ATOM     72  C   UNL     1       1.613  -5.892  -9.765  1.00  0.00     0.173 A 
ATOM     73  C   UNL     1       3.927  -5.935  -9.122  1.00  0.00     0.173 A 
ATOM     74  F   UNL     1       0.329  -6.200  -9.534  1.00  0.00    -0.203 F 
ATOM     75  C   UNL     1       1.956  -5.291 -10.974  1.00  0.00     0.198 A 
ATOM     76  C   UNL     1       4.267  -5.346 -10.339  1.00  0.00     0.198 A 
ATOM     77  F   UNL     1       4.899  -6.249  -8.253  1.00  0.00    -0.203 F 
ATOM     78  F   UNL     1       1.007  -5.014 -11.877  1.00  0.00    -0.200 F 
ATOM     79  C   UNL     1       3.284  -5.020 -11.261  1.00  0.00     0.200 A 
ATOM     80  F   UNL     1       5.551  -5.130 -10.646  1.00  0.00    -0.200 F 
ATOM     81  F   UNL     1       3.622  -4.467 -12.434  1.00  0.00    -0.200 F 
ENDBRANCH  47  71
BRANCH  59  82
ATOM     82  C   UNL     1       0.647 -12.824  -7.854  1.00  0.00     0.064 A 
ATOM     83  C   UNL     1       1.728 -13.543  -8.383  1.00  0.00     0.173 A 
ATOM     84  C   UNL     1      -0.649 -13.262  -8.170  1.00  0.00     0.173 A 
ATOM     85  F   UNL     1       2.986 -13.155  -8.127  1.00  0.00    -0.203 F 
ATOM     86  C   UNL     1       1.519 -14.654  -9.198  1.00  0.00     0.198 A 
ATOM     87  C   UNL     1      -0.855 -14.389  -8.961  1.00  0.00     0.198 A 
ATOM     88  F   UNL     1      -1.718 -12.610  -7.689  1.00  0.00    -0.203 F 
ATOM     89  F   UNL     1       2.567 -15.309  -9.717  1.00  0.00    -0.200 F 
ATOM     90  C   UNL     1       0.229 -15.082  -9.477  1.00  0.00     0.200 A 
ATOM     91  F   UNL     1      -2.102 -14.808  -9.217  1.00  0.00    -0.200 F 
ATOM     92  F   UNL     1       0.031 -16.163 -10.245  1.00  0.00    -0.200 F 
ENDBRANCH  59  82
ENDBRANCH  33  34
ENDBRANCH  26  28
ENDBRANCH  25  26
ENDBRANCH  24  25
ENDBRANCH  23  24
ENDBRANCH   1  23
TORSDOF 16
