REMARK SMILES Cc1ccc(C(=O)N2CCCC[C@@H]2C(=O)OCCOC(=O)c2ccc(-c3c4nc(c(-c5c(F)c(F)c(F)c(F)c5F)c5ccc([nH]5)c(-c5c(F)c(F)c(F)c(F)c5F)c5nc(c(-c6c(F)c(F)c(F)c(F)c6F)c6ccc3[nH]6)C=C5)C=C4)cc2)cc1S(=O)(=O)N1CCCCC1
REMARK SMILES IDX 17 1 16 2 14 3 15 4 13 5 8 6 9 7 10 8 12 9 11 10 6 11 7 12
REMARK SMILES IDX 5 13 1 14 2 15 3 16 86 17 4 18 85 19 87 20 88 21 89 22 90 23
REMARK SMILES IDX 91 24 95 25 92 26 94 27 93 28 18 29 19 30 20 31 21 32 22 33
REMARK SMILES IDX 23 34 84 35 24 36 83 37 25 38 26 39 27 40 77 41 28 42 82 43
REMARK SMILES IDX 76 44 78 45 29 46 81 47 75 48 74 49 30 51 62 52 42 53 61 54
REMARK SMILES IDX 43 55 46 56 60 57 79 58 44 59 45 60 59 62 80 63 47 64 31 65
REMARK SMILES IDX 32 66 40 67 33 68 34 69 38 70 41 71 35 72 36 73 39 74 37 75
REMARK SMILES IDX 63 76 64 77 72 78 65 79 66 80 70 81 73 82 67 83 68 84 71 85
REMARK SMILES IDX 69 86 48 87 49 88 57 89 50 90 51 91 55 92 58 93 52 94 53 95
REMARK SMILES IDX 56 96 54 97
REMARK H PARENT 78 50 46 61
REMARK Flexibility Score: inf
ROOT
ATOM      1  C   UNL     1      -3.838  -0.849  -4.859  1.00  0.00     0.274 C 
ENDROOT
BRANCH   1   2
ATOM      2  O   UNL     1      -3.644  -0.011  -3.300  1.00  0.00    -0.461 OA
BRANCH   2   3
ATOM      3  C   UNL     1      -2.974   1.551  -2.486  1.00  0.00     0.328 C 
ATOM      4  O   UNL     1      -1.892   2.127  -2.783  1.00  0.00    -0.250 OA
BRANCH   3   5
ATOM      5  C   UNL     1      -3.913   2.540  -1.372  1.00  0.00     0.195 C 
ATOM      6  N   UNL     1      -3.845   1.903  -0.110  1.00  0.00    -0.325 N 
ATOM      7  C   UNL     1      -4.646   2.378   1.059  1.00  0.00     0.121 C 
ATOM      8  C   UNL     1      -6.060   2.788   0.739  1.00  0.00     0.022 C 
ATOM      9  C   UNL     1      -5.312   3.211  -1.590  1.00  0.00     0.037 C 
ATOM     10  C   UNL     1      -5.991   3.826  -0.360  1.00  0.00     0.005 C 
BRANCH   6  11
ATOM     11  C   UNL     1      -2.630   1.322   0.193  1.00  0.00     0.254 C 
ATOM     12  O   UNL     1      -2.510   1.323   1.445  1.00  0.00    -0.269 OA
BRANCH  11  13
ATOM     13  C   UNL     1      -1.418   0.403  -1.052  1.00  0.00     0.041 A 
ATOM     14  C   UNL     1       1.087  -0.543   2.676  1.00  0.00     0.046 C 
ATOM     15  C   UNL     1      -0.170  -0.532   1.905  1.00  0.00    -0.031 A 
ATOM     16  C   UNL     1      -0.768  -2.029   0.934  1.00  0.00     0.005 A 
ATOM     17  C   UNL     1      -0.052   1.133   1.322  1.00  0.00     0.086 A 
ATOM     18  C   UNL     1      -1.340  -1.653  -0.891  1.00  0.00     0.014 A 
ATOM     19  C   UNL     1      -0.651   1.557  -0.059  1.00  0.00     0.035 A 
BRANCH  17  20
ATOM     20  S   UNL     1       1.312   2.641   1.915  1.00  0.00     0.243 S 
ATOM     21  O   UNL     1       0.838   3.855   1.265  1.00  0.00    -0.207 OA
ATOM     22  O   UNL     1       1.397   2.546   3.357  1.00  0.00    -0.207 OA
BRANCH  20  23
ATOM     23  N   UNL     1       3.179   2.406   1.210  1.00  0.00    -0.198 NA
ATOM     24  C   UNL     1       4.118   2.523   2.360  1.00  0.00     0.102 C 
ATOM     25  C   UNL     1       3.759   3.402   0.127  1.00  0.00     0.102 C 
ATOM     26  C   UNL     1       5.602   2.490   1.901  1.00  0.00     0.017 C 
ATOM     27  C   UNL     1       5.102   2.833  -0.490  1.00  0.00     0.017 C 
ATOM     28  C   UNL     1       5.860   1.965   0.490  1.00  0.00     0.003 C 
ENDBRANCH  20  23
ENDBRANCH  17  20
ENDBRANCH  11  13
ENDBRANCH   6  11
ENDBRANCH   3   5
ENDBRANCH   2   3
ENDBRANCH   1   2
BRANCH   1  29
ATOM     29  C   UNL     1      -3.363  -0.219  -6.322  1.00  0.00     0.275 C 
BRANCH  29  30
ATOM     30  O   UNL     1      -2.919   1.163  -6.564  1.00  0.00    -0.458 OA
BRANCH  30  31
ATOM     31  C   UNL     1      -3.231   2.150  -5.699  1.00  0.00     0.338 C 
ATOM     32  O   UNL     1      -3.020   3.341  -5.788  1.00  0.00    -0.246 OA
BRANCH  31  33
ATOM     33  C   UNL     1      -3.472   1.445  -4.490  1.00  0.00     0.060 A 
ATOM     34  C   UNL     1      -4.919   1.270  -3.364  1.00  0.00     0.016 A 
ATOM     35  C   UNL     1      -1.984   0.424  -4.196  1.00  0.00     0.016 A 
ATOM     36  C   UNL     1      -4.713   0.236  -1.794  1.00  0.00     0.010 A 
ATOM     37  C   UNL     1      -1.986  -0.680  -2.825  1.00  0.00     0.010 A 
ATOM     38  C   UNL     1      -3.160  -0.648  -1.353  1.00  0.00    -0.014 A 
BRANCH  38  39
ATOM     39  C   UNL     1      -1.981  -0.615   0.353  1.00  0.00     0.031 A 
ATOM     40  C   UNL     1      -2.933  -1.614   1.471  1.00  0.00     0.074 A 
ATOM     41  C   UNL     1      -0.085  -0.639  -0.123  1.00  0.00     0.049 A 
ATOM     42  N   UNL     1      -2.467  -2.372   2.455  1.00  0.00    -0.248 NA
ATOM     43  C   UNL     1      -4.311  -1.980   1.150  1.00  0.00     0.031 C 
ATOM     44  C   UNL     1       0.801  -2.248  -0.503  1.00  0.00     0.029 A 
ATOM     45  N   UNL     1       0.805  -0.213  -1.305  1.00  0.00    -0.354 N 
ATOM     46  C   UNL     1      -3.173  -3.564   2.385  1.00  0.00     0.074 A 
ATOM     47  C   UNL     1      -4.448  -3.125   1.842  1.00  0.00     0.031 C 
ATOM     48  C   UNL     1       1.869  -2.224  -1.271  1.00  0.00     0.029 A 
ATOM     49  C   UNL     1       2.078  -0.873  -1.400  1.00  0.00     0.049 A 
ATOM     50  H   UNL     1       0.520   0.468  -1.956  1.00  0.00     0.167 HD
ATOM     51  C   UNL     1      -2.570  -4.814   2.458  1.00  0.00     0.037 A 
ATOM     52  C   UNL     1       3.209  -0.328  -0.921  1.00  0.00     0.037 A 
ATOM     53  C   UNL     1      -1.059  -4.821   2.390  1.00  0.00     0.049 A 
ATOM     54  C   UNL     1       3.483  -1.129   0.658  1.00  0.00     0.074 A 
ATOM     55  C   UNL     1      -0.182  -5.447   1.497  1.00  0.00     0.029 A 
ATOM     56  N   UNL     1      -0.224  -3.994   3.164  1.00  0.00    -0.354 N 
ATOM     57  N   UNL     1       2.963  -2.323   1.076  1.00  0.00    -0.248 NA
ATOM     58  C   UNL     1       4.331  -0.701   1.801  1.00  0.00     0.031 C 
ATOM     59  C   UNL     1       1.154  -5.007   1.731  1.00  0.00     0.029 A 
ATOM     60  C   UNL     1       1.139  -4.072   2.744  1.00  0.00     0.049 A 
ATOM     61  H   UNL     1      -0.541  -3.429   3.906  1.00  0.00     0.167 HD
ATOM     62  C   UNL     1       3.103  -2.544   2.492  1.00  0.00     0.074 A 
ATOM     63  C   UNL     1       4.094  -1.548   2.828  1.00  0.00     0.031 C 
ATOM     64  C   UNL     1       2.224  -3.258   3.362  1.00  0.00     0.037 A 
BRANCH  51  65
ATOM     65  C   UNL     1      -3.285  -6.199   2.354  1.00  0.00     0.064 A 
ATOM     66  C   UNL     1      -2.542  -7.392   2.584  1.00  0.00     0.173 A 
ATOM     67  C   UNL     1      -4.647  -6.452   2.084  1.00  0.00     0.173 A 
ATOM     68  F   UNL     1      -1.244  -7.362   2.913  1.00  0.00    -0.203 F 
ATOM     69  C   UNL     1      -3.092  -8.680   2.523  1.00  0.00     0.198 A 
ATOM     70  C   UNL     1      -5.210  -7.741   2.073  1.00  0.00     0.198 A 
ATOM     71  F   UNL     1      -5.522  -5.489   1.805  1.00  0.00    -0.203 F 
ATOM     72  F   UNL     1      -2.306  -9.749   2.713  1.00  0.00    -0.200 F 
ATOM     73  C   UNL     1      -4.434  -8.855   2.288  1.00  0.00     0.200 A 
ATOM     74  F   UNL     1      -6.526  -7.884   1.850  1.00  0.00    -0.200 F 
ATOM     75  F   UNL     1      -4.976 -10.080   2.278  1.00  0.00    -0.200 F 
ENDBRANCH  51  65
BRANCH  52  76
ATOM     76  C   UNL     1       2.985   1.047  -1.784  1.00  0.00     0.064 A 
ATOM     77  C   UNL     1       3.184   1.164  -3.183  1.00  0.00     0.173 A 
ATOM     78  C   UNL     1       1.981   1.964  -1.447  1.00  0.00     0.173 A 
ATOM     79  F   UNL     1       4.044   0.338  -3.791  1.00  0.00    -0.203 F 
ATOM     80  C   UNL     1       2.443   2.071  -4.040  1.00  0.00     0.198 A 
ATOM     81  C   UNL     1       1.246   2.888  -2.229  1.00  0.00     0.198 A 
ATOM     82  F   UNL     1       1.583   1.830  -0.221  1.00  0.00    -0.203 F 
ATOM     83  F   UNL     1       2.664   2.075  -5.362  1.00  0.00    -0.200 F 
ATOM     84  C   UNL     1       1.458   2.916  -3.561  1.00  0.00     0.200 A 
ATOM     85  F   UNL     1       0.320   3.691  -1.681  1.00  0.00    -0.200 F 
ATOM     86  F   UNL     1       0.721   3.709  -4.351  1.00  0.00    -0.200 F 
ENDBRANCH  52  76
BRANCH  64  87
ATOM     87  C   UNL     1       2.132  -3.153   4.935  1.00  0.00     0.064 A 
ATOM     88  C   UNL     1       2.558  -2.073   5.733  1.00  0.00     0.173 A 
ATOM     89  C   UNL     1       1.477  -4.177   5.689  1.00  0.00     0.173 A 
ATOM     90  F   UNL     1       2.922  -0.905   5.190  1.00  0.00    -0.203 F 
ATOM     91  C   UNL     1       2.568  -2.133   7.144  1.00  0.00     0.198 A 
ATOM     92  C   UNL     1       1.407  -4.194   7.088  1.00  0.00     0.198 A 
ATOM     93  F   UNL     1       0.863  -5.209   5.095  1.00  0.00    -0.203 F 
ATOM     94  F   UNL     1       3.119  -1.136   7.851  1.00  0.00    -0.200 F 
ATOM     95  C   UNL     1       2.027  -3.211   7.818  1.00  0.00     0.200 A 
ATOM     96  F   UNL     1       0.755  -5.186   7.713  1.00  0.00    -0.200 F 
ATOM     97  F   UNL     1       2.097  -3.301   9.154  1.00  0.00    -0.200 F 
ENDBRANCH  64  87
ENDBRANCH  38  39
ENDBRANCH  31  33
ENDBRANCH  30  31
ENDBRANCH  29  30
ENDBRANCH   1  29
TORSDOF 15
