REMARK SMILES Cn1ncc(C(=O)OCCOC(=O)c2ccc(-c3c4nc(c(-c5c(F)c(F)c(F)c(F)c5F)c5ccc([nH]5)c(-c5c(F)c(F)c(F)c(F)c5F)c5nc(c(-c6c(F)c(F)c(F)c(F)c6F)c6ccc3[nH]6)C=C5)C=C4)cc2)c1C(=O)Nc1ccccn1
REMARK SMILES IDX 9 1 8 2 6 3 7 4 5 5 1 6 2 7 3 8 77 9 4 10 78 11 79 12 80 13
REMARK SMILES IDX 81 15 82 16 86 17 83 18 85 19 84 20 10 21 11 22 12 23 13 24
REMARK SMILES IDX 14 25 15 26 76 27 16 28 75 29 17 30 18 31 19 32 69 33 20 34
REMARK SMILES IDX 74 35 68 36 70 37 21 38 73 39 67 40 66 41 22 43 54 44 34 45
REMARK SMILES IDX 53 46 35 47 38 48 52 49 71 50 36 51 37 52 51 54 72 55 39 56
REMARK SMILES IDX 23 57 24 58 32 59 25 60 26 61 30 62 33 63 27 64 28 65 31 66
REMARK SMILES IDX 29 67 55 68 56 69 64 70 57 71 58 72 62 73 65 74 59 75 60 76
REMARK SMILES IDX 63 77 61 78 40 79 41 80 49 81 42 82 43 83 47 84 50 85 44 86
REMARK SMILES IDX 45 87 48 88 46 89
REMARK H PARENT 80 14 70 42 38 53
REMARK Flexibility Score: inf
ROOT
ATOM      1  C   UNL     1       3.640  -3.506  -0.194  1.00  0.00     0.275 C 
ENDROOT
BRANCH   1   2
ATOM      2  O   UNL     1       2.433  -2.722  -0.297  1.00  0.00    -0.458 OA
BRANCH   2   3
ATOM      3  C   UNL     1       2.329  -1.676   0.565  1.00  0.00     0.342 C 
ATOM      4  O   UNL     1       3.199  -1.356   1.371  1.00  0.00    -0.246 OA
BRANCH   3   5
ATOM      5  C   UNL     1       1.147  -0.850   0.381  1.00  0.00     0.111 A 
ATOM      6  C   UNL     1      -2.031   0.321   1.282  1.00  0.00     0.174 C 
ATOM      7  N   UNL     1      -0.850   0.004   0.509  1.00  0.00    -0.262 N 
ATOM      8  N   UNL     1      -0.071   1.065   0.239  1.00  0.00    -0.180 NA
ATOM      9  C   UNL     1      -0.208  -1.211   0.320  1.00  0.00     0.140 A 
ATOM     10  C   UNL     1       1.146   0.560   0.364  1.00  0.00     0.151 A 
BRANCH   9  11
ATOM     11  C   UNL     1      -0.734  -2.565   0.344  1.00  0.00     0.275 C 
ATOM     12  O   UNL     1      -0.010  -3.520   0.644  1.00  0.00    -0.267 OA
ATOM     13  N   UNL     1      -2.053  -2.882   0.151  1.00  0.00    -0.305 N 
ATOM     14  H   UNL     1      -2.253  -3.837   0.285  1.00  0.00     0.171 HD
BRANCH  13  15
ATOM     15  C   UNL     1      -3.157  -2.126  -0.196  1.00  0.00     0.132 A 
ATOM     16  C   UNL     1      -3.172  -1.230  -1.253  1.00  0.00     0.047 A 
ATOM     17  N   UNL     1      -4.192  -2.283   0.654  1.00  0.00    -0.239 NA
ATOM     18  C   UNL     1      -4.279  -0.390  -1.382  1.00  0.00     0.005 A 
ATOM     19  C   UNL     1      -5.228  -1.427   0.538  1.00  0.00     0.113 A 
ATOM     20  C   UNL     1      -5.309  -0.461  -0.447  1.00  0.00     0.020 A 
ENDBRANCH  13  15
ENDBRANCH   9  11
ENDBRANCH   3   5
ENDBRANCH   2   3
ENDBRANCH   1   2
BRANCH   1  21
ATOM     21  C   UNL     1       4.566  -3.236  -1.380  1.00  0.00     0.275 C 
BRANCH  21  22
ATOM     22  O   UNL     1       5.055  -1.881  -1.341  1.00  0.00    -0.458 OA
BRANCH  22  23
ATOM     23  C   UNL     1       4.443  -1.030  -2.196  1.00  0.00     0.338 C 
ATOM     24  O   UNL     1       3.574  -1.283  -3.008  1.00  0.00    -0.246 OA
BRANCH  23  25
ATOM     25  C   UNL     1       4.898   0.346  -1.947  1.00  0.00     0.060 A 
ATOM     26  C   UNL     1       4.332   1.026  -0.878  1.00  0.00     0.016 A 
ATOM     27  C   UNL     1       5.694   1.028  -2.860  1.00  0.00     0.016 A 
ATOM     28  C   UNL     1       4.422   2.410  -0.795  1.00  0.00     0.010 A 
ATOM     29  C   UNL     1       5.910   2.403  -2.688  1.00  0.00     0.010 A 
ATOM     30  C   UNL     1       5.237   3.124  -1.681  1.00  0.00    -0.014 A 
BRANCH  30  31
ATOM     31  C   UNL     1       5.362   4.608  -1.560  1.00  0.00     0.031 A 
ATOM     32  C   UNL     1       5.076   5.498  -2.744  1.00  0.00     0.074 A 
ATOM     33  C   UNL     1       5.718   5.171  -0.386  1.00  0.00     0.049 A 
ATOM     34  N   UNL     1       5.313   6.778  -2.898  1.00  0.00    -0.248 NA
ATOM     35  C   UNL     1       4.456   4.862  -3.917  1.00  0.00     0.031 C 
ATOM     36  C   UNL     1       5.972   4.448   0.862  1.00  0.00     0.029 A 
ATOM     37  N   UNL     1       5.928   6.487  -0.046  1.00  0.00    -0.354 N 
ATOM     38  C   UNL     1       4.927   7.084  -4.198  1.00  0.00     0.074 A 
ATOM     39  C   UNL     1       4.452   5.854  -4.796  1.00  0.00     0.031 C 
ATOM     40  C   UNL     1       6.261   5.324   1.834  1.00  0.00     0.029 A 
ATOM     41  C   UNL     1       6.327   6.660   1.258  1.00  0.00     0.049 A 
ATOM     42  H   UNL     1       5.805   7.233  -0.676  1.00  0.00     0.167 HD
ATOM     43  C   UNL     1       4.965   8.282  -4.833  1.00  0.00     0.037 A 
ATOM     44  C   UNL     1       6.757   7.756   1.912  1.00  0.00     0.037 A 
ATOM     45  C   UNL     1       5.389   9.513  -4.215  1.00  0.00     0.049 A 
ATOM     46  C   UNL     1       6.850   9.059   1.168  1.00  0.00     0.074 A 
ATOM     47  C   UNL     1       5.443  10.782  -4.767  1.00  0.00     0.029 A 
ATOM     48  N   UNL     1       5.822   9.632  -2.902  1.00  0.00    -0.354 N 
ATOM     49  N   UNL     1       6.525   9.329  -0.072  1.00  0.00    -0.248 NA
ATOM     50  C   UNL     1       7.388  10.206   1.911  1.00  0.00     0.031 C 
ATOM     51  C   UNL     1       5.961  11.657  -3.807  1.00  0.00     0.029 A 
ATOM     52  C   UNL     1       6.170  10.948  -2.635  1.00  0.00     0.049 A 
ATOM     53  H   UNL     1       5.875   8.892  -2.255  1.00  0.00     0.167 HD
ATOM     54  C   UNL     1       6.798  10.678  -0.253  1.00  0.00     0.074 A 
ATOM     55  C   UNL     1       7.294  11.176   1.013  1.00  0.00     0.031 C 
ATOM     56  C   UNL     1       6.656  11.433  -1.369  1.00  0.00     0.037 A 
BRANCH  43  57
ATOM     57  C   UNL     1       4.574   8.321  -6.284  1.00  0.00     0.064 A 
ATOM     58  C   UNL     1       3.249   8.144  -6.707  1.00  0.00     0.173 A 
ATOM     59  C   UNL     1       5.543   8.586  -7.266  1.00  0.00     0.173 A 
ATOM     60  F   UNL     1       2.284   7.879  -5.814  1.00  0.00    -0.203 F 
ATOM     61  C   UNL     1       2.913   8.201  -8.059  1.00  0.00     0.198 A 
ATOM     62  C   UNL     1       5.199   8.677  -8.613  1.00  0.00     0.198 A 
ATOM     63  F   UNL     1       6.825   8.774  -6.919  1.00  0.00    -0.203 F 
ATOM     64  F   UNL     1       1.649   7.979  -8.444  1.00  0.00    -0.200 F 
ATOM     65  C   UNL     1       3.886   8.475  -9.009  1.00  0.00     0.200 A 
ATOM     66  F   UNL     1       6.138   8.960  -9.526  1.00  0.00    -0.200 F 
ATOM     67  F   UNL     1       3.559   8.540 -10.307  1.00  0.00    -0.200 F 
ENDBRANCH  43  57
BRANCH  44  68
ATOM     68  C   UNL     1       7.187   7.656   3.333  1.00  0.00     0.064 A 
ATOM     69  C   UNL     1       6.483   8.316   4.350  1.00  0.00     0.173 A 
ATOM     70  C   UNL     1       8.316   6.909   3.704  1.00  0.00     0.173 A 
ATOM     71  F   UNL     1       5.413   9.065   4.046  1.00  0.00    -0.203 F 
ATOM     72  C   UNL     1       6.901   8.246   5.678  1.00  0.00     0.198 A 
ATOM     73  C   UNL     1       8.711   6.808   5.035  1.00  0.00     0.198 A 
ATOM     74  F   UNL     1       9.028   6.259   2.771  1.00  0.00    -0.203 F 
ATOM     75  F   UNL     1       6.242   8.930   6.622  1.00  0.00    -0.200 F 
ATOM     76  C   UNL     1       8.009   7.485   6.020  1.00  0.00     0.200 A 
ATOM     77  F   UNL     1       9.771   6.057   5.363  1.00  0.00    -0.200 F 
ATOM     78  F   UNL     1       8.407   7.413   7.298  1.00  0.00    -0.200 F 
ENDBRANCH  44  68
BRANCH  56  79
ATOM     79  C   UNL     1       7.003  12.890  -1.259  1.00  0.00     0.064 A 
ATOM     80  C   UNL     1       8.329  13.325  -1.122  1.00  0.00     0.173 A 
ATOM     81  C   UNL     1       5.995  13.865  -1.318  1.00  0.00     0.173 A 
ATOM     82  F   UNL     1       9.328  12.433  -1.042  1.00  0.00    -0.203 F 
ATOM     83  C   UNL     1       8.631  14.681  -1.020  1.00  0.00     0.198 A 
ATOM     84  C   UNL     1       6.303  15.220  -1.250  1.00  0.00     0.198 A 
ATOM     85  F   UNL     1       4.710  13.502  -1.452  1.00  0.00    -0.203 F 
ATOM     86  F   UNL     1       9.899  15.070  -0.835  1.00  0.00    -0.200 F 
ATOM     87  C   UNL     1       7.619  15.627  -1.093  1.00  0.00     0.200 A 
ATOM     88  F   UNL     1       5.326  16.133  -1.335  1.00  0.00    -0.200 F 
ATOM     89  F   UNL     1       7.912  16.931  -1.001  1.00  0.00    -0.200 F 
ENDBRANCH  56  79
ENDBRANCH  30  31
ENDBRANCH  23  25
ENDBRANCH  22  23
ENDBRANCH  21  22
ENDBRANCH   1  21
TORSDOF 13
