REMARK SMILES CC(C)(C)[C@@H]1CC(C(=O)OCCOC(=O)c2ccc(-c3c4nc(c(-c5c(F)c(F)c(F)c(F)c5F)c5ccc([nH]5)c(-c5c(F)c(F)c(F)c(F)c5F)c5nc(c(-c6c(F)c(F)c(F)c(F)c6F)c6ccc3[nH]6)C=C5)C=C4)cc2)C[C@@H](C(C)(C)C)C1
REMARK SMILES IDX 12 1 11 2 10 3 8 4 9 5 7 6 5 7 6 8 85 9 80 10 79 11 2 12
REMARK SMILES IDX 1 13 3 14 4 15 81 16 82 17 83 18 84 19 13 20 14 21 15 22
REMARK SMILES IDX 16 23 17 24 78 25 18 26 77 27 19 28 20 29 21 30 71 31 22 32
REMARK SMILES IDX 76 33 70 34 72 35 23 36 75 37 69 38 68 39 24 41 56 42 36 43
REMARK SMILES IDX 55 44 37 45 40 46 54 47 73 48 38 49 39 50 53 52 74 53 41 54
REMARK SMILES IDX 25 55 26 56 34 57 27 58 28 59 32 60 35 61 29 62 30 63 33 64
REMARK SMILES IDX 31 65 57 66 58 67 66 68 59 69 60 70 64 71 67 72 61 73 62 74
REMARK SMILES IDX 65 75 63 76 42 77 43 78 51 79 44 80 45 81 49 82 52 83 46 84
REMARK SMILES IDX 47 85 50 86 48 87
REMARK H PARENT 72 40 40 51
REMARK Flexibility Score: inf
ROOT
ATOM      1  C   UNL     1      -2.897  -6.587  -0.573  1.00  0.00     0.275 C 
ENDROOT
BRANCH   1   2
ATOM      2  C   UNL     1      -2.437  -6.652   0.886  1.00  0.00     0.274 C 
BRANCH   2   3
ATOM      3  O   UNL     1      -1.584  -5.536   1.206  1.00  0.00    -0.462 OA
BRANCH   3   4
ATOM      4  C   UNL     1      -0.264  -5.812   1.345  1.00  0.00     0.309 C 
ATOM      5  O   UNL     1       0.222  -6.937   1.292  1.00  0.00    -0.252 OA
BRANCH   4   6
ATOM      6  C   UNL     1       0.600  -4.567   1.478  1.00  0.00     0.100 C 
ATOM      7  C   UNL     1       0.876  -2.047   1.470  1.00  0.00    -0.005 C 
ATOM      8  C   UNL     1      -0.133  -3.222   1.487  1.00  0.00     0.019 C 
ATOM      9  C   UNL     1       1.807  -2.191   2.688  1.00  0.00     0.008 C 
ATOM     10  C   UNL     1       2.574  -3.532   2.766  1.00  0.00    -0.005 C 
ATOM     11  C   UNL     1       1.572  -4.703   2.656  1.00  0.00     0.019 C 
BRANCH   7  12
ATOM     12  C   UNL     1       0.227  -0.605   1.295  1.00  0.00    -0.035 C 
ATOM     13  C   UNL     1       0.705  -0.034  -0.063  1.00  0.00     0.011 C 
ATOM     14  C   UNL     1       0.650   0.409   2.380  1.00  0.00     0.011 C 
ATOM     15  C   UNL     1      -1.315  -0.617   1.268  1.00  0.00     0.011 C 
ENDBRANCH   7  12
BRANCH  10  16
ATOM     16  C   UNL     1       3.888  -3.670   1.881  1.00  0.00    -0.035 C 
ATOM     17  C   UNL     1       3.691  -4.321   0.499  1.00  0.00     0.011 C 
ATOM     18  C   UNL     1       4.582  -2.313   1.645  1.00  0.00     0.011 C 
ATOM     19  C   UNL     1       4.891  -4.565   2.652  1.00  0.00     0.011 C 
ENDBRANCH  10  16
ENDBRANCH   4   6
ENDBRANCH   3   4
ENDBRANCH   2   3
ENDBRANCH   1   2
BRANCH   1  20
ATOM     20  O   UNL     1      -1.796  -6.735  -1.491  1.00  0.00    -0.458 OA
BRANCH  20  21
ATOM     21  C   UNL     1      -1.294  -5.575  -1.974  1.00  0.00     0.338 C 
ATOM     22  O   UNL     1      -1.658  -4.441  -1.718  1.00  0.00    -0.246 OA
BRANCH  21  23
ATOM     23  C   UNL     1      -0.135  -5.850  -2.836  1.00  0.00     0.060 A 
ATOM     24  C   UNL     1       1.135  -5.551  -2.343  1.00  0.00     0.016 A 
ATOM     25  C   UNL     1      -0.298  -6.263  -4.158  1.00  0.00     0.016 A 
ATOM     26  C   UNL     1       2.249  -5.631  -3.171  1.00  0.00     0.010 A 
ATOM     27  C   UNL     1       0.825  -6.364  -4.988  1.00  0.00     0.010 A 
ATOM     28  C   UNL     1       2.103  -6.030  -4.504  1.00  0.00    -0.014 A 
BRANCH  28  29
ATOM     29  C   UNL     1       3.287  -6.039  -5.397  1.00  0.00     0.031 A 
ATOM     30  C   UNL     1       3.442  -4.977  -6.448  1.00  0.00     0.074 A 
ATOM     31  C   UNL     1       4.249  -6.965  -5.230  1.00  0.00     0.049 A 
ATOM     32  N   UNL     1       4.347  -4.868  -7.388  1.00  0.00    -0.248 NA
ATOM     33  C   UNL     1       2.452  -3.889  -6.435  1.00  0.00     0.031 C 
ATOM     34  C   UNL     1       4.253  -8.003  -4.200  1.00  0.00     0.029 A 
ATOM     35  N   UNL     1       5.416  -7.174  -5.922  1.00  0.00    -0.354 N 
ATOM     36  C   UNL     1       4.023  -3.716  -8.092  1.00  0.00     0.074 A 
ATOM     37  C   UNL     1       2.837  -3.161  -7.475  1.00  0.00     0.031 C 
ATOM     38  C   UNL     1       5.374  -8.732  -4.319  1.00  0.00     0.029 A 
ATOM     39  C   UNL     1       6.140  -8.246  -5.463  1.00  0.00     0.049 A 
ATOM     40  H   UNL     1       5.706  -6.609  -6.675  1.00  0.00     0.167 HD
ATOM     41  C   UNL     1       4.660  -3.174  -9.156  1.00  0.00     0.037 A 
ATOM     42  C   UNL     1       7.278  -8.791  -5.932  1.00  0.00     0.037 A 
ATOM     43  C   UNL     1       5.848  -3.715  -9.761  1.00  0.00     0.049 A 
ATOM     44  C   UNL     1       7.933  -8.201  -7.150  1.00  0.00     0.074 A 
ATOM     45  C   UNL     1       6.538  -3.263 -10.873  1.00  0.00     0.029 A 
ATOM     46  N   UNL     1       6.534  -4.824  -9.289  1.00  0.00    -0.354 N 
ATOM     47  N   UNL     1       7.578  -7.156  -7.856  1.00  0.00    -0.248 NA
ATOM     48  C   UNL     1       9.140  -8.878  -7.646  1.00  0.00     0.031 C 
ATOM     49  C   UNL     1       7.634  -4.109 -11.083  1.00  0.00     0.029 A 
ATOM     50  C   UNL     1       7.639  -5.071 -10.086  1.00  0.00     0.049 A 
ATOM     51  H   UNL     1       6.273  -5.358  -8.504  1.00  0.00     0.167 HD
ATOM     52  C   UNL     1       8.517  -7.044  -8.870  1.00  0.00     0.074 A 
ATOM     53  C   UNL     1       9.471  -8.117  -8.680  1.00  0.00     0.031 C 
ATOM     54  C   UNL     1       8.580  -6.138  -9.875  1.00  0.00     0.037 A 
BRANCH  41  55
ATOM     55  C   UNL     1       4.068  -1.936  -9.756  1.00  0.00     0.064 A 
ATOM     56  C   UNL     1       4.242  -0.679  -9.161  1.00  0.00     0.173 A 
ATOM     57  C   UNL     1       3.356  -2.003 -10.963  1.00  0.00     0.173 A 
ATOM     58  F   UNL     1       4.904  -0.569  -7.999  1.00  0.00    -0.203 F 
ATOM     59  C   UNL     1       3.715   0.468  -9.748  1.00  0.00     0.198 A 
ATOM     60  C   UNL     1       2.844  -0.853 -11.556  1.00  0.00     0.198 A 
ATOM     61  F   UNL     1       3.164  -3.184 -11.569  1.00  0.00    -0.203 F 
ATOM     62  F   UNL     1       3.869   1.657  -9.150  1.00  0.00    -0.200 F 
ATOM     63  C   UNL     1       3.022   0.381 -10.947  1.00  0.00     0.200 A 
ATOM     64  F   UNL     1       2.180  -0.937 -12.717  1.00  0.00    -0.200 F 
ATOM     65  F   UNL     1       2.520   1.487 -11.514  1.00  0.00    -0.200 F 
ENDBRANCH  41  55
BRANCH  42  66
ATOM     66  C   UNL     1       7.857  -9.983  -5.265  1.00  0.00     0.064 A 
ATOM     67  C   UNL     1       9.045  -9.889  -4.528  1.00  0.00     0.173 A 
ATOM     68  C   UNL     1       7.242 -11.239  -5.362  1.00  0.00     0.173 A 
ATOM     69  F   UNL     1       9.682  -8.714  -4.432  1.00  0.00    -0.203 F 
ATOM     70  C   UNL     1       9.602 -11.013  -3.921  1.00  0.00     0.198 A 
ATOM     71  C   UNL     1       7.787 -12.356  -4.736  1.00  0.00     0.198 A 
ATOM     72  F   UNL     1       6.106 -11.378  -6.062  1.00  0.00    -0.203 F 
ATOM     73  F   UNL     1      10.759 -10.906  -3.254  1.00  0.00    -0.200 F 
ATOM     74  C   UNL     1       8.970 -12.244  -4.021  1.00  0.00     0.200 A 
ATOM     75  F   UNL     1       7.171 -13.542  -4.830  1.00  0.00    -0.200 F 
ATOM     76  F   UNL     1       9.507 -13.324  -3.437  1.00  0.00    -0.200 F 
ENDBRANCH  42  66
BRANCH  54  77
ATOM     77  C   UNL     1       9.729  -6.256 -10.828  1.00  0.00     0.064 A 
ATOM     78  C   UNL     1       9.737  -7.225 -11.841  1.00  0.00     0.173 A 
ATOM     79  C   UNL     1      10.815  -5.374 -10.745  1.00  0.00     0.173 A 
ATOM     80  F   UNL     1       8.725  -8.100 -11.946  1.00  0.00    -0.203 F 
ATOM     81  C   UNL     1      10.804  -7.317 -12.730  1.00  0.00     0.198 A 
ATOM     82  C   UNL     1      11.872  -5.458 -11.646  1.00  0.00     0.198 A 
ATOM     83  F   UNL     1      10.849  -4.430  -9.793  1.00  0.00    -0.203 F 
ATOM     84  F   UNL     1      10.809  -8.272 -13.671  1.00  0.00    -0.200 F 
ATOM     85  C   UNL     1      11.868  -6.432 -12.635  1.00  0.00     0.200 A 
ATOM     86  F   UNL     1      12.898  -4.601 -11.557  1.00  0.00    -0.200 F 
ATOM     87  F   UNL     1      12.894  -6.522 -13.492  1.00  0.00    -0.200 F 
ENDBRANCH  54  77
ENDBRANCH  28  29
ENDBRANCH  21  23
ENDBRANCH  20  21
ENDBRANCH   1  20
TORSDOF 13
