REMARK SMILES Cc1ncc(CC(=O)N2CCC(Cc3cccc(C(=O)OCCOC(=O)c4ccc(-c5c6nc(c(-c7c(F)c(F)c(F)c(F)c7F)c7ccc([nH]7)c(-c7c(F)c(F)c(F)c(F)c7F)c7nc(c(-c8c(F)c(F)c(F)c(F)c8F)c8ccc5[nH]8)C=C7)C=C6)cc4)c3)CC2)c(=O)[nH]1
REMARK SMILES IDX 22 1 21 2 19 3 20 4 18 5 14 6 15 7 90 8 16 9 17 10 13 11
REMARK SMILES IDX 12 12 7 13 8 14 9 15 10 16 92 17 11 18 91 19 6 20 5 21 1 22
REMARK SMILES IDX 2 23 3 24 95 25 4 26 93 27 94 29 23 30 24 31 25 32 26 33
REMARK SMILES IDX 27 34 28 35 89 36 29 37 88 38 30 39 31 40 32 41 82 42 33 43
REMARK SMILES IDX 87 44 81 45 83 46 34 47 86 48 80 49 79 50 35 52 67 53 47 54
REMARK SMILES IDX 66 55 48 56 51 57 65 58 84 59 49 60 50 61 64 63 85 64 52 65
REMARK SMILES IDX 36 66 37 67 45 68 38 69 39 70 43 71 46 72 40 73 41 74 44 75
REMARK SMILES IDX 42 76 68 77 69 78 77 79 70 80 71 81 75 82 78 83 72 84 73 85
REMARK SMILES IDX 76 86 74 87 53 88 54 89 62 90 55 91 56 92 60 93 63 94 57 95
REMARK SMILES IDX 58 96 61 97 59 98
REMARK H PARENT 95 28 83 51 51 62
REMARK Flexibility Score: inf
ROOT
ATOM      1  C   UNL     1       0.029   4.189  10.576  1.00  0.00     0.275 C 
ENDROOT
BRANCH   1   2
ATOM      2  O   UNL     1       0.699   3.172   9.806  1.00  0.00    -0.458 OA
BRANCH   2   3
ATOM      3  C   UNL     1       2.054   3.198   9.819  1.00  0.00     0.338 C 
ATOM      4  O   UNL     1       2.759   4.019  10.383  1.00  0.00    -0.246 OA
BRANCH   3   5
ATOM      5  C   UNL     1       2.604   2.005   9.124  1.00  0.00     0.060 A 
ATOM      6  C   UNL     1       2.447   0.249   7.459  1.00  0.00    -0.047 A 
ATOM      7  C   UNL     1       3.712  -0.222   7.835  1.00  0.00     0.004 A 
ATOM      8  C   UNL     1       1.867   1.317   8.162  1.00  0.00     0.019 A 
ATOM      9  C   UNL     1       4.440   0.444   8.817  1.00  0.00     0.001 A 
ATOM     10  C   UNL     1       3.910   1.586   9.417  1.00  0.00     0.016 A 
BRANCH   6  11
ATOM     11  C   UNL     1       1.795  -0.243   6.186  1.00  0.00     0.039 C 
BRANCH  11  12
ATOM     12  C   UNL     1       1.743   0.907   5.156  1.00  0.00    -0.003 C 
ATOM     13  C   UNL     1       2.913   1.995   1.373  1.00  0.00     0.227 C 
ATOM     14  O   UNL     1       4.150   2.003   1.315  1.00  0.00    -0.275 OA
ATOM     15  N   UNL     1       2.263   2.142   2.592  1.00  0.00    -0.342 N 
ATOM     16  C   UNL     1       3.058   2.544   3.749  1.00  0.00     0.120 C 
ATOM     17  C   UNL     1       0.908   1.718   2.940  1.00  0.00     0.120 C 
ATOM     18  C   UNL     1       3.150   1.415   4.768  1.00  0.00     0.025 C 
ATOM     19  C   UNL     1       0.966   0.517   3.893  1.00  0.00     0.025 C 
BRANCH  13  20
ATOM     20  C   UNL     1       2.135   2.066   0.051  1.00  0.00     0.143 C 
BRANCH  20  21
ATOM     21  C   UNL     1       0.968   1.166  -0.152  1.00  0.00     0.045 A 
ATOM     22  C   UNL     1      -2.403  -1.379  -0.190  1.00  0.00     0.087 C 
ATOM     23  C   UNL     1      -1.231  -0.445  -0.234  1.00  0.00     0.105 A 
ATOM     24  N   UNL     1      -1.400   0.822  -0.426  1.00  0.00    -0.243 NA
ATOM     25  N   UNL     1      -0.006  -1.021  -0.049  1.00  0.00    -0.311 N 
ATOM     26  C   UNL     1      -0.278   1.605  -0.390  1.00  0.00     0.123 A 
ATOM     27  C   UNL     1       1.147  -0.292  -0.018  1.00  0.00     0.254 A 
ATOM     28  H   UNL     1       0.046  -1.997   0.066  1.00  0.00     0.171 HD
ATOM     29  O   UNL     1       2.243  -0.813   0.141  1.00  0.00    -0.269 OA
ENDBRANCH  20  21
ENDBRANCH  13  20
ENDBRANCH  11  12
ENDBRANCH   6  11
ENDBRANCH   3   5
ENDBRANCH   2   3
ENDBRANCH   1   2
BRANCH   1  30
ATOM     30  C   UNL     1      -0.510   3.603  11.880  1.00  0.00     0.275 C 
BRANCH  30  31
ATOM     31  O   UNL     1       0.585   3.211  12.730  1.00  0.00    -0.458 OA
BRANCH  31  32
ATOM     32  C   UNL     1       0.705   1.886  12.967  1.00  0.00     0.338 C 
ATOM     33  O   UNL     1      -0.044   0.989  12.620  1.00  0.00    -0.246 OA
BRANCH  32  34
ATOM     34  C   UNL     1       1.975   1.638  13.664  1.00  0.00     0.060 A 
ATOM     35  C   UNL     1       3.138   1.598  12.901  1.00  0.00     0.016 A 
ATOM     36  C   UNL     1       2.018   1.323  15.018  1.00  0.00     0.016 A 
ATOM     37  C   UNL     1       4.344   1.196  13.461  1.00  0.00     0.010 A 
ATOM     38  C   UNL     1       3.246   0.980  15.602  1.00  0.00     0.010 A 
ATOM     39  C   UNL     1       4.417   0.887  14.823  1.00  0.00    -0.014 A 
BRANCH  39  40
ATOM     40  C   UNL     1       5.702   0.406  15.403  1.00  0.00     0.031 A 
ATOM     41  C   UNL     1       5.792  -0.978  15.985  1.00  0.00     0.074 A 
ATOM     42  C   UNL     1       6.799   1.188  15.377  1.00  0.00     0.049 A 
ATOM     43  N   UNL     1       6.766  -1.533  16.662  1.00  0.00    -0.248 NA
ATOM     44  C   UNL     1       4.625  -1.852  15.788  1.00  0.00     0.031 C 
ATOM     45  C   UNL     1       6.871   2.528  14.795  1.00  0.00     0.029 A 
ATOM     46  N   UNL     1       8.070   0.963  15.849  1.00  0.00    -0.354 N 
ATOM     47  C   UNL     1       6.308  -2.794  17.020  1.00  0.00     0.074 A 
ATOM     48  C   UNL     1       4.968  -2.924  16.487  1.00  0.00     0.031 C 
ATOM     49  C   UNL     1       8.123   2.996  14.921  1.00  0.00     0.029 A 
ATOM     50  C   UNL     1       8.922   2.025  15.661  1.00  0.00     0.049 A 
ATOM     51  H   UNL     1       8.345   0.122  16.280  1.00  0.00     0.167 HD
ATOM     52  C   UNL     1       6.947  -3.754  17.731  1.00  0.00     0.037 A 
ATOM     53  C   UNL     1      10.190   2.216  16.074  1.00  0.00     0.037 A 
ATOM     54  C   UNL     1       8.302  -3.646  18.208  1.00  0.00     0.049 A 
ATOM     55  C   UNL     1      10.871   1.144  16.878  1.00  0.00     0.074 A 
ATOM     56  C   UNL     1       9.046  -4.577  18.911  1.00  0.00     0.029 A 
ATOM     57  N   UNL     1       9.121  -2.543  18.018  1.00  0.00    -0.354 N 
ATOM     58  N   UNL     1      10.415  -0.027  17.250  1.00  0.00    -0.248 NA
ATOM     59  C   UNL     1      12.239   1.427  17.334  1.00  0.00     0.031 C 
ATOM     60  C   UNL     1      10.302  -4.022  19.183  1.00  0.00     0.029 A 
ATOM     61  C   UNL     1      10.357  -2.763  18.607  1.00  0.00     0.049 A 
ATOM     62  H   UNL     1       8.863  -1.724  17.537  1.00  0.00     0.167 HD
ATOM     63  C   UNL     1      11.438  -0.623  17.974  1.00  0.00     0.074 A 
ATOM     64  C   UNL     1      12.550   0.305  17.968  1.00  0.00     0.031 C 
ATOM     65  C   UNL     1      11.453  -1.829  18.594  1.00  0.00     0.037 A 
BRANCH  52  66
ATOM     66  C   UNL     1       6.174  -4.995  18.074  1.00  0.00     0.064 A 
ATOM     67  C   UNL     1       5.851  -5.963  17.113  1.00  0.00     0.173 A 
ATOM     68  C   UNL     1       5.777  -5.228  19.400  1.00  0.00     0.173 A 
ATOM     69  F   UNL     1       6.195  -5.782  15.829  1.00  0.00    -0.203 F 
ATOM     70  C   UNL     1       5.134  -7.106  17.462  1.00  0.00     0.198 A 
ATOM     71  C   UNL     1       5.086  -6.384  19.751  1.00  0.00     0.198 A 
ATOM     72  F   UNL     1       6.066  -4.336  20.360  1.00  0.00    -0.203 F 
ATOM     73  F   UNL     1       4.793  -7.995  16.519  1.00  0.00    -0.200 F 
ATOM     74  C   UNL     1       4.758  -7.318  18.780  1.00  0.00     0.200 A 
ATOM     75  F   UNL     1       4.736  -6.594  21.027  1.00  0.00    -0.200 F 
ATOM     76  F   UNL     1       4.074  -8.421  19.115  1.00  0.00    -0.200 F 
ENDBRANCH  52  66
BRANCH  53  77
ATOM     77  C   UNL     1      10.880   3.497  15.769  1.00  0.00     0.064 A 
ATOM     78  C   UNL     1      11.964   3.543  14.882  1.00  0.00     0.173 A 
ATOM     79  C   UNL     1      10.465   4.702  16.355  1.00  0.00     0.173 A 
ATOM     80  F   UNL     1      12.417   2.413  14.319  1.00  0.00    -0.203 F 
ATOM     81  C   UNL     1      12.612   4.744  14.601  1.00  0.00     0.198 A 
ATOM     82  C   UNL     1      11.092   5.907  16.049  1.00  0.00     0.198 A 
ATOM     83  F   UNL     1       9.434   4.712  17.214  1.00  0.00    -0.203 F 
ATOM     84  F   UNL     1      13.673   4.755  13.782  1.00  0.00    -0.200 F 
ATOM     85  C   UNL     1      12.170   5.926  15.177  1.00  0.00     0.200 A 
ATOM     86  F   UNL     1      10.653   7.047  16.597  1.00  0.00    -0.200 F 
ATOM     87  F   UNL     1      12.787   7.082  14.897  1.00  0.00    -0.200 F 
ENDBRANCH  53  77
BRANCH  65  88
ATOM     88  C   UNL     1      12.718  -2.220  19.298  1.00  0.00     0.064 A 
ATOM     89  C   UNL     1      13.103  -1.619  20.506  1.00  0.00     0.173 A 
ATOM     90  C   UNL     1      13.542  -3.228  18.773  1.00  0.00     0.173 A 
ATOM     91  F   UNL     1      12.358  -0.639  21.039  1.00  0.00    -0.203 F 
ATOM     92  C   UNL     1      14.280  -1.994  21.148  1.00  0.00     0.198 A 
ATOM     93  C   UNL     1      14.703  -3.619  19.433  1.00  0.00     0.198 A 
ATOM     94  F   UNL     1      13.215  -3.838  17.624  1.00  0.00    -0.203 F 
ATOM     95  F   UNL     1      14.653  -1.372  22.276  1.00  0.00    -0.200 F 
ATOM     96  C   UNL     1      15.075  -2.997  20.615  1.00  0.00     0.200 A 
ATOM     97  F   UNL     1      15.465  -4.597  18.922  1.00  0.00    -0.200 F 
ATOM     98  F   UNL     1      16.206  -3.359  21.237  1.00  0.00    -0.200 F 
ENDBRANCH  65  88
ENDBRANCH  39  40
ENDBRANCH  32  34
ENDBRANCH  31  32
ENDBRANCH  30  31
ENDBRANCH   1  30
TORSDOF 15
