REMARK SMILES O=C(Nc1ccc(N2CCCN(c3ccc(Cl)nn3)CC2)c(C(=O)OCCOC(=O)c2ccc(-c3c4nc(c(-c5c(F)c(F)c(F)c(F)c5F)c5ccc([nH]5)c(-c5c(F)c(F)c(F)c(F)c5F)c5nc(c(-c6c(F)c(F)c(F)c(F)c6F)c6ccc3[nH]6)C=C5)C=C4)cc2)c1)c1ccc(F)cc1
REMARK SMILES IDX 25 1 23 2 24 3 22 4 4 5 5 6 94 7 6 8 7 9 3 10 1 11 2 12
REMARK SMILES IDX 95 14 96 15 101 16 97 17 100 18 98 19 99 20 8 21 9 22 10 23
REMARK SMILES IDX 21 25 20 26 12 27 11 28 13 30 14 31 19 32 15 33 18 34 16 35
REMARK SMILES IDX 17 36 26 37 27 38 28 39 29 40 30 41 31 42 32 43 93 44 33 45
REMARK SMILES IDX 92 46 34 47 35 48 36 49 86 50 37 51 91 52 85 53 87 54 38 55
REMARK SMILES IDX 90 56 84 57 83 58 39 60 71 61 51 62 70 63 52 64 55 65 69 66
REMARK SMILES IDX 88 67 53 68 54 69 68 71 89 72 56 73 40 74 41 75 49 76 42 77
REMARK SMILES IDX 43 78 47 79 50 80 44 81 45 82 48 83 46 84 72 85 73 86 81 87
REMARK SMILES IDX 74 88 75 89 79 90 82 91 76 92 77 93 80 94 78 95 57 96 58 97
REMARK SMILES IDX 66 98 59 99 60 100 64 101 67 102 61 103 62 104 65 105 63 106
REMARK H PARENT 3 13 87 59 55 70
REMARK Flexibility Score: 90.00
ROOT
ATOM      1  O   UNL     1       6.423  -2.840  -0.543  1.00  0.00    -0.458 OA
ENDROOT
BRANCH   1   2
ATOM      2  C   UNL     1       6.733  -1.645   0.022  1.00  0.00     0.340 C 
ATOM      3  O   UNL     1       7.533  -1.475   0.923  1.00  0.00    -0.246 OA
BRANCH   2   4
ATOM      4  C   UNL     1       5.929  -0.553  -0.593  1.00  0.00     0.085 A 
ATOM      5  C   UNL     1       3.753   0.387  -1.037  1.00  0.00     0.042 A 
ATOM      6  C   UNL     1       4.319   1.542  -1.567  1.00  0.00     0.028 A 
ATOM      7  C   UNL     1       4.552  -0.705  -0.681  1.00  0.00     0.044 A 
ATOM      8  C   UNL     1       5.697   1.681  -1.529  1.00  0.00     0.029 A 
ATOM      9  C   UNL     1       6.503   0.669  -0.981  1.00  0.00     0.052 A 
BRANCH   5  10
ATOM     10  N   UNL     1       2.388   0.426  -0.727  1.00  0.00    -0.322 N 
ATOM     11  O   UNL     1       0.551  -0.098   0.502  1.00  0.00    -0.269 OA
ATOM     12  C   UNL     1       1.774  -0.091   0.401  1.00  0.00     0.255 C 
ATOM     13  H   UNL     1       1.802   0.870  -1.381  1.00  0.00     0.170 HD
BRANCH  12  14
ATOM     14  C   UNL     1       2.601  -0.595   1.535  1.00  0.00     0.040 A 
ATOM     15  C   UNL     1       3.666   0.156   2.067  1.00  0.00     0.017 A 
ATOM     16  C   UNL     1       2.362  -1.895   1.992  1.00  0.00     0.017 A 
ATOM     17  C   UNL     1       4.549  -0.436   2.973  1.00  0.00     0.040 A 
ATOM     18  C   UNL     1       3.233  -2.471   2.918  1.00  0.00     0.040 A 
ATOM     19  C   UNL     1       4.328  -1.746   3.382  1.00  0.00     0.123 A 
ATOM     20  F   UNL     1       5.190  -2.326   4.228  1.00  0.00    -0.207 F 
ENDBRANCH  12  14
ENDBRANCH   5  10
BRANCH   9  21
ATOM     21  N   UNL     1       7.869   0.897  -1.012  1.00  0.00    -0.369 N 
BRANCH  21  22
ATOM     22  C   UNL     1       8.504   0.031  -1.987  1.00  0.00     0.118 C 
BRANCH  22  23
ATOM     23  C   UNL     1       9.312   0.875  -2.900  1.00  0.00     0.043 CG0
ATOM     24  G   UNL     1      10.321   1.780  -2.219  1.00  0.00     0.000 G0
ENDBRANCH  22  23
ENDBRANCH  21  22
BRANCH  21  25
ATOM     25  C   UNL     1       8.575   1.125   0.265  1.00  0.00     0.138 C 
BRANCH  25  26
ATOM     26  C   UNL     1       9.694   2.158   0.122  1.00  0.00     0.139 C 
BRANCH  26  27
ATOM     27  N   UNL     1      10.717   1.644  -0.782  1.00  0.00    -0.353 N 
BRANCH  27  28
ATOM     28  C   UNL     1      10.321   1.780  -2.219  1.00  0.00     0.120 CG0
ATOM     29  G   UNL     1       9.312   0.875  -2.900  1.00  0.00     0.000 G0
ENDBRANCH  27  28
BRANCH  27  30
ATOM     30  C   UNL     1      11.985   1.329  -0.300  1.00  0.00     0.151 A 
ATOM     31  C   UNL     1      12.336   1.057   1.014  1.00  0.00     0.052 A 
ATOM     32  N   UNL     1      13.008   1.140  -1.127  1.00  0.00    -0.131 NA
ATOM     33  C   UNL     1      13.601   0.498   1.371  1.00  0.00     0.047 A 
ATOM     34  N   UNL     1      14.267   0.544  -0.840  1.00  0.00    -0.137 NA
ATOM     35  C   UNL     1      14.524   0.198   0.401  1.00  0.00     0.151 A 
ATOM     36  Cl  UNL     1      15.966  -0.670   0.671  1.00  0.00    -0.060 Cl
ENDBRANCH  27  30
ENDBRANCH  26  27
ENDBRANCH  25  26
ENDBRANCH  21  25
ENDBRANCH   9  21
ENDBRANCH   2   4
ENDBRANCH   1   2
BRANCH   1  37
ATOM     37  C   UNL     1       7.100  -3.985   0.021  1.00  0.00     0.275 C 
BRANCH  37  38
ATOM     38  C   UNL     1       7.889  -4.725  -1.065  1.00  0.00     0.275 C 
BRANCH  38  39
ATOM     39  O   UNL     1       9.048  -3.948  -1.470  1.00  0.00    -0.458 OA
BRANCH  39  40
ATOM     40  C   UNL     1       9.300  -3.821  -2.803  1.00  0.00     0.338 C 
ATOM     41  O   UNL     1       8.629  -4.314  -3.702  1.00  0.00    -0.246 OA
BRANCH  40  42
ATOM     42  C   UNL     1      10.464  -2.912  -3.075  1.00  0.00     0.060 A 
ATOM     43  C   UNL     1      11.045  -2.162  -2.082  1.00  0.00     0.016 A 
ATOM     44  C   UNL     1      10.997  -2.711  -4.348  1.00  0.00     0.016 A 
ATOM     45  C   UNL     1      11.933  -1.095  -2.410  1.00  0.00     0.010 A 
ATOM     46  C   UNL     1      11.931  -1.646  -4.622  1.00  0.00     0.010 A 
ATOM     47  C   UNL     1      12.290  -0.638  -3.694  1.00  0.00    -0.014 A 
BRANCH  47  48
ATOM     48  C   UNL     1      13.125   0.710  -4.112  1.00  0.00     0.031 A 
ATOM     49  C   UNL     1      13.035   1.087  -5.582  1.00  0.00     0.074 A 
ATOM     50  C   UNL     1      13.466   1.981  -3.640  1.00  0.00     0.049 A 
ATOM     51  N   UNL     1      13.884   1.809  -6.264  1.00  0.00    -0.248 NA
ATOM     52  C   UNL     1      11.852   0.680  -6.356  1.00  0.00     0.031 C 
ATOM     53  C   UNL     1      12.817   3.055  -2.847  1.00  0.00     0.029 A 
ATOM     54  N   UNL     1      14.777   2.458  -3.572  1.00  0.00    -0.354 N 
ATOM     55  C   UNL     1      13.365   1.916  -7.528  1.00  0.00     0.074 A 
ATOM     56  C   UNL     1      12.177   1.093  -7.574  1.00  0.00     0.031 C 
ATOM     57  C   UNL     1      13.691   3.705  -2.059  1.00  0.00     0.029 A 
ATOM     58  C   UNL     1      15.003   3.317  -2.505  1.00  0.00     0.049 A 
ATOM     59  H   UNL     1      15.475   2.208  -4.220  1.00  0.00     0.167 HD
ATOM     60  C   UNL     1      13.837   2.686  -8.528  1.00  0.00     0.037 A 
ATOM     61  C   UNL     1      16.105   3.946  -2.064  1.00  0.00     0.037 A 
ATOM     62  C   UNL     1      14.921   3.628  -8.382  1.00  0.00     0.049 A 
ATOM     63  C   UNL     1      16.901   4.482  -3.194  1.00  0.00     0.074 A 
ATOM     64  C   UNL     1      15.522   4.382  -9.373  1.00  0.00     0.029 A 
ATOM     65  N   UNL     1      15.536   3.986  -7.179  1.00  0.00    -0.354 N 
ATOM     66  N   UNL     1      16.624   4.352  -4.464  1.00  0.00    -0.248 NA
ATOM     67  C   UNL     1      18.011   5.385  -2.895  1.00  0.00     0.031 C 
ATOM     68  C   UNL     1      16.548   5.132  -8.794  1.00  0.00     0.029 A 
ATOM     69  C   UNL     1      16.553   4.907  -7.427  1.00  0.00     0.049 A 
ATOM     70  H   UNL     1      15.288   3.641  -6.291  1.00  0.00     0.167 HD
ATOM     71  C   UNL     1      17.435   5.234  -5.120  1.00  0.00     0.074 A 
ATOM     72  C   UNL     1      18.264   5.866  -4.106  1.00  0.00     0.031 C 
ATOM     73  C   UNL     1      17.424   5.511  -6.442  1.00  0.00     0.037 A 
BRANCH  60  74
ATOM     74  C   UNL     1      13.251   2.429  -9.879  1.00  0.00     0.064 A 
ATOM     75  C   UNL     1      11.957   2.819 -10.246  1.00  0.00     0.173 A 
ATOM     76  C   UNL     1      14.015   1.711 -10.811  1.00  0.00     0.173 A 
ATOM     77  F   UNL     1      11.168   3.464  -9.372  1.00  0.00    -0.203 F 
ATOM     78  C   UNL     1      11.440   2.478 -11.494  1.00  0.00     0.198 A 
ATOM     79  C   UNL     1      13.509   1.401 -12.066  1.00  0.00     0.198 A 
ATOM     80  F   UNL     1      15.252   1.298 -10.496  1.00  0.00    -0.203 F 
ATOM     81  F   UNL     1      10.177   2.800 -11.805  1.00  0.00    -0.200 F 
ATOM     82  C   UNL     1      12.218   1.776 -12.404  1.00  0.00     0.200 A 
ATOM     83  F   UNL     1      14.264   0.723 -12.941  1.00  0.00    -0.200 F 
ATOM     84  F   UNL     1      11.718   1.446 -13.602  1.00  0.00    -0.200 F 
ENDBRANCH  60  74
BRANCH  61  85
ATOM     85  C   UNL     1      16.301   4.374  -0.653  1.00  0.00     0.064 A 
ATOM     86  C   UNL     1      16.254   5.695  -0.191  1.00  0.00     0.173 A 
ATOM     87  C   UNL     1      16.680   3.391   0.276  1.00  0.00     0.173 A 
ATOM     88  F   UNL     1      15.915   6.688  -1.025  1.00  0.00    -0.203 F 
ATOM     89  C   UNL     1      16.616   6.017   1.124  1.00  0.00     0.198 A 
ATOM     90  C   UNL     1      17.012   3.705   1.594  1.00  0.00     0.198 A 
ATOM     91  F   UNL     1      16.803   2.119  -0.120  1.00  0.00    -0.203 F 
ATOM     92  F   UNL     1      16.632   7.298   1.519  1.00  0.00    -0.200 F 
ATOM     93  C   UNL     1      16.997   5.023   2.013  1.00  0.00     0.200 A 
ATOM     94  F   UNL     1      17.382   2.735   2.442  1.00  0.00    -0.200 F 
ATOM     95  F   UNL     1      17.375   5.337   3.261  1.00  0.00    -0.200 F 
ENDBRANCH  61  85
BRANCH  73  96
ATOM     96  C   UNL     1      18.396   6.553  -6.884  1.00  0.00     0.064 A 
ATOM     97  C   UNL     1      19.777   6.316  -6.838  1.00  0.00     0.173 A 
ATOM     98  C   UNL     1      17.946   7.794  -7.353  1.00  0.00     0.173 A 
ATOM     99  F   UNL     1      20.249   5.153  -6.364  1.00  0.00    -0.203 F 
ATOM    100  C   UNL     1      20.678   7.301  -7.221  1.00  0.00     0.198 A 
ATOM    101  C   UNL     1      18.851   8.761  -7.774  1.00  0.00     0.198 A 
ATOM    102  F   UNL     1      16.634   8.068  -7.404  1.00  0.00    -0.203 F 
ATOM    103  F   UNL     1      21.994   7.079  -7.105  1.00  0.00    -0.200 F 
ATOM    104  C   UNL     1      20.215   8.517  -7.699  1.00  0.00     0.200 A 
ATOM    105  F   UNL     1      18.404   9.933  -8.246  1.00  0.00    -0.200 F 
ATOM    106  F   UNL     1      21.086   9.461  -8.078  1.00  0.00    -0.200 F 
ENDBRANCH  73  96
ENDBRANCH  47  48
ENDBRANCH  40  42
ENDBRANCH  39  40
ENDBRANCH  38  39
ENDBRANCH  37  38
ENDBRANCH   1  37
TORSDOF 15
