REMARK SMILES O=C(CN1C(=O)CN(C(=O)OCC2c3ccccc3-c3ccccc32)c2ccccc21)OCCOC(=O)c1ccc(-c2c3nc(c(-c4c(F)c(F)c(F)c(F)c4F)c4ccc([nH]4)c(-c4c(F)c(F)c(F)c(F)c4F)c4nc(c(-c5c(F)c(F)c(F)c(F)c5F)c5ccc2[nH]5)C=C4)C=C3)cc1
REMARK SMILES IDX 32 1 2 2 1 3 3 4 4 5 5 6 31 7 6 8 7 9 26 10 30 11 8 12 27 13
REMARK SMILES IDX 29 14 28 15 9 16 10 17 11 18 12 19 13 20 14 21 25 22 15 23
REMARK SMILES IDX 19 24 20 25 24 26 16 27 18 28 21 29 23 30 17 31 22 32 33 33
REMARK SMILES IDX 34 34 35 35 36 36 37 37 38 38 39 39 100 40 40 41 99 42 41 43
REMARK SMILES IDX 42 44 43 45 93 46 44 47 98 48 92 49 94 50 45 51 97 52 91 53
REMARK SMILES IDX 90 54 46 56 78 57 58 58 77 59 59 60 62 61 76 62 95 63 60 64
REMARK SMILES IDX 61 65 75 67 96 68 63 69 47 70 48 71 56 72 49 73 50 74 54 75
REMARK SMILES IDX 57 76 51 77 52 78 55 79 53 80 79 81 80 82 88 83 81 84 82 85
REMARK SMILES IDX 86 86 89 87 83 88 84 89 87 90 85 91 64 92 65 93 73 94 66 95
REMARK SMILES IDX 67 96 71 97 74 98 68 99 69 100 72 101 70 102
REMARK H PARENT 94 55 62 66
REMARK Flexibility Score: inf
ROOT
ATOM      1  O   UNL     1       2.751  -0.645  -0.774  1.00  0.00    -0.461 OA
ENDROOT
BRANCH   1   2
ATOM      2  C   UNL     1       2.027  -0.410   0.342  1.00  0.00     0.326 C 
ATOM      3  O   UNL     1       0.808  -0.255   0.238  1.00  0.00    -0.250 OA
BRANCH   2   4
ATOM      4  C   UNL     1       2.706  -0.162   1.696  1.00  0.00     0.248 C 
BRANCH   4   5
ATOM      5  N   UNL     1       3.814  -1.008   2.128  1.00  0.00    -0.298 N 
ATOM      6  C   UNL     1       3.485  -2.353   2.289  1.00  0.00     0.247 C 
ATOM      7  C   UNL     1       5.085  -0.498   2.571  1.00  0.00     0.068 A 
ATOM      8  O   UNL     1       2.376  -2.799   1.991  1.00  0.00    -0.272 OA
ATOM      9  C   UNL     1       4.465  -3.193   3.066  1.00  0.00     0.229 C 
ATOM     10  C   UNL     1       6.118  -1.403   2.927  1.00  0.00     0.071 A 
ATOM     11  C   UNL     1       5.377   0.877   2.574  1.00  0.00     0.028 A 
ATOM     12  N   UNL     1       5.849  -2.801   2.873  1.00  0.00    -0.266 N 
ATOM     13  C   UNL     1       7.394  -0.905   3.239  1.00  0.00     0.029 A 
ATOM     14  C   UNL     1       6.652   1.353   2.894  1.00  0.00     0.002 A 
ATOM     15  C   UNL     1       7.660   0.462   3.223  1.00  0.00     0.002 A 
BRANCH  12  16
ATOM     16  C   UNL     1       6.816  -3.757   2.598  1.00  0.00     0.414 C 
ATOM     17  O   UNL     1       8.022  -3.640   2.776  1.00  0.00    -0.224 OA
BRANCH  16  18
ATOM     18  O   UNL     1       6.269  -4.841   1.963  1.00  0.00    -0.448 OA
BRANCH  18  19
ATOM     19  C   UNL     1       7.221  -5.736   1.371  1.00  0.00     0.248 C 
BRANCH  19  20
ATOM     20  C   UNL     1       7.588  -5.388  -0.091  1.00  0.00     0.088 C 
ATOM     21  C   UNL     1       7.866  -3.917  -0.398  1.00  0.00    -0.029 A 
ATOM     22  C   UNL     1       8.945  -6.019  -0.412  1.00  0.00    -0.029 A 
ATOM     23  C   UNL     1       6.981  -2.849  -0.421  1.00  0.00     0.005 A 
ATOM     24  C   UNL     1       9.229  -3.729  -0.709  1.00  0.00    -0.014 A 
ATOM     25  C   UNL     1       9.889  -5.014  -0.716  1.00  0.00    -0.014 A 
ATOM     26  C   UNL     1       9.308  -7.356  -0.364  1.00  0.00     0.005 A 
ATOM     27  C   UNL     1       7.495  -1.573  -0.666  1.00  0.00     0.000 A 
ATOM     28  C   UNL     1       9.732  -2.464  -0.967  1.00  0.00     0.009 A 
ATOM     29  C   UNL     1      11.211  -5.339  -0.963  1.00  0.00     0.009 A 
ATOM     30  C   UNL     1      10.644  -7.681  -0.609  1.00  0.00     0.000 A 
ATOM     31  C   UNL     1       8.857  -1.379  -0.929  1.00  0.00     0.001 A 
ATOM     32  C   UNL     1      11.587  -6.682  -0.902  1.00  0.00     0.001 A 
ENDBRANCH  19  20
ENDBRANCH  18  19
ENDBRANCH  16  18
ENDBRANCH  12  16
ENDBRANCH   4   5
ENDBRANCH   2   4
ENDBRANCH   1   2
BRANCH   1  33
ATOM     33  C   UNL     1       4.125  -0.268  -0.973  1.00  0.00     0.274 C 
BRANCH  33  34
ATOM     34  C   UNL     1       4.275   1.168  -1.474  1.00  0.00     0.275 C 
BRANCH  34  35
ATOM     35  O   UNL     1       3.856   2.078  -0.443  1.00  0.00    -0.458 OA
BRANCH  35  36
ATOM     36  C   UNL     1       2.686   2.724  -0.672  1.00  0.00     0.338 C 
ATOM     37  O   UNL     1       2.032   2.733  -1.697  1.00  0.00    -0.246 OA
BRANCH  36  38
ATOM     38  C   UNL     1       2.213   3.266   0.617  1.00  0.00     0.060 A 
ATOM     39  C   UNL     1       0.897   2.983   0.997  1.00  0.00     0.016 A 
ATOM     40  C   UNL     1       3.060   3.981   1.472  1.00  0.00     0.016 A 
ATOM     41  C   UNL     1       0.417   3.435   2.224  1.00  0.00     0.010 A 
ATOM     42  C   UNL     1       2.577   4.433   2.703  1.00  0.00     0.010 A 
ATOM     43  C   UNL     1       1.244   4.187   3.071  1.00  0.00    -0.014 A 
BRANCH  43  44
ATOM     44  C   UNL     1       0.644   4.846   4.254  1.00  0.00     0.031 A 
ATOM     45  C   UNL     1       0.192   6.274   4.129  1.00  0.00     0.074 A 
ATOM     46  C   UNL     1       0.443   4.172   5.400  1.00  0.00     0.049 A 
ATOM     47  N   UNL     1      -0.464   7.016   4.984  1.00  0.00    -0.248 NA
ATOM     48  C   UNL     1       0.523   6.956   2.868  1.00  0.00     0.031 C 
ATOM     49  C   UNL     1       0.839   2.788   5.651  1.00  0.00     0.029 A 
ATOM     50  N   UNL     1      -0.157   4.569   6.569  1.00  0.00    -0.354 N 
ATOM     51  C   UNL     1      -0.654   8.237   4.351  1.00  0.00     0.074 A 
ATOM     52  C   UNL     1       0.013   8.161   3.070  1.00  0.00     0.031 C 
ATOM     53  C   UNL     1       0.472   2.450   6.900  1.00  0.00     0.029 A 
ATOM     54  C   UNL     1      -0.185   3.593   7.533  1.00  0.00     0.049 A 
ATOM     55  H   UNL     1      -0.532   5.470   6.704  1.00  0.00     0.167 HD
ATOM     56  C   UNL     1      -1.348   9.315   4.784  1.00  0.00     0.037 A 
ATOM     57  C   UNL     1      -0.693   3.620   8.781  1.00  0.00     0.037 A 
ATOM     58  C   UNL     1      -1.992   9.406   6.066  1.00  0.00     0.049 A 
ATOM     59  C   UNL     1      -1.416   4.853   9.262  1.00  0.00     0.074 A 
ATOM     60  C   UNL     1      -2.713  10.459   6.599  1.00  0.00     0.029 A 
ATOM     61  N   UNL     1      -1.983   8.402   7.023  1.00  0.00    -0.354 N 
ATOM     62  N   UNL     1      -1.645   5.980   8.632  1.00  0.00    -0.248 NA
ATOM     63  C   UNL     1      -1.970   4.807  10.623  1.00  0.00     0.031 C 
ATOM     64  C   UNL     1      -3.108  10.108   7.895  1.00  0.00     0.029 A 
ATOM     65  C   UNL     1      -2.671   8.819   8.151  1.00  0.00     0.049 A 
ATOM     66  H   UNL     1      -1.551   7.524   6.917  1.00  0.00     0.167 HD
ATOM     67  C   UNL     1      -2.391   6.762   9.505  1.00  0.00     0.074 A 
ATOM     68  C   UNL     1      -2.593   5.974  10.703  1.00  0.00     0.031 C 
ATOM     69  C   UNL     1      -2.865   8.021   9.334  1.00  0.00     0.037 A 
BRANCH  56  70
ATOM     70  C   UNL     1      -1.445  10.484   3.851  1.00  0.00     0.064 A 
ATOM     71  C   UNL     1      -2.248  10.430   2.701  1.00  0.00     0.173 A 
ATOM     72  C   UNL     1      -0.750  11.672   4.114  1.00  0.00     0.173 A 
ATOM     73  F   UNL     1      -2.918   9.308   2.397  1.00  0.00    -0.203 F 
ATOM     74  C   UNL     1      -2.333  11.518   1.837  1.00  0.00     0.198 A 
ATOM     75  C   UNL     1      -0.858  12.766   3.261  1.00  0.00     0.198 A 
ATOM     76  F   UNL     1       0.032  11.771   5.199  1.00  0.00    -0.203 F 
ATOM     77  F   UNL     1      -3.071  11.429   0.721  1.00  0.00    -0.200 F 
ATOM     78  C   UNL     1      -1.643  12.686   2.120  1.00  0.00     0.200 A 
ATOM     79  F   UNL     1      -0.196  13.898   3.539  1.00  0.00    -0.200 F 
ATOM     80  F   UNL     1      -1.729  13.734   1.289  1.00  0.00    -0.200 F 
ENDBRANCH  56  70
BRANCH  57  81
ATOM     81  C   UNL     1      -0.555   2.436   9.669  1.00  0.00     0.064 A 
ATOM     82  C   UNL     1      -1.667   1.666  10.035  1.00  0.00     0.173 A 
ATOM     83  C   UNL     1       0.691   2.078  10.204  1.00  0.00     0.173 A 
ATOM     84  F   UNL     1      -2.884   1.986   9.571  1.00  0.00    -0.203 F 
ATOM     85  C   UNL     1      -1.544   0.602  10.926  1.00  0.00     0.198 A 
ATOM     86  C   UNL     1       0.818   0.997  11.073  1.00  0.00     0.198 A 
ATOM     87  F   UNL     1       1.786   2.784   9.885  1.00  0.00    -0.203 F 
ATOM     88  F   UNL     1      -2.633  -0.082  11.304  1.00  0.00    -0.200 F 
ATOM     89  C   UNL     1      -0.301   0.266  11.442  1.00  0.00     0.200 A 
ATOM     90  F   UNL     1       2.022   0.672  11.563  1.00  0.00    -0.200 F 
ATOM     91  F   UNL     1      -0.184  -0.753  12.303  1.00  0.00    -0.200 F 
ENDBRANCH  57  81
BRANCH  69  92
ATOM     92  C   UNL     1      -3.668   8.614  10.456  1.00  0.00     0.064 A 
ATOM     93  C   UNL     1      -3.069   9.005  11.662  1.00  0.00     0.173 A 
ATOM     94  C   UNL     1      -5.049   8.819  10.312  1.00  0.00     0.173 A 
ATOM     95  F   UNL     1      -1.754   8.818  11.854  1.00  0.00    -0.203 F 
ATOM     96  C   UNL     1      -3.827   9.550  12.695  1.00  0.00     0.198 A 
ATOM     97  C   UNL     1      -5.799   9.392  11.336  1.00  0.00     0.198 A 
ATOM     98  F   UNL     1      -5.670   8.471   9.175  1.00  0.00    -0.203 F 
ATOM     99  F   UNL     1      -3.241   9.868  13.858  1.00  0.00    -0.200 F 
ATOM    100  C   UNL     1      -5.190   9.748  12.529  1.00  0.00     0.200 A 
ATOM    101  F   UNL     1      -7.113   9.595  11.169  1.00  0.00    -0.200 F 
ATOM    102  F   UNL     1      -5.917  10.275  13.524  1.00  0.00    -0.200 F 
ENDBRANCH  69  92
ENDBRANCH  43  44
ENDBRANCH  36  38
ENDBRANCH  35  36
ENDBRANCH  34  35
ENDBRANCH  33  34
ENDBRANCH   1  33
TORSDOF 16
