REMARK SMILES CCc1ccsc1CNC(=O)N[C@@H](CCO)C(=O)OCCOC(=O)c1ccc(-c2c3nc(c(-c4c(F)c(F)c(F)c(F)c4F)c4ccc([nH]4)c(-c4c(F)c(F)c(F)c(F)c4F)c4nc(c(-c5c(F)c(F)c(F)c(F)c5F)c5ccc2[nH]5)C=C4)C=C3)cc1
REMARK SMILES IDX 20 1 19 2 17 3 18 4 13 5 12 6 9 7 10 8 11 10 8 12 7 13 3 14
REMARK SMILES IDX 4 15 5 16 6 17 2 18 1 19 14 20 15 21 16 22 21 24 22 25 23 26
REMARK SMILES IDX 24 27 25 28 26 29 87 30 27 31 86 32 28 33 29 34 30 35 80 36
REMARK SMILES IDX 31 37 85 38 79 39 81 40 32 41 84 42 78 43 77 44 33 46 65 47
REMARK SMILES IDX 45 48 64 49 46 50 49 51 63 52 82 53 47 54 48 55 62 57 83 58
REMARK SMILES IDX 50 59 34 60 35 61 43 62 36 63 37 64 41 65 44 66 38 67 39 68
REMARK SMILES IDX 42 69 40 70 66 71 67 72 75 73 68 74 69 75 73 76 76 77 70 78
REMARK SMILES IDX 71 79 74 80 72 81 51 82 52 83 60 84 53 85 54 86 58 87 61 88
REMARK SMILES IDX 55 89 56 90 59 91 57 92
REMARK H PARENT 9 9 12 11 16 23 81 45 49 56
REMARK Flexibility Score: inf
ROOT
ATOM      1  C   UNL     1       2.024   8.058  -1.460  1.00  0.00     0.274 C 
ENDROOT
BRANCH   1   2
ATOM      2  O   UNL     1       0.931   7.087  -1.386  1.00  0.00    -0.461 OA
BRANCH   2   3
ATOM      3  C   UNL     1       1.255   5.782  -1.636  1.00  0.00     0.328 C 
ATOM      4  O   UNL     1       2.354   5.437  -2.067  1.00  0.00    -0.250 OA
BRANCH   3   5
ATOM      5  C   UNL     1       0.083   4.761  -1.495  1.00  0.00     0.196 C 
BRANCH   5   6
ATOM      6  N   UNL     1      -1.110   5.112  -0.697  1.00  0.00    -0.324 N 
ATOM      7  N   UNL     1      -1.523   3.645   1.190  1.00  0.00    -0.333 N 
ATOM      8  C   UNL     1      -1.754   4.711   0.408  1.00  0.00     0.315 C 
ATOM      9  H   UNL     1      -1.744   3.826   2.132  1.00  0.00     0.165 HD
ATOM     10  O   UNL     1      -2.703   5.429   0.750  1.00  0.00    -0.249 OA
ATOM     11  H   UNL     1      -1.576   5.877  -1.103  1.00  0.00     0.166 HD
BRANCH   7  12
ATOM     12  C   UNL     1      -1.030   2.294   1.001  1.00  0.00     0.165 C 
BRANCH  12  13
ATOM     13  C   UNL     1      -0.043   1.743   2.087  1.00  0.00     0.027 A 
ATOM     14  C   UNL     1       1.441   1.072   1.590  1.00  0.00    -0.033 A 
ATOM     15  C   UNL     1       3.002   1.569   2.776  1.00  0.00     0.016 A 
ATOM     16  C   UNL     1       2.391   2.252   4.355  1.00  0.00     0.065 A 
ATOM     17  S   UNL     1       0.013   2.568   4.163  1.00  0.00    -0.147 S 
BRANCH  14  18
ATOM     18  C   UNL     1       1.043  -0.153   0.634  1.00  0.00     0.033 C 
ATOM     19  C   UNL     1       1.399  -0.123  -0.818  1.00  0.00     0.009 C 
ENDBRANCH  14  18
ENDBRANCH  12  13
ENDBRANCH   7  12
ENDBRANCH   5   6
BRANCH   5  20
ATOM     20  C   UNL     1      -0.309   4.410  -2.951  1.00  0.00     0.065 C 
BRANCH  20  21
ATOM     21  C   UNL     1      -0.703   5.596  -3.846  1.00  0.00     0.159 C 
BRANCH  21  22
ATOM     22  O   UNL     1       0.392   6.455  -4.132  1.00  0.00    -0.396 OA
ATOM     23  H   UNL     1       0.730   6.833  -3.305  1.00  0.00     0.210 HD
ENDBRANCH  21  22
ENDBRANCH  20  21
ENDBRANCH   5  20
ENDBRANCH   3   5
ENDBRANCH   2   3
ENDBRANCH   1   2
BRANCH   1  24
ATOM     24  C   UNL     1       2.349   8.664  -0.090  1.00  0.00     0.275 C 
BRANCH  24  25
ATOM     25  O   UNL     1       2.927   7.638   0.719  1.00  0.00    -0.458 OA
BRANCH  25  26
ATOM     26  C   UNL     1       1.958   6.889   1.262  1.00  0.00     0.338 C 
ATOM     27  O   UNL     1       0.758   7.119   1.306  1.00  0.00    -0.246 OA
BRANCH  26  28
ATOM     28  C   UNL     1       2.476   5.640   1.769  1.00  0.00     0.060 A 
ATOM     29  C   UNL     1       2.553   4.553   0.915  1.00  0.00     0.016 A 
ATOM     30  C   UNL     1       2.207   5.497   3.091  1.00  0.00     0.016 A 
ATOM     31  C   UNL     1       2.109   3.280   1.312  1.00  0.00     0.010 A 
ATOM     32  C   UNL     1       1.772   4.253   3.500  1.00  0.00     0.010 A 
ATOM     33  C   UNL     1       1.593   2.848   2.699  1.00  0.00    -0.014 A 
BRANCH  33  34
ATOM     34  C   UNL     1       1.346   0.853   3.581  1.00  0.00     0.031 A 
ATOM     35  C   UNL     1       0.910   0.440   5.324  1.00  0.00     0.074 A 
ATOM     36  C   UNL     1       2.138  -0.482   3.339  1.00  0.00     0.049 A 
ATOM     37  N   UNL     1       0.506  -0.723   5.836  1.00  0.00    -0.248 NA
ATOM     38  C   UNL     1       0.882   1.487   6.433  1.00  0.00     0.031 C 
ATOM     39  C   UNL     1       3.129  -0.724   2.165  1.00  0.00     0.029 A 
ATOM     40  N   UNL     1       2.405  -1.705   4.004  1.00  0.00    -0.354 N 
ATOM     41  C   UNL     1      -0.043  -0.442   7.106  1.00  0.00     0.074 A 
ATOM     42  C   UNL     1       0.088   0.965   7.343  1.00  0.00     0.031 C 
ATOM     43  C   UNL     1       3.795  -1.847   2.213  1.00  0.00     0.029 A 
ATOM     44  C   UNL     1       3.412  -2.511   3.408  1.00  0.00     0.049 A 
ATOM     45  H   UNL     1       1.927  -1.977   4.821  1.00  0.00     0.167 HD
ATOM     46  C   UNL     1      -0.522  -1.217   8.114  1.00  0.00     0.037 A 
ATOM     47  C   UNL     1       4.075  -3.666   3.636  1.00  0.00     0.037 A 
ATOM     48  C   UNL     1      -0.151  -2.584   8.317  1.00  0.00     0.049 A 
ATOM     49  C   UNL     1       3.683  -4.471   4.797  1.00  0.00     0.074 A 
ATOM     50  C   UNL     1      -0.501  -3.422   9.362  1.00  0.00     0.029 A 
ATOM     51  N   UNL     1       0.810  -3.244   7.572  1.00  0.00    -0.354 N 
ATOM     52  N   UNL     1       2.844  -4.151   5.738  1.00  0.00    -0.248 NA
ATOM     53  C   UNL     1       4.271  -5.808   4.896  1.00  0.00     0.031 C 
ATOM     54  C   UNL     1       0.325  -4.548   9.306  1.00  0.00     0.029 A 
ATOM     55  C   UNL     1       1.095  -4.464   8.161  1.00  0.00     0.049 A 
ATOM     56  H   UNL     1       1.227  -2.899   6.749  1.00  0.00     0.167 HD
ATOM     57  C   UNL     1       2.758  -5.273   6.528  1.00  0.00     0.074 A 
ATOM     58  C   UNL     1       3.623  -6.280   5.947  1.00  0.00     0.031 C 
ATOM     59  C   UNL     1       1.998  -5.442   7.628  1.00  0.00     0.037 A 
BRANCH  46  60
ATOM     60  C   UNL     1      -1.374  -0.524   9.164  1.00  0.00     0.064 A 
ATOM     61  C   UNL     1      -2.638  -0.010   8.817  1.00  0.00     0.173 A 
ATOM     62  C   UNL     1      -0.939  -0.323  10.484  1.00  0.00     0.173 A 
ATOM     63  F   UNL     1      -3.105  -0.159   7.568  1.00  0.00    -0.203 F 
ATOM     64  C   UNL     1      -3.411   0.701   9.735  1.00  0.00     0.198 A 
ATOM     65  C   UNL     1      -1.727   0.368  11.408  1.00  0.00     0.198 A 
ATOM     66  F   UNL     1       0.264  -0.766  10.877  1.00  0.00    -0.203 F 
ATOM     67  F   UNL     1      -4.584   1.228   9.357  1.00  0.00    -0.200 F 
ATOM     68  C   UNL     1      -2.956   0.889  11.030  1.00  0.00     0.200 A 
ATOM     69  F   UNL     1      -1.285   0.552  12.660  1.00  0.00    -0.200 F 
ATOM     70  F   UNL     1      -3.691   1.587  11.907  1.00  0.00    -0.200 F 
ENDBRANCH  46  60
BRANCH  47  71
ATOM     71  C   UNL     1       5.098  -4.191   2.645  1.00  0.00     0.064 A 
ATOM     72  C   UNL     1       4.757  -5.224   1.754  1.00  0.00     0.173 A 
ATOM     73  C   UNL     1       6.365  -3.600   2.476  1.00  0.00     0.173 A 
ATOM     74  F   UNL     1       3.555  -5.811   1.845  1.00  0.00    -0.203 F 
ATOM     75  C   UNL     1       5.642  -5.662   0.766  1.00  0.00     0.198 A 
ATOM     76  C   UNL     1       7.234  -4.014   1.460  1.00  0.00     0.198 A 
ATOM     77  F   UNL     1       6.729  -2.562   3.244  1.00  0.00    -0.203 F 
ATOM     78  F   UNL     1       5.291  -6.669  -0.046  1.00  0.00    -0.200 F 
ATOM     79  C   UNL     1       6.877  -5.052   0.614  1.00  0.00     0.200 A 
ATOM     80  F   UNL     1       8.405  -3.386   1.281  1.00  0.00    -0.200 F 
ATOM     81  F   UNL     1       7.713  -5.455  -0.353  1.00  0.00    -0.200 F 
ENDBRANCH  47  71
BRANCH  59  82
ATOM     82  C   UNL     1       2.058  -6.782   8.266  1.00  0.00     0.064 A 
ATOM     83  C   UNL     1       3.222  -7.256   8.886  1.00  0.00     0.173 A 
ATOM     84  C   UNL     1       0.926  -7.605   8.242  1.00  0.00     0.173 A 
ATOM     85  F   UNL     1       4.338  -6.510   8.897  1.00  0.00    -0.203 F 
ATOM     86  C   UNL     1       3.258  -8.531   9.433  1.00  0.00     0.198 A 
ATOM     87  C   UNL     1       0.950  -8.857   8.835  1.00  0.00     0.198 A 
ATOM     88  F   UNL     1      -0.201  -7.192   7.641  1.00  0.00    -0.203 F 
ATOM     89  F   UNL     1       4.400  -9.001   9.950  1.00  0.00    -0.200 F 
ATOM     90  C   UNL     1       2.119  -9.323   9.419  1.00  0.00     0.200 A 
ATOM     91  F   UNL     1      -0.154  -9.615   8.834  1.00  0.00    -0.200 F 
ATOM     92  F   UNL     1       2.151 -10.548   9.959  1.00  0.00    -0.200 F 
ENDBRANCH  59  82
ENDBRANCH  33  34
ENDBRANCH  26  28
ENDBRANCH  25  26
ENDBRANCH  24  25
ENDBRANCH   1  24
TORSDOF 18
