REMARK SMILES Cc1cc(=O)c(Oc2ccc(C(=O)OCCOC(=O)c3ccc(-c4c5nc(c(-c6c(F)c(F)c(F)c(F)c6F)c6ccc([nH]6)c(-c6c(F)c(F)c(F)c(F)c6F)c6nc(c(-c7c(F)c(F)c(F)c(F)c7F)c7ccc4[nH]7)C=C6)C=C5)cc3)cc2)c(-c2ccc(S(C)(=O)=O)cc2)o1
REMARK SMILES IDX 15 1 14 2 12 3 13 4 11 5 8 6 9 7 84 8 10 9 83 10 7 11 6 12
REMARK SMILES IDX 1 13 2 14 3 15 96 16 4 17 85 18 5 19 86 20 87 21 95 22 88 23
REMARK SMILES IDX 94 24 89 25 90 26 91 27 92 28 93 29 16 30 17 31 18 32 19 33
REMARK SMILES IDX 20 34 21 35 82 36 22 37 81 38 23 39 24 40 25 41 75 42 26 43
REMARK SMILES IDX 80 44 74 45 76 46 27 47 79 48 73 49 72 50 28 52 60 53 40 54
REMARK SMILES IDX 59 55 41 56 44 57 58 58 77 59 42 60 43 61 57 63 78 64 45 65
REMARK SMILES IDX 29 66 30 67 38 68 31 69 32 70 36 71 39 72 33 73 34 74 37 75
REMARK SMILES IDX 35 76 61 77 62 78 70 79 63 80 64 81 68 82 71 83 65 84 66 85
REMARK SMILES IDX 69 86 67 87 46 88 47 89 55 90 48 91 49 92 53 93 56 94 50 95
REMARK SMILES IDX 51 96 54 97 52 98
REMARK H PARENT 76 51 44 62
REMARK Flexibility Score: inf
ROOT
ATOM      1  C   UNL     1       1.583  10.464   5.594  1.00  0.00     0.275 C 
ENDROOT
BRANCH   1   2
ATOM      2  O   UNL     1       1.294   9.076   5.854  1.00  0.00    -0.458 OA
BRANCH   2   3
ATOM      3  C   UNL     1       0.030   8.655   5.581  1.00  0.00     0.338 C 
ATOM      4  O   UNL     1      -0.917   9.361   5.295  1.00  0.00    -0.246 OA
BRANCH   3   5
ATOM      5  C   UNL     1      -0.004   7.165   5.497  1.00  0.00     0.060 A 
ATOM      6  C   UNL     1       0.063   4.428   4.939  1.00  0.00     0.127 A 
ATOM      7  C   UNL     1      -0.973   5.202   4.426  1.00  0.00     0.048 A 
ATOM      8  C   UNL     1       0.997   4.991   5.813  1.00  0.00     0.048 A 
ATOM      9  C   UNL     1      -1.014   6.569   4.723  1.00  0.00     0.019 A 
ATOM     10  C   UNL     1       0.984   6.362   6.072  1.00  0.00     0.019 A 
BRANCH   6  11
ATOM     11  O   UNL     1       0.172   3.082   4.727  1.00  0.00    -0.449 OA
BRANCH  11  12
ATOM     12  C   UNL     1       0.187   2.522   3.460  1.00  0.00     0.217 A 
ATOM     13  C   UNL     1       0.844   0.136  -0.069  1.00  0.00     0.088 C 
ATOM     14  C   UNL     1       0.469   0.882   1.171  1.00  0.00     0.105 A 
ATOM     15  C   UNL     1      -0.126   0.315   2.223  1.00  0.00     0.098 A 
ATOM     16  O   UNL     1       0.803   2.218   1.147  1.00  0.00    -0.457 OA
ATOM     17  C   UNL     1      -0.393   1.141   3.411  1.00  0.00     0.228 A 
ATOM     18  C   UNL     1       0.766   2.974   2.320  1.00  0.00     0.180 A 
ATOM     19  O   UNL     1      -1.041   0.666   4.340  1.00  0.00    -0.285 OA
BRANCH  18  20
ATOM     20  C   UNL     1       1.512   4.232   2.104  1.00  0.00     0.021 A 
ATOM     21  C   UNL     1       1.192   5.037   0.996  1.00  0.00     0.013 A 
ATOM     22  C   UNL     1       2.653   4.545   2.851  1.00  0.00     0.013 A 
ATOM     23  C   UNL     1       2.005   6.114   0.625  1.00  0.00     0.021 A 
ATOM     24  C   UNL     1       3.462   5.632   2.496  1.00  0.00     0.021 A 
ATOM     25  C   UNL     1       3.148   6.401   1.371  1.00  0.00     0.067 A 
BRANCH  25  26
ATOM     26  S   UNL     1       4.274   7.684   0.861  1.00  0.00     0.175 S 
ATOM     27  C   UNL     1       4.370   7.551  -0.901  1.00  0.00     0.163 C 
ATOM     28  O   UNL     1       3.679   8.973   1.155  1.00  0.00    -0.224 OA
ATOM     29  O   UNL     1       5.587   7.337   1.375  1.00  0.00    -0.224 OA
ENDBRANCH  25  26
ENDBRANCH  18  20
ENDBRANCH  11  12
ENDBRANCH   6  11
ENDBRANCH   3   5
ENDBRANCH   2   3
ENDBRANCH   1   2
BRANCH   1  30
ATOM     30  C   UNL     1       2.303  10.657   4.250  1.00  0.00     0.275 C 
BRANCH  30  31
ATOM     31  O   UNL     1       1.425  10.552   3.111  1.00  0.00    -0.458 OA
BRANCH  31  32
ATOM     32  C   UNL     1       1.243   9.287   2.670  1.00  0.00     0.338 C 
ATOM     33  O   UNL     1       1.647   8.264   3.202  1.00  0.00    -0.246 OA
BRANCH  32  34
ATOM     34  C   UNL     1       0.419   9.235   1.449  1.00  0.00     0.060 A 
ATOM     35  C   UNL     1       0.707  10.003   0.318  1.00  0.00     0.016 A 
ATOM     36  C   UNL     1      -0.591   8.270   1.402  1.00  0.00     0.016 A 
ATOM     37  C   UNL     1      -0.041   9.819  -0.852  1.00  0.00     0.010 A 
ATOM     38  C   UNL     1      -1.330   8.079   0.241  1.00  0.00     0.010 A 
ATOM     39  C   UNL     1      -1.075   8.869  -0.887  1.00  0.00    -0.014 A 
BRANCH  39  40
ATOM     40  C   UNL     1      -2.007   8.775  -2.034  1.00  0.00     0.031 A 
ATOM     41  C   UNL     1      -3.370   9.394  -1.892  1.00  0.00     0.074 A 
ATOM     42  C   UNL     1      -1.678   8.090  -3.144  1.00  0.00     0.049 A 
ATOM     43  N   UNL     1      -4.378   9.386  -2.726  1.00  0.00    -0.248 NA
ATOM     44  C   UNL     1      -3.642  10.090  -0.623  1.00  0.00     0.031 C 
ATOM     45  C   UNL     1      -0.408   7.403  -3.371  1.00  0.00     0.029 A 
ATOM     46  N   UNL     1      -2.399   7.848  -4.287  1.00  0.00    -0.354 N 
ATOM     47  C   UNL     1      -5.400  10.067  -2.079  1.00  0.00     0.074 A 
ATOM     48  C   UNL     1      -4.914  10.428  -0.766  1.00  0.00     0.031 C 
ATOM     49  C   UNL     1      -0.435   6.823  -4.585  1.00  0.00     0.029 A 
ATOM     50  C   UNL     1      -1.727   7.091  -5.215  1.00  0.00     0.049 A 
ATOM     51  H   UNL     1      -3.313   8.185  -4.428  1.00  0.00     0.167 HD
ATOM     52  C   UNL     1      -6.627  10.389  -2.549  1.00  0.00     0.037 A 
ATOM     53  C   UNL     1      -2.115   6.675  -6.437  1.00  0.00     0.037 A 
ATOM     54  C   UNL     1      -7.097  10.054  -3.864  1.00  0.00     0.049 A 
ATOM     55  C   UNL     1      -3.478   7.069  -6.950  1.00  0.00     0.074 A 
ATOM     56  C   UNL     1      -8.304  10.374  -4.457  1.00  0.00     0.029 A 
ATOM     57  N   UNL     1      -6.369   9.325  -4.792  1.00  0.00    -0.354 N 
ATOM     58  N   UNL     1      -4.411   7.774  -6.359  1.00  0.00    -0.248 NA
ATOM     59  C   UNL     1      -3.837   6.619  -8.304  1.00  0.00     0.031 C 
ATOM     60  C   UNL     1      -8.315   9.820  -5.741  1.00  0.00     0.029 A 
ATOM     61  C   UNL     1      -7.103   9.182  -5.956  1.00  0.00     0.049 A 
ATOM     62  H   UNL     1      -5.465   8.964  -4.646  1.00  0.00     0.167 HD
ATOM     63  C   UNL     1      -5.453   7.874  -7.272  1.00  0.00     0.074 A 
ATOM     64  C   UNL     1      -5.033   7.168  -8.464  1.00  0.00     0.031 C 
ATOM     65  C   UNL     1      -6.652   8.491  -7.135  1.00  0.00     0.037 A 
BRANCH  52  66
ATOM     66  C   UNL     1      -7.532  11.165  -1.641  1.00  0.00     0.064 A 
ATOM     67  C   UNL     1      -7.287  12.517  -1.355  1.00  0.00     0.173 A 
ATOM     68  C   UNL     1      -8.666  10.567  -1.074  1.00  0.00     0.173 A 
ATOM     69  F   UNL     1      -6.206  13.129  -1.863  1.00  0.00    -0.203 F 
ATOM     70  C   UNL     1      -8.131  13.235  -0.514  1.00  0.00     0.198 A 
ATOM     71  C   UNL     1      -9.523  11.295  -0.253  1.00  0.00     0.198 A 
ATOM     72  F   UNL     1      -8.945   9.278  -1.320  1.00  0.00    -0.203 F 
ATOM     73  F   UNL     1      -7.854  14.513  -0.221  1.00  0.00    -0.200 F 
ATOM     74  C   UNL     1      -9.252  12.626   0.031  1.00  0.00     0.200 A 
ATOM     75  F   UNL     1     -10.611  10.709   0.265  1.00  0.00    -0.200 F 
ATOM     76  F   UNL     1     -10.068  13.320   0.836  1.00  0.00    -0.200 F 
ENDBRANCH  52  66
BRANCH  53  77
ATOM     77  C   UNL     1      -1.188   5.882  -7.286  1.00  0.00     0.064 A 
ATOM     78  C   UNL     1      -0.594   6.451  -8.422  1.00  0.00     0.173 A 
ATOM     79  C   UNL     1      -0.882   4.546  -6.992  1.00  0.00     0.173 A 
ATOM     80  F   UNL     1      -0.872   7.720  -8.755  1.00  0.00    -0.203 F 
ATOM     81  C   UNL     1       0.254   5.709  -9.242  1.00  0.00     0.198 A 
ATOM     82  C   UNL     1      -0.016   3.811  -7.800  1.00  0.00     0.198 A 
ATOM     83  F   UNL     1      -1.419   3.955  -5.914  1.00  0.00    -0.203 F 
ATOM     84  F   UNL     1       0.775   6.268 -10.343  1.00  0.00    -0.200 F 
ATOM     85  C   UNL     1       0.546   4.391  -8.928  1.00  0.00     0.200 A 
ATOM     86  F   UNL     1       0.274   2.540  -7.488  1.00  0.00    -0.200 F 
ATOM     87  F   UNL     1       1.363   3.678  -9.715  1.00  0.00    -0.200 F 
ENDBRANCH  53  77
BRANCH  65  88
ATOM     88  C   UNL     1      -7.592   8.456  -8.302  1.00  0.00     0.064 A 
ATOM     89  C   UNL     1      -8.322   7.301  -8.613  1.00  0.00     0.173 A 
ATOM     90  C   UNL     1      -7.840   9.618  -9.048  1.00  0.00     0.173 A 
ATOM     91  F   UNL     1      -8.110   6.165  -7.933  1.00  0.00    -0.203 F 
ATOM     92  C   UNL     1      -9.268   7.310  -9.634  1.00  0.00     0.198 A 
ATOM     93  C   UNL     1      -8.802   9.629 -10.053  1.00  0.00     0.198 A 
ATOM     94  F   UNL     1      -7.170  10.749  -8.780  1.00  0.00    -0.203 F 
ATOM     95  F   UNL     1      -9.944   6.191  -9.928  1.00  0.00    -0.200 F 
ATOM     96  C   UNL     1      -9.515   8.476 -10.345  1.00  0.00     0.200 A 
ATOM     97  F   UNL     1      -9.050  10.759 -10.729  1.00  0.00    -0.200 F 
ATOM     98  F   UNL     1     -10.442   8.488 -11.313  1.00  0.00    -0.200 F 
ENDBRANCH  65  88
ENDBRANCH  39  40
ENDBRANCH  32  34
ENDBRANCH  31  32
ENDBRANCH  30  31
ENDBRANCH   1  30
TORSDOF 15
