REMARK SMILES O=C(CCc1cccnc1)Nc1cccc(F)c1C(=O)OCCOC(=O)c1ccc(-c2c3nc(c(-c4c(F)c(F)c(F)c(F)c4F)c4ccc([nH]4)c(-c4c(F)c(F)c(F)c(F)c4F)c4nc(c(-c5c(F)c(F)c(F)c(F)c5F)c5ccc2[nH]5)C=C4)C=C3)cc1
REMARK SMILES IDX 22 1 21 2 19 3 20 4 18 5 12 6 13 7 14 8 16 9 15 10 17 11
REMARK SMILES IDX 11 12 1 13 2 14 3 16 4 17 5 18 6 19 10 20 7 21 9 22 8 23
REMARK SMILES IDX 23 24 24 25 25 26 26 27 27 28 28 29 89 30 29 31 88 32 30 33
REMARK SMILES IDX 31 34 32 35 82 36 33 37 87 38 81 39 83 40 34 41 86 42 80 43
REMARK SMILES IDX 79 44 35 46 67 47 47 48 66 49 48 50 51 51 65 52 84 53 49 54
REMARK SMILES IDX 50 55 64 57 85 58 52 59 36 60 37 61 45 62 38 63 39 64 43 65
REMARK SMILES IDX 46 66 40 67 41 68 44 69 42 70 68 71 69 72 77 73 70 74 71 75
REMARK SMILES IDX 75 76 78 77 72 78 73 79 76 80 74 81 53 82 54 83 62 84 55 85
REMARK SMILES IDX 56 86 60 87 63 88 57 89 58 90 61 91 59 92
REMARK H PARENT 11 15 83 45 51 56
REMARK Flexibility Score: inf
ROOT
ATOM      1  C   UNL     1       5.158   2.141  -4.368  1.00  0.00     0.275 C 
ENDROOT
BRANCH   1   2
ATOM      2  O   UNL     1       3.848   2.558  -3.949  1.00  0.00    -0.458 OA
BRANCH   2   3
ATOM      3  C   UNL     1       2.942   1.580  -3.695  1.00  0.00     0.343 C 
ATOM      4  O   UNL     1       3.144   0.389  -3.835  1.00  0.00    -0.246 OA
BRANCH   3   5
ATOM      5  C   UNL     1       1.763   2.222  -3.064  1.00  0.00     0.119 A 
ATOM      6  C   UNL     1       1.304   1.875  -1.779  1.00  0.00     0.058 A 
ATOM      7  C   UNL     1       0.440   2.751  -1.100  1.00  0.00     0.027 A 
ATOM      8  C   UNL     1      -0.034   3.911  -1.715  1.00  0.00     0.005 A 
ATOM      9  C   UNL     1       1.256   3.374  -3.676  1.00  0.00     0.139 A 
ATOM     10  C   UNL     1       0.360   4.211  -3.014  1.00  0.00     0.040 A 
ATOM     11  F   UNL     1       1.648   3.724  -4.910  1.00  0.00    -0.206 F 
BRANCH   6  12
ATOM     12  N   UNL     1       1.717   0.738  -1.056  1.00  0.00    -0.325 N 
ATOM     13  O   UNL     1       1.127  -0.911  -2.565  1.00  0.00    -0.275 OA
ATOM     14  C   UNL     1       1.761  -0.542  -1.584  1.00  0.00     0.224 C 
ATOM     15  H   UNL     1       1.990   0.861  -0.118  1.00  0.00     0.169 HD
BRANCH  14  16
ATOM     16  C   UNL     1       2.547  -1.488  -0.704  1.00  0.00     0.105 C 
BRANCH  16  17
ATOM     17  C   UNL     1       3.372  -2.519  -1.478  1.00  0.00     0.047 C 
BRANCH  17  18
ATOM     18  C   UNL     1       4.829  -2.201  -1.730  1.00  0.00    -0.029 A 
ATOM     19  C   UNL     1       5.375  -0.919  -1.710  1.00  0.00     0.007 A 
ATOM     20  C   UNL     1       5.703  -3.239  -2.056  1.00  0.00     0.114 A 
ATOM     21  C   UNL     1       6.733  -0.735  -1.976  1.00  0.00     0.020 A 
ATOM     22  N   UNL     1       7.026  -3.092  -2.309  1.00  0.00    -0.264 NA
ATOM     23  C   UNL     1       7.511  -1.839  -2.264  1.00  0.00     0.111 A 
ENDBRANCH  17  18
ENDBRANCH  16  17
ENDBRANCH  14  16
ENDBRANCH   6  12
ENDBRANCH   3   5
ENDBRANCH   2   3
ENDBRANCH   1   2
BRANCH   1  24
ATOM     24  C   UNL     1       6.197   2.971  -3.613  1.00  0.00     0.275 C 
BRANCH  24  25
ATOM     25  O   UNL     1       6.223   2.585  -2.222  1.00  0.00    -0.458 OA
BRANCH  25  26
ATOM     26  C   UNL     1       5.409   3.275  -1.386  1.00  0.00     0.338 C 
ATOM     27  O   UNL     1       4.760   4.272  -1.648  1.00  0.00    -0.246 OA
BRANCH  26  28
ATOM     28  C   UNL     1       5.284   2.534  -0.105  1.00  0.00     0.060 A 
ATOM     29  C   UNL     1       4.059   2.594   0.566  1.00  0.00     0.016 A 
ATOM     30  C   UNL     1       6.324   1.758   0.422  1.00  0.00     0.016 A 
ATOM     31  C   UNL     1       3.860   1.850   1.732  1.00  0.00     0.010 A 
ATOM     32  C   UNL     1       6.122   1.000   1.583  1.00  0.00     0.010 A 
ATOM     33  C   UNL     1       4.890   1.049   2.250  1.00  0.00    -0.014 A 
BRANCH  33  34
ATOM     34  C   UNL     1       4.698   0.426   3.584  1.00  0.00     0.031 A 
ATOM     35  C   UNL     1       5.093   1.209   4.796  1.00  0.00     0.074 A 
ATOM     36  C   UNL     1       4.111  -0.775   3.730  1.00  0.00     0.049 A 
ATOM     37  N   UNL     1       4.837   0.970   6.055  1.00  0.00    -0.248 NA
ATOM     38  C   UNL     1       5.907   2.410   4.556  1.00  0.00     0.031 C 
ATOM     39  C   UNL     1       3.787  -1.685   2.642  1.00  0.00     0.029 A 
ATOM     40  N   UNL     1       3.653  -1.424   4.851  1.00  0.00    -0.354 N 
ATOM     41  C   UNL     1       5.465   1.985   6.758  1.00  0.00     0.074 A 
ATOM     42  C   UNL     1       6.131   2.829   5.791  1.00  0.00     0.031 C 
ATOM     43  C   UNL     1       3.084  -2.724   3.123  1.00  0.00     0.029 A 
ATOM     44  C   UNL     1       2.954  -2.576   4.572  1.00  0.00     0.049 A 
ATOM     45  H   UNL     1       3.810  -1.097   5.766  1.00  0.00     0.167 HD
ATOM     46  C   UNL     1       5.486   2.193   8.095  1.00  0.00     0.037 A 
ATOM     47  C   UNL     1       2.281  -3.406   5.393  1.00  0.00     0.037 A 
ATOM     48  C   UNL     1       4.848   1.341   9.058  1.00  0.00     0.049 A 
ATOM     49  C   UNL     1       2.268  -3.123   6.874  1.00  0.00     0.074 A 
ATOM     50  C   UNL     1       4.815   1.470  10.434  1.00  0.00     0.029 A 
ATOM     51  N   UNL     1       4.139   0.191   8.744  1.00  0.00    -0.354 N 
ATOM     52  N   UNL     1       2.800  -2.119   7.527  1.00  0.00    -0.248 NA
ATOM     53  C   UNL     1       1.576  -4.096   7.733  1.00  0.00     0.031 C 
ATOM     54  C   UNL     1       4.116   0.377  10.957  1.00  0.00     0.029 A 
ATOM     55  C   UNL     1       3.675  -0.407   9.903  1.00  0.00     0.049 A 
ATOM     56  H   UNL     1       3.988  -0.149   7.832  1.00  0.00     0.167 HD
ATOM     57  C   UNL     1       2.515  -2.341   8.868  1.00  0.00     0.074 A 
ATOM     58  C   UNL     1       1.728  -3.555   8.934  1.00  0.00     0.031 C 
ATOM     59  C   UNL     1       2.888  -1.613   9.949  1.00  0.00     0.037 A 
BRANCH  46  60
ATOM     60  C   UNL     1       6.258   3.379   8.577  1.00  0.00     0.064 A 
ATOM     61  C   UNL     1       7.498   3.210   9.208  1.00  0.00     0.173 A 
ATOM     62  C   UNL     1       5.780   4.685   8.394  1.00  0.00     0.173 A 
ATOM     63  F   UNL     1       7.999   1.980   9.398  1.00  0.00    -0.203 F 
ATOM     64  C   UNL     1       8.236   4.309   9.635  1.00  0.00     0.198 A 
ATOM     65  C   UNL     1       6.533   5.783   8.800  1.00  0.00     0.198 A 
ATOM     66  F   UNL     1       4.611   4.894   7.770  1.00  0.00    -0.203 F 
ATOM     67  F   UNL     1       9.419   4.127  10.238  1.00  0.00    -0.200 F 
ATOM     68  C   UNL     1       7.757   5.594   9.424  1.00  0.00     0.200 A 
ATOM     69  F   UNL     1       6.084   7.024   8.565  1.00  0.00    -0.200 F 
ATOM     70  F   UNL     1       8.484   6.652   9.807  1.00  0.00    -0.200 F 
ENDBRANCH  46  60
BRANCH  47  71
ATOM     71  C   UNL     1       1.534  -4.569   4.842  1.00  0.00     0.064 A 
ATOM     72  C   UNL     1       2.195  -5.680   4.299  1.00  0.00     0.173 A 
ATOM     73  C   UNL     1       0.131  -4.596   4.868  1.00  0.00     0.173 A 
ATOM     74  F   UNL     1       3.534  -5.705   4.252  1.00  0.00    -0.203 F 
ATOM     75  C   UNL     1       1.482  -6.767   3.794  1.00  0.00     0.198 A 
ATOM     76  C   UNL     1      -0.580  -5.694   4.386  1.00  0.00     0.198 A 
ATOM     77  F   UNL     1      -0.547  -3.567   5.398  1.00  0.00    -0.203 F 
ATOM     78  F   UNL     1       2.140  -7.806   3.262  1.00  0.00    -0.200 F 
ATOM     79  C   UNL     1       0.097  -6.776   3.844  1.00  0.00     0.200 A 
ATOM     80  F   UNL     1      -1.917  -5.709   4.462  1.00  0.00    -0.200 F 
ATOM     81  F   UNL     1      -0.586  -7.831   3.379  1.00  0.00    -0.200 F 
ENDBRANCH  47  71
BRANCH  59  82
ATOM     82  C   UNL     1       2.457  -2.098  11.302  1.00  0.00     0.064 A 
ATOM     83  C   UNL     1       1.495  -1.391  12.037  1.00  0.00     0.173 A 
ATOM     84  C   UNL     1       3.068  -3.205  11.908  1.00  0.00     0.173 A 
ATOM     85  F   UNL     1       0.888  -0.320  11.502  1.00  0.00    -0.203 F 
ATOM     86  C   UNL     1       1.174  -1.762  13.340  1.00  0.00     0.198 A 
ATOM     87  C   UNL     1       2.727  -3.589  13.202  1.00  0.00     0.198 A 
ATOM     88  F   UNL     1       3.986  -3.920  11.240  1.00  0.00    -0.203 F 
ATOM     89  F   UNL     1       0.279  -1.050  14.037  1.00  0.00    -0.200 F 
ATOM     90  C   UNL     1       1.790  -2.861  13.921  1.00  0.00     0.200 A 
ATOM     91  F   UNL     1       3.308  -4.662  13.756  1.00  0.00    -0.200 F 
ATOM     92  F   UNL     1       1.480  -3.219  15.174  1.00  0.00    -0.200 F 
ENDBRANCH  59  82
ENDBRANCH  33  34
ENDBRANCH  26  28
ENDBRANCH  25  26
ENDBRANCH  24  25
ENDBRANCH   1  24
TORSDOF 15
