REMARK SMILES O=C(OCCOC(=O)c1ccc2nc(-c3c[nH]nc3-c3ccc(F)cc3F)[nH]c2c1)c1ccc(-c2c3nc(c(-c4c(F)c(F)c(F)c(F)c4F)c4ccc([nH]4)c(-c4c(F)c(F)c(F)c(F)c4F)c4nc(c(-c5c(F)c(F)c(F)c(F)c5F)c5ccc2[nH]5)C=C4)C=C3)cc1
REMARK SMILES IDX 4 1 3 2 2 3 1 4 31 5 32 6 93 7 33 8 92 9 34 10 35 11 36 12
REMARK SMILES IDX 86 13 37 14 91 15 85 16 87 17 38 18 90 19 84 20 83 21 39 23
REMARK SMILES IDX 71 24 51 25 70 26 52 27 55 28 69 29 88 30 53 31 54 32 68 34
REMARK SMILES IDX 89 35 56 36 40 37 41 38 49 39 42 40 43 41 47 42 50 43 44 44
REMARK SMILES IDX 45 45 48 46 46 47 72 48 73 49 81 50 74 51 75 52 79 53 82 54
REMARK SMILES IDX 76 55 77 56 80 57 78 58 57 59 58 60 66 61 59 62 60 63 64 64
REMARK SMILES IDX 67 65 61 66 62 67 65 68 63 69 5 70 6 71 7 72 8 73 9 74 10 75
REMARK SMILES IDX 30 76 11 77 29 78 12 79 28 80 13 81 14 82 15 84 16 85 19 86
REMARK SMILES IDX 17 87 18 88 20 90 21 91 26 92 22 93 25 94 27 95 23 96 24 97
REMARK H PARENT 87 22 55 33 28 83 17 89
REMARK Flexibility Score: inf
ROOT
ATOM      1  C   UNL     1       3.940   0.436  -1.532  1.00  0.00     0.275 C 
ENDROOT
BRANCH   1   2
ATOM      2  O   UNL     1       2.925  -0.461  -1.046  1.00  0.00    -0.458 OA
BRANCH   2   3
ATOM      3  C   UNL     1       2.830  -1.117   0.133  1.00  0.00     0.338 C 
ATOM      4  O   UNL     1       1.992  -2.011   0.251  1.00  0.00    -0.246 OA
BRANCH   3   5
ATOM      5  C   UNL     1       3.578  -0.721   1.366  1.00  0.00     0.060 A 
ATOM      6  C   UNL     1       4.864  -0.182   1.414  1.00  0.00     0.016 A 
ATOM      7  C   UNL     1       2.912  -0.943   2.587  1.00  0.00     0.016 A 
ATOM      8  C   UNL     1       5.438   0.199   2.631  1.00  0.00     0.010 A 
ATOM      9  C   UNL     1       3.470  -0.546   3.804  1.00  0.00     0.010 A 
ATOM     10  C   UNL     1       4.743   0.025   3.829  1.00  0.00    -0.014 A 
BRANCH  10  11
ATOM     11  C   UNL     1       5.415   0.300   5.117  1.00  0.00     0.031 A 
ATOM     12  C   UNL     1       5.954  -0.856   5.902  1.00  0.00     0.074 A 
ATOM     13  C   UNL     1       5.574   1.563   5.550  1.00  0.00     0.049 A 
ATOM     14  N   UNL     1       6.620  -0.853   7.025  1.00  0.00    -0.248 NA
ATOM     15  C   UNL     1       5.735  -2.196   5.333  1.00  0.00     0.031 C 
ATOM     16  C   UNL     1       5.134   2.758   4.836  1.00  0.00     0.029 A 
ATOM     17  N   UNL     1       6.141   2.051   6.699  1.00  0.00    -0.354 N 
ATOM     18  C   UNL     1       6.938  -2.179   7.271  1.00  0.00     0.074 A 
ATOM     19  C   UNL     1       6.327  -2.971   6.228  1.00  0.00     0.031 C 
ATOM     20  C   UNL     1       5.402   3.842   5.582  1.00  0.00     0.029 A 
ATOM     21  C   UNL     1       6.037   3.415   6.826  1.00  0.00     0.049 A 
ATOM     22  H   UNL     1       6.580   1.479   7.369  1.00  0.00     0.167 HD
ATOM     23  C   UNL     1       7.710  -2.684   8.259  1.00  0.00     0.037 A 
ATOM     24  C   UNL     1       6.410   4.221   7.838  1.00  0.00     0.037 A 
ATOM     25  C   UNL     1       8.289  -1.889   9.305  1.00  0.00     0.049 A 
ATOM     26  C   UNL     1       7.142   3.619   9.006  1.00  0.00     0.074 A 
ATOM     27  C   UNL     1       9.085  -2.296  10.359  1.00  0.00     0.029 A 
ATOM     28  N   UNL     1       8.116  -0.517   9.434  1.00  0.00    -0.354 N 
ATOM     29  N   UNL     1       7.493   2.370   9.202  1.00  0.00    -0.248 NA
ATOM     30  C   UNL     1       7.559   4.533  10.078  1.00  0.00     0.031 C 
ATOM     31  C   UNL     1       9.357  -1.176  11.151  1.00  0.00     0.029 A 
ATOM     32  C   UNL     1       8.770  -0.064  10.566  1.00  0.00     0.049 A 
ATOM     33  H   UNL     1       7.604   0.049   8.811  1.00  0.00     0.167 HD
ATOM     34  C   UNL     1       8.206   2.353  10.392  1.00  0.00     0.074 A 
ATOM     35  C   UNL     1       8.234   3.719  10.878  1.00  0.00     0.031 C 
ATOM     36  C   UNL     1       8.796   1.305  11.017  1.00  0.00     0.037 A 
BRANCH  23  37
ATOM     37  C   UNL     1       7.968  -4.159   8.235  1.00  0.00     0.064 A 
ATOM     38  C   UNL     1       7.370  -5.008   9.175  1.00  0.00     0.173 A 
ATOM     39  C   UNL     1       8.813  -4.732   7.271  1.00  0.00     0.173 A 
ATOM     40  F   UNL     1       6.549  -4.510  10.111  1.00  0.00    -0.203 F 
ATOM     41  C   UNL     1       7.608  -6.380   9.151  1.00  0.00     0.198 A 
ATOM     42  C   UNL     1       9.030  -6.106   7.236  1.00  0.00     0.198 A 
ATOM     43  F   UNL     1       9.390  -3.962   6.336  1.00  0.00    -0.203 F 
ATOM     44  F   UNL     1       7.030  -7.175  10.063  1.00  0.00    -0.200 F 
ATOM     45  C   UNL     1       8.431  -6.928   8.178  1.00  0.00     0.200 A 
ATOM     46  F   UNL     1       9.801  -6.637   6.276  1.00  0.00    -0.200 F 
ATOM     47  F   UNL     1       8.638  -8.252   8.142  1.00  0.00    -0.200 F 
ENDBRANCH  23  37
BRANCH  24  48
ATOM     48  C   UNL     1       6.119   5.677   7.769  1.00  0.00     0.064 A 
ATOM     49  C   UNL     1       4.805   6.159   7.879  1.00  0.00     0.173 A 
ATOM     50  C   UNL     1       7.141   6.615   7.574  1.00  0.00     0.173 A 
ATOM     51  F   UNL     1       3.790   5.303   8.063  1.00  0.00    -0.203 F 
ATOM     52  C   UNL     1       4.525   7.521   7.783  1.00  0.00     0.198 A 
ATOM     53  C   UNL     1       6.862   7.979   7.499  1.00  0.00     0.198 A 
ATOM     54  F   UNL     1       8.415   6.207   7.479  1.00  0.00    -0.203 F 
ATOM     55  F   UNL     1       3.259   7.952   7.866  1.00  0.00    -0.200 F 
ATOM     56  C   UNL     1       5.555   8.430   7.597  1.00  0.00     0.200 A 
ATOM     57  F   UNL     1       7.862   8.857   7.337  1.00  0.00    -0.200 F 
ATOM     58  F   UNL     1       5.288   9.741   7.515  1.00  0.00    -0.200 F 
ENDBRANCH  24  48
BRANCH  36  59
ATOM     59  C   UNL     1       9.558   1.589  12.275  1.00  0.00     0.064 A 
ATOM     60  C   UNL     1      10.959   1.501  12.285  1.00  0.00     0.173 A 
ATOM     61  C   UNL     1       8.903   1.849  13.486  1.00  0.00     0.173 A 
ATOM     62  F   UNL     1      11.629   1.246  11.151  1.00  0.00    -0.203 F 
ATOM     63  C   UNL     1      11.674   1.641  13.470  1.00  0.00     0.198 A 
ATOM     64  C   UNL     1       9.624   2.015  14.664  1.00  0.00     0.198 A 
ATOM     65  F   UNL     1       7.566   1.954  13.521  1.00  0.00    -0.203 F 
ATOM     66  F   UNL     1      13.008   1.511  13.464  1.00  0.00    -0.200 F 
ATOM     67  C   UNL     1      11.007   1.899  14.658  1.00  0.00     0.200 A 
ATOM     68  F   UNL     1       8.981   2.285  15.809  1.00  0.00    -0.200 F 
ATOM     69  F   UNL     1      11.697   2.034  15.798  1.00  0.00    -0.200 F 
ENDBRANCH  36  59
ENDBRANCH  10  11
ENDBRANCH   3   5
ENDBRANCH   2   3
ENDBRANCH   1   2
BRANCH   1  70
ATOM     70  C   UNL     1       3.700   1.915  -1.224  1.00  0.00     0.275 C 
BRANCH  70  71
ATOM     71  O   UNL     1       3.265   2.159   0.121  1.00  0.00    -0.458 OA
BRANCH  71  72
ATOM     72  C   UNL     1       1.917   2.235   0.272  1.00  0.00     0.338 C 
ATOM     73  O   UNL     1       1.070   2.123  -0.597  1.00  0.00    -0.246 OA
BRANCH  72  74
ATOM     74  C   UNL     1       1.596   2.344   1.706  1.00  0.00     0.062 A 
ATOM     75  C   UNL     1       2.140   3.371   2.484  1.00  0.00     0.018 A 
ATOM     76  C   UNL     1       0.741   1.371   2.251  1.00  0.00     0.044 A 
ATOM     77  C   UNL     1       1.823   3.463   3.846  1.00  0.00     0.031 A 
ATOM     78  C   UNL     1       0.531   1.436   3.628  1.00  0.00     0.067 A 
ATOM     79  C   UNL     1       1.011   2.473   4.418  1.00  0.00     0.089 A 
ATOM     80  N   UNL     1      -0.101   0.599   4.516  1.00  0.00    -0.338 N 
ATOM     81  N   UNL     1       0.559   2.350   5.701  1.00  0.00    -0.228 NA
ATOM     82  C   UNL     1      -0.102   1.212   5.742  1.00  0.00     0.142 A 
ATOM     83  H   UNL     1      -0.484  -0.284   4.309  1.00  0.00     0.168 HD
BRANCH  82  84
ATOM     84  C   UNL     1      -0.830   0.731   6.935  1.00  0.00     0.063 A 
ATOM     85  C   UNL     1      -0.973  -0.567   7.358  1.00  0.00     0.117 A 
ATOM     86  C   UNL     1      -1.564   1.527   7.859  1.00  0.00     0.106 A 
ATOM     87  N   UNL     1      -1.671  -0.484   8.530  1.00  0.00    -0.284 N 
ATOM     88  N   UNL     1      -2.091   0.757   8.825  1.00  0.00    -0.175 NA
ATOM     89  H   UNL     1      -1.848  -1.262   9.106  1.00  0.00     0.189 HD
BRANCH  86  90
ATOM     90  C   UNL     1      -1.897   2.940   7.724  1.00  0.00     0.039 A 
ATOM     91  C   UNL     1      -2.476   3.396   6.524  1.00  0.00     0.016 A 
ATOM     92  C   UNL     1      -1.644   3.861   8.742  1.00  0.00     0.135 A 
ATOM     93  C   UNL     1      -2.766   4.747   6.344  1.00  0.00     0.040 A 
ATOM     94  C   UNL     1      -1.941   5.212   8.571  1.00  0.00     0.079 A 
ATOM     95  F   UNL     1      -1.085   3.476   9.899  1.00  0.00    -0.206 F 
ATOM     96  C   UNL     1      -2.494   5.642   7.371  1.00  0.00     0.126 A 
ATOM     97  F   UNL     1      -2.770   6.941   7.197  1.00  0.00    -0.207 F 
ENDBRANCH  86  90
ENDBRANCH  82  84
ENDBRANCH  72  74
ENDBRANCH  71  72
ENDBRANCH  70  71
ENDBRANCH   1  70
TORSDOF 13
