REMARK SMILES Cc1ccc(N2C(=O)/C(=C3\C(=O)N(CC(=O)OCCOC(=O)c4ccc(-c5c6nc(c(-c7c(F)c(F)c(F)c(F)c7F)c7ccc([nH]7)c(-c7c(F)c(F)c(F)c(F)c7F)c7nc(c(-c8c(F)c(F)c(F)c(F)c8F)c8ccc5[nH]8)C=C7)C=C6)cc4)c4ccccc43)SC2=S)c(C)c1
REMARK SMILES IDX 18 1 17 2 15 3 16 4 14 5 13 6 6 7 7 8 93 9 8 10 9 11 92 12
REMARK SMILES IDX 94 13 10 14 11 15 91 16 12 17 86 18 90 19 87 20 89 21 88 22
REMARK SMILES IDX 5 23 1 24 2 25 3 26 97 27 4 28 95 29 96 30 19 31 20 32 21 33
REMARK SMILES IDX 22 34 23 35 24 36 85 37 25 38 84 39 26 40 27 41 28 42 78 43
REMARK SMILES IDX 29 44 83 45 77 46 79 47 30 48 82 49 76 50 75 51 31 53 63 54
REMARK SMILES IDX 43 55 62 56 44 57 47 58 61 59 80 60 45 61 46 62 60 64 81 65
REMARK SMILES IDX 48 66 32 67 33 68 41 69 34 70 35 71 39 72 42 73 36 74 37 75
REMARK SMILES IDX 40 76 38 77 64 78 65 79 73 80 66 81 67 82 71 83 74 84 68 85
REMARK SMILES IDX 69 86 72 87 70 88 49 89 50 90 58 91 51 92 52 93 56 94 59 95
REMARK SMILES IDX 53 96 54 97 57 98 55 99
REMARK H PARENT 79 52 47 63
REMARK Flexibility Score: inf
ROOT
ATOM      1  C   UNL     1     -10.636  -1.508  -3.560  1.00  0.00     0.274 C 
ENDROOT
BRANCH   1   2
ATOM      2  O   UNL     1      -9.559  -1.057  -2.711  1.00  0.00    -0.461 OA
BRANCH   2   3
ATOM      3  C   UNL     1      -9.381   0.290  -2.648  1.00  0.00     0.326 C 
ATOM      4  O   UNL     1     -10.073   1.110  -3.247  1.00  0.00    -0.250 OA
BRANCH   3   5
ATOM      5  C   UNL     1      -8.259   0.734  -1.713  1.00  0.00     0.248 C 
BRANCH   5   6
ATOM      6  N   UNL     1      -7.514  -0.284  -1.010  1.00  0.00    -0.296 N 
ATOM      7  N   UNL     1      -2.336  -1.902  -0.046  1.00  0.00    -0.261 N 
ATOM      8  C   UNL     1      -3.397  -1.708  -0.937  1.00  0.00     0.271 C 
ATOM      9  C   UNL     1      -2.530  -2.848   0.947  1.00  0.00     0.152 C 
ATOM     10  O   UNL     1      -3.331  -1.125  -2.006  1.00  0.00    -0.268 OA
ATOM     11  C   UNL     1      -4.636  -2.321  -0.353  1.00  0.00     0.094 C 
ATOM     12  S   UNL     1      -4.133  -3.531   0.775  1.00  0.00    -0.053 SA
ATOM     13  S   UNL     1      -1.569  -3.289   2.243  1.00  0.00    -0.051 S 
ATOM     14  C   UNL     1      -5.876  -1.812  -0.461  1.00  0.00     0.069 C 
ATOM     15  C   UNL     1      -6.324  -0.809  -1.495  1.00  0.00     0.260 C 
ATOM     16  C   UNL     1      -6.976  -1.901   0.533  1.00  0.00     0.012 A 
ATOM     17  O   UNL     1      -5.811  -0.540  -2.563  1.00  0.00    -0.269 OA
ATOM     18  C   UNL     1      -7.889  -0.894   0.194  1.00  0.00     0.053 A 
ATOM     19  C   UNL     1      -7.174  -2.637   1.696  1.00  0.00     0.011 A 
ATOM     20  C   UNL     1      -8.960  -0.572   1.010  1.00  0.00     0.027 A 
ATOM     21  C   UNL     1      -8.260  -2.330   2.522  1.00  0.00     0.001 A 
ATOM     22  C   UNL     1      -9.141  -1.298   2.187  1.00  0.00     0.002 A 
BRANCH   7  23
ATOM     23  C   UNL     1      -1.148  -1.119  -0.155  1.00  0.00     0.054 A 
ATOM     24  C   UNL     1       2.543   1.134  -0.085  1.00  0.00     0.044 C 
ATOM     25  C   UNL     1       1.270   0.343  -0.145  1.00  0.00    -0.051 A 
ATOM     26  C   UNL     1       1.291  -1.049  -0.197  1.00  0.00     0.005 A 
ATOM     27  C   UNL     1       0.036   1.003  -0.133  1.00  0.00     0.009 A 
ATOM     28  C   UNL     1       0.096  -1.770  -0.210  1.00  0.00     0.027 A 
ATOM     29  C   UNL     1      -1.181   0.292  -0.122  1.00  0.00    -0.027 A 
ATOM     30  C   UNL     1      -2.443   1.111  -0.042  1.00  0.00     0.046 C 
ENDBRANCH   7  23
ENDBRANCH   5   6
ENDBRANCH   3   5
ENDBRANCH   2   3
ENDBRANCH   1   2
BRANCH   1  31
ATOM     31  C   UNL     1     -11.874  -1.859  -2.739  1.00  0.00     0.275 C 
BRANCH  31  32
ATOM     32  O   UNL     1     -12.317  -0.704  -2.006  1.00  0.00    -0.458 OA
BRANCH  32  33
ATOM     33  C   UNL     1     -12.168  -0.782  -0.666  1.00  0.00     0.338 C 
ATOM     34  O   UNL     1     -11.767  -1.726  -0.008  1.00  0.00    -0.246 OA
BRANCH  33  35
ATOM     35  C   UNL     1     -12.605   0.477  -0.051  1.00  0.00     0.060 A 
ATOM     36  C   UNL     1     -13.706   0.448   0.801  1.00  0.00     0.016 A 
ATOM     37  C   UNL     1     -11.876   1.656  -0.234  1.00  0.00     0.016 A 
ATOM     38  C   UNL     1     -14.108   1.621   1.437  1.00  0.00     0.010 A 
ATOM     39  C   UNL     1     -12.232   2.808   0.467  1.00  0.00     0.010 A 
ATOM     40  C   UNL     1     -13.373   2.809   1.280  1.00  0.00    -0.014 A 
BRANCH  40  41
ATOM     41  C   UNL     1     -13.844   4.054   1.936  1.00  0.00     0.031 A 
ATOM     42  C   UNL     1     -14.390   5.182   1.107  1.00  0.00     0.074 A 
ATOM     43  C   UNL     1     -13.829   4.146   3.279  1.00  0.00     0.049 A 
ATOM     44  N   UNL     1     -14.981   6.283   1.500  1.00  0.00    -0.248 NA
ATOM     45  C   UNL     1     -14.250   5.068  -0.353  1.00  0.00     0.031 C 
ATOM     46  C   UNL     1     -13.282   3.136   4.186  1.00  0.00     0.029 A 
ATOM     47  N   UNL     1     -14.310   5.121   4.116  1.00  0.00    -0.354 N 
ATOM     48  C   UNL     1     -15.297   6.976   0.340  1.00  0.00     0.074 A 
ATOM     49  C   UNL     1     -14.771   6.213  -0.769  1.00  0.00     0.031 C 
ATOM     50  C   UNL     1     -13.506   3.518   5.453  1.00  0.00     0.029 A 
ATOM     51  C   UNL     1     -14.194   4.807   5.448  1.00  0.00     0.049 A 
ATOM     52  H   UNL     1     -14.700   5.965   3.792  1.00  0.00     0.167 HD
ATOM     53  C   UNL     1     -15.997   8.127   0.209  1.00  0.00     0.037 A 
ATOM     54  C   UNL     1     -14.617   5.473   6.540  1.00  0.00     0.037 A 
ATOM     55  C   UNL     1     -16.528   8.880   1.313  1.00  0.00     0.049 A 
ATOM     56  C   UNL     1     -15.369   6.765   6.369  1.00  0.00     0.074 A 
ATOM     57  C   UNL     1     -17.286  10.037   1.281  1.00  0.00     0.029 A 
ATOM     58  N   UNL     1     -16.354   8.551   2.648  1.00  0.00    -0.354 N 
ATOM     59  N   UNL     1     -15.730   7.371   5.264  1.00  0.00    -0.248 NA
ATOM     60  C   UNL     1     -15.780   7.462   7.596  1.00  0.00     0.031 C 
ATOM     61  C   UNL     1     -17.532  10.433   2.599  1.00  0.00     0.029 A 
ATOM     62  C   UNL     1     -16.969   9.497   3.451  1.00  0.00     0.049 A 
ATOM     63  H   UNL     1     -15.865   7.762   2.977  1.00  0.00     0.167 HD
ATOM     64  C   UNL     1     -16.425   8.506   5.659  1.00  0.00     0.074 A 
ATOM     65  C   UNL     1     -16.452   8.496   7.107  1.00  0.00     0.031 C 
ATOM     66  C   UNL     1     -16.986   9.472   4.891  1.00  0.00     0.037 A 
BRANCH  53  67
ATOM     67  C   UNL     1     -16.251   8.632  -1.180  1.00  0.00     0.064 A 
ATOM     68  C   UNL     1     -17.155   7.984  -2.036  1.00  0.00     0.173 A 
ATOM     69  C   UNL     1     -15.635   9.805  -1.641  1.00  0.00     0.173 A 
ATOM     70  F   UNL     1     -17.760   6.852  -1.646  1.00  0.00    -0.203 F 
ATOM     71  C   UNL     1     -17.420   8.482  -3.308  1.00  0.00     0.198 A 
ATOM     72  C   UNL     1     -15.923  10.315  -2.904  1.00  0.00     0.198 A 
ATOM     73  F   UNL     1     -14.766  10.464  -0.860  1.00  0.00    -0.203 F 
ATOM     74  F   UNL     1     -18.260   7.827  -4.121  1.00  0.00    -0.200 F 
ATOM     75  C   UNL     1     -16.811   9.652  -3.737  1.00  0.00     0.200 A 
ATOM     76  F   UNL     1     -15.344  11.452  -3.313  1.00  0.00    -0.200 F 
ATOM     77  F   UNL     1     -17.079  10.139  -4.957  1.00  0.00    -0.200 F 
ENDBRANCH  53  67
BRANCH  54  78
ATOM     78  C   UNL     1     -14.383   4.898   7.890  1.00  0.00     0.064 A 
ATOM     79  C   UNL     1     -15.446   4.390   8.649  1.00  0.00     0.173 A 
ATOM     80  C   UNL     1     -13.095   4.826   8.439  1.00  0.00     0.173 A 
ATOM     81  F   UNL     1     -16.699   4.455   8.174  1.00  0.00    -0.203 F 
ATOM     82  C   UNL     1     -15.231   3.841   9.911  1.00  0.00     0.198 A 
ATOM     83  C   UNL     1     -12.878   4.253   9.691  1.00  0.00     0.198 A 
ATOM     84  F   UNL     1     -12.044   5.295   7.751  1.00  0.00    -0.203 F 
ATOM     85  F   UNL     1     -16.269   3.391  10.630  1.00  0.00    -0.200 F 
ATOM     86  C   UNL     1     -13.947   3.765  10.428  1.00  0.00     0.200 A 
ATOM     87  F   UNL     1     -11.633   4.170  10.180  1.00  0.00    -0.200 F 
ATOM     88  F   UNL     1     -13.739   3.227  11.637  1.00  0.00    -0.200 F 
ENDBRANCH  54  78
BRANCH  66  89
ATOM     89  C   UNL     1     -17.684  10.600   5.592  1.00  0.00     0.064 A 
ATOM     90  C   UNL     1     -16.963  11.600   6.261  1.00  0.00     0.173 A 
ATOM     91  C   UNL     1     -19.080  10.725   5.526  1.00  0.00     0.173 A 
ATOM     92  F   UNL     1     -15.628  11.517   6.361  1.00  0.00    -0.203 F 
ATOM     93  C   UNL     1     -17.617  12.679   6.848  1.00  0.00     0.198 A 
ATOM     94  C   UNL     1     -19.727  11.820   6.091  1.00  0.00     0.198 A 
ATOM     95  F   UNL     1     -19.813   9.799   4.890  1.00  0.00    -0.203 F 
ATOM     96  F   UNL     1     -16.911  13.607   7.509  1.00  0.00    -0.200 F 
ATOM     97  C   UNL     1     -18.996  12.794   6.754  1.00  0.00     0.200 A 
ATOM     98  F   UNL     1     -21.058  11.938   5.985  1.00  0.00    -0.200 F 
ATOM     99  F   UNL     1     -19.621  13.844   7.305  1.00  0.00    -0.200 F 
ENDBRANCH  66  89
ENDBRANCH  40  41
ENDBRANCH  33  35
ENDBRANCH  32  33
ENDBRANCH  31  32
ENDBRANCH   1  31
TORSDOF 13
