REMARK SMILES C[C@@H]1C[C@@]([NH2+]Cc2cccs2)(C(=O)OCCOC(=O)c2ccc(-c3c4nc(c(-c5c(F)c(F)c(F)c(F)c5F)c5ccc([nH]5)c(-c5c(F)c(F)c(F)c(F)c5F)c5nc(c(-c6c(F)c(F)c(F)c(F)c6F)c6ccc3[nH]6)C=C5)C=C4)cc2)CS1
REMARK SMILES IDX 15 1 14 2 12 3 13 4 4 5 1 6 2 7 3 8 84 9 83 10 5 11 6 14
REMARK SMILES IDX 7 15 8 16 11 17 9 18 10 19 16 20 17 21 18 22 19 23 20 24
REMARK SMILES IDX 21 25 82 26 22 27 81 28 23 29 24 30 25 31 75 32 26 33 80 34
REMARK SMILES IDX 74 35 76 36 27 37 79 38 73 39 72 40 28 42 60 43 40 44 59 45
REMARK SMILES IDX 41 46 44 47 58 48 77 49 42 50 43 51 57 53 78 54 45 55 29 56
REMARK SMILES IDX 30 57 38 58 31 59 32 60 36 61 39 62 33 63 34 64 37 65 35 66
REMARK SMILES IDX 61 67 62 68 70 69 63 70 64 71 68 72 71 73 65 74 66 75 69 76
REMARK SMILES IDX 67 77 46 78 47 79 55 80 48 81 49 82 53 83 56 84 50 85 51 86
REMARK SMILES IDX 54 87 52 88
REMARK H PARENT 5 12 5 13 76 41 44 52
REMARK Flexibility Score: inf
ROOT
ATOM      1  C   UNL     1      -0.934   5.263   3.356  1.00  0.00     0.274 C 
ENDROOT
BRANCH   1   2
ATOM      2  O   UNL     1      -0.153   4.327   2.585  1.00  0.00    -0.457 OA
BRANCH   2   3
ATOM      3  C   UNL     1       0.731   3.568   3.288  1.00  0.00     0.369 C 
ATOM      4  O   UNL     1       0.872   3.662   4.504  1.00  0.00    -0.245 OA
BRANCH   3   5
ATOM      5  C   UNL     1       1.509   2.542   2.420  1.00  0.00     0.204 C 
ATOM      6  C   UNL     1       1.227   0.767  -0.972  1.00  0.00     0.019 C 
ATOM      7  C   UNL     1       0.773   1.069   0.443  1.00  0.00     0.050 C 
ATOM      8  C   UNL     1       1.072   2.505   0.912  1.00  0.00     0.096 C 
ATOM      9  S   UNL     1       1.583   0.002   1.647  1.00  0.00    -0.151 SA
ATOM     10  C   UNL     1       1.165   1.144   2.971  1.00  0.00     0.150 C 
BRANCH   5  11
ATOM     11  N   UNL     1       2.982   2.825   2.405  1.00  0.00    -0.327 N 
ATOM     12  H   UNL     1       3.135   3.566   1.720  1.00  0.00     0.347 HD
ATOM     13  H   UNL     1       3.400   1.917   2.203  1.00  0.00     0.347 HD
BRANCH  11  14
ATOM     14  C   UNL     1       3.649   3.244   3.643  1.00  0.00     0.309 C 
BRANCH  14  15
ATOM     15  C   UNL     1       3.780   2.177   4.690  1.00  0.00     0.059 A 
ATOM     16  C   UNL     1       3.247   2.160   5.966  1.00  0.00     0.021 A 
ATOM     17  S   UNL     1       4.727   0.774   4.397  1.00  0.00    -0.143 S 
ATOM     18  C   UNL     1       3.561   0.966   6.676  1.00  0.00     0.012 A 
ATOM     19  C   UNL     1       4.348   0.118   5.930  1.00  0.00     0.065 A 
ENDBRANCH  14  15
ENDBRANCH  11  14
ENDBRANCH   5  11
ENDBRANCH   3   5
ENDBRANCH   2   3
ENDBRANCH   1   2
BRANCH   1  20
ATOM     20  C   UNL     1      -2.293   4.668   3.722  1.00  0.00     0.275 C 
BRANCH  20  21
ATOM     21  O   UNL     1      -2.112   3.509   4.559  1.00  0.00    -0.458 OA
BRANCH  21  22
ATOM     22  C   UNL     1      -2.829   2.418   4.220  1.00  0.00     0.338 C 
ATOM     23  O   UNL     1      -3.648   2.332   3.309  1.00  0.00    -0.246 OA
BRANCH  22  24
ATOM     24  C   UNL     1      -2.485   1.264   5.077  1.00  0.00     0.060 A 
ATOM     25  C   UNL     1      -1.164   1.010   5.444  1.00  0.00     0.016 A 
ATOM     26  C   UNL     1      -3.475   0.331   5.389  1.00  0.00     0.016 A 
ATOM     27  C   UNL     1      -0.810  -0.235   5.967  1.00  0.00     0.010 A 
ATOM     28  C   UNL     1      -3.134  -0.860   6.039  1.00  0.00     0.010 A 
ATOM     29  C   UNL     1      -1.789  -1.188   6.285  1.00  0.00    -0.014 A 
BRANCH  29  30
ATOM     30  C   UNL     1      -1.421  -2.537   6.816  1.00  0.00     0.031 A 
ATOM     31  C   UNL     1      -1.939  -3.785   6.143  1.00  0.00     0.074 A 
ATOM     32  C   UNL     1      -0.624  -2.670   7.896  1.00  0.00     0.049 A 
ATOM     33  N   UNL     1      -1.969  -5.018   6.588  1.00  0.00    -0.248 NA
ATOM     34  C   UNL     1      -2.525  -3.624   4.802  1.00  0.00     0.031 C 
ATOM     35  C   UNL     1      -0.005  -1.574   8.641  1.00  0.00     0.029 A 
ATOM     36  N   UNL     1      -0.192  -3.798   8.554  1.00  0.00    -0.354 N 
ATOM     37  C   UNL     1      -2.659  -5.752   5.632  1.00  0.00     0.074 A 
ATOM     38  C   UNL     1      -3.006  -4.838   4.565  1.00  0.00     0.031 C 
ATOM     39  C   UNL     1       0.767  -2.080   9.614  1.00  0.00     0.029 A 
ATOM     40  C   UNL     1       0.621  -3.531   9.628  1.00  0.00     0.049 A 
ATOM     41  H   UNL     1      -0.442  -4.710   8.280  1.00  0.00     0.167 HD
ATOM     42  C   UNL     1      -2.985  -7.067   5.651  1.00  0.00     0.037 A 
ATOM     43  C   UNL     1       1.154  -4.351  10.554  1.00  0.00     0.037 A 
ATOM     44  C   UNL     1      -2.549  -8.002   6.655  1.00  0.00     0.049 A 
ATOM     45  C   UNL     1       0.839  -5.819  10.516  1.00  0.00     0.074 A 
ATOM     46  C   UNL     1      -2.827  -9.355   6.758  1.00  0.00     0.029 A 
ATOM     47  N   UNL     1      -1.703  -7.688   7.706  1.00  0.00    -0.354 N 
ATOM     48  N   UNL     1       0.081  -6.478   9.676  1.00  0.00    -0.248 NA
ATOM     49  C   UNL     1       1.430  -6.651  11.574  1.00  0.00     0.031 C 
ATOM     50  C   UNL     1      -2.151  -9.859   7.875  1.00  0.00     0.029 A 
ATOM     51  C   UNL     1      -1.435  -8.824   8.453  1.00  0.00     0.049 A 
ATOM     52  H   UNL     1      -1.345  -6.790   7.895  1.00  0.00     0.167 HD
ATOM     53  C   UNL     1       0.096  -7.797  10.106  1.00  0.00     0.074 A 
ATOM     54  C   UNL     1       0.964  -7.853  11.263  1.00  0.00     0.031 C 
ATOM     55  C   UNL     1      -0.565  -8.864   9.596  1.00  0.00     0.037 A 
BRANCH  42  56
ATOM     56  C   UNL     1      -3.889  -7.580   4.570  1.00  0.00     0.064 A 
ATOM     57  C   UNL     1      -3.429  -7.840   3.273  1.00  0.00     0.173 A 
ATOM     58  C   UNL     1      -5.230  -7.878   4.866  1.00  0.00     0.173 A 
ATOM     59  F   UNL     1      -2.161  -7.560   2.939  1.00  0.00    -0.203 F 
ATOM     60  C   UNL     1      -4.281  -8.368   2.306  1.00  0.00     0.198 A 
ATOM     61  C   UNL     1      -6.072  -8.427   3.904  1.00  0.00     0.198 A 
ATOM     62  F   UNL     1      -5.716  -7.654   6.096  1.00  0.00    -0.203 F 
ATOM     63  F   UNL     1      -3.829  -8.585   1.063  1.00  0.00    -0.200 F 
ATOM     64  C   UNL     1      -5.598  -8.669   2.624  1.00  0.00     0.200 A 
ATOM     65  F   UNL     1      -7.341  -8.727   4.217  1.00  0.00    -0.200 F 
ATOM     66  F   UNL     1      -6.412  -9.190   1.695  1.00  0.00    -0.200 F 
ENDBRANCH  42  56
BRANCH  43  67
ATOM     67  C   UNL     1       2.011  -3.787  11.627  1.00  0.00     0.064 A 
ATOM     68  C   UNL     1       3.392  -4.020  11.641  1.00  0.00     0.173 A 
ATOM     69  C   UNL     1       1.470  -2.990  12.646  1.00  0.00     0.173 A 
ATOM     70  F   UNL     1       3.949  -4.798  10.701  1.00  0.00    -0.203 F 
ATOM     71  C   UNL     1       4.201  -3.479  12.637  1.00  0.00     0.198 A 
ATOM     72  C   UNL     1       2.283  -2.426  13.626  1.00  0.00     0.198 A 
ATOM     73  F   UNL     1       0.153  -2.737  12.674  1.00  0.00    -0.203 F 
ATOM     74  F   UNL     1       5.514  -3.742  12.647  1.00  0.00    -0.200 F 
ATOM     75  C   UNL     1       3.647  -2.675  13.623  1.00  0.00     0.200 A 
ATOM     76  F   UNL     1       1.747  -1.638  14.567  1.00  0.00    -0.200 F 
ATOM     77  F   UNL     1       4.428  -2.144  14.574  1.00  0.00    -0.200 F 
ENDBRANCH  43  67
BRANCH  55  78
ATOM     78  C   UNL     1      -0.361 -10.180  10.278  1.00  0.00     0.064 A 
ATOM     79  C   UNL     1      -1.008 -10.482  11.484  1.00  0.00     0.173 A 
ATOM     80  C   UNL     1       0.468 -11.156   9.708  1.00  0.00     0.173 A 
ATOM     81  F   UNL     1      -1.799  -9.572  12.072  1.00  0.00    -0.203 F 
ATOM     82  C   UNL     1      -0.817 -11.712  12.107  1.00  0.00     0.198 A 
ATOM     83  C   UNL     1       0.644 -12.391  10.326  1.00  0.00     0.198 A 
ATOM     84  F   UNL     1       1.107 -10.911   8.554  1.00  0.00    -0.203 F 
ATOM     85  F   UNL     1      -1.417 -11.969  13.278  1.00  0.00    -0.200 F 
ATOM     86  C   UNL     1       0.006 -12.666  11.526  1.00  0.00     0.200 A 
ATOM     87  F   UNL     1       1.437 -13.314   9.763  1.00  0.00    -0.200 F 
ATOM     88  F   UNL     1       0.191 -13.849  12.129  1.00  0.00    -0.200 F 
ENDBRANCH  55  78
ENDBRANCH  29  30
ENDBRANCH  22  24
ENDBRANCH  21  22
ENDBRANCH  20  21
ENDBRANCH   1  20
TORSDOF 14
