REMARK SMILES Cc1ncccc1C(=O)Nc1ccccc1C(=O)OCCOC(=O)c1ccc(-c2c3nc(c(-c4c(F)c(F)c(F)c(F)c4F)c4ccc([nH]4)c(-c4c(F)c(F)c(F)c(F)c4F)c4nc(c(-c5c(F)c(F)c(F)c(F)c5F)c5ccc2[nH]5)C=C4)C=C3)cc1
REMARK SMILES IDX 20 1 19 2 17 3 18 4 16 5 11 6 12 7 13 8 15 9 14 10 10 11
REMARK SMILES IDX 8 12 9 13 7 15 1 16 2 17 3 18 4 19 6 20 5 21 21 22 22 23
REMARK SMILES IDX 23 24 24 25 25 26 26 27 87 28 27 29 86 30 28 31 29 32 30 33
REMARK SMILES IDX 80 34 31 35 85 36 79 37 81 38 32 39 84 40 78 41 77 42 33 44
REMARK SMILES IDX 65 45 45 46 64 47 46 48 49 49 63 50 82 51 47 52 48 53 62 55
REMARK SMILES IDX 83 56 50 57 34 58 35 59 43 60 36 61 37 62 41 63 44 64 38 65
REMARK SMILES IDX 39 66 42 67 40 68 66 69 67 70 75 71 68 72 69 73 73 74 76 75
REMARK SMILES IDX 70 76 71 77 74 78 72 79 51 80 52 81 60 82 53 83 54 84 58 85
REMARK SMILES IDX 61 86 55 87 56 88 59 89 57 90
REMARK H PARENT 10 14 81 43 49 54
REMARK Flexibility Score: inf
ROOT
ATOM      1  C   UNL     1      -0.041  -1.948   2.799  1.00  0.00     0.275 C 
ENDROOT
BRANCH   1   2
ATOM      2  O   UNL     1       1.273  -2.050   2.206  1.00  0.00    -0.458 OA
BRANCH   2   3
ATOM      3  C   UNL     1       1.697  -0.912   1.608  1.00  0.00     0.340 C 
ATOM      4  O   UNL     1       1.108   0.154   1.614  1.00  0.00    -0.246 OA
BRANCH   3   5
ATOM      5  C   UNL     1       2.975  -1.073   0.894  1.00  0.00     0.083 A 
ATOM      6  C   UNL     1       3.127  -1.910  -0.214  1.00  0.00     0.056 A 
ATOM      7  C   UNL     1       4.390  -1.993  -0.832  1.00  0.00     0.027 A 
ATOM      8  C   UNL     1       5.434  -1.144  -0.461  1.00  0.00     0.002 A 
ATOM      9  C   UNL     1       4.052  -0.259   1.292  1.00  0.00     0.018 A 
ATOM     10  C   UNL     1       5.260  -0.261   0.594  1.00  0.00     0.001 A 
BRANCH   6  11
ATOM     11  N   UNL     1       2.121  -2.660  -0.839  1.00  0.00    -0.321 N 
ATOM     12  C   UNL     1       0.778  -2.462  -1.051  1.00  0.00     0.257 C 
ATOM     13  O   UNL     1       0.122  -3.444  -1.413  1.00  0.00    -0.269 OA
ATOM     14  H   UNL     1       2.447  -3.514  -1.206  1.00  0.00     0.170 HD
BRANCH  12  15
ATOM     15  C   UNL     1       0.063  -1.161  -0.947  1.00  0.00     0.061 A 
ATOM     16  C   UNL     1       1.858   0.408  -1.920  1.00  0.00     0.067 C 
ATOM     17  C   UNL     1       0.515   0.107  -1.336  1.00  0.00     0.050 A 
ATOM     18  N   UNL     1      -0.252   1.229  -1.186  1.00  0.00    -0.261 NA
ATOM     19  C   UNL     1      -1.491   1.099  -0.669  1.00  0.00     0.111 A 
ATOM     20  C   UNL     1      -1.262  -1.252  -0.478  1.00  0.00     0.017 A 
ATOM     21  C   UNL     1      -2.045  -0.114  -0.322  1.00  0.00     0.021 A 
ENDBRANCH  12  15
ENDBRANCH   6  11
ENDBRANCH   3   5
ENDBRANCH   2   3
ENDBRANCH   1   2
BRANCH   1  22
ATOM     22  C   UNL     1      -0.022  -1.543   4.275  1.00  0.00     0.275 C 
BRANCH  22  23
ATOM     23  O   UNL     1       0.398  -0.177   4.457  1.00  0.00    -0.458 OA
BRANCH  23  24
ATOM     24  C   UNL     1       1.721  -0.029   4.675  1.00  0.00     0.338 C 
ATOM     25  O   UNL     1       2.562  -0.911   4.771  1.00  0.00    -0.246 OA
BRANCH  24  26
ATOM     26  C   UNL     1       2.099   1.387   4.744  1.00  0.00     0.060 A 
ATOM     27  C   UNL     1       2.498   2.030   3.575  1.00  0.00     0.016 A 
ATOM     28  C   UNL     1       2.341   1.973   5.982  1.00  0.00     0.016 A 
ATOM     29  C   UNL     1       3.280   3.169   3.632  1.00  0.00     0.010 A 
ATOM     30  C   UNL     1       3.017   3.193   6.034  1.00  0.00     0.010 A 
ATOM     31  C   UNL     1       3.542   3.770   4.862  1.00  0.00    -0.014 A 
BRANCH  31  32
ATOM     32  C   UNL     1       4.425   4.956   4.925  1.00  0.00     0.031 A 
ATOM     33  C   UNL     1       5.680   4.897   5.747  1.00  0.00     0.074 A 
ATOM     34  C   UNL     1       4.113   6.067   4.233  1.00  0.00     0.049 A 
ATOM     35  N   UNL     1       6.464   5.867   6.137  1.00  0.00    -0.248 NA
ATOM     36  C   UNL     1       6.096   3.564   6.212  1.00  0.00     0.031 C 
ATOM     37  C   UNL     1       2.975   6.210   3.321  1.00  0.00     0.029 A 
ATOM     38  N   UNL     1       4.726   7.292   4.190  1.00  0.00    -0.354 N 
ATOM     39  C   UNL     1       7.425   5.273   6.945  1.00  0.00     0.074 A 
ATOM     40  C   UNL     1       7.118   3.860   7.000  1.00  0.00     0.031 C 
ATOM     41  C   UNL     1       2.985   7.442   2.793  1.00  0.00     0.029 A 
ATOM     42  C   UNL     1       4.061   8.204   3.411  1.00  0.00     0.049 A 
ATOM     43  H   UNL     1       5.561   7.496   4.671  1.00  0.00     0.167 HD
ATOM     44  C   UNL     1       8.463   5.864   7.583  1.00  0.00     0.037 A 
ATOM     45  C   UNL     1       4.259   9.525   3.261  1.00  0.00     0.037 A 
ATOM     46  C   UNL     1       8.761   7.270   7.480  1.00  0.00     0.049 A 
ATOM     47  C   UNL     1       5.364  10.176   4.043  1.00  0.00     0.074 A 
ATOM     48  C   UNL     1       9.780   7.986   8.080  1.00  0.00     0.029 A 
ATOM     49  N   UNL     1       8.036   8.173   6.712  1.00  0.00    -0.354 N 
ATOM     50  N   UNL     1       6.231   9.630   4.862  1.00  0.00    -0.248 NA
ATOM     51  C   UNL     1       5.507  11.628   3.892  1.00  0.00     0.031 C 
ATOM     52  C   UNL     1       9.639   9.331   7.718  1.00  0.00     0.029 A 
ATOM     53  C   UNL     1       8.574   9.444   6.838  1.00  0.00     0.049 A 
ATOM     54  H   UNL     1       7.254   7.944   6.159  1.00  0.00     0.167 HD
ATOM     55  C   UNL     1       7.044  10.665   5.300  1.00  0.00     0.074 A 
ATOM     56  C   UNL     1       6.570  11.868   4.646  1.00  0.00     0.031 C 
ATOM     57  C   UNL     1       8.089  10.623   6.164  1.00  0.00     0.037 A 
BRANCH  44  58
ATOM     58  C   UNL     1       9.303   5.003   8.485  1.00  0.00     0.064 A 
ATOM     59  C   UNL     1      10.125   3.978   7.992  1.00  0.00     0.173 A 
ATOM     60  C   UNL     1       9.275   5.202   9.875  1.00  0.00     0.173 A 
ATOM     61  F   UNL     1      10.181   3.732   6.674  1.00  0.00    -0.203 F 
ATOM     62  C   UNL     1      10.848   3.157   8.856  1.00  0.00     0.198 A 
ATOM     63  C   UNL     1      10.029   4.404  10.733  1.00  0.00     0.198 A 
ATOM     64  F   UNL     1       8.512   6.170  10.406  1.00  0.00    -0.203 F 
ATOM     65  F   UNL     1      11.567   2.139   8.364  1.00  0.00    -0.200 F 
ATOM     66  C   UNL     1      10.803   3.374  10.224  1.00  0.00     0.200 A 
ATOM     67  F   UNL     1       9.995   4.626  12.055  1.00  0.00    -0.200 F 
ATOM     68  F   UNL     1      11.496   2.582  11.054  1.00  0.00    -0.200 F 
ENDBRANCH  44  58
BRANCH  45  69
ATOM     69  C   UNL     1       3.374  10.309   2.361  1.00  0.00     0.064 A 
ATOM     70  C   UNL     1       3.873  10.872   1.180  1.00  0.00     0.173 A 
ATOM     71  C   UNL     1       2.011  10.491   2.644  1.00  0.00     0.173 A 
ATOM     72  F   UNL     1       5.173  10.742   0.875  1.00  0.00    -0.203 F 
ATOM     73  C   UNL     1       3.048  11.596   0.322  1.00  0.00     0.198 A 
ATOM     74  C   UNL     1       1.179  11.185   1.770  1.00  0.00     0.198 A 
ATOM     75  F   UNL     1       1.480   9.969   3.760  1.00  0.00    -0.203 F 
ATOM     76  F   UNL     1       3.561  12.157  -0.781  1.00  0.00    -0.200 F 
ATOM     77  C   UNL     1       1.700  11.744   0.613  1.00  0.00     0.200 A 
ATOM     78  F   UNL     1      -0.126  11.309   2.045  1.00  0.00    -0.200 F 
ATOM     79  F   UNL     1       0.904  12.430  -0.219  1.00  0.00    -0.200 F 
ENDBRANCH  45  69
BRANCH  57  80
ATOM     80  C   UNL     1       8.827  11.909   6.397  1.00  0.00     0.064 A 
ATOM     81  C   UNL     1       8.262  12.970   7.119  1.00  0.00     0.173 A 
ATOM     82  C   UNL     1      10.134  12.067   5.909  1.00  0.00     0.173 A 
ATOM     83  F   UNL     1       7.009  12.876   7.589  1.00  0.00    -0.203 F 
ATOM     84  C   UNL     1       8.966  14.155   7.316  1.00  0.00     0.198 A 
ATOM     85  C   UNL     1      10.848  13.238   6.141  1.00  0.00     0.198 A 
ATOM     86  F   UNL     1      10.722  11.080   5.218  1.00  0.00    -0.203 F 
ATOM     87  F   UNL     1       8.384  15.178   7.957  1.00  0.00    -0.200 F 
ATOM     88  C   UNL     1      10.260  14.284   6.835  1.00  0.00     0.200 A 
ATOM     89  F   UNL     1      12.104  13.355   5.689  1.00  0.00    -0.200 F 
ATOM     90  F   UNL     1      10.939  15.423   7.033  1.00  0.00    -0.200 F 
ENDBRANCH  57  80
ENDBRANCH  31  32
ENDBRANCH  24  26
ENDBRANCH  23  24
ENDBRANCH  22  23
ENDBRANCH   1  22
TORSDOF 13
