REMARK SMILES C[C@@H](c1ccccc1)[C@@H]1[NH2+][C@@H](C(=O)OCCOC(=O)c2ccc(-c3c4nc(c(-c5c(F)c(F)c(F)c(F)c5F)c5ccc([nH]5)c(-c5c(F)c(F)c(F)c(F)c5F)c5nc(c(-c6c(F)c(F)c(F)c(F)c6F)c6ccc3[nH]6)C=C5)C=C4)cc2)CS1
REMARK SMILES IDX 15 1 14 2 12 3 13 4 11 5 9 6 10 7 84 8 83 11 2 12 1 13 3 14
REMARK SMILES IDX 4 15 8 16 5 17 7 18 6 19 16 20 17 21 18 22 19 23 20 24 21 25
REMARK SMILES IDX 82 26 22 27 81 28 23 29 24 30 25 31 75 32 26 33 80 34 74 35
REMARK SMILES IDX 76 36 27 37 79 38 73 39 72 40 28 42 60 43 40 44 59 45 41 46
REMARK SMILES IDX 44 47 58 48 77 49 42 50 43 51 57 53 78 54 45 55 29 56 30 57
REMARK SMILES IDX 38 58 31 59 32 60 36 61 39 62 33 63 34 64 37 65 35 66 61 67
REMARK SMILES IDX 62 68 70 69 63 70 64 71 68 72 71 73 65 74 66 75 69 76 67 77
REMARK SMILES IDX 46 78 47 79 55 80 48 81 49 82 53 83 56 84 50 85 51 86 54 87
REMARK SMILES IDX 52 88
REMARK H PARENT 10 9 10 10 76 41 44 52
REMARK Flexibility Score: inf
ROOT
ATOM      1  C   UNL     1      -3.940  -2.553  -2.197  1.00  0.00     0.274 C 
ENDROOT
BRANCH   1   2
ATOM      2  O   UNL     1      -2.831  -1.770  -1.702  1.00  0.00    -0.458 OA
BRANCH   2   3
ATOM      3  C   UNL     1      -2.009  -1.220  -2.643  1.00  0.00     0.365 C 
ATOM      4  O   UNL     1      -2.154  -1.349  -3.854  1.00  0.00    -0.245 OA
BRANCH   3   5
ATOM      5  C   UNL     1      -0.885  -0.366  -2.033  1.00  0.00     0.304 C 
ATOM      6  C   UNL     1      -0.607   0.936  -0.011  1.00  0.00     0.249 C 
ATOM      7  N   UNL     1      -0.867  -0.414  -0.537  1.00  0.00    -0.322 N 
ATOM      8  S   UNL     1      -1.543   2.020  -1.121  1.00  0.00    -0.092 SA
ATOM      9  H   UNL     1      -1.770  -0.745  -0.196  1.00  0.00     0.348 HD
ATOM     10  H   UNL     1      -0.134  -1.050  -0.224  1.00  0.00     0.348 HD
ATOM     11  C   UNL     1      -1.027   1.062  -2.562  1.00  0.00     0.153 C 
BRANCH   6  12
ATOM     12  C   UNL     1       0.911   1.304   0.223  1.00  0.00     0.085 C 
ATOM     13  C   UNL     1       1.722   0.074   0.668  1.00  0.00     0.020 C 
BRANCH  12  14
ATOM     14  C   UNL     1       1.610   2.118  -0.867  1.00  0.00    -0.038 A 
ATOM     15  C   UNL     1       2.381   1.538  -1.885  1.00  0.00     0.004 A 
ATOM     16  C   UNL     1       1.422   3.514  -0.893  1.00  0.00     0.004 A 
ATOM     17  C   UNL     1       2.897   2.323  -2.922  1.00  0.00     0.000 A 
ATOM     18  C   UNL     1       1.928   4.294  -1.933  1.00  0.00     0.000 A 
ATOM     19  C   UNL     1       2.659   3.696  -2.954  1.00  0.00     0.000 A 
ENDBRANCH  12  14
ENDBRANCH   6  12
ENDBRANCH   3   5
ENDBRANCH   2   3
ENDBRANCH   1   2
BRANCH   1  20
ATOM     20  C   UNL     1      -5.258  -1.888  -1.813  1.00  0.00     0.275 C 
BRANCH  20  21
ATOM     21  O   UNL     1      -5.300  -0.575  -2.399  1.00  0.00    -0.458 OA
BRANCH  21  22
ATOM     22  C   UNL     1      -5.751   0.418  -1.596  1.00  0.00     0.338 C 
ATOM     23  O   UNL     1      -6.212   0.302  -0.474  1.00  0.00    -0.246 OA
BRANCH  22  24
ATOM     24  C   UNL     1      -5.578   1.725  -2.270  1.00  0.00     0.060 A 
ATOM     25  C   UNL     1      -4.465   1.965  -3.071  1.00  0.00     0.016 A 
ATOM     26  C   UNL     1      -6.468   2.765  -2.005  1.00  0.00     0.016 A 
ATOM     27  C   UNL     1      -4.162   3.263  -3.489  1.00  0.00     0.010 A 
ATOM     28  C   UNL     1      -6.229   4.039  -2.536  1.00  0.00     0.010 A 
ATOM     29  C   UNL     1      -5.044   4.323  -3.242  1.00  0.00    -0.014 A 
BRANCH  29  30
ATOM     30  C   UNL     1      -4.724   5.726  -3.656  1.00  0.00     0.031 A 
ATOM     31  C   UNL     1      -4.816   6.848  -2.649  1.00  0.00     0.074 A 
ATOM     32  C   UNL     1      -4.356   6.033  -4.917  1.00  0.00     0.049 A 
ATOM     33  N   UNL     1      -4.895   8.142  -2.848  1.00  0.00    -0.248 NA
ATOM     34  C   UNL     1      -4.851   6.460  -1.231  1.00  0.00     0.031 C 
ATOM     35  C   UNL     1      -4.151   5.079  -6.005  1.00  0.00     0.029 A 
ATOM     36  N   UNL     1      -4.085   7.252  -5.496  1.00  0.00    -0.354 N 
ATOM     37  C   UNL     1      -5.093   8.707  -1.594  1.00  0.00     0.074 A 
ATOM     38  C   UNL     1      -5.095   7.620  -0.638  1.00  0.00     0.031 C 
ATOM     39  C   UNL     1      -3.738   5.736  -7.098  1.00  0.00     0.029 A 
ATOM     40  C   UNL     1      -3.758   7.169  -6.827  1.00  0.00     0.049 A 
ATOM     41  H   UNL     1      -4.122   8.103  -5.002  1.00  0.00     0.167 HD
ATOM     42  C   UNL     1      -5.272  10.012  -1.275  1.00  0.00     0.037 A 
ATOM     43  C   UNL     1      -3.551   8.130  -7.748  1.00  0.00     0.037 A 
ATOM     44  C   UNL     1      -5.159  11.104  -2.207  1.00  0.00     0.049 A 
ATOM     45  C   UNL     1      -3.725   9.573  -7.373  1.00  0.00     0.074 A 
ATOM     46  C   UNL     1      -5.301  12.462  -1.970  1.00  0.00     0.029 A 
ATOM     47  N   UNL     1      -4.837  10.966  -3.548  1.00  0.00    -0.354 N 
ATOM     48  N   UNL     1      -4.043  10.092  -6.214  1.00  0.00    -0.248 NA
ATOM     49  C   UNL     1      -3.548  10.562  -8.447  1.00  0.00     0.031 C 
ATOM     50  C   UNL     1      -5.080  13.143  -3.173  1.00  0.00     0.029 A 
ATOM     51  C   UNL     1      -4.772  12.212  -4.150  1.00  0.00     0.049 A 
ATOM     52  H   UNL     1      -4.678  10.108  -4.005  1.00  0.00     0.167 HD
ATOM     53  C   UNL     1      -4.112  11.463  -6.417  1.00  0.00     0.074 A 
ATOM     54  C   UNL     1      -3.776  11.700  -7.805  1.00  0.00     0.031 C 
ATOM     55  C   UNL     1      -4.440  12.436  -5.532  1.00  0.00     0.037 A 
BRANCH  42  56
ATOM     56  C   UNL     1      -5.655  10.335   0.140  1.00  0.00     0.064 A 
ATOM     57  C   UNL     1      -4.736  10.281   1.196  1.00  0.00     0.173 A 
ATOM     58  C   UNL     1      -6.967  10.743   0.430  1.00  0.00     0.173 A 
ATOM     59  F   UNL     1      -3.474   9.885   0.973  1.00  0.00    -0.203 F 
ATOM     60  C   UNL     1      -5.122  10.599   2.496  1.00  0.00     0.198 A 
ATOM     61  C   UNL     1      -7.343  11.085   1.726  1.00  0.00     0.198 A 
ATOM     62  F   UNL     1      -7.883  10.820  -0.547  1.00  0.00    -0.203 F 
ATOM     63  F   UNL     1      -4.239  10.499   3.499  1.00  0.00    -0.200 F 
ATOM     64  C   UNL     1      -6.423  11.006   2.759  1.00  0.00     0.200 A 
ATOM     65  F   UNL     1      -8.596  11.491   1.974  1.00  0.00    -0.200 F 
ATOM     66  F   UNL     1      -6.790  11.318   4.010  1.00  0.00    -0.200 F 
ENDBRANCH  42  56
BRANCH  43  67
ATOM     67  C   UNL     1      -3.209   7.742  -9.141  1.00  0.00     0.064 A 
ATOM     68  C   UNL     1      -1.919   7.948  -9.647  1.00  0.00     0.173 A 
ATOM     69  C   UNL     1      -4.152   7.128  -9.979  1.00  0.00     0.173 A 
ATOM     70  F   UNL     1      -0.994   8.559  -8.892  1.00  0.00    -0.203 F 
ATOM     71  C   UNL     1      -1.583   7.547 -10.938  1.00  0.00     0.198 A 
ATOM     72  C   UNL     1      -3.807   6.703 -11.259  1.00  0.00     0.198 A 
ATOM     73  F   UNL     1      -5.401   6.913  -9.540  1.00  0.00    -0.203 F 
ATOM     74  F   UNL     1      -0.349   7.777 -11.408  1.00  0.00    -0.200 F 
ATOM     75  C   UNL     1      -2.523   6.914 -11.738  1.00  0.00     0.200 A 
ATOM     76  F   UNL     1      -4.713   6.079 -12.023  1.00  0.00    -0.200 F 
ATOM     77  F   UNL     1      -2.192   6.511 -12.972  1.00  0.00    -0.200 F 
ENDBRANCH  43  67
BRANCH  55  78
ATOM     78  C   UNL     1      -4.439  13.847  -6.036  1.00  0.00     0.064 A 
ATOM     79  C   UNL     1      -5.485  14.337  -6.830  1.00  0.00     0.173 A 
ATOM     80  C   UNL     1      -3.398  14.724  -5.698  1.00  0.00     0.173 A 
ATOM     81  F   UNL     1      -6.493  13.530  -7.193  1.00  0.00    -0.203 F 
ATOM     82  C   UNL     1      -5.481  15.654  -7.282  1.00  0.00     0.198 A 
ATOM     83  C   UNL     1      -3.407  16.045  -6.136  1.00  0.00     0.198 A 
ATOM     84  F   UNL     1      -2.377  14.300  -4.939  1.00  0.00    -0.203 F 
ATOM     85  F   UNL     1      -6.473  16.094  -8.069  1.00  0.00    -0.200 F 
ATOM     86  C   UNL     1      -4.445  16.508  -6.931  1.00  0.00     0.200 A 
ATOM     87  F   UNL     1      -2.409  16.870  -5.793  1.00  0.00    -0.200 F 
ATOM     88  F   UNL     1      -4.443  17.775  -7.367  1.00  0.00    -0.200 F 
ENDBRANCH  55  78
ENDBRANCH  29  30
ENDBRANCH  22  24
ENDBRANCH  21  22
ENDBRANCH  20  21
ENDBRANCH   1  20
TORSDOF 13
