REMARK SMILES O=C(/C=C/c1ccccc1)Nc1ccc(O)cc1C(=O)OCCOC(=O)c1ccc(-c2c3nc(c(-c4c(F)c(F)c(F)c(F)c4F)c4ccc([nH]4)c(-c4c(F)c(F)c(F)c(F)c4F)c4nc(c(-c5c(F)c(F)c(F)c(F)c5F)c5ccc2[nH]5)C=C4)C=C3)cc1
REMARK SMILES IDX 22 1 21 2 19 3 20 4 18 5 12 6 13 7 14 8 17 9 15 10 11 11
REMARK SMILES IDX 1 12 2 13 3 15 4 16 5 17 6 18 10 19 7 20 9 21 8 22 16 23
REMARK SMILES IDX 23 25 24 26 25 27 26 28 27 29 28 30 89 31 29 32 88 33 30 34
REMARK SMILES IDX 31 35 32 36 82 37 33 38 87 39 81 40 83 41 34 42 86 43 80 44
REMARK SMILES IDX 79 45 35 47 67 48 47 49 66 50 48 51 51 52 65 53 84 54 49 55
REMARK SMILES IDX 50 56 64 58 85 59 52 60 36 61 37 62 45 63 38 64 39 65 43 66
REMARK SMILES IDX 46 67 40 68 41 69 44 70 42 71 68 72 69 73 77 74 70 75 71 76
REMARK SMILES IDX 75 77 78 78 72 79 73 80 76 81 74 82 53 83 54 84 62 85 55 86
REMARK SMILES IDX 56 87 60 88 63 89 57 90 58 91 61 92 59 93
REMARK H PARENT 11 14 16 24 83 46 51 57
REMARK Flexibility Score: inf
ROOT
ATOM      1  C   UNL     1       0.664   0.079   2.152  1.00  0.00     0.275 C 
ENDROOT
BRANCH   1   2
ATOM      2  O   UNL     1       1.285   1.038   1.273  1.00  0.00    -0.458 OA
BRANCH   2   3
ATOM      3  C   UNL     1       0.474   1.631   0.358  1.00  0.00     0.340 C 
ATOM      4  O   UNL     1      -0.748   1.630   0.364  1.00  0.00    -0.246 OA
BRANCH   3   5
ATOM      5  C   UNL     1       1.274   2.479  -0.566  1.00  0.00     0.087 A 
ATOM      6  C   UNL     1       2.542   2.143  -1.080  1.00  0.00     0.056 A 
ATOM      7  C   UNL     1       3.287   3.140  -1.735  1.00  0.00     0.031 A 
ATOM      8  C   UNL     1       2.758   4.417  -1.940  1.00  0.00     0.048 A 
ATOM      9  C   UNL     1       0.730   3.752  -0.827  1.00  0.00     0.064 A 
ATOM     10  C   UNL     1       1.479   4.710  -1.496  1.00  0.00     0.116 A 
BRANCH   6  11
ATOM     11  N   UNL     1       3.156   0.869  -1.017  1.00  0.00    -0.322 N 
ATOM     12  O   UNL     1       1.298  -0.506  -1.139  1.00  0.00    -0.270 OA
ATOM     13  C   UNL     1       2.493  -0.331  -0.929  1.00  0.00     0.248 C 
ATOM     14  H   UNL     1       4.139   0.841  -1.039  1.00  0.00     0.170 HD
BRANCH  13  15
ATOM     15  C   UNL     1       3.332  -1.518  -0.628  1.00  0.00     0.072 C 
ATOM     16  C   UNL     1       4.566  -1.504  -0.099  1.00  0.00     0.014 C 
BRANCH  16  17
ATOM     17  C   UNL     1       5.331  -2.716   0.246  1.00  0.00    -0.025 A 
ATOM     18  C   UNL     1       6.405  -2.601   1.140  1.00  0.00     0.008 A 
ATOM     19  C   UNL     1       5.055  -3.975  -0.306  1.00  0.00     0.008 A 
ATOM     20  C   UNL     1       7.167  -3.719   1.491  1.00  0.00     0.001 A 
ATOM     21  C   UNL     1       5.813  -5.094   0.049  1.00  0.00     0.001 A 
ATOM     22  C   UNL     1       6.868  -4.966   0.948  1.00  0.00     0.000 A 
ENDBRANCH  16  17
ENDBRANCH  13  15
ENDBRANCH   6  11
BRANCH  10  23
ATOM     23  O   UNL     1       1.001   5.965  -1.717  1.00  0.00    -0.508 OA
ATOM     24  H   UNL     1       1.527   6.594  -2.172  1.00  0.00     0.293 HD
ENDBRANCH  10  23
ENDBRANCH   3   5
ENDBRANCH   2   3
ENDBRANCH   1   2
BRANCH   1  25
ATOM     25  C   UNL     1       0.741   0.548   3.601  1.00  0.00     0.275 C 
BRANCH  25  26
ATOM     26  O   UNL     1      -0.084   1.713   3.761  1.00  0.00    -0.458 OA
BRANCH  26  27
ATOM     27  C   UNL     1       0.565   2.863   4.028  1.00  0.00     0.338 C 
ATOM     28  O   UNL     1       1.749   3.027   4.284  1.00  0.00    -0.246 OA
BRANCH  27  29
ATOM     29  C   UNL     1      -0.385   3.969   3.884  1.00  0.00     0.060 A 
ATOM     30  C   UNL     1      -0.721   4.383   2.597  1.00  0.00     0.016 A 
ATOM     31  C   UNL     1      -0.862   4.654   4.998  1.00  0.00     0.016 A 
ATOM     32  C   UNL     1      -1.494   5.523   2.406  1.00  0.00     0.010 A 
ATOM     33  C   UNL     1      -1.689   5.766   4.808  1.00  0.00     0.010 A 
ATOM     34  C   UNL     1      -1.986   6.229   3.511  1.00  0.00    -0.014 A 
BRANCH  34  35
ATOM     35  C   UNL     1      -2.742   7.494   3.314  1.00  0.00     0.031 A 
ATOM     36  C   UNL     1      -2.174   8.784   3.837  1.00  0.00     0.074 A 
ATOM     37  C   UNL     1      -3.917   7.500   2.658  1.00  0.00     0.049 A 
ATOM     38  N   UNL     1      -2.742   9.957   3.949  1.00  0.00    -0.248 NA
ATOM     39  C   UNL     1      -0.782   8.743   4.311  1.00  0.00     0.031 C 
ATOM     40  C   UNL     1      -4.554   6.332   2.049  1.00  0.00     0.029 A 
ATOM     41  N   UNL     1      -4.787   8.530   2.394  1.00  0.00    -0.354 N 
ATOM     42  C   UNL     1      -1.804  10.773   4.569  1.00  0.00     0.074 A 
ATOM     43  C   UNL     1      -0.625   9.965   4.798  1.00  0.00     0.031 C 
ATOM     44  C   UNL     1      -5.700   6.713   1.464  1.00  0.00     0.029 A 
ATOM     45  C   UNL     1      -5.918   8.133   1.724  1.00  0.00     0.049 A 
ATOM     46  H   UNL     1      -4.616   9.462   2.659  1.00  0.00     0.167 HD
ATOM     47  C   UNL     1      -1.924  12.075   4.921  1.00  0.00     0.037 A 
ATOM     48  C   UNL     1      -7.026   8.825   1.395  1.00  0.00     0.037 A 
ATOM     49  C   UNL     1      -3.073  12.890   4.630  1.00  0.00     0.049 A 
ATOM     50  C   UNL     1      -7.137  10.270   1.794  1.00  0.00     0.074 A 
ATOM     51  C   UNL     1      -3.282  14.227   4.923  1.00  0.00     0.029 A 
ATOM     52  N   UNL     1      -4.203  12.447   3.958  1.00  0.00    -0.354 N 
ATOM     53  N   UNL     1      -6.274  11.017   2.439  1.00  0.00    -0.248 NA
ATOM     54  C   UNL     1      -8.383  10.962   1.439  1.00  0.00     0.031 C 
ATOM     55  C   UNL     1      -4.551  14.585   4.453  1.00  0.00     0.029 A 
ATOM     56  C   UNL     1      -5.116  13.481   3.834  1.00  0.00     0.049 A 
ATOM     57  H   UNL     1      -4.336  11.532   3.619  1.00  0.00     0.167 HD
ATOM     58  C   UNL     1      -6.869  12.264   2.566  1.00  0.00     0.074 A 
ATOM     59  C   UNL     1      -8.157  12.181   1.909  1.00  0.00     0.031 C 
ATOM     60  C   UNL     1      -6.394  13.376   3.178  1.00  0.00     0.037 A 
BRANCH  47  61
ATOM     61  C   UNL     1      -0.799  12.686   5.703  1.00  0.00     0.064 A 
ATOM     62  C   UNL     1       0.431  13.010   5.113  1.00  0.00     0.173 A 
ATOM     63  C   UNL     1      -0.969  12.972   7.067  1.00  0.00     0.173 A 
ATOM     64  F   UNL     1       0.649  12.741   3.817  1.00  0.00    -0.203 F 
ATOM     65  C   UNL     1       1.458  13.573   5.866  1.00  0.00     0.198 A 
ATOM     66  C   UNL     1       0.050  13.560   7.810  1.00  0.00     0.198 A 
ATOM     67  F   UNL     1      -2.128  12.685   7.678  1.00  0.00    -0.203 F 
ATOM     68  F   UNL     1       2.642  13.832   5.293  1.00  0.00    -0.200 F 
ATOM     69  C   UNL     1       1.266  13.853   7.211  1.00  0.00     0.200 A 
ATOM     70  F   UNL     1      -0.142  13.838   9.107  1.00  0.00    -0.200 F 
ATOM     71  F   UNL     1       2.255  14.399   7.933  1.00  0.00    -0.200 F 
ENDBRANCH  47  61
BRANCH  48  72
ATOM     72  C   UNL     1      -8.134   8.139   0.682  1.00  0.00     0.064 A 
ATOM     73  C   UNL     1      -8.425   8.434  -0.656  1.00  0.00     0.173 A 
ATOM     74  C   UNL     1      -8.911   7.159   1.319  1.00  0.00     0.173 A 
ATOM     75  F   UNL     1      -7.729   9.384  -1.298  1.00  0.00    -0.203 F 
ATOM     76  C   UNL     1      -9.451   7.775  -1.331  1.00  0.00     0.198 A 
ATOM     77  C   UNL     1      -9.917   6.481   0.635  1.00  0.00     0.198 A 
ATOM     78  F   UNL     1      -8.674   6.843   2.601  1.00  0.00    -0.203 F 
ATOM     79  F   UNL     1      -9.729   8.098  -2.601  1.00  0.00    -0.200 F 
ATOM     80  C   UNL     1     -10.189   6.793  -0.688  1.00  0.00     0.200 A 
ATOM     81  F   UNL     1     -10.619   5.524   1.257  1.00  0.00    -0.200 F 
ATOM     82  F   UNL     1     -11.166   6.150  -1.342  1.00  0.00    -0.200 F 
ENDBRANCH  48  72
BRANCH  60  83
ATOM     83  C   UNL     1      -7.266  14.595   3.151  1.00  0.00     0.064 A 
ATOM     84  C   UNL     1      -8.397  14.702   3.973  1.00  0.00     0.173 A 
ATOM     85  C   UNL     1      -6.945  15.681   2.323  1.00  0.00     0.173 A 
ATOM     86  F   UNL     1      -8.751  13.683   4.770  1.00  0.00    -0.203 F 
ATOM     87  C   UNL     1      -9.188  15.848   3.952  1.00  0.00     0.198 A 
ATOM     88  C   UNL     1      -7.726  16.833   2.321  1.00  0.00     0.198 A 
ATOM     89  F   UNL     1      -5.870  15.626   1.522  1.00  0.00    -0.203 F 
ATOM     90  F   UNL     1     -10.286  15.915   4.717  1.00  0.00    -0.200 F 
ATOM     91  C   UNL     1      -8.849  16.913   3.131  1.00  0.00     0.200 A 
ATOM     92  F   UNL     1      -7.393  17.865   1.534  1.00  0.00    -0.200 F 
ATOM     93  F   UNL     1      -9.610  18.016   3.115  1.00  0.00    -0.200 F 
ENDBRANCH  60  83
ENDBRANCH  34  35
ENDBRANCH  27  29
ENDBRANCH  26  27
ENDBRANCH  25  26
ENDBRANCH   1  25
TORSDOF 15
