REMARK SMILES CC1(C)CC[NH+](CC[C@H]2CCC[C@]2([NH3+])C(=O)OCCOC(=O)c2ccc(-c3c4nc(c(-c5c(F)c(F)c(F)c(F)c5F)c5ccc([nH]5)c(-c5c(F)c(F)c(F)c(F)c5F)c5nc(c(-c6c(F)c(F)c(F)c(F)c6F)c6ccc3[nH]6)C=C5)C=C4)cc2)CC1
REMARK SMILES IDX 18 1 17 2 15 3 16 4 13 5 9 6 10 7 11 8 12 9 8 10 7 11 6 12
REMARK SMILES IDX 1 13 2 14 3 15 4 16 87 17 5 18 86 19 14 21 19 25 20 26 21 27
REMARK SMILES IDX 22 28 23 29 24 30 85 31 25 32 84 33 26 34 27 35 28 36 78 37
REMARK SMILES IDX 29 38 83 39 77 40 79 41 30 42 82 43 76 44 75 45 31 47 63 48
REMARK SMILES IDX 43 49 62 50 44 51 47 52 61 53 80 54 45 55 46 56 60 58 81 59
REMARK SMILES IDX 48 60 32 61 33 62 41 63 34 64 35 65 39 66 42 67 36 68 37 69
REMARK SMILES IDX 40 70 38 71 64 72 65 73 73 74 66 75 67 76 71 77 74 78 68 79
REMARK SMILES IDX 69 80 72 81 70 82 49 83 50 84 58 85 51 86 52 87 56 88 59 89
REMARK SMILES IDX 53 90 54 91 57 92 55 93
REMARK H PARENT 6 20 14 22 14 23 14 24 79 46 47 57
REMARK Flexibility Score: inf
ROOT
ATOM      1  C   UNL     1       3.371  -2.333  -7.126  1.00  0.00     0.274 C 
ENDROOT
BRANCH   1   2
ATOM      2  O   UNL     1       3.016  -1.813  -5.823  1.00  0.00    -0.457 OA
BRANCH   2   3
ATOM      3  C   UNL     1       3.588  -0.648  -5.420  1.00  0.00     0.368 C 
ATOM      4  O   UNL     1       4.522  -0.102  -6.006  1.00  0.00    -0.245 OA
BRANCH   3   5
ATOM      5  C   UNL     1       2.843   0.043  -4.196  1.00  0.00     0.195 C 
ATOM      6  C   UNL     1       1.664  -0.750  -3.565  1.00  0.00     0.068 C 
ATOM      7  C   UNL     1       0.637  -0.733  -4.695  1.00  0.00     0.011 C 
ATOM      8  C   UNL     1       0.859   0.594  -5.413  1.00  0.00     0.008 C 
ATOM      9  C   UNL     1       2.119   1.234  -4.833  1.00  0.00     0.081 C 
BRANCH   6  10
ATOM     10  C   UNL     1       1.031  -0.313  -2.185  1.00  0.00     0.072 C 
BRANCH  10  11
ATOM     11  C   UNL     1       0.861   1.153  -1.677  1.00  0.00     0.262 C 
BRANCH  11  12
ATOM     12  N   UNL     1      -0.409   1.891  -1.605  1.00  0.00    -0.335 N 
ATOM     13  C   UNL     1      -4.198   1.252  -2.871  1.00  0.00     0.011 C 
ATOM     14  C   UNL     1      -2.839   0.559  -2.693  1.00  0.00    -0.025 C 
ATOM     15  C   UNL     1      -2.977  -0.873  -3.272  1.00  0.00     0.011 C 
ATOM     16  C   UNL     1      -1.808   1.336  -3.524  1.00  0.00     0.068 C 
ATOM     17  C   UNL     1      -2.425   0.420  -1.205  1.00  0.00     0.068 C 
ATOM     18  C   UNL     1      -1.009   2.410  -2.817  1.00  0.00     0.262 C 
ATOM     19  C   UNL     1      -1.436   1.459  -0.667  1.00  0.00     0.262 C 
ATOM     20  H   UNL     1       0.053   2.688  -1.169  1.00  0.00     0.348 HD
ENDBRANCH  11  12
ENDBRANCH  10  11
ENDBRANCH   6  10
BRANCH   5  21
ATOM     21  N   UNL     1       3.878   0.423  -3.224  1.00  0.00    -0.343 N 
ATOM     22  H   UNL     1       3.440   0.872  -2.419  1.00  0.00     0.345 HD
ATOM     23  H   UNL     1       4.533   1.071  -3.660  1.00  0.00     0.345 HD
ATOM     24  H   UNL     1       4.378  -0.411  -2.917  1.00  0.00     0.345 HD
ENDBRANCH   5  21
ENDBRANCH   3   5
ENDBRANCH   2   3
ENDBRANCH   1   2
BRANCH   1  25
ATOM     25  C   UNL     1       2.161  -2.266  -8.073  1.00  0.00     0.275 C 
BRANCH  25  26
ATOM     26  O   UNL     1       1.863  -0.893  -8.394  1.00  0.00    -0.458 OA
BRANCH  26  27
ATOM     27  C   UNL     1       0.677  -0.676  -9.030  1.00  0.00     0.338 C 
ATOM     28  O   UNL     1      -0.073  -1.540  -9.451  1.00  0.00    -0.246 OA
BRANCH  27  29
ATOM     29  C   UNL     1       0.341   0.784  -9.032  1.00  0.00     0.060 A 
ATOM     30  C   UNL     1       1.153   1.710  -8.380  1.00  0.00     0.016 A 
ATOM     31  C   UNL     1      -0.873   1.228  -9.569  1.00  0.00     0.016 A 
ATOM     32  C   UNL     1       0.684   2.997  -8.112  1.00  0.00     0.010 A 
ATOM     33  C   UNL     1      -1.252   2.580  -9.455  1.00  0.00     0.010 A 
ATOM     34  C   UNL     1      -0.485   3.490  -8.708  1.00  0.00    -0.014 A 
BRANCH  34  35
ATOM     35  C   UNL     1      -0.850   4.944  -8.601  1.00  0.00     0.031 A 
ATOM     36  C   UNL     1      -2.259   5.388  -8.283  1.00  0.00     0.074 A 
ATOM     37  C   UNL     1       0.078   5.903  -8.823  1.00  0.00     0.049 A 
ATOM     38  N   UNL     1      -2.819   6.561  -8.465  1.00  0.00    -0.248 NA
ATOM     39  C   UNL     1      -3.159   4.386  -7.694  1.00  0.00     0.031 C 
ATOM     40  C   UNL     1       1.499   5.675  -9.095  1.00  0.00     0.029 A 
ATOM     41  N   UNL     1      -0.036   7.277  -8.863  1.00  0.00    -0.354 N 
ATOM     42  C   UNL     1      -4.150   6.418  -8.088  1.00  0.00     0.074 A 
ATOM     43  C   UNL     1      -4.310   5.048  -7.644  1.00  0.00     0.031 C 
ATOM     44  C   UNL     1       2.129   6.848  -9.211  1.00  0.00     0.029 A 
ATOM     45  C   UNL     1       1.138   7.912  -9.191  1.00  0.00     0.049 A 
ATOM     46  H   UNL     1      -0.876   7.755  -8.674  1.00  0.00     0.167 HD
ATOM     47  C   UNL     1      -5.144   7.341  -8.124  1.00  0.00     0.037 A 
ATOM     48  C   UNL     1       1.402   9.185  -9.540  1.00  0.00     0.037 A 
ATOM     49  C   UNL     1      -4.967   8.727  -8.491  1.00  0.00     0.049 A 
ATOM     50  C   UNL     1       0.282  10.172  -9.638  1.00  0.00     0.074 A 
ATOM     51  C   UNL     1      -5.911   9.741  -8.514  1.00  0.00     0.029 A 
ATOM     52  N   UNL     1      -3.766   9.299  -8.880  1.00  0.00    -0.354 N 
ATOM     53  N   UNL     1      -0.991  10.001  -9.388  1.00  0.00    -0.248 NA
ATOM     54  C   UNL     1       0.631  11.521 -10.105  1.00  0.00     0.031 C 
ATOM     55  C   UNL     1      -5.292  10.915  -8.958  1.00  0.00     0.029 A 
ATOM     56  C   UNL     1      -3.950  10.645  -9.165  1.00  0.00     0.049 A 
ATOM     57  H   UNL     1      -2.907   8.821  -8.945  1.00  0.00     0.167 HD
ATOM     58  C   UNL     1      -1.597  11.215  -9.669  1.00  0.00     0.074 A 
ATOM     59  C   UNL     1      -0.548  12.124 -10.083  1.00  0.00     0.031 C 
ATOM     60  C   UNL     1      -2.910  11.541  -9.596  1.00  0.00     0.037 A 
BRANCH  47  61
ATOM     61  C   UNL     1      -6.542   6.896  -7.796  1.00  0.00     0.064 A 
ATOM     62  C   UNL     1      -6.954   6.624  -6.485  1.00  0.00     0.173 A 
ATOM     63  C   UNL     1      -7.511   6.837  -8.812  1.00  0.00     0.173 A 
ATOM     64  F   UNL     1      -6.068   6.659  -5.478  1.00  0.00    -0.203 F 
ATOM     65  C   UNL     1      -8.280   6.299  -6.203  1.00  0.00     0.198 A 
ATOM     66  C   UNL     1      -8.841   6.539  -8.524  1.00  0.00     0.198 A 
ATOM     67  F   UNL     1      -7.174   7.100 -10.084  1.00  0.00    -0.203 F 
ATOM     68  F   UNL     1      -8.647   6.018  -4.945  1.00  0.00    -0.200 F 
ATOM     69  C   UNL     1      -9.223   6.268  -7.220  1.00  0.00     0.200 A 
ATOM     70  F   UNL     1      -9.752   6.527  -9.507  1.00  0.00    -0.200 F 
ATOM     71  F   UNL     1     -10.502   5.976  -6.944  1.00  0.00    -0.200 F 
ENDBRANCH  47  61
BRANCH  48  72
ATOM     72  C   UNL     1       2.788   9.558  -9.929  1.00  0.00     0.064 A 
ATOM     73  C   UNL     1       3.565  10.395  -9.119  1.00  0.00     0.173 A 
ATOM     74  C   UNL     1       3.377   9.044 -11.096  1.00  0.00     0.173 A 
ATOM     75  F   UNL     1       3.035  10.934  -8.011  1.00  0.00    -0.203 F 
ATOM     76  C   UNL     1       4.883  10.695  -9.456  1.00  0.00     0.198 A 
ATOM     77  C   UNL     1       4.705   9.315 -11.411  1.00  0.00     0.198 A 
ATOM     78  F   UNL     1       2.673   8.239 -11.905  1.00  0.00    -0.203 F 
ATOM     79  F   UNL     1       5.598  11.519  -8.679  1.00  0.00    -0.200 F 
ATOM     80  C   UNL     1       5.456  10.143 -10.592  1.00  0.00     0.200 A 
ATOM     81  F   UNL     1       5.259   8.761 -12.498  1.00  0.00    -0.200 F 
ATOM     82  F   UNL     1       6.732  10.410 -10.899  1.00  0.00    -0.200 F 
ENDBRANCH  48  72
BRANCH  60  83
ATOM     83  C   UNL     1      -3.277  12.949  -9.956  1.00  0.00     0.064 A 
ATOM     84  C   UNL     1      -3.266  13.390 -11.288  1.00  0.00     0.173 A 
ATOM     85  C   UNL     1      -3.634  13.870  -8.961  1.00  0.00     0.173 A 
ATOM     86  F   UNL     1      -2.908  12.552 -12.273  1.00  0.00    -0.203 F 
ATOM     87  C   UNL     1      -3.569  14.711 -11.606  1.00  0.00     0.198 A 
ATOM     88  C   UNL     1      -3.962  15.183  -9.285  1.00  0.00     0.198 A 
ATOM     89  F   UNL     1      -3.660  13.497  -7.673  1.00  0.00    -0.203 F 
ATOM     90  F   UNL     1      -3.498  15.125 -12.879  1.00  0.00    -0.200 F 
ATOM     91  C   UNL     1      -3.921  15.605 -10.606  1.00  0.00     0.200 A 
ATOM     92  F   UNL     1      -4.308  16.044  -8.318  1.00  0.00    -0.200 F 
ATOM     93  F   UNL     1      -4.206  16.878 -10.913  1.00  0.00    -0.200 F 
ENDBRANCH  60  83
ENDBRANCH  34  35
ENDBRANCH  27  29
ENDBRANCH  26  27
ENDBRANCH  25  26
ENDBRANCH   1  25
TORSDOF 15
