REMARK SMILES Cc1cccc(N2C(=O)/C(=C/c3cccn3-c3cccc(C(=O)OCCOC(=O)c4ccc(-c5c6nc(c(-c7c(F)c(F)c(F)c(F)c7F)c7ccc([nH]7)c(-c7c(F)c(F)c(F)c(F)c7F)c7nc(c(-c8c(F)c(F)c(F)c(F)c8F)c8ccc5[nH]8)C=C7)C=C6)cc4)c3)C(O)=NC2=S)c1C
REMARK SMILES IDX 25 1 24 2 22 3 23 4 21 5 17 6 18 7 93 8 19 9 20 10 16 11
REMARK SMILES IDX 12 12 13 13 14 14 15 15 11 16 7 17 8 18 97 19 9 20 10 21
REMARK SMILES IDX 96 22 98 23 94 24 6 25 1 26 2 27 3 28 99 29 4 30 100 31 5 32
REMARK SMILES IDX 95 33 26 35 27 36 28 37 29 38 30 39 31 40 92 41 32 42 91 43
REMARK SMILES IDX 33 44 34 45 35 46 85 47 36 48 90 49 84 50 86 51 37 52 89 53
REMARK SMILES IDX 83 54 82 55 38 57 70 58 50 59 69 60 51 61 54 62 68 63 87 64
REMARK SMILES IDX 52 65 53 66 67 68 88 69 55 70 39 71 40 72 48 73 41 74 42 75
REMARK SMILES IDX 46 76 49 77 43 78 44 79 47 80 45 81 71 82 72 83 80 84 73 85
REMARK SMILES IDX 74 86 78 87 81 88 75 89 76 90 79 91 77 92 56 93 57 94 65 95
REMARK SMILES IDX 58 96 59 97 63 98 66 99 60 100 61 101 64 102 62 103
REMARK H PARENT 95 34 86 56 54 67
REMARK Flexibility Score: inf
ROOT
ATOM      1  C   UNL     1       3.910  -4.122  -3.458  1.00  0.00     0.275 C 
ENDROOT
BRANCH   1   2
ATOM      2  O   UNL     1       2.642  -4.783  -3.627  1.00  0.00    -0.458 OA
BRANCH   2   3
ATOM      3  C   UNL     1       2.084  -4.688  -4.862  1.00  0.00     0.338 C 
ATOM      4  O   UNL     1       2.482  -3.978  -5.777  1.00  0.00    -0.246 OA
BRANCH   3   5
ATOM      5  C   UNL     1       0.998  -5.692  -5.031  1.00  0.00     0.062 A 
ATOM      6  C   UNL     1      -0.650  -7.237  -4.144  1.00  0.00     0.046 A 
ATOM      7  C   UNL     1      -0.917  -7.701  -5.438  1.00  0.00     0.026 A 
ATOM      8  C   UNL     1       0.330  -6.255  -3.939  1.00  0.00     0.042 A 
ATOM      9  C   UNL     1      -0.256  -7.134  -6.528  1.00  0.00     0.003 A 
ATOM     10  C   UNL     1       0.688  -6.124  -6.328  1.00  0.00     0.016 A 
BRANCH   6  11
ATOM     11  N   UNL     1      -1.394  -7.761  -3.048  1.00  0.00    -0.317 N 
ATOM     12  C   UNL     1      -1.889  -7.075  -1.935  1.00  0.00     0.047 A 
ATOM     13  C   UNL     1      -2.555  -7.985  -1.132  1.00  0.00     0.028 A 
ATOM     14  C   UNL     1      -2.435  -9.257  -1.727  1.00  0.00     0.020 A 
ATOM     15  C   UNL     1      -1.745  -9.091  -2.905  1.00  0.00     0.092 A 
BRANCH  12  16
ATOM     16  C   UNL     1      -1.770  -5.665  -1.832  1.00  0.00     0.046 C 
ATOM     17  N   UNL     1      -0.615  -2.827   0.124  1.00  0.00    -0.251 N 
ATOM     18  C   UNL     1      -1.106  -3.512  -0.989  1.00  0.00     0.270 C 
ATOM     19  C   UNL     1      -0.218  -3.473   1.312  1.00  0.00     0.210 C 
ATOM     20  O   UNL     1      -1.520  -2.975  -2.017  1.00  0.00    -0.268 OA
ATOM     21  C   UNL     1      -1.101  -5.003  -0.866  1.00  0.00     0.104 C 
ATOM     22  N   UNL     1       0.062  -4.814   1.262  1.00  0.00    -0.184 NA
ATOM     23  S   UNL     1      -0.075  -2.698   2.820  1.00  0.00    -0.038 S 
ATOM     24  C   UNL     1      -0.340  -5.521   0.273  1.00  0.00     0.226 C 
BRANCH  17  25
ATOM     25  C   UNL     1      -0.588  -1.396   0.031  1.00  0.00     0.055 A 
ATOM     26  C   UNL     1       1.855   1.567  -0.028  1.00  0.00     0.044 C 
ATOM     27  C   UNL     1       0.602   0.732  -0.021  1.00  0.00    -0.046 A 
ATOM     28  C   UNL     1      -0.638   1.393  -0.012  1.00  0.00     0.004 A 
ATOM     29  C   UNL     1       0.638  -0.683  -0.027  1.00  0.00    -0.024 A 
ATOM     30  C   UNL     1      -1.834   0.680  -0.015  1.00  0.00     0.002 A 
ATOM     31  C   UNL     1       1.946  -1.430  -0.140  1.00  0.00     0.047 C 
ATOM     32  C   UNL     1      -1.811  -0.710   0.004  1.00  0.00     0.027 A 
ENDBRANCH  17  25
BRANCH  24  33
ATOM     33  O   UNL     1       0.034  -6.808   0.288  1.00  0.00    -0.493 OA
ATOM     34  H   UNL     1      -0.227  -7.380  -0.407  1.00  0.00     0.295 HD
ENDBRANCH  24  33
ENDBRANCH  12  16
ENDBRANCH   6  11
ENDBRANCH   3   5
ENDBRANCH   2   3
ENDBRANCH   1   2
BRANCH   1  35
ATOM     35  C   UNL     1       5.099  -5.032  -3.774  1.00  0.00     0.275 C 
BRANCH  35  36
ATOM     36  O   UNL     1       5.189  -5.414  -5.151  1.00  0.00    -0.458 OA
BRANCH  36  37
ATOM     37  C   UNL     1       4.507  -6.546  -5.426  1.00  0.00     0.338 C 
ATOM     38  O   UNL     1       3.638  -7.075  -4.751  1.00  0.00    -0.246 OA
BRANCH  37  39
ATOM     39  C   UNL     1       5.100  -7.269  -6.546  1.00  0.00     0.060 A 
ATOM     40  C   UNL     1       4.268  -8.168  -7.219  1.00  0.00     0.016 A 
ATOM     41  C   UNL     1       6.496  -7.321  -6.650  1.00  0.00     0.016 A 
ATOM     42  C   UNL     1       4.844  -9.210  -7.912  1.00  0.00     0.010 A 
ATOM     43  C   UNL     1       7.075  -8.379  -7.325  1.00  0.00     0.010 A 
ATOM     44  C   UNL     1       6.241  -9.329  -7.928  1.00  0.00    -0.014 A 
BRANCH  44  45
ATOM     45  C   UNL     1       6.805 -10.353  -8.815  1.00  0.00     0.031 A 
ATOM     46  C   UNL     1       6.805  -9.799 -10.274  1.00  0.00     0.074 A 
ATOM     47  C   UNL     1       7.127 -11.542  -8.206  1.00  0.00     0.049 A 
ATOM     48  N   UNL     1       6.758 -10.407 -11.420  1.00  0.00    -0.248 NA
ATOM     49  C   UNL     1       6.802  -8.313 -10.479  1.00  0.00     0.031 C 
ATOM     50  C   UNL     1       7.116 -11.804  -6.741  1.00  0.00     0.029 A 
ATOM     51  N   UNL     1       7.517 -12.777  -8.675  1.00  0.00    -0.354 N 
ATOM     52  C   UNL     1       6.958  -9.431 -12.431  1.00  0.00     0.074 A 
ATOM     53  C   UNL     1       6.848  -8.157 -11.802  1.00  0.00     0.031 C 
ATOM     54  C   UNL     1       7.385 -13.104  -6.466  1.00  0.00     0.029 A 
ATOM     55  C   UNL     1       7.595 -13.825  -7.704  1.00  0.00     0.049 A 
ATOM     56  H   UNL     1       7.730 -12.930  -9.624  1.00  0.00     0.167 HD
ATOM     57  C   UNL     1       7.367  -9.743 -13.695  1.00  0.00     0.037 A 
ATOM     58  C   UNL     1       7.753 -15.176  -7.918  1.00  0.00     0.037 A 
ATOM     59  C   UNL     1       7.410 -11.152 -13.841  1.00  0.00     0.049 A 
ATOM     60  C   UNL     1       7.963 -15.248  -9.364  1.00  0.00     0.074 A 
ATOM     61  C   UNL     1       6.452 -12.092 -14.094  1.00  0.00     0.029 A 
ATOM     62  N   UNL     1       8.555 -11.773 -13.417  1.00  0.00    -0.354 N 
ATOM     63  N   UNL     1       9.056 -14.889  -9.961  1.00  0.00    -0.248 NA
ATOM     64  C   UNL     1       6.825 -15.605 -10.212  1.00  0.00     0.031 C 
ATOM     65  C   UNL     1       6.924 -13.242 -13.428  1.00  0.00     0.029 A 
ATOM     66  C   UNL     1       8.199 -12.996 -12.909  1.00  0.00     0.049 A 
ATOM     67  H   UNL     1       9.467 -11.407 -13.467  1.00  0.00     0.167 HD
ATOM     68  C   UNL     1       8.631 -14.664 -11.246  1.00  0.00     0.074 A 
ATOM     69  C   UNL     1       7.381 -15.379 -11.398  1.00  0.00     0.031 C 
ATOM     70  C   UNL     1       9.076 -13.577 -11.924  1.00  0.00     0.037 A 
BRANCH  57  71
ATOM     71  C   UNL     1       8.010  -8.938 -14.798  1.00  0.00     0.064 A 
ATOM     72  C   UNL     1       8.098  -9.537 -16.083  1.00  0.00     0.173 A 
ATOM     73  C   UNL     1       8.875  -7.863 -14.563  1.00  0.00     0.173 A 
ATOM     74  F   UNL     1       7.259 -10.522 -16.442  1.00  0.00    -0.203 F 
ATOM     75  C   UNL     1       9.110  -9.214 -16.983  1.00  0.00     0.198 A 
ATOM     76  C   UNL     1       9.852  -7.500 -15.498  1.00  0.00     0.198 A 
ATOM     77  F   UNL     1       8.871  -7.210 -13.394  1.00  0.00    -0.203 F 
ATOM     78  F   UNL     1       9.261  -9.934 -18.105  1.00  0.00    -0.200 F 
ATOM     79  C   UNL     1      10.004  -8.209 -16.679  1.00  0.00     0.200 A 
ATOM     80  F   UNL     1      10.708  -6.509 -15.210  1.00  0.00    -0.200 F 
ATOM     81  F   UNL     1      11.028  -7.947 -17.502  1.00  0.00    -0.200 F 
ENDBRANCH  57  71
BRANCH  58  82
ATOM     82  C   UNL     1       7.680 -16.521  -7.211  1.00  0.00     0.064 A 
ATOM     83  C   UNL     1       7.557 -16.737  -5.834  1.00  0.00     0.173 A 
ATOM     84  C   UNL     1       7.638 -17.725  -7.986  1.00  0.00     0.173 A 
ATOM     85  F   UNL     1       7.705 -15.726  -4.970  1.00  0.00    -0.203 F 
ATOM     86  C   UNL     1       7.283 -18.019  -5.301  1.00  0.00     0.198 A 
ATOM     87  C   UNL     1       7.305 -18.978  -7.469  1.00  0.00     0.198 A 
ATOM     88  F   UNL     1       7.911 -17.730  -9.297  1.00  0.00    -0.203 F 
ATOM     89  F   UNL     1       7.166 -18.179  -3.975  1.00  0.00    -0.200 F 
ATOM     90  C   UNL     1       7.107 -19.124  -6.121  1.00  0.00     0.200 A 
ATOM     91  F   UNL     1       7.156 -20.022  -8.298  1.00  0.00    -0.200 F 
ATOM     92  F   UNL     1       6.760 -20.317  -5.618  1.00  0.00    -0.200 F 
ENDBRANCH  58  82
BRANCH  70  93
ATOM     93  C   UNL     1      10.280 -12.898 -11.267  1.00  0.00     0.064 A 
ATOM     94  C   UNL     1      11.504 -13.575 -11.168  1.00  0.00     0.173 A 
ATOM     95  C   UNL     1      10.221 -11.659 -10.601  1.00  0.00     0.173 A 
ATOM     96  F   UNL     1      11.664 -14.753 -11.789  1.00  0.00    -0.203 F 
ATOM     97  C   UNL     1      12.576 -13.060 -10.427  1.00  0.00     0.198 A 
ATOM     98  C   UNL     1      11.285 -11.141  -9.857  1.00  0.00     0.198 A 
ATOM     99  F   UNL     1       9.131 -10.903 -10.672  1.00  0.00    -0.203 F 
ATOM    100  F   UNL     1      13.726 -13.744 -10.358  1.00  0.00    -0.200 F 
ATOM    101  C   UNL     1      12.464 -11.848  -9.765  1.00  0.00     0.200 A 
ATOM    102  F   UNL     1      11.162  -9.953  -9.243  1.00  0.00    -0.200 F 
ATOM    103  F   UNL     1      13.493 -11.355  -9.062  1.00  0.00    -0.200 F 
ENDBRANCH  70  93
ENDBRANCH  44  45
ENDBRANCH  37  39
ENDBRANCH  36  37
ENDBRANCH  35  36
ENDBRANCH   1  35
TORSDOF 15
