REMARK SMILES Cc1cc(C)c(S(=O)(=O)Nc2ccc(N3CC[NH+](C)CC3)c(C(=O)OCCOC(=O)c3ccc(-c4c5nc(c(-c6c(F)c(F)c(F)c(F)c6F)c6ccc([nH]6)c(-c6c(F)c(F)c(F)c(F)c6F)c6nc(c(-c7c(F)c(F)c(F)c(F)c7F)c7ccc4[nH]7)C=C6)C=C5)cc3)c2)c(C)c1
REMARK SMILES IDX 26 1 25 2 23 3 24 4 22 5 11 6 12 7 94 8 13 9 14 10 10 11
REMARK SMILES IDX 7 13 8 14 9 15 6 16 1 17 2 18 3 19 97 20 4 21 95 22 5 23
REMARK SMILES IDX 96 24 15 25 16 26 21 27 17 28 20 29 18 30 19 31 27 33 28 34
REMARK SMILES IDX 29 35 30 36 31 37 32 38 93 39 33 40 92 41 34 42 35 43 36 44
REMARK SMILES IDX 86 45 37 46 91 47 85 48 87 49 38 50 90 51 84 52 83 53 39 55
REMARK SMILES IDX 71 56 51 57 70 58 52 59 55 60 69 61 88 62 53 63 54 64 68 66
REMARK SMILES IDX 89 67 56 68 40 69 41 70 49 71 42 72 43 73 47 74 50 75 44 76
REMARK SMILES IDX 45 77 48 78 46 79 72 80 73 81 81 82 74 83 75 84 79 85 82 86
REMARK SMILES IDX 76 87 77 88 80 89 78 90 57 91 58 92 66 93 59 94 60 95 64 96
REMARK SMILES IDX 67 97 61 98 62 99 65 100 63 101
REMARK H PARENT 10 12 18 32 87 54 55 65
REMARK Flexibility Score: inf
ROOT
ATOM      1  C   UNL     1       2.275  -1.129   3.756  1.00  0.00     0.275 C 
ENDROOT
BRANCH   1   2
ATOM      2  O   UNL     1       1.698  -2.317   3.175  1.00  0.00    -0.458 OA
BRANCH   2   3
ATOM      3  C   UNL     1       2.015  -2.526   1.874  1.00  0.00     0.340 C 
ATOM      4  O   UNL     1       2.628  -1.750   1.158  1.00  0.00    -0.246 OA
BRANCH   3   5
ATOM      5  C   UNL     1       1.345  -3.744   1.374  1.00  0.00     0.085 A 
ATOM      6  C   UNL     1      -0.782  -4.234   0.363  1.00  0.00     0.050 A 
ATOM      7  C   UNL     1      -0.245  -5.410  -0.169  1.00  0.00     0.029 A 
ATOM      8  C   UNL     1      -0.039  -3.517   1.280  1.00  0.00     0.044 A 
ATOM      9  C   UNL     1       1.112  -5.718   0.023  1.00  0.00     0.029 A 
ATOM     10  C   UNL     1       1.967  -4.832   0.700  1.00  0.00     0.052 A 
BRANCH   6  11
ATOM     11  N   UNL     1      -1.856  -3.632  -0.355  1.00  0.00    -0.280 N 
ATOM     12  H   UNL     1      -2.276  -4.178  -1.058  1.00  0.00     0.180 HD
BRANCH  11  13
ATOM     13  S   UNL     1      -2.480  -2.093  -0.128  1.00  0.00     0.262 S 
ATOM     14  O   UNL     1      -2.845  -2.001   1.273  1.00  0.00    -0.201 OA
ATOM     15  O   UNL     1      -3.478  -1.937  -1.166  1.00  0.00    -0.201 OA
BRANCH  13  16
ATOM     16  C   UNL     1      -1.239  -0.808  -0.428  1.00  0.00     0.093 A 
ATOM     17  C   UNL     1       1.928   2.118   0.030  1.00  0.00     0.044 C 
ATOM     18  C   UNL     1       0.820   1.127  -0.167  1.00  0.00    -0.051 A 
ATOM     19  C   UNL     1      -0.480   1.427   0.224  1.00  0.00     0.008 A 
ATOM     20  C   UNL     1       1.041  -0.076  -0.838  1.00  0.00     0.008 A 
ATOM     21  C   UNL     1      -1.518   0.482   0.097  1.00  0.00    -0.030 A 
ATOM     22  C   UNL     1       0.017  -1.034  -1.028  1.00  0.00    -0.030 A 
ATOM     23  C   UNL     1      -2.906   0.991   0.401  1.00  0.00     0.046 C 
ATOM     24  C   UNL     1       0.347  -2.180  -1.938  1.00  0.00     0.046 C 
ENDBRANCH  13  16
ENDBRANCH  11  13
ENDBRANCH   6  11
BRANCH  10  25
ATOM     25  N   UNL     1       3.338  -4.970   0.412  1.00  0.00    -0.360 N 
ATOM     26  C   UNL     1       4.520  -5.790   1.641  1.00  0.00     0.178 C 
ATOM     27  C   UNL     1       3.908  -3.712  -0.684  1.00  0.00     0.178 C 
ATOM     28  C   UNL     1       6.484  -4.771   1.765  1.00  0.00     0.283 C 
ATOM     29  C   UNL     1       5.583  -2.910  -0.476  1.00  0.00     0.283 C 
ATOM     30  N   UNL     1       6.726  -3.311   0.663  1.00  0.00    -0.334 N 
ATOM     31  C   UNL     1       8.033  -2.718   0.604  1.00  0.00     0.332 C 
ATOM     32  H   UNL     1       6.282  -2.643   1.292  1.00  0.00     0.347 HD
ENDBRANCH  10  25
ENDBRANCH   3   5
ENDBRANCH   2   3
ENDBRANCH   1   2
BRANCH   1  33
ATOM     33  C   UNL     1       3.326  -1.547   4.775  1.00  0.00     0.275 C 
BRANCH  33  34
ATOM     34  O   UNL     1       4.314  -2.333   4.087  1.00  0.00    -0.458 OA
BRANCH  34  35
ATOM     35  C   UNL     1       4.182  -3.662   4.257  1.00  0.00     0.338 C 
ATOM     36  O   UNL     1       3.524  -4.263   5.087  1.00  0.00    -0.246 OA
BRANCH  35  37
ATOM     37  C   UNL     1       4.918  -4.366   3.214  1.00  0.00     0.060 A 
ATOM     38  C   UNL     1       4.821  -3.929   1.523  1.00  0.00     0.016 A 
ATOM     39  C   UNL     1       5.670  -5.864   3.587  1.00  0.00     0.016 A 
ATOM     40  C   UNL     1       5.534  -5.174   0.177  1.00  0.00     0.010 A 
ATOM     41  C   UNL     1       6.343  -6.929   2.404  1.00  0.00     0.010 A 
ATOM     42  C   UNL     1       6.319  -6.663   0.692  1.00  0.00    -0.014 A 
BRANCH  42  43
ATOM     43  C   UNL     1       7.125  -7.539  -0.235  1.00  0.00     0.031 A 
ATOM     44  C   UNL     1       7.164  -9.037  -0.059  1.00  0.00     0.074 A 
ATOM     45  C   UNL     1       7.946  -6.998  -1.166  1.00  0.00     0.049 A 
ATOM     46  N   UNL     1       7.981  -9.915  -0.594  1.00  0.00    -0.248 NA
ATOM     47  C   UNL     1       6.177  -9.630   0.853  1.00  0.00     0.031 C 
ATOM     48  C   UNL     1       8.065  -5.582  -1.451  1.00  0.00     0.029 A 
ATOM     49  N   UNL     1       8.871  -7.550  -2.028  1.00  0.00    -0.354 N 
ATOM     50  C   UNL     1       7.633 -11.147  -0.054  1.00  0.00     0.074 A 
ATOM     51  C   UNL     1       6.563 -10.898   0.889  1.00  0.00     0.031 C 
ATOM     52  C   UNL     1       8.966  -5.350  -2.402  1.00  0.00     0.029 A 
ATOM     53  C   UNL     1       9.584  -6.610  -2.745  1.00  0.00     0.049 A 
ATOM     54  H   UNL     1       9.010  -8.521  -2.123  1.00  0.00     0.167 HD
ATOM     55  C   UNL     1       8.143 -12.373  -0.337  1.00  0.00     0.037 A 
ATOM     56  C   UNL     1      10.655  -6.694  -3.554  1.00  0.00     0.037 A 
ATOM     57  C   UNL     1       9.169 -12.617  -1.322  1.00  0.00     0.049 A 
ATOM     58  C   UNL     1      11.214  -8.042  -3.842  1.00  0.00     0.074 A 
ATOM     59  C   UNL     1       9.681 -13.829  -1.754  1.00  0.00     0.029 A 
ATOM     60  N   UNL     1       9.844 -11.629  -2.030  1.00  0.00    -0.354 N 
ATOM     61  N   UNL     1      10.844  -9.195  -3.344  1.00  0.00    -0.248 NA
ATOM     62  C   UNL     1      12.314  -8.113  -4.806  1.00  0.00     0.031 C 
ATOM     63  C   UNL     1      10.700 -13.573  -2.679  1.00  0.00     0.029 A 
ATOM     64  C   UNL     1      10.792 -12.204  -2.866  1.00  0.00     0.049 A 
ATOM     65  H   UNL     1       9.675 -10.663  -1.950  1.00  0.00     0.167 HD
ATOM     66  C   UNL     1      11.659 -10.138  -3.939  1.00  0.00     0.074 A 
ATOM     67  C   UNL     1      12.528  -9.421  -4.854  1.00  0.00     0.031 C 
ATOM     68  C   UNL     1      11.677 -11.478  -3.743  1.00  0.00     0.037 A 
BRANCH  55  69
ATOM     69  C   UNL     1       7.607 -13.548   0.440  1.00  0.00     0.064 A 
ATOM     70  C   UNL     1       6.287 -14.004   0.292  1.00  0.00     0.173 A 
ATOM     71  C   UNL     1       8.435 -14.240   1.339  1.00  0.00     0.173 A 
ATOM     72  F   UNL     1       5.448 -13.381  -0.548  1.00  0.00    -0.203 F 
ATOM     73  C   UNL     1       5.805 -15.072   1.048  1.00  0.00     0.198 A 
ATOM     74  C   UNL     1       7.960 -15.329   2.067  1.00  0.00     0.198 A 
ATOM     75  F   UNL     1       9.710 -13.860   1.514  1.00  0.00    -0.203 F 
ATOM     76  F   UNL     1       4.522 -15.444   0.937  1.00  0.00    -0.200 F 
ATOM     77  C   UNL     1       6.643 -15.736   1.931  1.00  0.00     0.200 A 
ATOM     78  F   UNL     1       8.777 -15.980   2.907  1.00  0.00    -0.200 F 
ATOM     79  F   UNL     1       6.177 -16.761   2.658  1.00  0.00    -0.200 F 
ENDBRANCH  55  69
BRANCH  56  80
ATOM     80  C   UNL     1      11.237  -5.444  -4.117  1.00  0.00     0.064 A 
ATOM     81  C   UNL     1      11.044  -5.096  -5.460  1.00  0.00     0.173 A 
ATOM     82  C   UNL     1      11.878  -4.506  -3.288  1.00  0.00     0.173 A 
ATOM     83  F   UNL     1      10.444  -5.957  -6.293  1.00  0.00    -0.203 F 
ATOM     84  C   UNL     1      11.457  -3.857  -5.949  1.00  0.00     0.198 A 
ATOM     85  C   UNL     1      12.262  -3.257  -3.771  1.00  0.00     0.198 A 
ATOM     86  F   UNL     1      12.066  -4.778  -1.987  1.00  0.00    -0.203 F 
ATOM     87  F   UNL     1      11.261  -3.550  -7.239  1.00  0.00    -0.200 F 
ATOM     88  C   UNL     1      12.051  -2.933  -5.101  1.00  0.00     0.200 A 
ATOM     89  F   UNL     1      12.803  -2.355  -2.939  1.00  0.00    -0.200 F 
ATOM     90  F   UNL     1      12.406  -1.726  -5.564  1.00  0.00    -0.200 F 
ENDBRANCH  56  80
BRANCH  68  91
ATOM     91  C   UNL     1      12.686 -12.246  -4.538  1.00  0.00     0.064 A 
ATOM     92  C   UNL     1      14.056 -12.168  -4.247  1.00  0.00     0.173 A 
ATOM     93  C   UNL     1      12.281 -13.055  -5.609  1.00  0.00     0.173 A 
ATOM     94  F   UNL     1      14.490 -11.383  -3.249  1.00  0.00    -0.203 F 
ATOM     95  C   UNL     1      14.988 -12.852  -5.019  1.00  0.00     0.198 A 
ATOM     96  C   UNL     1      13.214 -13.761  -6.360  1.00  0.00     0.198 A 
ATOM     97  F   UNL     1      10.982 -13.155  -5.929  1.00  0.00    -0.203 F 
ATOM     98  F   UNL     1      16.296 -12.717  -4.762  1.00  0.00    -0.200 F 
ATOM     99  C   UNL     1      14.567 -13.653  -6.071  1.00  0.00     0.200 A 
ATOM    100  F   UNL     1      12.806 -14.539  -7.373  1.00  0.00    -0.200 F 
ATOM    101  F   UNL     1      15.466 -14.309  -6.816  1.00  0.00    -0.200 F 
ENDBRANCH  68  91
ENDBRANCH  42  43
ENDBRANCH  35  37
ENDBRANCH  34  35
ENDBRANCH  33  34
ENDBRANCH   1  33
TORSDOF 15
