REMARK SMILES CCN(CC)c1ccc([C@@H]2c3[nH]c4ccccc4c3C[C@@H](C(=O)OCCOC(=O)c3ccc(-c4c5nc(c(-c6c(F)c(F)c(F)c(F)c6F)c6ccc([nH]6)c(-c6c(F)c(F)c(F)c(F)c6F)c6nc(c(-c7c(F)c(F)c(F)c(F)c7F)c7ccc4[nH]7)C=C6)C=C5)cc3)N2C(C)=O)cc1
REMARK SMILES IDX 25 1 24 2 22 3 23 4 21 5 10 6 11 7 93 8 12 9 19 10 13 11
REMARK SMILES IDX 18 13 20 14 14 15 17 16 15 17 16 18 9 19 6 20 7 21 98 22
REMARK SMILES IDX 8 23 97 24 3 25 2 26 1 27 4 28 5 29 94 30 95 31 96 32 26 33
REMARK SMILES IDX 27 34 28 35 29 36 30 37 31 38 92 39 32 40 91 41 33 42 34 43
REMARK SMILES IDX 35 44 85 45 36 46 90 47 84 48 86 49 37 50 89 51 83 52 82 53
REMARK SMILES IDX 38 55 70 56 50 57 69 58 51 59 54 60 68 61 87 62 52 63 53 64
REMARK SMILES IDX 67 66 88 67 55 68 39 69 40 70 48 71 41 72 42 73 46 74 49 75
REMARK SMILES IDX 43 76 44 77 47 78 45 79 71 80 72 81 80 82 73 83 74 84 78 85
REMARK SMILES IDX 81 86 75 87 76 88 79 89 77 90 56 91 57 92 65 93 58 94 59 95
REMARK SMILES IDX 63 96 66 97 60 98 61 99 64 100 62 101
REMARK H PARENT 12 12 86 54 54 65
REMARK Flexibility Score: inf
ROOT
ATOM      1  C   UNL     1       8.282  -4.634  -1.133  1.00  0.00     0.274 C 
ENDROOT
BRANCH   1   2
ATOM      2  O   UNL     1       8.021  -3.888   0.070  1.00  0.00    -0.461 OA
BRANCH   2   3
ATOM      3  C   UNL     1       9.016  -3.258   0.735  1.00  0.00     0.329 C 
ATOM      4  O   UNL     1      10.150  -3.123   0.291  1.00  0.00    -0.250 OA
BRANCH   3   5
ATOM      5  C   UNL     1       8.636  -2.982   2.222  1.00  0.00     0.200 C 
ATOM      6  C   UNL     1       6.150  -3.361   2.055  1.00  0.00     0.163 C 
ATOM      7  C   UNL     1       6.476  -4.769   2.491  1.00  0.00     0.047 A 
ATOM      8  N   UNL     1       7.246  -2.576   2.661  1.00  0.00    -0.316 N 
ATOM      9  N   UNL     1       5.617  -5.825   2.619  1.00  0.00    -0.356 N 
ATOM     10  C   UNL     1       7.725  -5.205   2.935  1.00  0.00    -0.014 A 
ATOM     11  C   UNL     1       6.143  -6.684   3.562  1.00  0.00     0.046 A 
ATOM     12  H   UNL     1       4.774  -5.949   2.127  1.00  0.00     0.166 HD
ATOM     13  C   UNL     1       7.497  -6.376   3.693  1.00  0.00     0.003 A 
ATOM     14  C   UNL     1       8.961  -4.345   2.906  1.00  0.00     0.075 C 
ATOM     15  C   UNL     1       5.517  -7.653   4.348  1.00  0.00     0.026 A 
ATOM     16  C   UNL     1       8.290  -7.104   4.595  1.00  0.00     0.010 A 
ATOM     17  C   UNL     1       6.302  -8.293   5.313  1.00  0.00     0.002 A 
ATOM     18  C   UNL     1       7.669  -8.039   5.424  1.00  0.00     0.001 A 
BRANCH   6  19
ATOM     19  C   UNL     1       4.755  -2.772   2.196  1.00  0.00    -0.019 A 
ATOM     20  C   UNL     1       2.089  -1.760   2.017  1.00  0.00     0.037 A 
ATOM     21  C   UNL     1       2.402  -2.881   2.789  1.00  0.00     0.026 A 
ATOM     22  C   UNL     1       3.168  -1.075   1.452  1.00  0.00     0.026 A 
ATOM     23  C   UNL     1       3.708  -3.372   2.892  1.00  0.00     0.008 A 
ATOM     24  C   UNL     1       4.474  -1.565   1.538  1.00  0.00     0.008 A 
BRANCH  20  25
ATOM     25  N   UNL     1       0.785  -1.361   1.767  1.00  0.00    -0.372 N 
BRANCH  25  26
ATOM     26  C   UNL     1       0.347  -1.314   0.365  1.00  0.00     0.113 C 
ATOM     27  C   UNL     1       0.481   0.077  -0.238  1.00  0.00     0.027 C 
ENDBRANCH  25  26
BRANCH  25  28
ATOM     28  C   UNL     1      -0.244  -1.365   2.810  1.00  0.00     0.113 C 
ATOM     29  C   UNL     1      -0.840  -2.743   3.075  1.00  0.00     0.027 C 
ENDBRANCH  25  28
ENDBRANCH  20  25
ENDBRANCH   6  19
BRANCH   8  30
ATOM     30  C   UNL     1       7.038  -2.214   4.013  1.00  0.00     0.221 C 
ATOM     31  C   UNL     1       8.154  -1.508   4.734  1.00  0.00     0.114 C 
ATOM     32  O   UNL     1       6.015  -2.466   4.649  1.00  0.00    -0.275 OA
ENDBRANCH   8  30
ENDBRANCH   3   5
ENDBRANCH   2   3
ENDBRANCH   1   2
BRANCH   1  33
ATOM     33  C   UNL     1       6.963  -4.704  -1.904  1.00  0.00     0.275 C 
BRANCH  33  34
ATOM     34  O   UNL     1       6.737  -3.384  -2.423  1.00  0.00    -0.458 OA
BRANCH  34  35
ATOM     35  C   UNL     1       5.665  -2.716  -1.953  1.00  0.00     0.338 C 
ATOM     36  O   UNL     1       4.656  -3.166  -1.430  1.00  0.00    -0.246 OA
BRANCH  35  37
ATOM     37  C   UNL     1       6.000  -1.295  -2.076  1.00  0.00     0.060 A 
ATOM     38  C   UNL     1       7.046  -0.787  -1.295  1.00  0.00     0.016 A 
ATOM     39  C   UNL     1       5.327  -0.487  -2.987  1.00  0.00     0.016 A 
ATOM     40  C   UNL     1       7.454   0.531  -1.443  1.00  0.00     0.010 A 
ATOM     41  C   UNL     1       5.757   0.828  -3.157  1.00  0.00     0.010 A 
ATOM     42  C   UNL     1       6.827   1.337  -2.396  1.00  0.00    -0.014 A 
BRANCH  42  43
ATOM     43  C   UNL     1       7.257   2.735  -2.599  1.00  0.00     0.031 A 
ATOM     44  C   UNL     1       6.356   3.839  -2.149  1.00  0.00     0.074 A 
ATOM     45  C   UNL     1       8.412   2.998  -3.236  1.00  0.00     0.049 A 
ATOM     46  N   UNL     1       6.381   5.107  -2.457  1.00  0.00    -0.248 NA
ATOM     47  C   UNL     1       5.268   3.454  -1.236  1.00  0.00     0.031 C 
ATOM     48  C   UNL     1       9.398   2.000  -3.649  1.00  0.00     0.029 A 
ATOM     49  N   UNL     1       8.935   4.188  -3.673  1.00  0.00    -0.354 N 
ATOM     50  C   UNL     1       5.290   5.668  -1.811  1.00  0.00     0.074 A 
ATOM     51  C   UNL     1       4.624   4.603  -1.091  1.00  0.00     0.031 C 
ATOM     52  C   UNL     1      10.396   2.616  -4.304  1.00  0.00     0.029 A 
ATOM     53  C   UNL     1      10.083   4.037  -4.411  1.00  0.00     0.049 A 
ATOM     54  H   UNL     1       8.528   5.063  -3.478  1.00  0.00     0.167 HD
ATOM     55  C   UNL     1       4.881   6.958  -1.835  1.00  0.00     0.037 A 
ATOM     56  C   UNL     1      10.768   4.939  -5.138  1.00  0.00     0.037 A 
ATOM     57  C   UNL     1       5.567   8.000  -2.551  1.00  0.00     0.049 A 
ATOM     58  C   UNL     1      10.259   6.354  -5.203  1.00  0.00     0.074 A 
ATOM     59  C   UNL     1       5.239   9.339  -2.658  1.00  0.00     0.029 A 
ATOM     60  N   UNL     1       6.732   7.812  -3.284  1.00  0.00    -0.354 N 
ATOM     61  N   UNL     1       9.201   6.878  -4.633  1.00  0.00    -0.248 NA
ATOM     62  C   UNL     1      11.030   7.299  -6.022  1.00  0.00     0.031 C 
ATOM     63  C   UNL     1       6.186   9.954  -3.483  1.00  0.00     0.029 A 
ATOM     64  C   UNL     1       7.131   9.009  -3.853  1.00  0.00     0.049 A 
ATOM     65  H   UNL     1       7.204   6.954  -3.383  1.00  0.00     0.167 HD
ATOM     66  C   UNL     1       9.193   8.217  -4.997  1.00  0.00     0.074 A 
ATOM     67  C   UNL     1      10.355   8.426  -5.838  1.00  0.00     0.031 C 
ATOM     68  C   UNL     1       8.306   9.188  -4.667  1.00  0.00     0.037 A 
BRANCH  55  69
ATOM     69  C   UNL     1       3.616   7.292  -1.105  1.00  0.00     0.064 A 
ATOM     70  C   UNL     1       3.553   7.316   0.296  1.00  0.00     0.173 A 
ATOM     71  C   UNL     1       2.447   7.594  -1.821  1.00  0.00     0.173 A 
ATOM     72  F   UNL     1       4.637   7.013   1.025  1.00  0.00    -0.203 F 
ATOM     73  C   UNL     1       2.360   7.605   0.953  1.00  0.00     0.198 A 
ATOM     74  C   UNL     1       1.263   7.909  -1.160  1.00  0.00     0.198 A 
ATOM     75  F   UNL     1       2.454   7.582  -3.162  1.00  0.00    -0.203 F 
ATOM     76  F   UNL     1       2.310   7.575   2.292  1.00  0.00    -0.200 F 
ATOM     77  C   UNL     1       1.218   7.907   0.226  1.00  0.00     0.200 A 
ATOM     78  F   UNL     1       0.163   8.207  -1.866  1.00  0.00    -0.200 F 
ATOM     79  F   UNL     1       0.071   8.186   0.860  1.00  0.00    -0.200 F 
ENDBRANCH  55  69
BRANCH  56  80
ATOM     80  C   UNL     1      11.982   4.523  -5.888  1.00  0.00     0.064 A 
ATOM     81  C   UNL     1      13.254   4.963  -5.497  1.00  0.00     0.173 A 
ATOM     82  C   UNL     1      11.899   3.675  -7.002  1.00  0.00     0.173 A 
ATOM     83  F   UNL     1      13.382   5.795  -4.453  1.00  0.00    -0.203 F 
ATOM     84  C   UNL     1      14.395   4.579  -6.198  1.00  0.00     0.198 A 
ATOM     85  C   UNL     1      13.043   3.270  -7.686  1.00  0.00     0.198 A 
ATOM     86  F   UNL     1      10.705   3.226  -7.418  1.00  0.00    -0.203 F 
ATOM     87  F   UNL     1      15.595   5.044  -5.826  1.00  0.00    -0.200 F 
ATOM     88  C   UNL     1      14.290   3.727  -7.288  1.00  0.00     0.200 A 
ATOM     89  F   UNL     1      12.938   2.437  -8.731  1.00  0.00    -0.200 F 
ATOM     90  F   UNL     1      15.389   3.352  -7.957  1.00  0.00    -0.200 F 
ENDBRANCH  56  80
BRANCH  68  91
ATOM     91  C   UNL     1       8.591  10.572  -5.164  1.00  0.00     0.064 A 
ATOM     92  C   UNL     1       8.375  10.934  -6.500  1.00  0.00     0.173 A 
ATOM     93  C   UNL     1       9.034  11.562  -4.273  1.00  0.00     0.173 A 
ATOM     94  F   UNL     1       7.968  10.018  -7.391  1.00  0.00    -0.203 F 
ATOM     95  C   UNL     1       8.607  12.238  -6.931  1.00  0.00     0.198 A 
ATOM     96  C   UNL     1       9.241  12.869  -4.702  1.00  0.00     0.198 A 
ATOM     97  F   UNL     1       9.250  11.262  -2.983  1.00  0.00    -0.203 F 
ATOM     98  F   UNL     1       8.428  12.556  -8.221  1.00  0.00    -0.200 F 
ATOM     99  C   UNL     1       9.031  13.205  -6.031  1.00  0.00     0.200 A 
ATOM    100  F   UNL     1       9.640  13.804  -3.829  1.00  0.00    -0.200 F 
ATOM    101  F   UNL     1       9.243  14.461  -6.447  1.00  0.00    -0.200 F 
ENDBRANCH  68  91
ENDBRANCH  42  43
ENDBRANCH  35  37
ENDBRANCH  34  35
ENDBRANCH  33  34
ENDBRANCH   1  33
TORSDOF 16
