REMARK SMILES CCN(CC)c1ccc([C@@H]2[NH2+][C@H](C(=O)OCCOC(=O)c3ccc(-c4c5nc(c(-c6c(F)c(F)c(F)c(F)c6F)c6ccc([nH]6)c(-c6c(F)c(F)c(F)c(F)c6F)c6nc(c(-c7c(F)c(F)c(F)c(F)c7F)c7ccc4[nH]7)C=C6)C=C5)cc3)Cc3c2[nH]c2ccccc32)cc1
REMARK SMILES IDX 16 1 15 2 13 3 14 4 12 5 10 6 11 7 86 8 85 11 87 12 84 13
REMARK SMILES IDX 93 14 88 15 92 17 89 18 91 19 90 20 9 21 6 22 7 23 95 24
REMARK SMILES IDX 8 25 94 26 3 27 2 28 1 29 4 30 5 31 17 32 18 33 19 34 20 35
REMARK SMILES IDX 21 36 22 37 83 38 23 39 82 40 24 41 25 42 26 43 76 44 27 45
REMARK SMILES IDX 81 46 75 47 77 48 28 49 80 50 74 51 73 52 29 54 61 55 41 56
REMARK SMILES IDX 60 57 42 58 45 59 59 60 78 61 43 62 44 63 58 65 79 66 46 67
REMARK SMILES IDX 30 68 31 69 39 70 32 71 33 72 37 73 40 74 34 75 35 76 38 77
REMARK SMILES IDX 36 78 62 79 63 80 71 81 64 82 65 83 69 84 72 85 66 86 67 87
REMARK SMILES IDX 70 88 68 89 47 90 48 91 56 92 49 93 50 94 54 95 57 96 51 97
REMARK SMILES IDX 52 98 55 99 53 100
REMARK H PARENT 11 9 11 10 87 16 77 53 45 64
REMARK Flexibility Score: inf
ROOT
ATOM      1  C   UNL     1       4.890   2.682  -0.765  1.00  0.00     0.274 C 
ENDROOT
BRANCH   1   2
ATOM      2  O   UNL     1       5.783   1.554  -0.773  1.00  0.00    -0.458 OA
BRANCH   2   3
ATOM      3  C   UNL     1       5.737   0.784  -1.905  1.00  0.00     0.365 C 
ATOM      4  O   UNL     1       4.877   0.882  -2.772  1.00  0.00    -0.245 OA
BRANCH   3   5
ATOM      5  C   UNL     1       7.015  -0.049  -2.020  1.00  0.00     0.298 C 
ATOM      6  C   UNL     1       6.457  -2.490  -1.663  1.00  0.00     0.262 C 
ATOM      7  N   UNL     1       7.090  -1.257  -1.140  1.00  0.00    -0.323 N 
ATOM      8  C   UNL     1       6.903  -2.635  -3.092  1.00  0.00     0.083 A 
ATOM      9  H   UNL     1       8.076  -1.461  -0.974  1.00  0.00     0.347 HD
ATOM     10  H   UNL     1       6.564  -1.016  -0.300  1.00  0.00     0.347 HD
ATOM     11  C   UNL     1       6.985  -1.591  -3.986  1.00  0.00    -0.006 A 
ATOM     12  N   UNL     1       7.058  -3.772  -3.847  1.00  0.00    -0.353 N 
ATOM     13  C   UNL     1       7.334  -0.237  -3.521  1.00  0.00     0.115 C 
ATOM     14  C   UNL     1       6.322  -2.099  -5.123  1.00  0.00     0.003 A 
ATOM     15  C   UNL     1       6.567  -3.476  -5.112  1.00  0.00     0.046 A 
ATOM     16  H   UNL     1       7.442  -4.628  -3.550  1.00  0.00     0.166 HD
ATOM     17  C   UNL     1       5.470  -1.567  -6.107  1.00  0.00     0.010 A 
ATOM     18  C   UNL     1       6.209  -4.311  -6.172  1.00  0.00     0.026 A 
ATOM     19  C   UNL     1       4.948  -2.431  -7.076  1.00  0.00     0.001 A 
ATOM     20  C   UNL     1       5.367  -3.760  -7.146  1.00  0.00     0.002 A 
BRANCH   6  21
ATOM     21  C   UNL     1       4.916  -2.442  -1.533  1.00  0.00     0.016 A 
ATOM     22  C   UNL     1       2.080  -1.927  -1.500  1.00  0.00     0.037 A 
ATOM     23  C   UNL     1       2.683  -2.635  -2.536  1.00  0.00     0.026 A 
ATOM     24  C   UNL     1       2.902  -1.665  -0.397  1.00  0.00     0.026 A 
ATOM     25  C   UNL     1       4.061  -2.891  -2.550  1.00  0.00     0.012 A 
ATOM     26  C   UNL     1       4.285  -1.924  -0.399  1.00  0.00     0.012 A 
BRANCH  22  27
ATOM     27  N   UNL     1       0.761  -1.488  -1.556  1.00  0.00    -0.372 N 
BRANCH  27  28
ATOM     28  C   UNL     1       0.500  -0.051  -1.342  1.00  0.00     0.113 C 
ATOM     29  C   UNL     1       0.425   0.342   0.125  1.00  0.00     0.027 C 
ENDBRANCH  27  28
BRANCH  27  30
ATOM     30  C   UNL     1      -0.264  -2.235  -2.300  1.00  0.00     0.113 C 
ATOM     31  C   UNL     1      -0.362  -1.852  -3.776  1.00  0.00     0.027 C 
ENDBRANCH  27  30
ENDBRANCH  22  27
ENDBRANCH   6  21
ENDBRANCH   3   5
ENDBRANCH   2   3
ENDBRANCH   1   2
BRANCH   1  32
ATOM     32  C   UNL     1       5.662   3.997  -0.948  1.00  0.00     0.275 C 
BRANCH  32  33
ATOM     33  O   UNL     1       6.515   3.977  -2.113  1.00  0.00    -0.458 OA
BRANCH  33  34
ATOM     34  C   UNL     1       7.842   3.852  -1.853  1.00  0.00     0.338 C 
ATOM     35  O   UNL     1       8.372   3.757  -0.761  1.00  0.00    -0.246 OA
BRANCH  34  36
ATOM     36  C   UNL     1       8.597   3.679  -3.112  1.00  0.00     0.060 A 
ATOM     37  C   UNL     1       9.393   2.536  -3.227  1.00  0.00     0.016 A 
ATOM     38  C   UNL     1       8.579   4.624  -4.140  1.00  0.00     0.016 A 
ATOM     39  C   UNL     1      10.114   2.291  -4.395  1.00  0.00     0.010 A 
ATOM     40  C   UNL     1       9.338   4.398  -5.300  1.00  0.00     0.010 A 
ATOM     41  C   UNL     1      10.096   3.221  -5.440  1.00  0.00    -0.014 A 
BRANCH  41  42
ATOM     42  C   UNL     1      10.917   2.963  -6.649  1.00  0.00     0.031 A 
ATOM     43  C   UNL     1      12.281   3.575  -6.774  1.00  0.00     0.074 A 
ATOM     44  C   UNL     1      10.467   2.127  -7.604  1.00  0.00     0.049 A 
ATOM     45  N   UNL     1      13.140   3.498  -7.759  1.00  0.00    -0.248 NA
ATOM     46  C   UNL     1      12.746   4.372  -5.629  1.00  0.00     0.031 C 
ATOM     47  C   UNL     1       9.196   1.407  -7.563  1.00  0.00     0.029 A 
ATOM     48  N   UNL     1      11.037   1.739  -8.792  1.00  0.00    -0.354 N 
ATOM     49  C   UNL     1      14.243   4.238  -7.359  1.00  0.00     0.074 A 
ATOM     50  C   UNL     1      13.941   4.769  -6.045  1.00  0.00     0.031 C 
ATOM     51  C   UNL     1       9.078   0.669  -8.680  1.00  0.00     0.029 A 
ATOM     52  C   UNL     1      10.243   0.898  -9.532  1.00  0.00     0.049 A 
ATOM     53  H   UNL     1      11.929   2.035  -9.085  1.00  0.00     0.167 HD
ATOM     54  C   UNL     1      15.402   4.454  -8.027  1.00  0.00     0.037 A 
ATOM     55  C   UNL     1      10.422   0.396 -10.770  1.00  0.00     0.037 A 
ATOM     56  C   UNL     1      15.703   3.924  -9.332  1.00  0.00     0.049 A 
ATOM     57  C   UNL     1      11.679   0.732 -11.531  1.00  0.00     0.074 A 
ATOM     58  C   UNL     1      16.854   4.088 -10.085  1.00  0.00     0.029 A 
ATOM     59  N   UNL     1      14.846   3.132 -10.081  1.00  0.00    -0.354 N 
ATOM     60  N   UNL     1      12.715   1.440 -11.150  1.00  0.00    -0.248 NA
ATOM     61  C   UNL     1      11.787   0.205 -12.900  1.00  0.00     0.031 C 
ATOM     62  C   UNL     1      16.672   3.438 -11.311  1.00  0.00     0.029 A 
ATOM     63  C   UNL     1      15.429   2.826 -11.301  1.00  0.00     0.049 A 
ATOM     64  H   UNL     1      13.955   2.832  -9.790  1.00  0.00     0.167 HD
ATOM     65  C   UNL     1      13.603   1.426 -12.219  1.00  0.00     0.074 A 
ATOM     66  C   UNL     1      12.993   0.625 -13.258  1.00  0.00     0.031 C 
ATOM     67  C   UNL     1      14.813   2.026 -12.329  1.00  0.00     0.037 A 
BRANCH  54  68
ATOM     68  C   UNL     1      16.422   5.338  -7.374  1.00  0.00     0.064 A 
ATOM     69  C   UNL     1      17.186   4.904  -6.280  1.00  0.00     0.173 A 
ATOM     70  C   UNL     1      16.668   6.624  -7.879  1.00  0.00     0.173 A 
ATOM     71  F   UNL     1      16.980   3.688  -5.752  1.00  0.00    -0.203 F 
ATOM     72  C   UNL     1      18.144   5.735  -5.703  1.00  0.00     0.198 A 
ATOM     73  C   UNL     1      17.644   7.441  -7.317  1.00  0.00     0.198 A 
ATOM     74  F   UNL     1      15.968   7.083  -8.928  1.00  0.00    -0.203 F 
ATOM     75  F   UNL     1      18.835   5.316  -4.634  1.00  0.00    -0.200 F 
ATOM     76  C   UNL     1      18.377   6.998  -6.226  1.00  0.00     0.200 A 
ATOM     77  F   UNL     1      17.876   8.657  -7.830  1.00  0.00    -0.200 F 
ATOM     78  F   UNL     1      19.304   7.793  -5.674  1.00  0.00    -0.200 F 
ENDBRANCH  54  68
BRANCH  55  79
ATOM     79  C   UNL     1       9.365  -0.444 -11.392  1.00  0.00     0.064 A 
ATOM     80  C   UNL     1       9.582  -1.800 -11.671  1.00  0.00     0.173 A 
ATOM     81  C   UNL     1       8.126   0.107 -11.755  1.00  0.00     0.173 A 
ATOM     82  F   UNL     1      10.763  -2.364 -11.378  1.00  0.00    -0.203 F 
ATOM     83  C   UNL     1       8.607  -2.568 -12.306  1.00  0.00     0.198 A 
ATOM     84  C   UNL     1       7.142  -0.669 -12.362  1.00  0.00     0.198 A 
ATOM     85  F   UNL     1       7.873   1.404 -11.524  1.00  0.00    -0.203 F 
ATOM     86  F   UNL     1       8.861  -3.847 -12.614  1.00  0.00    -0.200 F 
ATOM     87  C   UNL     1       7.386  -2.004 -12.645  1.00  0.00     0.200 A 
ATOM     88  F   UNL     1       5.963  -0.120 -12.685  1.00  0.00    -0.200 F 
ATOM     89  F   UNL     1       6.452  -2.742 -13.260  1.00  0.00    -0.200 F 
ENDBRANCH  55  79
BRANCH  67  90
ATOM     90  C   UNL     1      15.572   1.822 -13.609  1.00  0.00     0.064 A 
ATOM     91  C   UNL     1      15.176   2.439 -14.805  1.00  0.00     0.173 A 
ATOM     92  C   UNL     1      16.733   1.033 -13.631  1.00  0.00     0.173 A 
ATOM     93  F   UNL     1      14.065   3.191 -14.841  1.00  0.00    -0.203 F 
ATOM     94  C   UNL     1      15.900   2.255 -15.980  1.00  0.00     0.198 A 
ATOM     95  C   UNL     1      17.471   0.875 -14.802  1.00  0.00     0.198 A 
ATOM     96  F   UNL     1      17.160   0.426 -12.514  1.00  0.00    -0.203 F 
ATOM     97  F   UNL     1      15.477   2.817 -17.121  1.00  0.00    -0.200 F 
ATOM     98  C   UNL     1      17.050   1.479 -15.976  1.00  0.00     0.200 A 
ATOM     99  F   UNL     1      18.589   0.136 -14.792  1.00  0.00    -0.200 F 
ATOM    100  F   UNL     1      17.750   1.310 -17.107  1.00  0.00    -0.200 F 
ENDBRANCH  67  90
ENDBRANCH  41  42
ENDBRANCH  34  36
ENDBRANCH  33  34
ENDBRANCH  32  33
ENDBRANCH   1  32
TORSDOF 15
