REMARK SMILES O=C(OCCOC(=O)c1ccc(-c2c3nc(c(-c4c(F)c(F)c(F)c(F)c4F)c4ccc([nH]4)c(-c4c(F)c(F)c(F)c(F)c4F)c4nc(c(-c5c(F)c(F)c(F)c(F)c5F)c5ccc2[nH]5)C=C4)C=C3)cc1)C1=C[C@H]2C(=N1)C=CC(Cl)=C2Cl
REMARK SMILES IDX 5 1 4 2 3 3 2 4 1 5 72 6 73 7 76 8 74 9 75 10 81 11 77 12
REMARK SMILES IDX 79 13 82 14 78 15 80 16 6 17 7 18 8 19 9 20 10 21 71 22
REMARK SMILES IDX 11 23 70 24 12 25 13 26 14 27 64 28 15 29 69 30 63 31 65 32
REMARK SMILES IDX 16 33 68 34 62 35 61 36 17 38 49 39 29 40 48 41 30 42 33 43
REMARK SMILES IDX 47 44 66 45 31 46 32 47 46 49 67 50 34 51 18 52 19 53 27 54
REMARK SMILES IDX 20 55 21 56 25 57 28 58 22 59 23 60 26 61 24 62 50 63 51 64
REMARK SMILES IDX 59 65 52 66 53 67 57 68 60 69 54 70 55 71 58 72 56 73 35 74
REMARK SMILES IDX 36 75 44 76 37 77 38 78 42 79 45 80 39 81 40 82 43 83 41 84
REMARK H PARENT 65 37 33 48
REMARK Flexibility Score: inf
ROOT
ATOM      1  C   UNL     1       4.342  -1.017  -1.828  1.00  0.00     0.275 C 
ENDROOT
BRANCH   1   2
ATOM      2  C   UNL     1       4.635  -0.858  -0.333  1.00  0.00     0.275 C 
BRANCH   2   3
ATOM      3  O   UNL     1       3.429  -0.595   0.405  1.00  0.00    -0.457 OA
BRANCH   3   4
ATOM      4  C   UNL     1       3.060   0.628   0.844  1.00  0.00     0.356 C 
ATOM      5  O   UNL     1       2.031   0.779   1.500  1.00  0.00    -0.244 OA
BRANCH   4   6
ATOM      6  C   UNL     1       3.914   1.802   0.539  1.00  0.00     0.145 C 
ATOM      7  C   UNL     1       3.968   2.799   1.427  1.00  0.00     0.024 C 
ATOM      8  N   UNL     1       4.469   2.115  -0.684  1.00  0.00    -0.245 NA
ATOM      9  C   UNL     1       4.606   3.971   0.798  1.00  0.00     0.107 C 
ATOM     10  C   UNL     1       4.757   3.374  -0.588  1.00  0.00     0.054 C 
ATOM     11  C   UNL     1       3.830   5.233   0.677  1.00  0.00     0.050 C 
ATOM     12  C   UNL     1       5.141   4.257  -1.707  1.00  0.00     0.026 C 
ATOM     13  C   UNL     1       4.143   6.038  -0.351  1.00  0.00     0.056 C 
ATOM     14  Cl  UNL     1       2.826   5.688   2.006  1.00  0.00    -0.086 Cl
ATOM     15  C   UNL     1       4.820   5.549  -1.540  1.00  0.00     0.023 C 
ATOM     16  Cl  UNL     1       3.989   7.729  -0.215  1.00  0.00    -0.083 Cl
ENDBRANCH   4   6
ENDBRANCH   3   4
ENDBRANCH   2   3
ENDBRANCH   1   2
BRANCH   1  17
ATOM     17  O   UNL     1       3.721   0.151  -2.401  1.00  0.00    -0.458 OA
BRANCH  17  18
ATOM     18  C   UNL     1       2.357   0.172  -2.405  1.00  0.00     0.338 C 
ATOM     19  O   UNL     1       1.627  -0.754  -2.145  1.00  0.00    -0.246 OA
BRANCH  18  20
ATOM     20  C   UNL     1       1.861   1.558  -2.679  1.00  0.00     0.060 A 
ATOM     21  C   UNL     1       0.628   1.951  -2.141  1.00  0.00     0.016 A 
ATOM     22  C   UNL     1       2.590   2.474  -3.441  1.00  0.00     0.016 A 
ATOM     23  C   UNL     1       0.127   3.249  -2.357  1.00  0.00     0.010 A 
ATOM     24  C   UNL     1       2.100   3.774  -3.635  1.00  0.00     0.010 A 
ATOM     25  C   UNL     1       0.861   4.181  -3.103  1.00  0.00    -0.014 A 
BRANCH  25  26
ATOM     26  C   UNL     1       0.374   5.565  -3.392  1.00  0.00     0.031 A 
ATOM     27  C   UNL     1       0.024   5.957  -4.805  1.00  0.00     0.074 A 
ATOM     28  C   UNL     1       0.330   6.520  -2.439  1.00  0.00     0.049 A 
ATOM     29  N   UNL     1      -0.293   7.137  -5.280  1.00  0.00    -0.248 NA
ATOM     30  C   UNL     1      -0.002   4.881  -5.808  1.00  0.00     0.031 C 
ATOM     31  C   UNL     1       0.524   6.315  -1.008  1.00  0.00     0.029 A 
ATOM     32  N   UNL     1       0.168   7.887  -2.554  1.00  0.00    -0.354 N 
ATOM     33  C   UNL     1      -0.627   6.934  -6.610  1.00  0.00     0.074 A 
ATOM     34  C   UNL     1      -0.361   5.540  -6.902  1.00  0.00     0.031 C 
ATOM     35  C   UNL     1       0.598   7.513  -0.398  1.00  0.00     0.029 A 
ATOM     36  C   UNL     1       0.461   8.570  -1.394  1.00  0.00     0.049 A 
ATOM     37  H   UNL     1      -0.127   8.329  -3.383  1.00  0.00     0.167 HD
ATOM     38  C   UNL     1      -1.171   7.811  -7.487  1.00  0.00     0.037 A 
ATOM     39  C   UNL     1       0.630   9.890  -1.167  1.00  0.00     0.037 A 
ATOM     40  C   UNL     1      -1.430   9.201  -7.211  1.00  0.00     0.049 A 
ATOM     41  C   UNL     1       0.273  10.878  -2.233  1.00  0.00     0.074 A 
ATOM     42  C   UNL     1      -2.060  10.138  -8.013  1.00  0.00     0.029 A 
ATOM     43  N   UNL     1      -1.048   9.863  -6.055  1.00  0.00    -0.354 N 
ATOM     44  N   UNL     1      -0.153  10.660  -3.448  1.00  0.00    -0.248 NA
ATOM     45  C   UNL     1       0.332  12.299  -1.856  1.00  0.00     0.031 C 
ATOM     46  C   UNL     1      -1.997  11.381  -7.373  1.00  0.00     0.029 A 
ATOM     47  C   UNL     1      -1.376  11.208  -6.149  1.00  0.00     0.049 A 
ATOM     48  H   UNL     1      -0.608   9.441  -5.282  1.00  0.00     0.167 HD
ATOM     49  C   UNL     1      -0.509  11.904  -3.947  1.00  0.00     0.074 A 
ATOM     50  C   UNL     1      -0.206  12.876  -2.920  1.00  0.00     0.031 C 
ATOM     51  C   UNL     1      -1.086  12.191  -5.137  1.00  0.00     0.037 A 
BRANCH  38  52
ATOM     52  C   UNL     1      -1.570   7.279  -8.832  1.00  0.00     0.064 A 
ATOM     53  C   UNL     1      -2.671   6.420  -8.972  1.00  0.00     0.173 A 
ATOM     54  C   UNL     1      -0.892   7.676  -9.992  1.00  0.00     0.173 A 
ATOM     55  F   UNL     1      -3.350   6.010  -7.889  1.00  0.00    -0.203 F 
ATOM     56  C   UNL     1      -3.062   5.956 -10.224  1.00  0.00     0.198 A 
ATOM     57  C   UNL     1      -1.302   7.231 -11.246  1.00  0.00     0.198 A 
ATOM     58  F   UNL     1       0.160   8.504  -9.912  1.00  0.00    -0.203 F 
ATOM     59  F   UNL     1      -4.092   5.105 -10.330  1.00  0.00    -0.200 F 
ATOM     60  C   UNL     1      -2.382   6.367 -11.360  1.00  0.00     0.200 A 
ATOM     61  F   UNL     1      -0.653   7.639 -12.345  1.00  0.00    -0.200 F 
ATOM     62  F   UNL     1      -2.765   5.927 -12.566  1.00  0.00    -0.200 F 
ENDBRANCH  38  52
BRANCH  39  63
ATOM     63  C   UNL     1       1.162  10.394   0.125  1.00  0.00     0.064 A 
ATOM     64  C   UNL     1       0.328  10.872   1.138  1.00  0.00     0.173 A 
ATOM     65  C   UNL     1       2.544  10.533   0.307  1.00  0.00     0.173 A 
ATOM     66  F   UNL     1      -0.999  10.899   0.950  1.00  0.00    -0.203 F 
ATOM     67  C   UNL     1       0.862  11.417   2.306  1.00  0.00     0.198 A 
ATOM     68  C   UNL     1       3.080  10.991   1.507  1.00  0.00     0.198 A 
ATOM     69  F   UNL     1       3.372  10.305  -0.722  1.00  0.00    -0.203 F 
ATOM     70  F   UNL     1       0.046  11.959   3.221  1.00  0.00    -0.200 F 
ATOM     71  C   UNL     1       2.235  11.444   2.505  1.00  0.00     0.200 A 
ATOM     72  F   UNL     1       4.409  11.035   1.677  1.00  0.00    -0.200 F 
ATOM     73  F   UNL     1       2.744  11.961   3.632  1.00  0.00    -0.200 F 
ENDBRANCH  39  63
BRANCH  51  74
ATOM     74  C   UNL     1      -1.497  13.613  -5.378  1.00  0.00     0.064 A 
ATOM     75  C   UNL     1      -0.558  14.636  -5.568  1.00  0.00     0.173 A 
ATOM     76  C   UNL     1      -2.858  13.953  -5.434  1.00  0.00     0.173 A 
ATOM     77  F   UNL     1       0.755  14.369  -5.495  1.00  0.00    -0.203 F 
ATOM     78  C   UNL     1      -0.965  15.950  -5.783  1.00  0.00     0.198 A 
ATOM     79  C   UNL     1      -3.262  15.261  -5.685  1.00  0.00     0.198 A 
ATOM     80  F   UNL     1      -3.799  13.014  -5.252  1.00  0.00    -0.203 F 
ATOM     81  F   UNL     1      -0.049  16.921  -5.908  1.00  0.00    -0.200 F 
ATOM     82  C   UNL     1      -2.315  16.260  -5.852  1.00  0.00     0.200 A 
ATOM     83  F   UNL     1      -4.567  15.555  -5.762  1.00  0.00    -0.200 F 
ATOM     84  F   UNL     1      -2.704  17.523  -6.072  1.00  0.00    -0.200 F 
ENDBRANCH  51  74
ENDBRANCH  25  26
ENDBRANCH  18  20
ENDBRANCH  17  18
ENDBRANCH   1  17
TORSDOF 11
