REMARK SMILES CNC(=O)NC(=O)CCSc1csc(C(=O)OCCOC(=O)c2ccc(-c3c4nc(c(-c5c(F)c(F)c(F)c(F)c5F)c5ccc([nH]5)c(-c5c(F)c(F)c(F)c(F)c5F)c5nc(c(-c6c(F)c(F)c(F)c(F)c6F)c6ccc3[nH]6)C=C5)C=C4)cc2)c1
REMARK SMILES IDX 18 1 17 2 15 3 16 4 14 5 11 6 12 7 86 8 13 9 10 10 9 11 8 12
REMARK SMILES IDX 6 13 1 14 2 15 3 16 4 18 5 19 7 21 19 22 20 23 21 24 22 25
REMARK SMILES IDX 23 26 24 27 85 28 25 29 84 30 26 31 27 32 28 33 78 34 29 35
REMARK SMILES IDX 83 36 77 37 79 38 30 39 82 40 76 41 75 42 31 44 63 45 43 46
REMARK SMILES IDX 62 47 44 48 47 49 61 50 80 51 45 52 46 53 60 55 81 56 48 57
REMARK SMILES IDX 32 58 33 59 41 60 34 61 35 62 39 63 42 64 36 65 37 66 40 67
REMARK SMILES IDX 38 68 64 69 65 70 73 71 66 72 67 73 71 74 74 75 68 76 69 77
REMARK SMILES IDX 72 78 70 79 49 80 50 81 58 82 51 83 52 84 56 85 59 86 53 87
REMARK SMILES IDX 54 88 57 89 55 90
REMARK H PARENT 2 17 5 20 79 43 47 54
REMARK Flexibility Score: inf
ROOT
ATOM      1  C   UNL     1      -1.443  -5.466   5.574  1.00  0.00     0.275 C 
ENDROOT
BRANCH   1   2
ATOM      2  O   UNL     1      -0.656  -4.485   4.866  1.00  0.00    -0.458 OA
BRANCH   2   3
ATOM      3  C   UNL     1      -1.312  -3.323   4.571  1.00  0.00     0.348 C 
ATOM      4  O   UNL     1      -2.509  -3.148   4.759  1.00  0.00    -0.245 OA
BRANCH   3   5
ATOM      5  C   UNL     1      -0.368  -2.305   4.151  1.00  0.00     0.113 A 
ATOM      6  C   UNL     1       1.350  -1.074   3.173  1.00  0.00     0.019 A 
ATOM      7  C   UNL     1       0.798  -0.139   4.012  1.00  0.00     0.080 A 
ATOM      8  C   UNL     1       0.767  -2.368   3.360  1.00  0.00     0.042 A 
ATOM      9  S   UNL     1      -0.672  -0.691   4.637  1.00  0.00    -0.136 S 
BRANCH   6  10
ATOM     10  S   UNL     1       2.597  -0.735   1.990  1.00  0.00    -0.125 SA
BRANCH  10  11
ATOM     11  C   UNL     1       2.346   1.047   1.656  1.00  0.00     0.085 C 
BRANCH  11  12
ATOM     12  C   UNL     1       1.146   1.479   0.816  1.00  0.00     0.112 C 
BRANCH  12  13
ATOM     13  C   UNL     1      -0.232   1.278   1.390  1.00  0.00     0.228 C 
ATOM     14  C   UNL     1       0.637  -0.943  -1.274  1.00  0.00     0.144 C 
ATOM     15  N   UNL     1      -0.085  -1.550  -0.190  1.00  0.00    -0.341 N 
ATOM     16  C   UNL     1      -0.976  -1.053   0.677  1.00  0.00     0.321 C 
ATOM     17  H   UNL     1       0.110  -2.507  -0.062  1.00  0.00     0.165 HD
ATOM     18  O   UNL     1      -1.737  -1.849   1.233  1.00  0.00    -0.248 OA
ATOM     19  N   UNL     1      -1.084   0.273   0.976  1.00  0.00    -0.278 N 
ATOM     20  H   UNL     1      -2.007   0.597   0.870  1.00  0.00     0.174 HD
ATOM     21  O   UNL     1      -0.643   2.058   2.258  1.00  0.00    -0.275 OA
ENDBRANCH  12  13
ENDBRANCH  11  12
ENDBRANCH  10  11
ENDBRANCH   6  10
ENDBRANCH   3   5
ENDBRANCH   2   3
ENDBRANCH   1   2
BRANCH   1  22
ATOM     22  C   UNL     1      -1.196  -5.385   7.083  1.00  0.00     0.275 C 
BRANCH  22  23
ATOM     23  O   UNL     1      -1.714  -4.151   7.621  1.00  0.00    -0.458 OA
BRANCH  23  24
ATOM     24  C   UNL     1      -0.792  -3.299   8.126  1.00  0.00     0.338 C 
ATOM     25  O   UNL     1       0.414  -3.470   8.192  1.00  0.00    -0.246 OA
BRANCH  24  26
ATOM     26  C   UNL     1      -1.423  -2.039   8.560  1.00  0.00     0.060 A 
ATOM     27  C   UNL     1      -1.979  -1.215   7.595  1.00  0.00     0.016 A 
ATOM     28  C   UNL     1      -1.258  -1.561   9.857  1.00  0.00     0.016 A 
ATOM     29  C   UNL     1      -2.172   0.138   7.858  1.00  0.00     0.010 A 
ATOM     30  C   UNL     1      -1.632  -0.242  10.165  1.00  0.00     0.010 A 
ATOM     31  C   UNL     1      -2.032   0.651   9.154  1.00  0.00    -0.014 A 
BRANCH  31  32
ATOM     32  C   UNL     1      -2.285   2.105   9.414  1.00  0.00     0.031 A 
ATOM     33  C   UNL     1      -1.256   2.964  10.113  1.00  0.00     0.074 A 
ATOM     34  C   UNL     1      -3.429   2.682   8.985  1.00  0.00     0.049 A 
ATOM     35  N   UNL     1      -1.353   4.205  10.528  1.00  0.00    -0.248 NA
ATOM     36  C   UNL     1       0.049   2.347  10.399  1.00  0.00     0.031 C 
ATOM     37  C   UNL     1      -4.506   1.998   8.267  1.00  0.00     0.029 A 
ATOM     38  N   UNL     1      -3.872   3.981   9.070  1.00  0.00    -0.354 N 
ATOM     39  C   UNL     1      -0.153   4.492  11.171  1.00  0.00     0.074 A 
ATOM     40  C   UNL     1       0.653   3.293  11.105  1.00  0.00     0.031 C 
ATOM     41  C   UNL     1      -5.443   2.888   7.914  1.00  0.00     0.029 A 
ATOM     42  C   UNL     1      -5.097   4.185   8.480  1.00  0.00     0.049 A 
ATOM     43  H   UNL     1      -3.361   4.698   9.511  1.00  0.00     0.167 HD
ATOM     44  C   UNL     1       0.242   5.650  11.759  1.00  0.00     0.037 A 
ATOM     45  C   UNL     1      -5.886   5.275   8.430  1.00  0.00     0.037 A 
ATOM     46  C   UNL     1      -0.535   6.865  11.773  1.00  0.00     0.049 A 
ATOM     47  C   UNL     1      -5.437   6.534   9.112  1.00  0.00     0.074 A 
ATOM     48  C   UNL     1      -0.208   8.093  12.324  1.00  0.00     0.029 A 
ATOM     49  N   UNL     1      -1.788   7.011  11.196  1.00  0.00    -0.354 N 
ATOM     50  N   UNL     1      -4.321   6.775   9.754  1.00  0.00    -0.248 NA
ATOM     51  C   UNL     1      -6.369   7.670   9.078  1.00  0.00     0.031 C 
ATOM     52  C   UNL     1      -1.282   8.966  12.124  1.00  0.00     0.029 A 
ATOM     53  C   UNL     1      -2.256   8.302  11.396  1.00  0.00     0.049 A 
ATOM     54  H   UNL     1      -2.275   6.303  10.715  1.00  0.00     0.167 HD
ATOM     55  C   UNL     1      -4.407   8.091  10.185  1.00  0.00     0.074 A 
ATOM     56  C   UNL     1      -5.674   8.605   9.709  1.00  0.00     0.031 C 
ATOM     57  C   UNL     1      -3.518   8.805  10.917  1.00  0.00     0.037 A 
BRANCH  44  58
ATOM     58  C   UNL     1       1.567   5.657  12.471  1.00  0.00     0.064 A 
ATOM     59  C   UNL     1       2.788   5.602  11.782  1.00  0.00     0.173 A 
ATOM     60  C   UNL     1       1.613   5.765  13.871  1.00  0.00     0.173 A 
ATOM     61  F   UNL     1       2.804   5.491  10.445  1.00  0.00    -0.203 F 
ATOM     62  C   UNL     1       4.001   5.624  12.468  1.00  0.00     0.198 A 
ATOM     63  C   UNL     1       2.827   5.820  14.551  1.00  0.00     0.198 A 
ATOM     64  F   UNL     1       0.477   5.833  14.582  1.00  0.00    -0.203 F 
ATOM     65  F   UNL     1       5.154   5.521  11.791  1.00  0.00    -0.200 F 
ATOM     66  C   UNL     1       4.020   5.740  13.850  1.00  0.00     0.200 A 
ATOM     67  F   UNL     1       2.842   5.950  15.885  1.00  0.00    -0.200 F 
ATOM     68  F   UNL     1       5.188   5.770  14.506  1.00  0.00    -0.200 F 
ENDBRANCH  44  58
BRANCH  45  69
ATOM     69  C   UNL     1      -7.204   5.206   7.741  1.00  0.00     0.064 A 
ATOM     70  C   UNL     1      -7.452   5.947   6.577  1.00  0.00     0.173 A 
ATOM     71  C   UNL     1      -8.241   4.398   8.231  1.00  0.00     0.173 A 
ATOM     72  F   UNL     1      -6.503   6.757   6.083  1.00  0.00    -0.203 F 
ATOM     73  C   UNL     1      -8.689   5.891   5.939  1.00  0.00     0.198 A 
ATOM     74  C   UNL     1      -9.464   4.314   7.572  1.00  0.00     0.198 A 
ATOM     75  F   UNL     1      -8.059   3.670   9.343  1.00  0.00    -0.203 F 
ATOM     76  F   UNL     1      -8.917   6.648   4.856  1.00  0.00    -0.200 F 
ATOM     77  C   UNL     1      -9.691   5.068   6.431  1.00  0.00     0.200 A 
ATOM     78  F   UNL     1     -10.423   3.504   8.042  1.00  0.00    -0.200 F 
ATOM     79  F   UNL     1     -10.878   5.008   5.811  1.00  0.00    -0.200 F 
ENDBRANCH  45  69
BRANCH  57  80
ATOM     80  C   UNL     1      -3.872  10.233  11.214  1.00  0.00     0.064 A 
ATOM     81  C   UNL     1      -4.902  10.569  12.106  1.00  0.00     0.173 A 
ATOM     82  C   UNL     1      -3.168  11.281  10.601  1.00  0.00     0.173 A 
ATOM     83  F   UNL     1      -5.617   9.604  12.704  1.00  0.00    -0.203 F 
ATOM     84  C   UNL     1      -5.238  11.899  12.345  1.00  0.00     0.198 A 
ATOM     85  C   UNL     1      -3.484  12.610  10.868  1.00  0.00     0.198 A 
ATOM     86  F   UNL     1      -2.170  11.016   9.744  1.00  0.00    -0.203 F 
ATOM     87  F   UNL     1      -6.266  12.194  13.152  1.00  0.00    -0.200 F 
ATOM     88  C   UNL     1      -4.525  12.918  11.730  1.00  0.00     0.200 A 
ATOM     89  F   UNL     1      -2.787  13.594  10.283  1.00  0.00    -0.200 F 
ATOM     90  F   UNL     1      -4.850  14.197  11.960  1.00  0.00    -0.200 F 
ENDBRANCH  57  80
ENDBRANCH  31  32
ENDBRANCH  24  26
ENDBRANCH  23  24
ENDBRANCH  22  23
ENDBRANCH   1  22
TORSDOF 15
