REMARK SMILES CCOC(=O)[C@@]1(C)C/C(=N/c2cccc(C(=O)OCCOC(=O)c3ccc(-c4c5nc(c(-c6c(F)c(F)c(F)c(F)c6F)c6ccc([nH]6)c(-c6c(F)c(F)c(F)c(F)c6F)c6nc(c(-c7c(F)c(F)c(F)c(F)c7F)c7ccc4[nH]7)C=C6)C=C5)cc3)c2)C(=O)N1c1ccccc1
REMARK SMILES IDX 19 1 18 2 16 3 17 4 15 5 11 6 12 7 87 8 13 9 14 10 10 11
REMARK SMILES IDX 6 12 7 13 8 14 90 15 9 16 88 17 89 18 4 19 5 20 3 21 2 22
REMARK SMILES IDX 1 23 91 24 92 25 96 26 93 27 95 28 94 29 20 30 21 31 22 32
REMARK SMILES IDX 23 33 24 34 25 35 86 36 26 37 85 38 27 39 28 40 29 41 79 42
REMARK SMILES IDX 30 43 84 44 78 45 80 46 31 47 83 48 77 49 76 50 32 52 64 53
REMARK SMILES IDX 44 54 63 55 45 56 48 57 62 58 81 59 46 60 47 61 61 63 82 64
REMARK SMILES IDX 49 65 33 66 34 67 42 68 35 69 36 70 40 71 43 72 37 73 38 74
REMARK SMILES IDX 41 75 39 76 65 77 66 78 74 79 67 80 68 81 72 82 75 83 69 84
REMARK SMILES IDX 70 85 73 86 71 87 50 88 51 89 59 90 52 91 53 92 57 93 60 94
REMARK SMILES IDX 54 95 55 96 58 97 56 98
REMARK H PARENT 80 51 48 62
REMARK Flexibility Score: inf
ROOT
ATOM      1  C   UNL     1       4.609   1.471  10.666  1.00  0.00     0.275 C 
ENDROOT
BRANCH   1   2
ATOM      2  O   UNL     1       3.953   2.137   9.569  1.00  0.00    -0.458 OA
BRANCH   2   3
ATOM      3  C   UNL     1       2.953   2.993   9.910  1.00  0.00     0.338 C 
ATOM      4  O   UNL     1       2.474   3.142  11.023  1.00  0.00    -0.246 OA
BRANCH   3   5
ATOM      5  C   UNL     1       2.547   3.810   8.738  1.00  0.00     0.062 A 
ATOM      6  C   UNL     1       2.529   4.256   6.351  1.00  0.00     0.064 A 
ATOM      7  C   UNL     1       1.703   5.359   6.568  1.00  0.00     0.028 A 
ATOM      8  C   UNL     1       2.987   3.512   7.445  1.00  0.00     0.044 A 
ATOM      9  C   UNL     1       1.287   5.686   7.860  1.00  0.00     0.003 A 
ATOM     10  C   UNL     1       1.695   4.902   8.942  1.00  0.00     0.016 A 
BRANCH   6  11
ATOM     11  N   UNL     1       2.901   3.896   5.048  1.00  0.00    -0.248 NA
ATOM     12  C   UNL     1       2.898   0.696   3.664  1.00  0.00     0.148 C 
ATOM     13  C   UNL     1       4.282   0.317   4.225  1.00  0.00     0.048 C 
ATOM     14  C   UNL     1       2.919   2.203   3.291  1.00  0.00     0.103 C 
ATOM     15  N   UNL     1       1.835   0.563   4.692  1.00  0.00    -0.290 N 
ATOM     16  C   UNL     1       2.429   2.788   4.563  1.00  0.00     0.109 C 
ATOM     17  C   UNL     1       1.472   1.808   5.197  1.00  0.00     0.273 C 
ATOM     18  O   UNL     1       0.607   2.150   5.972  1.00  0.00    -0.267 OA
BRANCH  12  19
ATOM     19  C   UNL     1       2.603  -0.018   2.329  1.00  0.00     0.332 C 
ATOM     20  O   UNL     1       3.463  -0.293   1.501  1.00  0.00    -0.249 OA
BRANCH  19  21
ATOM     21  O   UNL     1       1.266  -0.187   2.139  1.00  0.00    -0.464 OA
BRANCH  21  22
ATOM     22  C   UNL     1       0.868  -0.860   0.936  1.00  0.00     0.229 C 
ATOM     23  C   UNL     1       0.753   0.129  -0.207  1.00  0.00     0.049 C 
ENDBRANCH  21  22
ENDBRANCH  19  21
ENDBRANCH  12  19
BRANCH  15  24
ATOM     24  C   UNL     1       1.292  -0.683   5.150  1.00  0.00     0.045 A 
ATOM     25  C   UNL     1       0.192  -0.723   6.022  1.00  0.00     0.026 A 
ATOM     26  C   UNL     1       1.831  -1.919   4.757  1.00  0.00     0.026 A 
ATOM     27  C   UNL     1      -0.338  -1.934   6.487  1.00  0.00     0.002 A 
ATOM     28  C   UNL     1       1.310  -3.132   5.229  1.00  0.00     0.002 A 
ATOM     29  C   UNL     1       0.225  -3.139   6.095  1.00  0.00     0.000 A 
ENDBRANCH  15  24
ENDBRANCH   6  11
ENDBRANCH   3   5
ENDBRANCH   2   3
ENDBRANCH   1   2
BRANCH   1  30
ATOM     30  C   UNL     1       5.821   2.288  11.111  1.00  0.00     0.275 C 
BRANCH  30  31
ATOM     31  O   UNL     1       5.360   3.594  11.482  1.00  0.00    -0.458 OA
BRANCH  31  32
ATOM     32  C   UNL     1       6.244   4.395  12.108  1.00  0.00     0.338 C 
ATOM     33  O   UNL     1       7.390   4.127  12.416  1.00  0.00    -0.246 OA
BRANCH  32  34
ATOM     34  C   UNL     1       5.547   5.661  12.434  1.00  0.00     0.060 A 
ATOM     35  C   UNL     1       4.599   6.211  11.559  1.00  0.00     0.016 A 
ATOM     36  C   UNL     1       5.837   6.295  13.644  1.00  0.00     0.016 A 
ATOM     37  C   UNL     1       3.931   7.386  11.901  1.00  0.00     0.010 A 
ATOM     38  C   UNL     1       5.153   7.461  13.995  1.00  0.00     0.010 A 
ATOM     39  C   UNL     1       4.200   8.014  13.125  1.00  0.00    -0.014 A 
BRANCH  39  40
ATOM     40  C   UNL     1       3.511   9.273  13.482  1.00  0.00     0.031 A 
ATOM     41  C   UNL     1       4.216  10.584  13.303  1.00  0.00     0.074 A 
ATOM     42  C   UNL     1       2.257   9.240  13.967  1.00  0.00     0.049 A 
ATOM     43  N   UNL     1       3.810  11.790  13.610  1.00  0.00    -0.248 NA
ATOM     44  C   UNL     1       5.556  10.530  12.699  1.00  0.00     0.031 C 
ATOM     45  C   UNL     1       1.459   8.032  14.171  1.00  0.00     0.029 A 
ATOM     46  N   UNL     1       1.435  10.260  14.376  1.00  0.00    -0.354 N 
ATOM     47  C   UNL     1       4.849  12.636  13.254  1.00  0.00     0.074 A 
ATOM     48  C   UNL     1       5.905  11.809  12.706  1.00  0.00     0.031 C 
ATOM     49  C   UNL     1       0.256   8.381  14.660  1.00  0.00     0.029 A 
ATOM     50  C   UNL     1       0.210   9.832  14.821  1.00  0.00     0.049 A 
ATOM     51  H   UNL     1       1.700  11.208  14.353  1.00  0.00     0.167 HD
ATOM     52  C   UNL     1       4.918  13.982  13.375  1.00  0.00     0.037 A 
ATOM     53  C   UNL     1      -0.828  10.535  15.309  1.00  0.00     0.037 A 
ATOM     54  C   UNL     1       3.872  14.812  13.905  1.00  0.00     0.049 A 
ATOM     55  C   UNL     1      -0.725  12.028  15.435  1.00  0.00     0.074 A 
ATOM     56  C   UNL     1       3.859  16.186  14.073  1.00  0.00     0.029 A 
ATOM     57  N   UNL     1       2.647  14.341  14.349  1.00  0.00    -0.354 N 
ATOM     58  N   UNL     1       0.271  12.817  15.117  1.00  0.00    -0.248 NA
ATOM     59  C   UNL     1      -1.890  12.727  15.999  1.00  0.00     0.031 C 
ATOM     60  C   UNL     1       2.624  16.547  14.628  1.00  0.00     0.029 A 
ATOM     61  C   UNL     1       1.869  15.397  14.793  1.00  0.00     0.049 A 
ATOM     62  H   UNL     1       2.371  13.396  14.349  1.00  0.00     0.167 HD
ATOM     63  C   UNL     1      -0.142  14.100  15.440  1.00  0.00     0.074 A 
ATOM     64  C   UNL     1      -1.486  13.990  15.969  1.00  0.00     0.031 C 
ATOM     65  C   UNL     1       0.536  15.266  15.316  1.00  0.00     0.037 A 
BRANCH  52  66
ATOM     66  C   UNL     1       6.186  14.636  12.934  1.00  0.00     0.064 A 
ATOM     67  C   UNL     1       6.407  14.955  11.588  1.00  0.00     0.173 A 
ATOM     68  C   UNL     1       7.182  14.957  13.867  1.00  0.00     0.173 A 
ATOM     69  F   UNL     1       5.486  14.649  10.662  1.00  0.00    -0.203 F 
ATOM     70  C   UNL     1       7.591  15.568  11.188  1.00  0.00     0.198 A 
ATOM     71  C   UNL     1       8.361  15.577  13.464  1.00  0.00     0.198 A 
ATOM     72  F   UNL     1       7.013  14.661  15.164  1.00  0.00    -0.203 F 
ATOM     73  F   UNL     1       7.795  15.847   9.893  1.00  0.00    -0.200 F 
ATOM     74  C   UNL     1       8.565  15.881  12.126  1.00  0.00     0.200 A 
ATOM     75  F   UNL     1       9.303  15.875  14.369  1.00  0.00    -0.200 F 
ATOM     76  F   UNL     1       9.706  16.467  11.738  1.00  0.00    -0.200 F 
ENDBRANCH  52  66
BRANCH  53  77
ATOM     77  C   UNL     1      -2.064   9.830  15.715  1.00  0.00     0.064 A 
ATOM     78  C   UNL     1      -3.177   9.794  14.866  1.00  0.00     0.173 A 
ATOM     79  C   UNL     1      -2.156   9.183  16.954  1.00  0.00     0.173 A 
ATOM     80  F   UNL     1      -3.135  10.421  13.681  1.00  0.00    -0.203 F 
ATOM     81  C   UNL     1      -4.344   9.136  15.245  1.00  0.00     0.198 A 
ATOM     82  C   UNL     1      -3.321   8.518  17.328  1.00  0.00     0.198 A 
ATOM     83  F   UNL     1      -1.116   9.204  17.800  1.00  0.00    -0.203 F 
ATOM     84  F   UNL     1      -5.405   9.133  14.426  1.00  0.00    -0.200 F 
ATOM     85  C   UNL     1      -4.414   8.497  16.474  1.00  0.00     0.200 A 
ATOM     86  F   UNL     1      -3.388   7.905  18.518  1.00  0.00    -0.200 F 
ATOM     87  F   UNL     1      -5.540   7.869  16.840  1.00  0.00    -0.200 F 
ENDBRANCH  53  77
BRANCH  65  88
ATOM     88  C   UNL     1      -0.163  16.510  15.761  1.00  0.00     0.064 A 
ATOM     89  C   UNL     1      -0.164  16.892  17.110  1.00  0.00     0.173 A 
ATOM     90  C   UNL     1      -0.800  17.344  14.832  1.00  0.00     0.173 A 
ATOM     91  F   UNL     1       0.422  16.114  18.032  1.00  0.00    -0.203 F 
ATOM     92  C   UNL     1      -0.787  18.069  17.515  1.00  0.00     0.198 A 
ATOM     93  C   UNL     1      -1.414  18.524  15.240  1.00  0.00     0.198 A 
ATOM     94  F   UNL     1      -0.825  17.012  13.533  1.00  0.00    -0.203 F 
ATOM     95  F   UNL     1      -0.793  18.410  18.811  1.00  0.00    -0.200 F 
ATOM     96  C   UNL     1      -1.408  18.885  16.580  1.00  0.00     0.200 A 
ATOM     97  F   UNL     1      -2.016  19.311  14.338  1.00  0.00    -0.200 F 
ATOM     98  F   UNL     1      -2.007  20.017  16.972  1.00  0.00    -0.200 F 
ENDBRANCH  65  88
ENDBRANCH  39  40
ENDBRANCH  32  34
ENDBRANCH  31  32
ENDBRANCH  30  31
ENDBRANCH   1  30
TORSDOF 16
