REMARK SMILES O=C(OCCOC(=O)[C@@H]1CCC(=O)N1C(=O)/C=C/c1ccccc1)c1ccc(-c2c3nc(c(-c4c(F)c(F)c(F)c(F)c4F)c4ccc([nH]4)c(-c4c(F)c(F)c(F)c(F)c4F)c4nc(c(-c5c(F)c(F)c(F)c(F)c5F)c5ccc2[nH]5)C=C4)C=C3)cc1
REMARK SMILES IDX 5 1 4 2 3 3 2 4 1 5 25 6 26 7 87 8 27 9 86 10 28 11 29 12
REMARK SMILES IDX 30 13 80 14 31 15 85 16 79 17 81 18 32 19 84 20 78 21 77 22
REMARK SMILES IDX 33 24 65 25 45 26 64 27 46 28 49 29 63 30 82 31 47 32 48 33
REMARK SMILES IDX 62 35 83 36 50 37 34 38 35 39 43 40 36 41 37 42 41 43 44 44
REMARK SMILES IDX 38 45 39 46 42 47 40 48 66 49 67 50 75 51 68 52 69 53 73 54
REMARK SMILES IDX 76 55 70 56 71 57 74 58 72 59 51 60 52 61 60 62 53 63 54 64
REMARK SMILES IDX 58 65 61 66 55 67 56 68 59 69 57 70 6 71 7 72 8 73 9 74
REMARK SMILES IDX 10 75 14 76 11 77 12 78 13 79 15 80 16 81 17 82 18 83 19 84
REMARK SMILES IDX 20 85 24 86 21 87 23 88 22 89
REMARK H PARENT 81 23 49 34
REMARK Flexibility Score: inf
ROOT
ATOM      1  C   UNL     1       3.899   1.883  -1.123  1.00  0.00     0.274 C 
ENDROOT
BRANCH   1   2
ATOM      2  C   UNL     1       4.312   0.524  -1.686  1.00  0.00     0.275 C 
BRANCH   2   3
ATOM      3  O   UNL     1       3.359  -0.519  -1.407  1.00  0.00    -0.458 OA
BRANCH   3   4
ATOM      4  C   UNL     1       3.284  -1.378  -0.364  1.00  0.00     0.338 C 
ATOM      5  O   UNL     1       2.522  -2.340  -0.452  1.00  0.00    -0.246 OA
BRANCH   4   6
ATOM      6  C   UNL     1       3.934  -1.143   0.968  1.00  0.00     0.060 A 
ATOM      7  C   UNL     1       5.101  -0.419   1.214  1.00  0.00     0.016 A 
ATOM      8  C   UNL     1       3.268  -1.696   2.079  1.00  0.00     0.016 A 
ATOM      9  C   UNL     1       5.539  -0.174   2.520  1.00  0.00     0.010 A 
ATOM     10  C   UNL     1       3.675  -1.424   3.389  1.00  0.00     0.010 A 
ATOM     11  C   UNL     1       4.828  -0.669   3.615  1.00  0.00    -0.014 A 
BRANCH  11  12
ATOM     12  C   UNL     1       5.415  -0.576   4.970  1.00  0.00     0.031 A 
ATOM     13  C   UNL     1       6.046  -1.814   5.543  1.00  0.00     0.074 A 
ATOM     14  C   UNL     1       5.438   0.588   5.645  1.00  0.00     0.049 A 
ATOM     15  N   UNL     1       6.669  -1.983   6.680  1.00  0.00    -0.248 NA
ATOM     16  C   UNL     1       5.957  -3.032   4.720  1.00  0.00     0.031 C 
ATOM     17  C   UNL     1       4.875   1.854   5.176  1.00  0.00     0.029 A 
ATOM     18  N   UNL     1       5.973   0.895   6.871  1.00  0.00    -0.354 N 
ATOM     19  C   UNL     1       7.045  -3.319   6.701  1.00  0.00     0.074 A 
ATOM     20  C   UNL     1       6.522  -3.934   5.503  1.00  0.00     0.031 C 
ATOM     21  C   UNL     1       5.105   2.805   6.099  1.00  0.00     0.029 A 
ATOM     22  C   UNL     1       5.823   2.215   7.226  1.00  0.00     0.049 A 
ATOM     23  H   UNL     1       6.423   0.232   7.443  1.00  0.00     0.167 HD
ATOM     24  C   UNL     1       7.793  -3.971   7.620  1.00  0.00     0.037 A 
ATOM     25  C   UNL     1       6.235   2.864   8.332  1.00  0.00     0.037 A 
ATOM     26  C   UNL     1       8.316  -3.355   8.804  1.00  0.00     0.049 A 
ATOM     27  C   UNL     1       7.022   2.101   9.370  1.00  0.00     0.074 A 
ATOM     28  C   UNL     1       9.076  -3.918   9.811  1.00  0.00     0.029 A 
ATOM     29  N   UNL     1       8.124  -2.021   9.138  1.00  0.00    -0.354 N 
ATOM     30  N   UNL     1       7.411   0.848   9.360  1.00  0.00    -0.248 NA
ATOM     31  C   UNL     1       7.440   2.846  10.566  1.00  0.00     0.031 C 
ATOM     32  C   UNL     1       9.316  -2.931  10.774  1.00  0.00     0.029 A 
ATOM     33  C   UNL     1       8.741  -1.744  10.344  1.00  0.00     0.049 A 
ATOM     34  H   UNL     1       7.623  -1.369   8.596  1.00  0.00     0.167 HD
ATOM     35  C   UNL     1       8.146   0.664  10.525  1.00  0.00     0.074 A 
ATOM     36  C   UNL     1       8.159   1.939  11.213  1.00  0.00     0.031 C 
ATOM     37  C   UNL     1       8.754  -0.456  10.989  1.00  0.00     0.037 A 
BRANCH  24  38
ATOM     38  C   UNL     1       8.062  -5.424   7.361  1.00  0.00     0.064 A 
ATOM     39  C   UNL     1       8.907  -5.837   6.318  1.00  0.00     0.173 A 
ATOM     40  C   UNL     1       7.426  -6.413   8.124  1.00  0.00     0.173 A 
ATOM     41  F   UNL     1       9.515  -4.928   5.541  1.00  0.00    -0.203 F 
ATOM     42  C   UNL     1       9.068  -7.188   6.020  1.00  0.00     0.198 A 
ATOM     43  C   UNL     1       7.614  -7.763   7.842  1.00  0.00     0.198 A 
ATOM     44  F   UNL     1       6.605  -6.070   9.127  1.00  0.00    -0.203 F 
ATOM     45  F   UNL     1       9.817  -7.556   4.971  1.00  0.00    -0.200 F 
ATOM     46  C   UNL     1       8.423  -8.149   6.783  1.00  0.00     0.200 A 
ATOM     47  F   UNL     1       6.992  -8.693   8.581  1.00  0.00    -0.200 F 
ATOM     48  F   UNL     1       8.566  -9.448   6.485  1.00  0.00    -0.200 F 
ENDBRANCH  24  38
BRANCH  25  49
ATOM     49  C   UNL     1       5.942   4.312   8.515  1.00  0.00     0.064 A 
ATOM     50  C   UNL     1       6.970   5.266   8.510  1.00  0.00     0.173 A 
ATOM     51  C   UNL     1       4.635   4.769   8.741  1.00  0.00     0.173 A 
ATOM     52  F   UNL     1       8.240   4.880   8.322  1.00  0.00    -0.203 F 
ATOM     53  C   UNL     1       6.707   6.614   8.755  1.00  0.00     0.198 A 
ATOM     54  C   UNL     1       4.369   6.120   8.960  1.00  0.00     0.198 A 
ATOM     55  F   UNL     1       3.613   3.900   8.758  1.00  0.00    -0.203 F 
ATOM     56  F   UNL     1       7.717   7.493   8.803  1.00  0.00    -0.200 F 
ATOM     57  C   UNL     1       5.406   7.040   8.977  1.00  0.00     0.200 A 
ATOM     58  F   UNL     1       3.110   6.528   9.170  1.00  0.00    -0.200 F 
ATOM     59  F   UNL     1       5.155   8.333   9.224  1.00  0.00    -0.200 F 
ENDBRANCH  25  49
BRANCH  37  60
ATOM     60  C   UNL     1       9.517  -0.345  12.275  1.00  0.00     0.064 A 
ATOM     61  C   UNL     1       8.862  -0.239  13.510  1.00  0.00     0.173 A 
ATOM     62  C   UNL     1      10.918  -0.424  12.275  1.00  0.00     0.173 A 
ATOM     63  F   UNL     1       7.524  -0.148  13.559  1.00  0.00    -0.203 F 
ATOM     64  C   UNL     1       9.584  -0.199  14.699  1.00  0.00     0.198 A 
ATOM     65  C   UNL     1      11.634  -0.413  13.467  1.00  0.00     0.198 A 
ATOM     66  F   UNL     1      11.589  -0.536  11.118  1.00  0.00    -0.203 F 
ATOM     67  F   UNL     1       8.940  -0.062  15.867  1.00  0.00    -0.200 F 
ATOM     68  C   UNL     1      10.968  -0.296  14.677  1.00  0.00     0.200 A 
ATOM     69  F   UNL     1      12.970  -0.524  13.446  1.00  0.00    -0.200 F 
ATOM     70  F   UNL     1      11.659  -0.275  15.825  1.00  0.00    -0.200 F 
ENDBRANCH  37  60
ENDBRANCH  11  12
ENDBRANCH   4   6
ENDBRANCH   3   4
ENDBRANCH   2   3
ENDBRANCH   1   2
BRANCH   1  71
ATOM     71  O   UNL     1       3.471   1.772   0.243  1.00  0.00    -0.461 OA
BRANCH  71  72
ATOM     72  C   UNL     1       2.158   2.036   0.494  1.00  0.00     0.329 C 
ATOM     73  O   UNL     1       1.343   2.413  -0.338  1.00  0.00    -0.250 OA
BRANCH  72  74
ATOM     74  C   UNL     1       1.824   1.768   1.963  1.00  0.00     0.204 C 
ATOM     75  C   UNL     1       0.811   0.637   2.057  1.00  0.00     0.047 C 
ATOM     76  N   UNL     1       1.118   2.911   2.511  1.00  0.00    -0.265 N 
ATOM     77  C   UNL     1      -0.017   1.001   3.261  1.00  0.00     0.103 C 
ATOM     78  C   UNL     1      -0.070   2.494   3.146  1.00  0.00     0.230 C 
ATOM     79  O   UNL     1      -0.995   3.158   3.584  1.00  0.00    -0.274 OA
BRANCH  76  80
ATOM     80  C   UNL     1       1.793   4.119   2.624  1.00  0.00     0.253 C 
ATOM     81  O   UNL     1       3.008   4.225   2.467  1.00  0.00    -0.269 OA
BRANCH  80  82
ATOM     82  C   UNL     1       0.965   5.324   2.823  1.00  0.00     0.072 C 
ATOM     83  C   UNL     1       0.340   5.558   3.985  1.00  0.00     0.014 C 
BRANCH  83  84
ATOM     84  C   UNL     1      -0.735   6.546   4.172  1.00  0.00    -0.025 A 
ATOM     85  C   UNL     1      -1.500   6.471   5.346  1.00  0.00     0.008 A 
ATOM     86  C   UNL     1      -1.099   7.488   3.200  1.00  0.00     0.008 A 
ATOM     87  C   UNL     1      -2.605   7.304   5.537  1.00  0.00     0.001 A 
ATOM     88  C   UNL     1      -2.206   8.319   3.390  1.00  0.00     0.001 A 
ATOM     89  C   UNL     1      -2.960   8.225   4.556  1.00  0.00     0.000 A 
ENDBRANCH  83  84
ENDBRANCH  80  82
ENDBRANCH  76  80
ENDBRANCH  72  74
ENDBRANCH  71  72
ENDBRANCH   1  71
TORSDOF 14
