REMARK SMILES C[C@@H]1C(=O)NC(=O)CN1C(=O)NC1(CC(=O)OCCOC(=O)c2ccc(-c3c4nc(c(-c5c(F)c(F)c(F)c(F)c5F)c5ccc([nH]5)c(-c5c(F)c(F)c(F)c(F)c5F)c5nc(c(-c6c(F)c(F)c(F)c(F)c6F)c6ccc3[nH]6)C=C5)C=C4)cc2)CCC1
REMARK SMILES IDX 18 1 17 2 15 3 16 4 14 5 13 6 86 7 88 8 87 9 12 10 10 11
REMARK SMILES IDX 11 12 9 14 1 15 2 16 3 17 4 18 5 19 8 20 6 21 7 23 19 24
REMARK SMILES IDX 20 25 21 26 22 27 23 28 24 29 85 30 25 31 84 32 26 33 27 34
REMARK SMILES IDX 28 35 78 36 29 37 83 38 77 39 79 40 30 41 82 42 76 43 75 44
REMARK SMILES IDX 31 46 63 47 43 48 62 49 44 50 47 51 61 52 80 53 45 54 46 55
REMARK SMILES IDX 60 57 81 58 48 59 32 60 33 61 41 62 34 63 35 64 39 65 42 66
REMARK SMILES IDX 36 67 37 68 40 69 38 70 64 71 65 72 73 73 66 74 67 75 71 76
REMARK SMILES IDX 74 77 68 78 69 79 72 80 70 81 49 82 50 83 58 84 51 85 52 86
REMARK SMILES IDX 56 87 59 88 53 89 54 90 57 91 55 92
REMARK H PARENT 12 13 5 22 79 45 47 56
REMARK Flexibility Score: inf
ROOT
ATOM      1  C   UNL     1       0.612   4.651   6.452  1.00  0.00     0.274 C 
ENDROOT
BRANCH   1   2
ATOM      2  O   UNL     1       0.514   3.633   5.432  1.00  0.00    -0.462 OA
BRANCH   2   3
ATOM      3  C   UNL     1      -0.702   3.404   4.885  1.00  0.00     0.308 C 
ATOM      4  O   UNL     1      -1.722   4.011   5.196  1.00  0.00    -0.252 OA
BRANCH   3   5
ATOM      5  C   UNL     1      -0.731   2.260   3.895  1.00  0.00     0.151 C 
BRANCH   5   6
ATOM      6  C   UNL     1       0.559   1.833   3.163  1.00  0.00     0.052 C 
ATOM      7  C   UNL     1       0.557   0.321   2.780  1.00  0.00     0.029 C 
ATOM      8  C   UNL     1       1.805   1.423   4.057  1.00  0.00     0.029 C 
ATOM      9  C   UNL     1       1.203   0.015   4.140  1.00  0.00     0.005 C 
BRANCH   6  10
ATOM     10  N   UNL     1       0.961   2.864   2.171  1.00  0.00    -0.332 N 
ATOM     11  C   UNL     1       1.005   3.178   0.863  1.00  0.00     0.318 C 
ATOM     12  O   UNL     1       1.534   4.273   0.632  1.00  0.00    -0.249 OA
ATOM     13  H   UNL     1       1.349   3.619   2.670  1.00  0.00     0.165 HD
BRANCH  11  14
ATOM     14  N   UNL     1       0.547   2.436  -0.179  1.00  0.00    -0.304 N 
ATOM     15  C   UNL     1       0.837   0.019  -0.531  1.00  0.00     0.042 C 
ATOM     16  C   UNL     1      -0.134   1.146  -0.164  1.00  0.00     0.174 C 
ATOM     17  C   UNL     1      -1.302   1.091  -1.160  1.00  0.00     0.249 C 
ATOM     18  O   UNL     1      -2.191   0.244  -1.079  1.00  0.00    -0.272 OA
ATOM     19  N   UNL     1      -1.213   1.890  -2.270  1.00  0.00    -0.293 N 
ATOM     20  C   UNL     1       0.896   2.928  -1.525  1.00  0.00     0.222 C 
ATOM     21  C   UNL     1      -0.189   2.745  -2.578  1.00  0.00     0.246 C 
ATOM     22  H   UNL     1      -1.959   1.844  -2.910  1.00  0.00     0.173 HD
ATOM     23  O   UNL     1      -0.113   3.247  -3.698  1.00  0.00    -0.273 OA
ENDBRANCH  11  14
ENDBRANCH   6  10
ENDBRANCH   5   6
ENDBRANCH   3   5
ENDBRANCH   2   3
ENDBRANCH   1   2
BRANCH   1  24
ATOM     24  C   UNL     1       1.289   5.921   5.929  1.00  0.00     0.275 C 
BRANCH  24  25
ATOM     25  O   UNL     1       0.474   6.590   4.952  1.00  0.00    -0.458 OA
BRANCH  25  26
ATOM     26  C   UNL     1       0.658   6.151   3.684  1.00  0.00     0.338 C 
ATOM     27  O   UNL     1       1.458   5.308   3.319  1.00  0.00    -0.246 OA
BRANCH  26  28
ATOM     28  C   UNL     1      -0.391   6.716   2.822  1.00  0.00     0.060 A 
ATOM     29  C   UNL     1      -1.407   5.870   2.370  1.00  0.00     0.016 A 
ATOM     30  C   UNL     1      -0.363   8.058   2.445  1.00  0.00     0.016 A 
ATOM     31  C   UNL     1      -2.418   6.366   1.552  1.00  0.00     0.010 A 
ATOM     32  C   UNL     1      -1.381   8.556   1.626  1.00  0.00     0.010 A 
ATOM     33  C   UNL     1      -2.417   7.715   1.181  1.00  0.00    -0.014 A 
BRANCH  33  34
ATOM     34  C   UNL     1      -3.506   8.250   0.332  1.00  0.00     0.031 A 
ATOM     35  C   UNL     1      -3.247   8.580  -1.106  1.00  0.00     0.074 A 
ATOM     36  C   UNL     1      -4.727   8.443   0.865  1.00  0.00     0.049 A 
ATOM     37  N   UNL     1      -4.030   9.168  -1.974  1.00  0.00    -0.248 NA
ATOM     38  C   UNL     1      -1.930   8.199  -1.640  1.00  0.00     0.031 C 
ATOM     39  C   UNL     1      -5.108   8.116   2.239  1.00  0.00     0.029 A 
ATOM     40  N   UNL     1      -5.868   8.973   0.317  1.00  0.00    -0.354 N 
ATOM     41  C   UNL     1      -3.298   9.247  -3.149  1.00  0.00     0.074 A 
ATOM     42  C   UNL     1      -2.003   8.656  -2.883  1.00  0.00     0.031 C 
ATOM     43  C   UNL     1      -6.392   8.459   2.429  1.00  0.00     0.029 A 
ATOM     44  C   UNL     1      -6.905   9.077   1.210  1.00  0.00     0.049 A 
ATOM     45  H   UNL     1      -5.936   9.252  -0.625  1.00  0.00     0.167 HD
ATOM     46  C   UNL     1      -3.677   9.768  -4.340  1.00  0.00     0.037 A 
ATOM     47  C   UNL     1      -8.119   9.643   1.071  1.00  0.00     0.037 A 
ATOM     48  C   UNL     1      -4.973  10.341  -4.601  1.00  0.00     0.049 A 
ATOM     49  C   UNL     1      -8.488  10.277  -0.241  1.00  0.00     0.074 A 
ATOM     50  C   UNL     1      -5.461  10.868  -5.785  1.00  0.00     0.029 A 
ATOM     51  N   UNL     1      -5.985  10.464  -3.661  1.00  0.00    -0.354 N 
ATOM     52  N   UNL     1      -7.791  10.353  -1.348  1.00  0.00    -0.248 NA
ATOM     53  C   UNL     1      -9.809  10.917  -0.319  1.00  0.00     0.031 C 
ATOM     54  C   UNL     1      -6.754  11.350  -5.549  1.00  0.00     0.029 A 
ATOM     55  C   UNL     1      -7.087  11.084  -4.230  1.00  0.00     0.049 A 
ATOM     56  H   UNL     1      -5.930  10.157  -2.728  1.00  0.00     0.167 HD
ATOM     57  C   UNL     1      -8.589  11.034  -2.256  1.00  0.00     0.074 A 
ATOM     58  C   UNL     1      -9.832  11.335  -1.577  1.00  0.00     0.031 C 
ATOM     59  C   UNL     1      -8.315  11.380  -3.537  1.00  0.00     0.037 A 
BRANCH  46  60
ATOM     60  C   UNL     1      -2.667   9.772  -5.448  1.00  0.00     0.064 A 
ATOM     61  C   UNL     1      -2.317   8.599  -6.131  1.00  0.00     0.173 A 
ATOM     62  C   UNL     1      -2.075  10.976  -5.859  1.00  0.00     0.173 A 
ATOM     63  F   UNL     1      -2.850   7.423  -5.769  1.00  0.00    -0.203 F 
ATOM     64  C   UNL     1      -1.395   8.628  -7.175  1.00  0.00     0.198 A 
ATOM     65  C   UNL     1      -1.172  11.005  -6.918  1.00  0.00     0.198 A 
ATOM     66  F   UNL     1      -2.383  12.127  -5.242  1.00  0.00    -0.203 F 
ATOM     67  F   UNL     1      -1.049   7.491  -7.794  1.00  0.00    -0.200 F 
ATOM     68  C   UNL     1      -0.829   9.831  -7.571  1.00  0.00     0.200 A 
ATOM     69  F   UNL     1      -0.636  12.170  -7.309  1.00  0.00    -0.200 F 
ATOM     70  F   UNL     1       0.051   9.859  -8.582  1.00  0.00    -0.200 F 
ENDBRANCH  46  60
BRANCH  47  71
ATOM     71  C   UNL     1      -9.058   9.664   2.221  1.00  0.00     0.064 A 
ATOM     72  C   UNL     1     -10.228   8.893   2.212  1.00  0.00     0.173 A 
ATOM     73  C   UNL     1      -8.805  10.455   3.352  1.00  0.00     0.173 A 
ATOM     74  F   UNL     1     -10.526   8.143   1.141  1.00  0.00    -0.203 F 
ATOM     75  C   UNL     1     -11.114   8.920   3.287  1.00  0.00     0.198 A 
ATOM     76  C   UNL     1      -9.678  10.460   4.437  1.00  0.00     0.198 A 
ATOM     77  F   UNL     1      -7.701  11.214   3.407  1.00  0.00    -0.203 F 
ATOM     78  F   UNL     1     -12.245   8.203   3.237  1.00  0.00    -0.200 F 
ATOM     79  C   UNL     1     -10.835   9.697   4.401  1.00  0.00     0.200 A 
ATOM     80  F   UNL     1      -9.399  11.205   5.515  1.00  0.00    -0.200 F 
ATOM     81  F   UNL     1     -11.684   9.717   5.437  1.00  0.00    -0.200 F 
ENDBRANCH  47  71
BRANCH  59  82
ATOM     82  C   UNL     1      -9.385  12.111  -4.292  1.00  0.00     0.064 A 
ATOM     83  C   UNL     1      -9.671  13.459  -4.034  1.00  0.00     0.173 A 
ATOM     84  C   UNL     1     -10.108  11.466  -5.307  1.00  0.00     0.173 A 
ATOM     85  F   UNL     1      -9.019  14.113  -3.061  1.00  0.00    -0.203 F 
ATOM     86  C   UNL     1     -10.655  14.131  -4.754  1.00  0.00     0.198 A 
ATOM     87  C   UNL     1     -11.074  12.148  -6.041  1.00  0.00     0.198 A 
ATOM     88  F   UNL     1      -9.869  10.178  -5.593  1.00  0.00    -0.203 F 
ATOM     89  F   UNL     1     -10.941  15.408  -4.464  1.00  0.00    -0.200 F 
ATOM     90  C   UNL     1     -11.351  13.478  -5.760  1.00  0.00     0.200 A 
ATOM     91  F   UNL     1     -11.738  11.518  -7.020  1.00  0.00    -0.200 F 
ATOM     92  F   UNL     1     -12.294  14.128  -6.456  1.00  0.00    -0.200 F 
ENDBRANCH  59  82
ENDBRANCH  33  34
ENDBRANCH  26  28
ENDBRANCH  25  26
ENDBRANCH  24  25
ENDBRANCH   1  24
TORSDOF 14
