REMARK SMILES O=C(NCCC(=O)OCCOC(=O)c1ccc(-c2c3nc(c(-c4c(F)c(F)c(F)c(F)c4F)c4ccc([nH]4)c(-c4c(F)c(F)c(F)c(F)c4F)c4nc(c(-c5c(F)c(F)c(F)c(F)c5F)c5ccc2[nH]5)C=C4)C=C3)cc1)N[C@@H]1CCOC1
REMARK SMILES IDX 9 1 8 2 6 3 7 4 5 5 4 6 3 7 1 8 2 9 77 10 78 13 79 14 82 15
REMARK SMILES IDX 80 16 81 17 10 18 11 19 12 20 13 21 14 22 15 23 76 24 16 25
REMARK SMILES IDX 75 26 17 27 18 28 19 29 69 30 20 31 74 32 68 33 70 34 21 35
REMARK SMILES IDX 73 36 67 37 66 38 22 40 54 41 34 42 53 43 35 44 38 45 52 46
REMARK SMILES IDX 71 47 36 48 37 49 51 51 72 52 39 53 23 54 24 55 32 56 25 57
REMARK SMILES IDX 26 58 30 59 33 60 27 61 28 62 31 63 29 64 55 65 56 66 64 67
REMARK SMILES IDX 57 68 58 69 62 70 65 71 59 72 60 73 63 74 61 75 40 76 41 77
REMARK SMILES IDX 49 78 42 79 43 80 47 81 50 82 44 83 45 84 48 85 46 86
REMARK H PARENT 3 11 77 12 70 39 38 50
REMARK Flexibility Score: inf
ROOT
ATOM      1  C   UNL     1       2.740   3.092  -4.038  1.00  0.00     0.274 C 
ENDROOT
BRANCH   1   2
ATOM      2  O   UNL     1       3.018   2.036  -3.097  1.00  0.00    -0.462 OA
BRANCH   2   3
ATOM      3  C   UNL     1       4.100   1.257  -3.360  1.00  0.00     0.307 C 
ATOM      4  O   UNL     1       4.847   1.392  -4.322  1.00  0.00    -0.252 OA
BRANCH   3   5
ATOM      5  C   UNL     1       4.271   0.149  -2.349  1.00  0.00     0.144 C 
BRANCH   5   6
ATOM      6  C   UNL     1       4.166   0.626  -0.907  1.00  0.00     0.129 C 
BRANCH   6   7
ATOM      7  N   UNL     1       2.784   0.727  -0.477  1.00  0.00    -0.338 N 
ATOM      8  O   UNL     1       0.820   0.134   0.391  1.00  0.00    -0.249 OA
ATOM      9  C   UNL     1       2.015  -0.106   0.259  1.00  0.00     0.315 C 
ATOM     10  N   UNL     1       2.630  -1.179   0.819  1.00  0.00    -0.333 N 
ATOM     11  H   UNL     1       2.326   1.547  -0.773  1.00  0.00     0.165 HD
ATOM     12  H   UNL     1       3.604  -1.282   0.719  1.00  0.00     0.165 HD
BRANCH  10  13
ATOM     13  C   UNL     1       1.883  -2.185   1.566  1.00  0.00     0.112 C 
ATOM     14  C   UNL     1       2.723  -2.801   2.662  1.00  0.00     0.056 C 
ATOM     15  C   UNL     1       1.576  -3.395   0.694  1.00  0.00     0.185 C 
ATOM     16  C   UNL     1       3.480  -3.898   1.942  1.00  0.00     0.162 C 
ATOM     17  O   UNL     1       2.718  -4.267   0.784  1.00  0.00    -0.379 OA
ENDBRANCH  10  13
ENDBRANCH   6   7
ENDBRANCH   5   6
ENDBRANCH   3   5
ENDBRANCH   2   3
ENDBRANCH   1   2
BRANCH   1  18
ATOM     18  C   UNL     1       3.253   4.446  -3.541  1.00  0.00     0.275 C 
BRANCH  18  19
ATOM     19  O   UNL     1       4.691   4.492  -3.536  1.00  0.00    -0.458 OA
BRANCH  19  20
ATOM     20  C   UNL     1       5.270   4.221  -2.345  1.00  0.00     0.338 C 
ATOM     21  O   UNL     1       4.717   3.994  -1.284  1.00  0.00    -0.246 OA
BRANCH  20  22
ATOM     22  C   UNL     1       6.725   4.111  -2.518  1.00  0.00     0.060 A 
ATOM     23  C   UNL     1       7.321   2.858  -2.343  1.00  0.00     0.016 A 
ATOM     24  C   UNL     1       7.504   5.243  -2.761  1.00  0.00     0.016 A 
ATOM     25  C   UNL     1       8.706   2.733  -2.401  1.00  0.00     0.010 A 
ATOM     26  C   UNL     1       8.894   5.115  -2.824  1.00  0.00     0.010 A 
ATOM     27  C   UNL     1       9.503   3.862  -2.630  1.00  0.00    -0.014 A 
BRANCH  27  28
ATOM     28  C   UNL     1      10.979   3.736  -2.627  1.00  0.00     0.031 A 
ATOM     29  C   UNL     1      11.769   4.215  -1.444  1.00  0.00     0.074 A 
ATOM     30  C   UNL     1      11.606   3.182  -3.680  1.00  0.00     0.049 A 
ATOM     31  N   UNL     1      13.066   4.260  -1.276  1.00  0.00    -0.248 NA
ATOM     32  C   UNL     1      10.994   4.711  -0.296  1.00  0.00     0.031 C 
ATOM     33  C   UNL     1      10.943   2.651  -4.870  1.00  0.00     0.029 A 
ATOM     34  N   UNL     1      12.942   2.983  -3.920  1.00  0.00    -0.354 N 
ATOM     35  C   UNL     1      13.265   4.799  -0.013  1.00  0.00     0.074 A 
ATOM     36  C   UNL     1      11.956   5.084   0.537  1.00  0.00     0.031 C 
ATOM     37  C   UNL     1      11.876   2.191  -5.719  1.00  0.00     0.029 A 
ATOM     38  C   UNL     1      13.200   2.431  -5.150  1.00  0.00     0.049 A 
ATOM     39  H   UNL     1      13.647   3.214  -3.273  1.00  0.00     0.167 HD
ATOM     40  C   UNL     1      14.435   5.031   0.629  1.00  0.00     0.037 A 
ATOM     41  C   UNL     1      14.373   2.173  -5.757  1.00  0.00     0.037 A 
ATOM     42  C   UNL     1      15.735   4.741   0.082  1.00  0.00     0.049 A 
ATOM     43  C   UNL     1      15.659   2.487  -5.043  1.00  0.00     0.074 A 
ATOM     44  C   UNL     1      16.978   4.931   0.661  1.00  0.00     0.029 A 
ATOM     45  N   UNL     1      15.958   4.200  -1.175  1.00  0.00    -0.354 N 
ATOM     46  N   UNL     1      15.839   2.995  -3.848  1.00  0.00    -0.248 NA
ATOM     47  C   UNL     1      16.906   2.193  -5.764  1.00  0.00     0.031 C 
ATOM     48  C   UNL     1      17.955   4.537  -0.261  1.00  0.00     0.029 A 
ATOM     49  C   UNL     1      17.319   4.065  -1.398  1.00  0.00     0.049 A 
ATOM     50  H   UNL     1      15.253   3.949  -1.815  1.00  0.00     0.167 HD
ATOM     51  C   UNL     1      17.213   3.068  -3.667  1.00  0.00     0.074 A 
ATOM     52  C   UNL     1      17.822   2.537  -4.869  1.00  0.00     0.031 C 
ATOM     53  C   UNL     1      17.907   3.534  -2.600  1.00  0.00     0.037 A 
BRANCH  40  54
ATOM     54  C   UNL     1      14.362   5.651   1.992  1.00  0.00     0.064 A 
ATOM     55  C   UNL     1      13.945   4.917   3.112  1.00  0.00     0.173 A 
ATOM     56  C   UNL     1      14.745   6.987   2.185  1.00  0.00     0.173 A 
ATOM     57  F   UNL     1      13.555   3.641   2.975  1.00  0.00    -0.203 F 
ATOM     58  C   UNL     1      13.893   5.505   4.373  1.00  0.00     0.198 A 
ATOM     59  C   UNL     1      14.714   7.564   3.451  1.00  0.00     0.198 A 
ATOM     60  F   UNL     1      15.154   7.730   1.146  1.00  0.00    -0.203 F 
ATOM     61  F   UNL     1      13.454   4.797   5.423  1.00  0.00    -0.200 F 
ATOM     62  C   UNL     1      14.284   6.825   4.543  1.00  0.00     0.200 A 
ATOM     63  F   UNL     1      15.100   8.838   3.615  1.00  0.00    -0.200 F 
ATOM     64  F   UNL     1      14.237   7.388   5.758  1.00  0.00    -0.200 F 
ENDBRANCH  40  54
BRANCH  41  65
ATOM     65  C   UNL     1      14.381   1.600  -7.127  1.00  0.00     0.064 A 
ATOM     66  C   UNL     1      14.784   0.278  -7.354  1.00  0.00     0.173 A 
ATOM     67  C   UNL     1      13.983   2.364  -8.234  1.00  0.00     0.173 A 
ATOM     68  F   UNL     1      15.197  -0.482  -6.328  1.00  0.00    -0.203 F 
ATOM     69  C   UNL     1      14.797  -0.258  -8.640  1.00  0.00     0.198 A 
ATOM     70  C   UNL     1      13.973   1.820  -9.516  1.00  0.00     0.198 A 
ATOM     71  F   UNL     1      13.592   3.635  -8.067  1.00  0.00    -0.203 F 
ATOM     72  F   UNL     1      15.221  -1.513  -8.836  1.00  0.00    -0.200 F 
ATOM     73  C   UNL     1      14.385   0.511  -9.719  1.00  0.00     0.200 A 
ATOM     74  F   UNL     1      13.566   2.563 -10.553  1.00  0.00    -0.200 F 
ATOM     75  F   UNL     1      14.393  -0.006 -10.955  1.00  0.00    -0.200 F 
ENDBRANCH  41  65
BRANCH  53  76
ATOM     76  C   UNL     1      19.403   3.470  -2.677  1.00  0.00     0.064 A 
ATOM     77  C   UNL     1      20.135   4.362  -3.474  1.00  0.00     0.173 A 
ATOM     78  C   UNL     1      20.114   2.529  -1.917  1.00  0.00     0.173 A 
ATOM     79  F   UNL     1      19.498   5.268  -4.231  1.00  0.00    -0.203 F 
ATOM     80  C   UNL     1      21.525   4.302  -3.522  1.00  0.00     0.198 A 
ATOM     81  C   UNL     1      21.505   2.487  -1.949  1.00  0.00     0.198 A 
ATOM     82  F   UNL     1      19.459   1.657  -1.135  1.00  0.00    -0.203 F 
ATOM     83  F   UNL     1      22.202   5.138  -4.321  1.00  0.00    -0.200 F 
ATOM     84  C   UNL     1      22.209   3.369  -2.756  1.00  0.00     0.200 A 
ATOM     85  F   UNL     1      22.165   1.592  -1.202  1.00  0.00    -0.200 F 
ATOM     86  F   UNL     1      23.547   3.316  -2.800  1.00  0.00    -0.200 F 
ENDBRANCH  53  76
ENDBRANCH  27  28
ENDBRANCH  20  22
ENDBRANCH  19  20
ENDBRANCH  18  19
ENDBRANCH   1  18
TORSDOF 14
