REMARK SMILES Cc1c(-c2nn(-c3ccccc3)cc2/C=N/O)nnn1-c1ccc(C(=O)OCCOC(=O)c2ccc(-c3c4nc(c(-c5c(F)c(F)c(F)c(F)c5F)c5ccc([nH]5)c(-c5c(F)c(F)c(F)c(F)c5F)c5nc(c(-c6c(F)c(F)c(F)c(F)c6F)c6ccc3[nH]6)C=C5)C=C4)cc2)cc1
REMARK SMILES IDX 28 1 27 2 25 3 26 4 24 5 21 6 22 7 97 8 23 9 96 10 20 11
REMARK SMILES IDX 1 12 2 13 3 14 18 15 19 16 4 17 5 18 14 19 6 20 13 21 15 22
REMARK SMILES IDX 16 23 17 24 7 26 8 27 12 28 9 29 11 30 10 31 29 32 30 33
REMARK SMILES IDX 31 34 32 35 33 36 34 37 95 38 35 39 94 40 36 41 37 42 38 43
REMARK SMILES IDX 88 44 39 45 93 46 87 47 89 48 40 49 92 50 86 51 85 52 41 54
REMARK SMILES IDX 73 55 53 56 72 57 54 58 57 59 71 60 90 61 55 62 56 63 70 65
REMARK SMILES IDX 91 66 58 67 42 68 43 69 51 70 44 71 45 72 49 73 52 74 46 75
REMARK SMILES IDX 47 76 50 77 48 78 74 79 75 80 83 81 76 82 77 83 81 84 84 85
REMARK SMILES IDX 78 86 79 87 82 88 80 89 59 90 60 91 68 92 61 93 62 94 66 95
REMARK SMILES IDX 69 96 63 97 64 98 67 99 65 100
REMARK H PARENT 17 25 89 53 57 64
REMARK Flexibility Score: inf
ROOT
ATOM      1  C   UNL     1       6.588   2.336   4.803  1.00  0.00     0.275 C 
ENDROOT
BRANCH   1   2
ATOM      2  O   UNL     1       5.613   2.167   3.761  1.00  0.00    -0.458 OA
BRANCH   2   3
ATOM      3  C   UNL     1       4.354   2.601   4.059  1.00  0.00     0.338 C 
ATOM      4  O   UNL     1       3.961   2.980   5.136  1.00  0.00    -0.246 OA
BRANCH   3   5
ATOM      5  C   UNL     1       3.517   2.637   2.826  1.00  0.00     0.060 A 
ATOM      6  C   UNL     1       1.766   2.600   0.653  1.00  0.00     0.067 A 
ATOM      7  C   UNL     1       1.519   3.470   1.720  1.00  0.00     0.029 A 
ATOM      8  C   UNL     1       2.942   1.839   0.621  1.00  0.00     0.029 A 
ATOM      9  C   UNL     1       2.383   3.463   2.819  1.00  0.00     0.018 A 
ATOM     10  C   UNL     1       3.823   1.866   1.702  1.00  0.00     0.018 A 
BRANCH   6  11
ATOM     11  N   UNL     1       0.781   2.438  -0.350  1.00  0.00    -0.217 N 
ATOM     12  C   UNL     1       0.734  -0.105  -0.501  1.00  0.00     0.069 C 
ATOM     13  C   UNL     1       0.345   1.260  -0.931  1.00  0.00     0.071 A 
ATOM     14  C   UNL     1      -0.613   1.684  -1.831  1.00  0.00     0.137 A 
ATOM     15  N   UNL     1      -0.792   3.031  -1.731  1.00  0.00    -0.128 NA
ATOM     16  N   UNL     1       0.018   3.475  -0.774  1.00  0.00    -0.061 NA
BRANCH  14  17
ATOM     17  C   UNL     1      -1.439   0.850  -2.696  1.00  0.00     0.124 A 
ATOM     18  N   UNL     1      -2.480   0.153  -2.221  1.00  0.00    -0.165 NA
ATOM     19  C   UNL     1      -1.176   0.571  -4.057  1.00  0.00     0.044 A 
ATOM     20  N   UNL     1      -2.814  -0.678  -3.231  1.00  0.00    -0.240 N 
ATOM     21  C   UNL     1      -2.047  -0.460  -4.352  1.00  0.00     0.125 A 
BRANCH  19  22
ATOM     22  C   UNL     1      -0.238   1.146  -4.987  1.00  0.00     0.166 C 
ATOM     23  N   UNL     1       0.588   2.057  -4.593  1.00  0.00    -0.097 NA
BRANCH  23  24
ATOM     24  O   UNL     1       1.356   2.486  -5.682  1.00  0.00    -0.411 OA
ATOM     25  H   UNL     1       2.007   3.149  -5.563  1.00  0.00     0.330 HD
ENDBRANCH  23  24
ENDBRANCH  19  22
BRANCH  20  26
ATOM     26  C   UNL     1      -3.816  -1.661  -3.062  1.00  0.00     0.065 A 
ATOM     27  C   UNL     1      -4.936  -1.369  -2.273  1.00  0.00     0.028 A 
ATOM     28  C   UNL     1      -3.684  -2.917  -3.666  1.00  0.00     0.028 A 
ATOM     29  C   UNL     1      -5.942  -2.324  -2.122  1.00  0.00     0.002 A 
ATOM     30  C   UNL     1      -4.669  -3.886  -3.462  1.00  0.00     0.002 A 
ATOM     31  C   UNL     1      -5.803  -3.584  -2.706  1.00  0.00     0.000 A 
ENDBRANCH  20  26
ENDBRANCH  14  17
ENDBRANCH   6  11
ENDBRANCH   3   5
ENDBRANCH   2   3
ENDBRANCH   1   2
BRANCH   1  32
ATOM     32  C   UNL     1       7.270   3.695   4.716  1.00  0.00     0.275 C 
BRANCH  32  33
ATOM     33  O   UNL     1       6.376   4.754   5.055  1.00  0.00    -0.458 OA
BRANCH  33  34
ATOM     34  C   UNL     1       5.725   5.306   4.007  1.00  0.00     0.338 C 
ATOM     35  O   UNL     1       5.656   4.878   2.865  1.00  0.00    -0.246 OA
BRANCH  34  36
ATOM     36  C   UNL     1       5.264   6.646   4.374  1.00  0.00     0.060 A 
ATOM     37  C   UNL     1       4.425   7.309   3.472  1.00  0.00     0.016 A 
ATOM     38  C   UNL     1       5.903   7.317   5.425  1.00  0.00     0.016 A 
ATOM     39  C   UNL     1       4.362   8.686   3.519  1.00  0.00     0.010 A 
ATOM     40  C   UNL     1       5.851   8.688   5.462  1.00  0.00     0.010 A 
ATOM     41  C   UNL     1       5.143   9.357   4.462  1.00  0.00    -0.014 A 
BRANCH  41  42
ATOM     42  C   UNL     1       5.182  10.806   4.425  1.00  0.00     0.031 A 
ATOM     43  C   UNL     1       3.965  11.467   4.959  1.00  0.00     0.074 A 
ATOM     44  C   UNL     1       6.325  11.448   4.116  1.00  0.00     0.049 A 
ATOM     45  N   UNL     1       3.261  12.415   4.432  1.00  0.00    -0.248 NA
ATOM     46  C   UNL     1       3.412  10.939   6.220  1.00  0.00     0.031 C 
ATOM     47  C   UNL     1       7.650  10.858   3.886  1.00  0.00     0.029 A 
ATOM     48  N   UNL     1       6.577  12.784   4.082  1.00  0.00    -0.354 N 
ATOM     49  C   UNL     1       2.272  12.713   5.367  1.00  0.00     0.074 A 
ATOM     50  C   UNL     1       2.326  11.691   6.377  1.00  0.00     0.031 C 
ATOM     51  C   UNL     1       8.588  11.826   3.976  1.00  0.00     0.029 A 
ATOM     52  C   UNL     1       7.923  13.106   4.154  1.00  0.00     0.049 A 
ATOM     53  H   UNL     1       5.866  13.462   4.012  1.00  0.00     0.167 HD
ATOM     54  C   UNL     1       1.634  13.912   5.370  1.00  0.00     0.037 A 
ATOM     55  C   UNL     1       8.443  14.323   4.447  1.00  0.00     0.037 A 
ATOM     56  C   UNL     1       1.675  14.536   4.076  1.00  0.00     0.049 A 
ATOM     57  C   UNL     1       7.364  15.328   4.269  1.00  0.00     0.074 A 
ATOM     58  C   UNL     1       1.223  14.176   2.821  1.00  0.00     0.029 A 
ATOM     59  N   UNL     1       2.555  15.568   3.869  1.00  0.00    -0.354 N 
ATOM     60  N   UNL     1       6.849  15.661   3.118  1.00  0.00    -0.248 NA
ATOM     61  C   UNL     1       6.554  15.660   5.433  1.00  0.00     0.031 C 
ATOM     62  C   UNL     1       2.207  14.671   1.916  1.00  0.00     0.029 A 
ATOM     63  C   UNL     1       3.176  15.333   2.669  1.00  0.00     0.049 A 
ATOM     64  H   UNL     1       2.712  16.332   4.469  1.00  0.00     0.167 HD
ATOM     65  C   UNL     1       5.500  15.854   3.376  1.00  0.00     0.074 A 
ATOM     66  C   UNL     1       5.396  15.940   4.829  1.00  0.00     0.031 C 
ATOM     67  C   UNL     1       4.561  15.643   2.409  1.00  0.00     0.037 A 
BRANCH  54  68
ATOM     68  C   UNL     1       1.297  14.660   6.636  1.00  0.00     0.064 A 
ATOM     69  C   UNL     1       0.518  15.830   6.557  1.00  0.00     0.173 A 
ATOM     70  C   UNL     1       1.952  14.447   7.871  1.00  0.00     0.173 A 
ATOM     71  F   UNL     1      -0.129  16.145   5.425  1.00  0.00    -0.203 F 
ATOM     72  C   UNL     1       0.465  16.751   7.606  1.00  0.00     0.198 A 
ATOM     73  C   UNL     1       1.851  15.340   8.934  1.00  0.00     0.198 A 
ATOM     74  F   UNL     1       2.804  13.432   8.063  1.00  0.00    -0.203 F 
ATOM     75  F   UNL     1      -0.182  17.912   7.438  1.00  0.00    -0.200 F 
ATOM     76  C   UNL     1       1.136  16.509   8.791  1.00  0.00     0.200 A 
ATOM     77  F   UNL     1       2.525  15.094  10.067  1.00  0.00    -0.200 F 
ATOM     78  F   UNL     1       1.139  17.420   9.772  1.00  0.00    -0.200 F 
ENDBRANCH  54  68
BRANCH  55  79
ATOM     79  C   UNL     1       9.698  14.625   5.175  1.00  0.00     0.064 A 
ATOM     80  C   UNL     1      10.287  15.897   5.106  1.00  0.00     0.173 A 
ATOM     81  C   UNL     1      10.210  13.751   6.155  1.00  0.00     0.173 A 
ATOM     82  F   UNL     1       9.826  16.807   4.236  1.00  0.00    -0.203 F 
ATOM     83  C   UNL     1      11.316  16.276   5.975  1.00  0.00     0.198 A 
ATOM     84  C   UNL     1      11.246  14.125   7.012  1.00  0.00     0.198 A 
ATOM     85  F   UNL     1       9.655  12.549   6.366  1.00  0.00    -0.203 F 
ATOM     86  F   UNL     1      11.814  17.520   5.920  1.00  0.00    -0.200 F 
ATOM     87  C   UNL     1      11.790  15.392   6.931  1.00  0.00     0.200 A 
ATOM     88  F   UNL     1      11.669  13.271   7.954  1.00  0.00    -0.200 F 
ATOM     89  F   UNL     1      12.739  15.773   7.797  1.00  0.00    -0.200 F 
ENDBRANCH  55  79
BRANCH  67  90
ATOM     90  C   UNL     1       5.043  15.453   0.999  1.00  0.00     0.064 A 
ATOM     91  C   UNL     1       5.849  14.377   0.588  1.00  0.00     0.173 A 
ATOM     92  C   UNL     1       4.553  16.307   0.003  1.00  0.00     0.173 A 
ATOM     93  F   UNL     1       6.267  13.456   1.464  1.00  0.00    -0.203 F 
ATOM     94  C   UNL     1       6.188  14.197  -0.751  1.00  0.00     0.198 A 
ATOM     95  C   UNL     1       4.861  16.102  -1.339  1.00  0.00     0.198 A 
ATOM     96  F   UNL     1       3.729  17.316   0.328  1.00  0.00    -0.203 F 
ATOM     97  F   UNL     1       6.972  13.170  -1.114  1.00  0.00    -0.200 F 
ATOM     98  C   UNL     1       5.688  15.056  -1.714  1.00  0.00     0.200 A 
ATOM     99  F   UNL     1       4.334  16.905  -2.274  1.00  0.00    -0.200 F 
ATOM    100  F   UNL     1       5.980  14.858  -3.008  1.00  0.00    -0.200 F 
ENDBRANCH  67  90
ENDBRANCH  41  42
ENDBRANCH  34  36
ENDBRANCH  33  34
ENDBRANCH  32  33
ENDBRANCH   1  32
TORSDOF 16
