REMARK SMILES C[C@@H](C(=O)[C@H](C)[C@@H](C)C(=O)OCCOC(=O)c1ccc(-c2c3nc(c(-c4c(F)c(F)c(F)c(F)c4F)c4ccc([nH]4)c(-c4c(F)c(F)c(F)c(F)c4F)c4nc(c(-c5c(F)c(F)c(F)c(F)c5F)c5ccc2[nH]5)C=C4)C=C3)cc1)c1ccccc1
REMARK SMILES IDX 12 1 11 2 9 3 10 4 7 5 8 6 5 7 6 8 3 9 4 10 2 11 1 12 80 13
REMARK SMILES IDX 81 14 85 15 82 16 84 17 83 18 13 19 14 20 15 21 16 22 17 23
REMARK SMILES IDX 18 24 79 25 19 26 78 27 20 28 21 29 22 30 72 31 23 32 77 33
REMARK SMILES IDX 71 34 73 35 24 36 76 37 70 38 69 39 25 41 57 42 37 43 56 44
REMARK SMILES IDX 38 45 41 46 55 47 74 48 39 49 40 50 54 52 75 53 42 54 26 55
REMARK SMILES IDX 27 56 35 57 28 58 29 59 33 60 36 61 30 62 31 63 34 64 32 65
REMARK SMILES IDX 58 66 59 67 67 68 60 69 61 70 65 71 68 72 62 73 63 74 66 75
REMARK SMILES IDX 64 76 43 77 44 78 52 79 45 80 46 81 50 82 53 83 47 84 48 85
REMARK SMILES IDX 51 86 49 87
REMARK H PARENT 73 40 41 51
REMARK Flexibility Score: inf
ROOT
ATOM      1  C   UNL     1       6.285  -3.123   1.756  1.00  0.00     0.274 C 
ENDROOT
BRANCH   1   2
ATOM      2  O   UNL     1       4.902  -3.058   1.350  1.00  0.00    -0.462 OA
BRANCH   2   3
ATOM      3  C   UNL     1       4.288  -1.869   1.582  1.00  0.00     0.309 C 
ATOM      4  O   UNL     1       4.842  -0.887   2.066  1.00  0.00    -0.252 OA
BRANCH   3   5
ATOM      5  C   UNL     1       2.794  -1.875   1.276  1.00  0.00     0.106 C 
ATOM      6  C   UNL     1       2.084  -1.859   2.635  1.00  0.00     0.021 C 
BRANCH   5   7
ATOM      7  C   UNL     1       2.318  -3.023   0.338  1.00  0.00     0.067 C 
ATOM      8  C   UNL     1       0.791  -3.164   0.342  1.00  0.00     0.017 C 
BRANCH   7   9
ATOM      9  C   UNL     1       2.732  -2.771  -1.131  1.00  0.00     0.143 C 
ATOM     10  O   UNL     1       2.869  -1.595  -1.481  1.00  0.00    -0.299 OA
BRANCH   9  11
ATOM     11  C   UNL     1       2.715  -3.955  -2.155  1.00  0.00     0.083 C 
ATOM     12  C   UNL     1       3.033  -5.282  -1.442  1.00  0.00     0.021 C 
BRANCH  11  13
ATOM     13  C   UNL     1       3.540  -3.772  -3.453  1.00  0.00    -0.038 A 
ATOM     14  C   UNL     1       4.065  -4.881  -4.151  1.00  0.00     0.004 A 
ATOM     15  C   UNL     1       3.738  -2.517  -4.059  1.00  0.00     0.004 A 
ATOM     16  C   UNL     1       4.798  -4.741  -5.337  1.00  0.00     0.000 A 
ATOM     17  C   UNL     1       4.489  -2.370  -5.235  1.00  0.00     0.000 A 
ATOM     18  C   UNL     1       5.024  -3.481  -5.871  1.00  0.00     0.000 A 
ENDBRANCH  11  13
ENDBRANCH   9  11
ENDBRANCH   7   9
ENDBRANCH   5   7
ENDBRANCH   3   5
ENDBRANCH   2   3
ENDBRANCH   1   2
BRANCH   1  19
ATOM     19  C   UNL     1       7.242  -2.866   0.594  1.00  0.00     0.275 C 
BRANCH  19  20
ATOM     20  O   UNL     1       6.963  -1.601  -0.029  1.00  0.00    -0.458 OA
BRANCH  20  21
ATOM     21  C   UNL     1       6.345  -1.691  -1.231  1.00  0.00     0.338 C 
ATOM     22  O   UNL     1       6.076  -2.712  -1.835  1.00  0.00    -0.246 OA
BRANCH  21  23
ATOM     23  C   UNL     1       6.041  -0.340  -1.730  1.00  0.00     0.060 A 
ATOM     24  C   UNL     1       5.016   0.400  -1.141  1.00  0.00     0.016 A 
ATOM     25  C   UNL     1       6.715   0.159  -2.843  1.00  0.00     0.016 A 
ATOM     26  C   UNL     1       4.630   1.622  -1.681  1.00  0.00     0.010 A 
ATOM     27  C   UNL     1       6.378   1.422  -3.342  1.00  0.00     0.010 A 
ATOM     28  C   UNL     1       5.328   2.161  -2.767  1.00  0.00    -0.014 A 
BRANCH  28  29
ATOM     29  C   UNL     1       4.982   3.511  -3.275  1.00  0.00     0.031 A 
ATOM     30  C   UNL     1       4.411   3.686  -4.651  1.00  0.00     0.074 A 
ATOM     31  C   UNL     1       5.198   4.585  -2.492  1.00  0.00     0.049 A 
ATOM     32  N   UNL     1       4.221   4.788  -5.331  1.00  0.00    -0.248 NA
ATOM     33  C   UNL     1       4.002   2.463  -5.357  1.00  0.00     0.031 C 
ATOM     34  C   UNL     1       5.702   4.542  -1.118  1.00  0.00     0.029 A 
ATOM     35  N   UNL     1       5.033   5.925  -2.743  1.00  0.00    -0.354 N 
ATOM     36  C   UNL     1       3.708   4.392  -6.558  1.00  0.00     0.074 A 
ATOM     37  C   UNL     1       3.609   2.947  -6.529  1.00  0.00     0.031 C 
ATOM     38  C   UNL     1       5.805   5.794  -0.648  1.00  0.00     0.029 A 
ATOM     39  C   UNL     1       5.444   6.728  -1.708  1.00  0.00     0.049 A 
ATOM     40  H   UNL     1       4.657   6.275  -3.583  1.00  0.00     0.167 HD
ATOM     41  C   UNL     1       3.357   5.170  -7.609  1.00  0.00     0.037 A 
ATOM     42  C   UNL     1       5.566   8.066  -1.637  1.00  0.00     0.037 A 
ATOM     43  C   UNL     1       3.417   6.608  -7.616  1.00  0.00     0.049 A 
ATOM     44  C   UNL     1       5.218   8.899  -2.837  1.00  0.00     0.074 A 
ATOM     45  C   UNL     1       3.052   7.484  -8.624  1.00  0.00     0.029 A 
ATOM     46  N   UNL     1       3.867   7.384  -6.558  1.00  0.00    -0.354 N 
ATOM     47  N   UNL     1       4.766   8.516  -4.005  1.00  0.00    -0.248 NA
ATOM     48  C   UNL     1       5.416  10.350  -2.715  1.00  0.00     0.031 C 
ATOM     49  C   UNL     1       3.312   8.788  -8.189  1.00  0.00     0.029 A 
ATOM     50  C   UNL     1       3.808   8.726  -6.897  1.00  0.00     0.049 A 
ATOM     51  H   UNL     1       4.181   7.033  -5.693  1.00  0.00     0.167 HD
ATOM     52  C   UNL     1       4.621   9.674  -4.755  1.00  0.00     0.074 A 
ATOM     53  C   UNL     1       5.011  10.777  -3.903  1.00  0.00     0.031 C 
ATOM     54  C   UNL     1       4.207   9.809  -6.038  1.00  0.00     0.037 A 
BRANCH  41  55
ATOM     55  C   UNL     1       2.899   4.487  -8.861  1.00  0.00     0.064 A 
ATOM     56  C   UNL     1       1.610   3.951  -8.981  1.00  0.00     0.173 A 
ATOM     57  C   UNL     1       3.742   4.436  -9.982  1.00  0.00     0.173 A 
ATOM     58  F   UNL     1       0.771   3.969  -7.934  1.00  0.00    -0.203 F 
ATOM     59  C   UNL     1       1.182   3.383 -10.179  1.00  0.00     0.198 A 
ATOM     60  C   UNL     1       3.305   3.884 -11.182  1.00  0.00     0.198 A 
ATOM     61  F   UNL     1       4.983   4.941  -9.917  1.00  0.00    -0.203 F 
ATOM     62  F   UNL     1      -0.048   2.859 -10.269  1.00  0.00    -0.200 F 
ATOM     63  C   UNL     1       2.026   3.357 -11.280  1.00  0.00     0.200 A 
ATOM     64  F   UNL     1       4.118   3.870 -12.248  1.00  0.00    -0.200 F 
ATOM     65  F   UNL     1       1.607   2.823 -12.435  1.00  0.00    -0.200 F 
ENDBRANCH  41  55
BRANCH  42  66
ATOM     66  C   UNL     1       6.101   8.694  -0.403  1.00  0.00     0.064 A 
ATOM     67  C   UNL     1       5.280   9.464   0.430  1.00  0.00     0.173 A 
ATOM     68  C   UNL     1       7.446   8.538  -0.036  1.00  0.00     0.173 A 
ATOM     69  F   UNL     1       3.995   9.664   0.104  1.00  0.00    -0.203 F 
ATOM     70  C   UNL     1       5.788  10.066   1.579  1.00  0.00     0.198 A 
ATOM     71  C   UNL     1       7.946   9.118   1.127  1.00  0.00     0.198 A 
ATOM     72  F   UNL     1       8.273   7.813  -0.804  1.00  0.00    -0.203 F 
ATOM     73  F   UNL     1       4.993  10.834   2.337  1.00  0.00    -0.200 F 
ATOM     74  C   UNL     1       7.118   9.887   1.930  1.00  0.00     0.200 A 
ATOM     75  F   UNL     1       9.229   8.935   1.467  1.00  0.00    -0.200 F 
ATOM     76  F   UNL     1       7.605  10.465   3.037  1.00  0.00    -0.200 F 
ENDBRANCH  42  66
BRANCH  54  77
ATOM     77  C   UNL     1       4.148  11.201  -6.588  1.00  0.00     0.064 A 
ATOM     78  C   UNL     1       5.314  11.886  -6.960  1.00  0.00     0.173 A 
ATOM     79  C   UNL     1       2.916  11.847  -6.766  1.00  0.00     0.173 A 
ATOM     80  F   UNL     1       6.516  11.315  -6.789  1.00  0.00    -0.203 F 
ATOM     81  C   UNL     1       5.248  13.178  -7.474  1.00  0.00     0.198 A 
ATOM     82  C   UNL     1       2.853  13.130  -7.300  1.00  0.00     0.198 A 
ATOM     83  F   UNL     1       1.775  11.230  -6.425  1.00  0.00    -0.203 F 
ATOM     84  F   UNL     1       6.376  13.831  -7.786  1.00  0.00    -0.200 F 
ATOM     85  C   UNL     1       4.019  13.796  -7.648  1.00  0.00     0.200 A 
ATOM     86  F   UNL     1       1.665  13.724  -7.474  1.00  0.00    -0.200 F 
ATOM     87  F   UNL     1       3.958  15.040  -8.144  1.00  0.00    -0.200 F 
ENDBRANCH  54  77
ENDBRANCH  28  29
ENDBRANCH  21  23
ENDBRANCH  20  21
ENDBRANCH  19  20
ENDBRANCH   1  19
TORSDOF 15
