REMARK SMILES CCCOc1ccc(C[N@H+]2CC[C@H](C(=O)OCCOC(=O)c3ccc(-c4c5nc(c(-c6c(F)c(F)c(F)c(F)c6F)c6ccc([nH]6)c(-c6c(F)c(F)c(F)c(F)c6F)c6nc(c(-c7c(F)c(F)c(F)c(F)c7F)c7ccc4[nH]7)C=C6)C=C5)cc3)[C@@H]2C)cc1
REMARK SMILES IDX 16 1 14 2 15 3 13 4 10 5 11 6 85 7 12 9 86 10 9 11 8 12 5 13
REMARK SMILES IDX 6 14 88 15 7 16 87 17 4 18 3 19 2 20 1 21 17 22 18 23 19 24
REMARK SMILES IDX 20 25 21 26 22 27 23 28 84 29 24 30 83 31 25 32 26 33 27 34
REMARK SMILES IDX 77 35 28 36 82 37 76 38 78 39 29 40 81 41 75 42 74 43 30 45
REMARK SMILES IDX 62 46 42 47 61 48 43 49 46 50 60 51 79 52 44 53 45 54 59 56
REMARK SMILES IDX 80 57 47 58 31 59 32 60 40 61 33 62 34 63 38 64 41 65 35 66
REMARK SMILES IDX 36 67 39 68 37 69 63 70 64 71 72 72 65 73 66 74 70 75 73 76
REMARK SMILES IDX 67 77 68 78 71 79 69 80 48 81 49 82 57 83 50 84 51 85 55 86
REMARK SMILES IDX 58 87 52 88 53 89 56 90 54 91
REMARK H PARENT 10 8 78 44 46 55
REMARK Flexibility Score: inf
ROOT
ATOM      1  O   UNL     1      -3.174  -1.147   7.501  1.00  0.00    -0.462 OA
ENDROOT
BRANCH   1   2
ATOM      2  C   UNL     1      -2.706   0.034   7.002  1.00  0.00     0.315 C 
ATOM      3  O   UNL     1      -3.048   1.139   7.391  1.00  0.00    -0.252 OA
BRANCH   2   4
ATOM      4  C   UNL     1      -1.794  -0.227   5.822  1.00  0.00     0.162 C 
ATOM      5  N   UNL     1       0.082   1.305   5.753  1.00  0.00    -0.328 N 
ATOM      6  C   UNL     1      -1.080   1.945   5.116  1.00  0.00     0.263 C 
ATOM      7  C   UNL     1      -0.285  -0.104   6.036  1.00  0.00     0.195 C 
ATOM      8  H   UNL     1       0.299   1.775   6.632  1.00  0.00     0.348 HD
ATOM      9  C   UNL     1      -2.049   0.827   4.752  1.00  0.00     0.083 C 
ATOM     10  C   UNL     1       0.314  -0.637   7.326  1.00  0.00     0.076 C 
BRANCH   5  11
ATOM     11  C   UNL     1       1.350   1.473   4.993  1.00  0.00     0.299 C 
BRANCH  11  12
ATOM     12  C   UNL     1       1.460   0.598   3.754  1.00  0.00     0.006 A 
ATOM     13  C   UNL     1       0.942  -1.344   1.827  1.00  0.00     0.119 A 
ATOM     14  C   UNL     1       1.799  -1.645   2.881  1.00  0.00     0.047 A 
ATOM     15  C   UNL     1       0.405  -0.070   1.694  1.00  0.00     0.047 A 
ATOM     16  C   UNL     1       2.075  -0.666   3.837  1.00  0.00     0.013 A 
ATOM     17  C   UNL     1       0.715   0.920   2.616  1.00  0.00     0.013 A 
BRANCH  13  18
ATOM     18  O   UNL     1       0.503  -2.345   1.010  1.00  0.00    -0.494 OA
BRANCH  18  19
ATOM     19  C   UNL     1       1.194  -2.359  -0.242  1.00  0.00     0.229 C 
BRANCH  19  20
ATOM     20  C   UNL     1       0.448  -1.570  -1.323  1.00  0.00     0.038 C 
ATOM     21  C   UNL     1       0.973  -0.150  -1.523  1.00  0.00     0.007 C 
ENDBRANCH  19  20
ENDBRANCH  18  19
ENDBRANCH  13  18
ENDBRANCH  11  12
ENDBRANCH   5  11
ENDBRANCH   2   4
ENDBRANCH   1   2
BRANCH   1  22
ATOM     22  C   UNL     1      -4.220  -1.032   8.484  1.00  0.00     0.274 C 
BRANCH  22  23
ATOM     23  C   UNL     1      -3.654  -1.200   9.889  1.00  0.00     0.275 C 
BRANCH  23  24
ATOM     24  O   UNL     1      -2.717  -0.140  10.155  1.00  0.00    -0.458 OA
BRANCH  24  25
ATOM     25  C   UNL     1      -1.528  -0.529  10.661  1.00  0.00     0.338 C 
ATOM     26  O   UNL     1      -1.215  -1.662  11.007  1.00  0.00    -0.246 OA
BRANCH  25  27
ATOM     27  C   UNL     1      -0.572   0.597  10.714  1.00  0.00     0.060 A 
ATOM     28  C   UNL     1      -0.474   1.516   9.669  1.00  0.00     0.016 A 
ATOM     29  C   UNL     1       0.373   0.620  11.740  1.00  0.00     0.016 A 
ATOM     30  C   UNL     1       0.637   2.355   9.580  1.00  0.00     0.010 A 
ATOM     31  C   UNL     1       1.407   1.561  11.718  1.00  0.00     0.010 A 
ATOM     32  C   UNL     1       1.578   2.419  10.618  1.00  0.00    -0.014 A 
BRANCH  32  33
ATOM     33  C   UNL     1       2.729   3.371  10.577  1.00  0.00     0.031 A 
ATOM     34  C   UNL     1       4.137   2.888  10.827  1.00  0.00     0.074 A 
ATOM     35  C   UNL     1       2.521   4.687  10.365  1.00  0.00     0.049 A 
ATOM     36  N   UNL     1       5.211   3.575  11.134  1.00  0.00    -0.248 NA
ATOM     37  C   UNL     1       4.364   1.437  10.742  1.00  0.00     0.031 C 
ATOM     38  C   UNL     1       1.232   5.307  10.059  1.00  0.00     0.029 A 
ATOM     39  N   UNL     1       3.397   5.747  10.390  1.00  0.00    -0.354 N 
ATOM     40  C   UNL     1       6.216   2.639  11.350  1.00  0.00     0.074 A 
ATOM     41  C   UNL     1       5.628   1.334  11.130  1.00  0.00     0.031 C 
ATOM     42  C   UNL     1       1.402   6.625   9.893  1.00  0.00     0.029 A 
ATOM     43  C   UNL     1       2.784   6.963  10.203  1.00  0.00     0.049 A 
ATOM     44  H   UNL     1       4.366   5.646  10.528  1.00  0.00     0.167 HD
ATOM     45  C   UNL     1       7.507   2.854  11.708  1.00  0.00     0.037 A 
ATOM     46  C   UNL     1       3.249   8.219  10.338  1.00  0.00     0.037 A 
ATOM     47  C   UNL     1       8.101   4.160  11.860  1.00  0.00     0.049 A 
ATOM     48  C   UNL     1       4.668   8.434  10.774  1.00  0.00     0.074 A 
ATOM     49  C   UNL     1       9.409   4.482  12.186  1.00  0.00     0.029 A 
ATOM     50  N   UNL     1       7.431   5.362  11.682  1.00  0.00    -0.354 N 
ATOM     51  N   UNL     1       5.593   7.548  11.047  1.00  0.00    -0.248 NA
ATOM     52  C   UNL     1       5.101   9.828  10.942  1.00  0.00     0.031 C 
ATOM     53  C   UNL     1       9.517   5.875  12.250  1.00  0.00     0.029 A 
ATOM     54  C   UNL     1       8.293   6.425  11.909  1.00  0.00     0.049 A 
ATOM     55  H   UNL     1       6.483   5.448  11.431  1.00  0.00     0.167 HD
ATOM     56  C   UNL     1       6.719   8.272  11.408  1.00  0.00     0.074 A 
ATOM     57  C   UNL     1       6.368   9.673  11.297  1.00  0.00     0.031 C 
ATOM     58  C   UNL     1       7.934   7.815  11.799  1.00  0.00     0.037 A 
BRANCH  45  59
ATOM     59  C   UNL     1       8.369   1.657  12.002  1.00  0.00     0.064 A 
ATOM     60  C   UNL     1       8.819   0.791  10.996  1.00  0.00     0.173 A 
ATOM     61  C   UNL     1       8.807   1.415  13.316  1.00  0.00     0.173 A 
ATOM     62  F   UNL     1       8.428   0.970   9.726  1.00  0.00    -0.203 F 
ATOM     63  C   UNL     1       9.655  -0.284  11.296  1.00  0.00     0.198 A 
ATOM     64  C   UNL     1       9.668   0.360  13.607  1.00  0.00     0.198 A 
ATOM     65  F   UNL     1       8.418   2.219  14.317  1.00  0.00    -0.203 F 
ATOM     66  F   UNL     1      10.040  -1.123  10.324  1.00  0.00    -0.200 F 
ATOM     67  C   UNL     1      10.086  -0.494  12.598  1.00  0.00     0.200 A 
ATOM     68  F   UNL     1      10.097   0.172  14.862  1.00  0.00    -0.200 F 
ATOM     69  F   UNL     1      10.901  -1.519  12.880  1.00  0.00    -0.200 F 
ENDBRANCH  45  59
BRANCH  46  70
ATOM     70  C   UNL     1       2.330   9.365  10.114  1.00  0.00     0.064 A 
ATOM     71  C   UNL     1       2.497  10.218   9.015  1.00  0.00     0.173 A 
ATOM     72  C   UNL     1       1.245   9.609  10.972  1.00  0.00     0.173 A 
ATOM     73  F   UNL     1       3.535  10.043   8.184  1.00  0.00    -0.203 F 
ATOM     74  C   UNL     1       1.614  11.270   8.783  1.00  0.00     0.198 A 
ATOM     75  C   UNL     1       0.343  10.637  10.717  1.00  0.00     0.198 A 
ATOM     76  F   UNL     1       1.042   8.821  12.038  1.00  0.00    -0.203 F 
ATOM     77  F   UNL     1       1.816  12.092   7.744  1.00  0.00    -0.200 F 
ATOM     78  C   UNL     1       0.531  11.471   9.625  1.00  0.00     0.200 A 
ATOM     79  F   UNL     1      -0.714  10.813  11.522  1.00  0.00    -0.200 F 
ATOM     80  F   UNL     1      -0.330  12.469   9.387  1.00  0.00    -0.200 F 
ENDBRANCH  46  70
BRANCH  58  81
ATOM     81  C   UNL     1       8.983   8.845  12.098  1.00  0.00     0.064 A 
ATOM     82  C   UNL     1       8.923   9.648  13.247  1.00  0.00     0.173 A 
ATOM     83  C   UNL     1      10.068   9.025  11.226  1.00  0.00     0.173 A 
ATOM     84  F   UNL     1       7.895   9.527  14.101  1.00  0.00    -0.203 F 
ATOM     85  C   UNL     1       9.894  10.614  13.496  1.00  0.00     0.198 A 
ATOM     86  C   UNL     1      11.053   9.972  11.494  1.00  0.00     0.198 A 
ATOM     87  F   UNL     1      10.175   8.281  10.116  1.00  0.00    -0.203 F 
ATOM     88  F   UNL     1       9.786  11.409  14.570  1.00  0.00    -0.200 F 
ATOM     89  C   UNL     1      10.960  10.772  12.623  1.00  0.00     0.200 A 
ATOM     90  F   UNL     1      12.088  10.116  10.655  1.00  0.00    -0.200 F 
ATOM     91  F   UNL     1      11.893  11.704  12.863  1.00  0.00    -0.200 F 
ENDBRANCH  58  81
ENDBRANCH  32  33
ENDBRANCH  25  27
ENDBRANCH  24  25
ENDBRANCH  23  24
ENDBRANCH  22  23
ENDBRANCH   1  22
TORSDOF 16
