REMARK SMILES C[C@@H]1[NH2+]CC[C@H]1C(=O)NCc1cccc(C(=O)OCCOC(=O)c2ccc(-c3c4nc(c(-c5c(F)c(F)c(F)c(F)c5F)c5ccc([nH]5)c(-c5c(F)c(F)c(F)c(F)c5F)c5nc(c(-c6c(F)c(F)c(F)c(F)c6F)c6ccc3[nH]6)C=C5)C=C4)cc2)c1
REMARK SMILES IDX 19 1 18 2 16 3 17 4 15 5 11 6 12 7 87 8 13 9 14 10 10 11
REMARK SMILES IDX 9 12 7 13 8 14 6 16 1 17 2 18 3 19 4 20 5 23 20 24 21 25
REMARK SMILES IDX 22 26 23 27 24 28 25 29 86 30 26 31 85 32 27 33 28 34 29 35
REMARK SMILES IDX 79 36 30 37 84 38 78 39 80 40 31 41 83 42 77 43 76 44 32 46
REMARK SMILES IDX 64 47 44 48 63 49 45 50 48 51 62 52 81 53 46 54 47 55 61 57
REMARK SMILES IDX 82 58 49 59 33 60 34 61 42 62 35 63 36 64 40 65 43 66 37 67
REMARK SMILES IDX 38 68 41 69 39 70 65 71 66 72 74 73 67 74 68 75 72 76 75 77
REMARK SMILES IDX 69 78 70 79 73 80 71 81 50 82 51 83 59 84 52 85 53 86 57 87
REMARK SMILES IDX 60 88 54 89 55 90 58 91 56 92
REMARK H PARENT 9 15 3 21 3 22 80 45 48 56
REMARK Flexibility Score: inf
ROOT
ATOM      1  C   UNL     1       2.784   3.068   7.470  1.00  0.00     0.275 C 
ENDROOT
BRANCH   1   2
ATOM      2  O   UNL     1       2.052   2.298   6.496  1.00  0.00    -0.458 OA
BRANCH   2   3
ATOM      3  C   UNL     1       2.589   1.104   6.144  1.00  0.00     0.338 C 
ATOM      4  O   UNL     1       3.637   0.630   6.554  1.00  0.00    -0.246 OA
BRANCH   3   5
ATOM      5  C   UNL     1       1.656   0.356   5.260  1.00  0.00     0.060 A 
ATOM      6  C   UNL     1      -0.273   0.233   3.780  1.00  0.00    -0.028 A 
ATOM      7  C   UNL     1      -0.172  -1.167   3.796  1.00  0.00     0.005 A 
ATOM      8  C   UNL     1       0.624   0.986   4.556  1.00  0.00     0.021 A 
ATOM      9  C   UNL     1       0.872  -1.797   4.469  1.00  0.00     0.001 A 
ATOM     10  C   UNL     1       1.803  -1.035   5.170  1.00  0.00     0.016 A 
BRANCH   6  11
ATOM     11  C   UNL     1      -1.346   0.897   2.951  1.00  0.00     0.151 C 
BRANCH  11  12
ATOM     12  N   UNL     1      -0.871   2.101   2.296  1.00  0.00    -0.352 N 
ATOM     13  C   UNL     1      -0.316   2.327   1.079  1.00  0.00     0.229 C 
ATOM     14  O   UNL     1       0.091   3.474   0.863  1.00  0.00    -0.275 OA
ATOM     15  H   UNL     1      -0.972   2.915   2.841  1.00  0.00     0.163 HD
BRANCH  13  16
ATOM     16  C   UNL     1      -0.191   1.269  -0.007  1.00  0.00     0.142 C 
ATOM     17  C   UNL     1       1.960   0.028  -0.534  1.00  0.00     0.076 C 
ATOM     18  C   UNL     1       0.713   0.088   0.350  1.00  0.00     0.192 C 
ATOM     19  N   UNL     1      -0.084  -1.135   0.139  1.00  0.00    -0.343 N 
ATOM     20  C   UNL     1      -1.179  -0.777  -0.764  1.00  0.00     0.261 C 
ATOM     21  H   UNL     1      -0.457  -1.469   1.027  1.00  0.00     0.346 HD
ATOM     22  H   UNL     1       0.488  -1.880  -0.259  1.00  0.00     0.346 HD
ATOM     23  C   UNL     1      -1.512   0.670  -0.464  1.00  0.00     0.081 C 
ENDBRANCH  13  16
ENDBRANCH  11  12
ENDBRANCH   6  11
ENDBRANCH   3   5
ENDBRANCH   2   3
ENDBRANCH   1   2
BRANCH   1  24
ATOM     24  C   UNL     1       2.105   2.993   8.838  1.00  0.00     0.275 C 
BRANCH  24  25
ATOM     25  O   UNL     1       2.223   1.666   9.384  1.00  0.00    -0.458 OA
BRANCH  25  26
ATOM     26  C   UNL     1       1.075   0.955   9.455  1.00  0.00     0.338 C 
ATOM     27  O   UNL     1      -0.053   1.317   9.174  1.00  0.00    -0.246 OA
BRANCH  26  28
ATOM     28  C   UNL     1       1.395  -0.430   9.832  1.00  0.00     0.060 A 
ATOM     29  C   UNL     1       1.567  -1.355   8.806  1.00  0.00     0.016 A 
ATOM     30  C   UNL     1       1.412  -0.841  11.164  1.00  0.00     0.016 A 
ATOM     31  C   UNL     1       1.739  -2.705   9.094  1.00  0.00     0.010 A 
ATOM     32  C   UNL     1       1.609  -2.198  11.457  1.00  0.00     0.010 A 
ATOM     33  C   UNL     1       1.753  -3.144  10.424  1.00  0.00    -0.014 A 
BRANCH  33  34
ATOM     34  C   UNL     1       1.829  -4.600  10.714  1.00  0.00     0.031 A 
ATOM     35  C   UNL     1       0.632  -5.313  11.282  1.00  0.00     0.074 A 
ATOM     36  C   UNL     1       2.941  -5.299  10.418  1.00  0.00     0.049 A 
ATOM     37  N   UNL     1       0.519  -6.553  11.687  1.00  0.00    -0.248 NA
ATOM     38  C   UNL     1      -0.602  -4.524  11.413  1.00  0.00     0.031 C 
ATOM     39  C   UNL     1       4.151  -4.745   9.811  1.00  0.00     0.029 A 
ATOM     40  N   UNL     1       3.229  -6.633  10.579  1.00  0.00    -0.354 N 
ATOM     41  C   UNL     1      -0.780  -6.680  12.161  1.00  0.00     0.074 A 
ATOM     42  C   UNL     1      -1.418  -5.391  11.995  1.00  0.00     0.031 C 
ATOM     43  C   UNL     1       5.041  -5.734   9.628  1.00  0.00     0.029 A 
ATOM     44  C   UNL     1       4.489  -6.979  10.157  1.00  0.00     0.049 A 
ATOM     45  H   UNL     1       2.592  -7.279  10.961  1.00  0.00     0.167 HD
ATOM     46  C   UNL     1      -1.385  -7.771  12.687  1.00  0.00     0.037 A 
ATOM     47  C   UNL     1       5.136  -8.159  10.213  1.00  0.00     0.037 A 
ATOM     48  C   UNL     1      -0.769  -9.066  12.809  1.00  0.00     0.049 A 
ATOM     49  C   UNL     1       4.449  -9.351  10.820  1.00  0.00     0.074 A 
ATOM     50  C   UNL     1      -1.305 -10.234  13.325  1.00  0.00     0.029 A 
ATOM     51  N   UNL     1       0.519  -9.368  12.395  1.00  0.00    -0.354 N 
ATOM     52  N   UNL     1       3.237  -9.448  11.309  1.00  0.00    -0.248 NA
ATOM     53  C   UNL     1       5.227 -10.597  10.897  1.00  0.00     0.031 C 
ATOM     54  C   UNL     1      -0.332 -11.236  13.249  1.00  0.00     0.029 A 
ATOM     55  C   UNL     1       0.798 -10.702  12.650  1.00  0.00     0.049 A 
ATOM     56  H   UNL     1       1.144  -8.730  11.980  1.00  0.00     0.167 HD
ATOM     57  C   UNL     1       3.102 -10.761  11.737  1.00  0.00     0.074 A 
ATOM     58  C   UNL     1       4.348 -11.432  11.434  1.00  0.00     0.031 C 
ATOM     59  C   UNL     1       2.041 -11.356  12.335  1.00  0.00     0.037 A 
BRANCH  46  60
ATOM     60  C   UNL     1      -2.783  -7.605  13.204  1.00  0.00     0.064 A 
ATOM     61  C   UNL     1      -3.882  -7.483  12.342  1.00  0.00     0.173 A 
ATOM     62  C   UNL     1      -3.026  -7.601  14.586  1.00  0.00     0.173 A 
ATOM     63  F   UNL     1      -3.699  -7.466  11.014  1.00  0.00    -0.203 F 
ATOM     64  C   UNL     1      -5.173  -7.341  12.847  1.00  0.00     0.198 A 
ATOM     65  C   UNL     1      -4.320  -7.483  15.086  1.00  0.00     0.198 A 
ATOM     66  F   UNL     1      -2.008  -7.718  15.452  1.00  0.00    -0.203 F 
ATOM     67  F   UNL     1      -6.205  -7.184  12.006  1.00  0.00    -0.200 F 
ATOM     68  C   UNL     1      -5.391  -7.347  14.216  1.00  0.00     0.200 A 
ATOM     69  F   UNL     1      -4.529  -7.500  16.410  1.00  0.00    -0.200 F 
ATOM     70  F   UNL     1      -6.634  -7.215  14.699  1.00  0.00    -0.200 F 
ENDBRANCH  46  60
BRANCH  47  71
ATOM     71  C   UNL     1       6.525  -8.266   9.696  1.00  0.00     0.064 A 
ATOM     72  C   UNL     1       6.810  -9.004   8.539  1.00  0.00     0.173 A 
ATOM     73  C   UNL     1       7.595  -7.639  10.352  1.00  0.00     0.173 A 
ATOM     74  F   UNL     1       5.825  -9.645   7.894  1.00  0.00    -0.203 F 
ATOM     75  C   UNL     1       8.115  -9.117   8.062  1.00  0.00     0.198 A 
ATOM     76  C   UNL     1       8.894  -7.731   9.860  1.00  0.00     0.198 A 
ATOM     77  F   UNL     1       7.374  -6.927  11.467  1.00  0.00    -0.203 F 
ATOM     78  F   UNL     1       8.367  -9.861   6.977  1.00  0.00    -0.200 F 
ATOM     79  C   UNL     1       9.154  -8.475   8.719  1.00  0.00     0.200 A 
ATOM     80  F   UNL     1       9.894  -7.101  10.491  1.00  0.00    -0.200 F 
ATOM     81  F   UNL     1      10.408  -8.580   8.257  1.00  0.00    -0.200 F 
ENDBRANCH  47  71
BRANCH  59  82
ATOM     82  C   UNL     1       2.171 -12.811  12.676  1.00  0.00     0.064 A 
ATOM     83  C   UNL     1       2.950 -13.242  13.759  1.00  0.00     0.173 A 
ATOM     84  C   UNL     1       1.480 -13.779  11.933  1.00  0.00     0.173 A 
ATOM     85  F   UNL     1       3.642 -12.354  14.489  1.00  0.00    -0.203 F 
ATOM     86  C   UNL     1       3.048 -14.595  14.074  1.00  0.00     0.198 A 
ATOM     87  C   UNL     1       1.561 -15.128  12.265  1.00  0.00     0.198 A 
ATOM     88  F   UNL     1       0.718 -13.415  10.891  1.00  0.00    -0.203 F 
ATOM     89  F   UNL     1       3.828 -14.990  15.090  1.00  0.00    -0.200 F 
ATOM     90  C   UNL     1       2.349 -15.536  13.332  1.00  0.00     0.200 A 
ATOM     91  F   UNL     1       0.879 -16.035  11.553  1.00  0.00    -0.200 F 
ATOM     92  F   UNL     1       2.442 -16.837  13.639  1.00  0.00    -0.200 F 
ENDBRANCH  59  82
ENDBRANCH  33  34
ENDBRANCH  26  28
ENDBRANCH  25  26
ENDBRANCH  24  25
ENDBRANCH   1  24
TORSDOF 14
