REMARK SMILES Cc1noc(C)c1COc1ccc(C(=O)OCCOC(=O)c2ccc(-c3c4nc(c(-c5c(F)c(F)c(F)c(F)c5F)c5ccc([nH]5)c(-c5c(F)c(F)c(F)c(F)c5F)c5nc(c(-c6c(F)c(F)c(F)c(F)c6F)c6ccc3[nH]6)C=C5)C=C4)cc2)cc1
REMARK SMILES IDX 17 1 16 2 14 3 15 4 13 5 10 6 11 7 86 8 12 9 85 10 9 11 8 12
REMARK SMILES IDX 7 13 1 14 2 15 3 16 4 17 5 18 6 19 18 20 19 21 20 22 21 23
REMARK SMILES IDX 22 24 23 25 84 26 24 27 83 28 25 29 26 30 27 31 77 32 28 33
REMARK SMILES IDX 82 34 76 35 78 36 29 37 81 38 75 39 74 40 30 42 62 43 42 44
REMARK SMILES IDX 61 45 43 46 46 47 60 48 79 49 44 50 45 51 59 53 80 54 47 55
REMARK SMILES IDX 31 56 32 57 40 58 33 59 34 60 38 61 41 62 35 63 36 64 39 65
REMARK SMILES IDX 37 66 63 67 64 68 72 69 65 70 66 71 70 72 73 73 67 74 68 75
REMARK SMILES IDX 71 76 69 77 48 78 49 79 57 80 50 81 51 82 55 83 58 84 52 85
REMARK SMILES IDX 53 86 56 87 54 88
REMARK H PARENT 78 41 46 52
REMARK Flexibility Score: inf
ROOT
ATOM      1  C   UNL     1       2.327   0.325  -7.745  1.00  0.00     0.275 C 
ENDROOT
BRANCH   1   2
ATOM      2  O   UNL     1       1.747   0.540  -6.444  1.00  0.00    -0.458 OA
BRANCH   2   3
ATOM      3  C   UNL     1       2.033   1.724  -5.851  1.00  0.00     0.338 C 
ATOM      4  O   UNL     1       2.764   2.599  -6.286  1.00  0.00    -0.246 OA
BRANCH   3   5
ATOM      5  C   UNL     1       1.247   1.883  -4.600  1.00  0.00     0.060 A 
ATOM      6  C   UNL     1      -0.250   2.298  -2.287  1.00  0.00     0.119 A 
ATOM      7  C   UNL     1       0.333   3.388  -2.924  1.00  0.00     0.047 A 
ATOM      8  C   UNL     1      -0.127   1.012  -2.813  1.00  0.00     0.047 A 
ATOM      9  C   UNL     1       1.102   3.176  -4.067  1.00  0.00     0.019 A 
ATOM     10  C   UNL     1       0.629   0.800  -3.965  1.00  0.00     0.019 A 
BRANCH   6  11
ATOM     11  O   UNL     1      -0.990   2.511  -1.157  1.00  0.00    -0.489 OA
BRANCH  11  12
ATOM     12  C   UNL     1      -0.190   2.314   0.025  1.00  0.00     0.271 C 
BRANCH  12  13
ATOM     13  C   UNL     1      -0.089   0.886   0.421  1.00  0.00     0.055 A 
ATOM     14  C   UNL     1      -2.609   0.217   0.560  1.00  0.00     0.071 C 
ATOM     15  C   UNL     1      -1.151  -0.029   0.659  1.00  0.00     0.087 A 
ATOM     16  N   UNL     1      -0.688  -1.246   0.967  1.00  0.00    -0.085 NA
ATOM     17  O   UNL     1       0.689  -1.149   0.916  1.00  0.00    -0.361 OA
ATOM     18  C   UNL     1       1.044   0.117   0.576  1.00  0.00     0.140 A 
ATOM     19  C   UNL     1       2.489   0.373   0.424  1.00  0.00     0.091 C 
ENDBRANCH  12  13
ENDBRANCH  11  12
ENDBRANCH   6  11
ENDBRANCH   3   5
ENDBRANCH   2   3
ENDBRANCH   1   2
BRANCH   1  20
ATOM     20  C   UNL     1       1.293   0.589  -8.836  1.00  0.00     0.275 C 
BRANCH  20  21
ATOM     21  O   UNL     1       0.935   1.984  -8.835  1.00  0.00    -0.458 OA
BRANCH  21  22
ATOM     22  C   UNL     1      -0.377   2.259  -8.658  1.00  0.00     0.338 C 
ATOM     23  O   UNL     1      -1.304   1.475  -8.566  1.00  0.00    -0.246 OA
BRANCH  22  24
ATOM     24  C   UNL     1      -0.551   3.716  -8.566  1.00  0.00     0.060 A 
ATOM     25  C   UNL     1      -0.153   4.375  -7.404  1.00  0.00     0.016 A 
ATOM     26  C   UNL     1      -1.210   4.410  -9.579  1.00  0.00     0.016 A 
ATOM     27  C   UNL     1      -0.451   5.724  -7.226  1.00  0.00     0.010 A 
ATOM     28  C   UNL     1      -1.456   5.779  -9.425  1.00  0.00     0.010 A 
ATOM     29  C   UNL     1      -1.104   6.445  -8.235  1.00  0.00    -0.014 A 
BRANCH  29  30
ATOM     30  C   UNL     1      -1.479   7.870  -8.022  1.00  0.00     0.031 A 
ATOM     31  C   UNL     1      -2.929   8.271  -8.012  1.00  0.00     0.074 A 
ATOM     32  C   UNL     1      -0.533   8.807  -7.816  1.00  0.00     0.049 A 
ATOM     33  N   UNL     1      -3.462   9.468  -8.016  1.00  0.00    -0.248 NA
ATOM     34  C   UNL     1      -3.914   7.178  -8.007  1.00  0.00     0.031 C 
ATOM     35  C   UNL     1       0.906   8.558  -7.745  1.00  0.00     0.029 A 
ATOM     36  N   UNL     1      -0.645  10.163  -7.622  1.00  0.00    -0.354 N 
ATOM     37  C   UNL     1      -4.835   9.272  -8.076  1.00  0.00     0.074 A 
ATOM     38  C   UNL     1      -5.058   7.842  -8.098  1.00  0.00     0.031 C 
ATOM     39  C   UNL     1       1.541   9.713  -7.493  1.00  0.00     0.029 A 
ATOM     40  C   UNL     1       0.563  10.797  -7.461  1.00  0.00     0.049 A 
ATOM     41  H   UNL     1      -1.508  10.636  -7.600  1.00  0.00     0.167 HD
ATOM     42  C   UNL     1      -5.820  10.202  -8.112  1.00  0.00     0.037 A 
ATOM     43  C   UNL     1       0.856  12.106  -7.338  1.00  0.00     0.037 A 
ATOM     44  C   UNL     1      -5.603  11.622  -8.026  1.00  0.00     0.049 A 
ATOM     45  C   UNL     1      -0.254  13.120  -7.391  1.00  0.00     0.074 A 
ATOM     46  C   UNL     1      -6.539  12.642  -8.045  1.00  0.00     0.029 A 
ATOM     47  N   UNL     1      -4.362  12.223  -7.882  1.00  0.00    -0.354 N 
ATOM     48  N   UNL     1      -1.544  12.929  -7.516  1.00  0.00    -0.248 NA
ATOM     49  C   UNL     1       0.137  14.535  -7.306  1.00  0.00     0.031 C 
ATOM     50  C   UNL     1      -5.862  13.862  -7.937  1.00  0.00     0.029 A 
ATOM     51  C   UNL     1      -4.507  13.599  -7.815  1.00  0.00     0.049 A 
ATOM     52  H   UNL     1      -3.504  11.742  -7.834  1.00  0.00     0.167 HD
ATOM     53  C   UNL     1      -2.119  14.192  -7.519  1.00  0.00     0.074 A 
ATOM     54  C   UNL     1      -1.039  15.144  -7.361  1.00  0.00     0.031 C 
ATOM     55  C   UNL     1      -3.424  14.532  -7.651  1.00  0.00     0.037 A 
BRANCH  42  56
ATOM     56  C   UNL     1      -7.228   9.714  -8.287  1.00  0.00     0.064 A 
ATOM     57  C   UNL     1      -7.936   9.100  -7.246  1.00  0.00     0.173 A 
ATOM     58  C   UNL     1      -7.889   9.903  -9.511  1.00  0.00     0.173 A 
ATOM     59  F   UNL     1      -7.343   8.884  -6.062  1.00  0.00    -0.203 F 
ATOM     60  C   UNL     1      -9.249   8.673  -7.429  1.00  0.00     0.198 A 
ATOM     61  C   UNL     1      -9.209   9.499  -9.683  1.00  0.00     0.198 A 
ATOM     62  F   UNL     1      -7.256  10.492 -10.538  1.00  0.00    -0.203 F 
ATOM     63  F   UNL     1      -9.896   8.053  -6.433  1.00  0.00    -0.200 F 
ATOM     64  C   UNL     1      -9.886   8.879  -8.644  1.00  0.00     0.200 A 
ATOM     65  F   UNL     1      -9.826   9.708 -10.854  1.00  0.00    -0.200 F 
ATOM     66  F   UNL     1     -11.153   8.474  -8.816  1.00  0.00    -0.200 F 
ENDBRANCH  42  56
BRANCH  43  67
ATOM     67  C   UNL     1       2.270  12.535  -7.188  1.00  0.00     0.064 A 
ATOM     68  C   UNL     1       2.737  13.067  -5.979  1.00  0.00     0.173 A 
ATOM     69  C   UNL     1       3.183  12.416  -8.246  1.00  0.00     0.173 A 
ATOM     70  F   UNL     1       1.895  13.227  -4.948  1.00  0.00    -0.203 F 
ATOM     71  C   UNL     1       4.064  13.468  -5.835  1.00  0.00     0.198 A 
ATOM     72  C   UNL     1       4.516  12.792  -8.092  1.00  0.00     0.198 A 
ATOM     73  F   UNL     1       2.784  11.918  -9.425  1.00  0.00    -0.203 F 
ATOM     74  F   UNL     1       4.477  14.007  -4.680  1.00  0.00    -0.200 F 
ATOM     75  C   UNL     1       4.954  13.322  -6.889  1.00  0.00     0.200 A 
ATOM     76  F   UNL     1       5.374  12.637  -9.109  1.00  0.00    -0.200 F 
ATOM     77  F   UNL     1       6.232  13.698  -6.746  1.00  0.00    -0.200 F 
ENDBRANCH  43  67
BRANCH  55  78
ATOM     78  C   UNL     1      -3.759  15.992  -7.603  1.00  0.00     0.064 A 
ATOM     79  C   UNL     1      -3.500  16.837  -8.692  1.00  0.00     0.173 A 
ATOM     80  C   UNL     1      -4.378  16.543  -6.472  1.00  0.00     0.173 A 
ATOM     81  F   UNL     1      -2.895  16.359  -9.789  1.00  0.00    -0.203 F 
ATOM     82  C   UNL     1      -3.832  18.188  -8.641  1.00  0.00     0.198 A 
ATOM     83  C   UNL     1      -4.728  17.889  -6.433  1.00  0.00     0.198 A 
ATOM     84  F   UNL     1      -4.649  15.772  -5.407  1.00  0.00    -0.203 F 
ATOM     85  F   UNL     1      -3.542  18.988  -9.677  1.00  0.00    -0.200 F 
ATOM     86  C   UNL     1      -4.451  18.712  -7.514  1.00  0.00     0.200 A 
ATOM     87  F   UNL     1      -5.332  18.392  -5.347  1.00  0.00    -0.200 F 
ATOM     88  F   UNL     1      -4.772  20.012  -7.468  1.00  0.00    -0.200 F 
ENDBRANCH  55  78
ENDBRANCH  29  30
ENDBRANCH  22  24
ENDBRANCH  21  22
ENDBRANCH  20  21
ENDBRANCH   1  20
TORSDOF 14
