REMARK SMILES Cc1ccc(C)c(/C=C2\SC(=S)N(CC(=O)OCCOC(=O)c3ccc(-c4c5nc(c(-c6c(F)c(F)c(F)c(F)c6F)c6ccc([nH]6)c(-c6c(F)c(F)c(F)c(F)c6F)c6nc(c(-c7c(F)c(F)c(F)c(F)c7F)c7ccc4[nH]7)C=C6)C=C5)cc3)C2=O)c1
REMARK SMILES IDX 18 1 17 2 15 3 16 4 14 5 13 6 8 7 9 8 10 9 86 10 11 11 87 12
REMARK SMILES IDX 12 13 7 14 1 15 2 16 3 17 88 18 4 19 5 20 6 21 19 22 20 23
REMARK SMILES IDX 21 24 22 25 23 26 24 27 85 28 25 29 84 30 26 31 27 32 28 33
REMARK SMILES IDX 78 34 29 35 83 36 77 37 79 38 30 39 82 40 76 41 75 42 31 44
REMARK SMILES IDX 63 45 43 46 62 47 44 48 47 49 61 50 80 51 45 52 46 53 60 55
REMARK SMILES IDX 81 56 48 57 32 58 33 59 41 60 34 61 35 62 39 63 42 64 36 65
REMARK SMILES IDX 37 66 40 67 38 68 64 69 65 70 73 71 66 72 67 73 71 74 74 75
REMARK SMILES IDX 68 76 69 77 72 78 70 79 49 80 50 81 58 82 51 83 52 84 56 85
REMARK SMILES IDX 59 86 53 87 54 88 57 89 55 90
REMARK H PARENT 79 43 47 54
REMARK Flexibility Score: inf
ROOT
ATOM      1  C   UNL     1      -7.560   5.529  -2.642  1.00  0.00     0.274 C 
ENDROOT
BRANCH   1   2
ATOM      2  O   UNL     1      -6.414   5.784  -3.446  1.00  0.00    -0.461 OA
BRANCH   2   3
ATOM      3  C   UNL     1      -5.496   6.770  -2.954  1.00  0.00     0.326 C 
ATOM      4  O   UNL     1      -6.208   7.647  -2.401  1.00  0.00    -0.250 OA
BRANCH   3   5
ATOM      5  C   UNL     1      -3.324   6.616  -3.228  1.00  0.00     0.250 C 
BRANCH   5   6
ATOM      6  N   UNL     1      -2.122   5.413  -2.835  1.00  0.00    -0.282 N 
ATOM      7  C   UNL     1      -1.238   2.820  -0.455  1.00  0.00     0.029 C 
ATOM      8  C   UNL     1      -1.145   3.680  -1.493  1.00  0.00     0.081 C 
ATOM      9  S   UNL     1      -0.405   3.447  -3.018  1.00  0.00    -0.054 SA
ATOM     10  C   UNL     1      -1.779   5.044  -1.528  1.00  0.00     0.266 C 
ATOM     11  C   UNL     1      -1.198   4.883  -3.716  1.00  0.00     0.148 C 
ATOM     12  O   UNL     1      -1.885   5.731  -0.523  1.00  0.00    -0.268 OA
ATOM     13  S   UNL     1      -0.781   5.424  -5.236  1.00  0.00    -0.052 S 
BRANCH   7  14
ATOM     14  C   UNL     1      -0.641   1.458  -0.310  1.00  0.00    -0.021 A 
ATOM     15  C   UNL     1       2.911   0.022   0.006  1.00  0.00     0.044 C 
ATOM     16  C   UNL     1       1.415   0.116  -0.071  1.00  0.00    -0.051 A 
ATOM     17  C   UNL     1       0.657  -1.050   0.003  1.00  0.00     0.004 A 
ATOM     18  C   UNL     1       0.763   1.355  -0.228  1.00  0.00     0.011 A 
ATOM     19  C   UNL     1      -0.732  -0.973  -0.031  1.00  0.00     0.004 A 
ATOM     20  C   UNL     1      -1.396   0.270  -0.159  1.00  0.00    -0.044 A 
ATOM     21  C   UNL     1      -2.898   0.207  -0.116  1.00  0.00     0.045 C 
ENDBRANCH   7  14
ENDBRANCH   5   6
ENDBRANCH   3   5
ENDBRANCH   2   3
ENDBRANCH   1   2
BRANCH   1  22
ATOM     22  C   UNL     1      -7.109   4.686  -1.452  1.00  0.00     0.275 C 
BRANCH  22  23
ATOM     23  O   UNL     1      -6.413   5.408  -0.391  1.00  0.00    -0.458 OA
BRANCH  23  24
ATOM     24  C   UNL     1      -5.074   5.620  -0.233  1.00  0.00     0.338 C 
ATOM     25  O   UNL     1      -4.551   5.729   0.864  1.00  0.00    -0.246 OA
BRANCH  24  26
ATOM     26  C   UNL     1      -4.339   6.015  -1.458  1.00  0.00     0.060 A 
ATOM     27  C   UNL     1      -4.159   7.800  -1.704  1.00  0.00     0.016 A 
ATOM     28  C   UNL     1      -4.464   4.916  -2.886  1.00  0.00     0.016 A 
ATOM     29  C   UNL     1      -4.367   8.487  -3.386  1.00  0.00     0.010 A 
ATOM     30  C   UNL     1      -4.618   5.614  -4.545  1.00  0.00     0.010 A 
ATOM     31  C   UNL     1      -4.758   7.399  -4.763  1.00  0.00    -0.014 A 
BRANCH  31  32
ATOM     32  C   UNL     1      -5.628   7.805  -5.955  1.00  0.00     0.031 A 
ATOM     33  C   UNL     1      -4.699   7.849  -7.098  1.00  0.00     0.074 A 
ATOM     34  C   UNL     1      -6.994   7.934  -6.167  1.00  0.00     0.049 A 
ATOM     35  N   UNL     1      -4.145   8.921  -7.556  1.00  0.00    -0.248 NA
ATOM     36  C   UNL     1      -4.061   6.604  -7.553  1.00  0.00     0.031 C 
ATOM     37  C   UNL     1      -8.124   7.788  -5.229  1.00  0.00     0.029 A 
ATOM     38  N   UNL     1      -7.712   8.197  -7.356  1.00  0.00    -0.354 N 
ATOM     39  C   UNL     1      -3.292   8.467  -8.550  1.00  0.00     0.074 A 
ATOM     40  C   UNL     1      -3.043   7.085  -8.268  1.00  0.00     0.031 C 
ATOM     41  C   UNL     1      -9.320   7.708  -5.878  1.00  0.00     0.029 A 
ATOM     42  C   UNL     1      -9.125   7.947  -7.297  1.00  0.00     0.049 A 
ATOM     43  H   UNL     1      -7.272   8.531  -8.172  1.00  0.00     0.167 HD
ATOM     44  C   UNL     1      -3.237   9.125  -9.738  1.00  0.00     0.037 A 
ATOM     45  C   UNL     1     -10.085   8.053  -8.287  1.00  0.00     0.037 A 
ATOM     46  C   UNL     1      -3.851  10.425  -9.614  1.00  0.00     0.049 A 
ATOM     47  C   UNL     1      -9.536   8.969  -9.299  1.00  0.00     0.074 A 
ATOM     48  C   UNL     1      -3.582  11.588  -8.924  1.00  0.00     0.029 A 
ATOM     49  N   UNL     1      -5.194  10.414  -9.880  1.00  0.00    -0.354 N 
ATOM     50  N   UNL     1      -9.352  10.237  -9.086  1.00  0.00    -0.248 NA
ATOM     51  C   UNL     1      -8.784   8.377 -10.387  1.00  0.00     0.031 C 
ATOM     52  C   UNL     1      -4.850  12.167  -8.614  1.00  0.00     0.029 A 
ATOM     53  C   UNL     1      -5.852  11.405  -9.211  1.00  0.00     0.049 A 
ATOM     54  H   UNL     1      -5.632   9.770 -10.481  1.00  0.00     0.167 HD
ATOM     55  C   UNL     1      -8.115  10.476  -9.650  1.00  0.00     0.074 A 
ATOM     56  C   UNL     1      -7.869   9.335 -10.537  1.00  0.00     0.031 C 
ATOM     57  C   UNL     1      -7.288  11.399  -9.082  1.00  0.00     0.037 A 
BRANCH  44  58
ATOM     58  C   UNL     1      -3.157   8.414 -11.073  1.00  0.00     0.064 A 
ATOM     59  C   UNL     1      -2.906   9.177 -12.226  1.00  0.00     0.173 A 
ATOM     60  C   UNL     1      -3.594   7.087 -11.310  1.00  0.00     0.173 A 
ATOM     61  F   UNL     1      -2.540  10.463 -12.121  1.00  0.00    -0.203 F 
ATOM     62  C   UNL     1      -3.107   8.661 -13.511  1.00  0.00     0.198 A 
ATOM     63  C   UNL     1      -3.736   6.558 -12.589  1.00  0.00     0.198 A 
ATOM     64  F   UNL     1      -4.020   6.280 -10.333  1.00  0.00    -0.203 F 
ATOM     65  F   UNL     1      -2.957   9.457 -14.577  1.00  0.00    -0.200 F 
ATOM     66  C   UNL     1      -3.516   7.351 -13.691  1.00  0.00     0.200 A 
ATOM     67  F   UNL     1      -4.169   5.297 -12.735  1.00  0.00    -0.200 F 
ATOM     68  F   UNL     1      -3.752   6.870 -14.918  1.00  0.00    -0.200 F 
ENDBRANCH  44  58
BRANCH  45  69
ATOM     69  C   UNL     1     -11.340   7.280  -8.651  1.00  0.00     0.064 A 
ATOM     70  C   UNL     1     -12.306   7.733  -9.596  1.00  0.00     0.173 A 
ATOM     71  C   UNL     1     -11.411   5.909  -8.356  1.00  0.00     0.173 A 
ATOM     72  F   UNL     1     -12.296   9.005 -10.022  1.00  0.00    -0.203 F 
ATOM     73  C   UNL     1     -13.255   6.872 -10.191  1.00  0.00     0.198 A 
ATOM     74  C   UNL     1     -12.348   5.050  -8.959  1.00  0.00     0.198 A 
ATOM     75  F   UNL     1     -10.492   5.355  -7.555  1.00  0.00    -0.203 F 
ATOM     76  F   UNL     1     -14.112   7.334 -11.117  1.00  0.00    -0.200 F 
ATOM     77  C   UNL     1     -13.265   5.526  -9.879  1.00  0.00     0.200 A 
ATOM     78  F   UNL     1     -12.307   3.737  -8.692  1.00  0.00    -0.200 F 
ATOM     79  F   UNL     1     -14.116   4.686 -10.489  1.00  0.00    -0.200 F 
ENDBRANCH  45  69
BRANCH  57  80
ATOM     80  C   UNL     1      -7.905  12.407  -8.153  1.00  0.00     0.064 A 
ATOM     81  C   UNL     1      -8.431  12.117  -6.883  1.00  0.00     0.173 A 
ATOM     82  C   UNL     1      -7.847  13.752  -8.537  1.00  0.00     0.173 A 
ATOM     83  F   UNL     1      -8.459  10.861  -6.418  1.00  0.00    -0.203 F 
ATOM     84  C   UNL     1      -8.893  13.135  -6.046  1.00  0.00     0.198 A 
ATOM     85  C   UNL     1      -8.274  14.767  -7.688  1.00  0.00     0.198 A 
ATOM     86  F   UNL     1      -7.321  14.086  -9.726  1.00  0.00    -0.203 F 
ATOM     87  F   UNL     1      -9.393  12.839  -4.836  1.00  0.00    -0.200 F 
ATOM     88  C   UNL     1      -8.804  14.459  -6.446  1.00  0.00     0.200 A 
ATOM     89  F   UNL     1      -8.142  16.046  -8.064  1.00  0.00    -0.200 F 
ATOM     90  F   UNL     1      -9.205  15.441  -5.627  1.00  0.00    -0.200 F 
ENDBRANCH  57  80
ENDBRANCH  31  32
ENDBRANCH  24  26
ENDBRANCH  23  24
ENDBRANCH  22  23
ENDBRANCH   1  22
TORSDOF 13
