REMARK SMILES Cc1c(CC(=O)N[C@H](CO)C(=O)OCCOC(=O)c2ccc(-c3c4nc(c(-c5c(F)c(F)c(F)c(F)c5F)c5ccc([nH]5)c(-c5c(F)c(F)c(F)c(F)c5F)c5nc(c(-c6c(F)c(F)c(F)c(F)c6F)c6ccc3[nH]6)C=C5)C=C4)cc2)cc(-c2ccc(S(C)(=O)=O)cc2)n1-c1ccc(F)cc1
REMARK SMILES IDX 13 1 11 2 12 3 8 4 7 5 5 6 6 7 4 9 3 10 1 11 2 12 94 13
REMARK SMILES IDX 82 14 83 15 95 16 96 17 101 18 97 19 100 20 98 21 99 22
REMARK SMILES IDX 84 23 85 24 93 25 86 26 92 27 87 28 88 29 89 30 90 31 91 32
REMARK SMILES IDX 9 33 10 34 14 36 15 37 16 38 17 39 18 40 19 41 20 42 81 43
REMARK SMILES IDX 21 44 80 45 22 46 23 47 24 48 74 49 25 50 79 51 73 52 75 53
REMARK SMILES IDX 26 54 78 55 72 56 71 57 27 59 59 60 39 61 58 62 40 63 43 64
REMARK SMILES IDX 57 65 76 66 41 67 42 68 56 70 77 71 44 72 28 73 29 74 37 75
REMARK SMILES IDX 30 76 31 77 35 78 38 79 32 80 33 81 36 82 34 83 60 84 61 85
REMARK SMILES IDX 69 86 62 87 63 88 67 89 70 90 64 91 65 92 68 93 66 94 45 95
REMARK SMILES IDX 46 96 54 97 47 98 48 99 52 100 55 101 49 102 50 103 53 104
REMARK SMILES IDX 51 105
REMARK H PARENT 7 8 10 35 75 58 43 69
REMARK Flexibility Score: inf
ROOT
ATOM      1  O   UNL     1      -1.588  -6.120   0.159  1.00  0.00    -0.460 OA
ENDROOT
BRANCH   1   2
ATOM      2  C   UNL     1      -1.947  -5.197   1.093  1.00  0.00     0.331 C 
ATOM      3  O   UNL     1      -2.485  -5.482   2.160  1.00  0.00    -0.250 OA
BRANCH   2   4
ATOM      4  C   UNL     1      -1.624  -3.729   0.703  1.00  0.00     0.218 C 
BRANCH   4   5
ATOM      5  N   UNL     1      -2.809  -2.872   0.932  1.00  0.00    -0.341 N 
ATOM      6  C   UNL     1      -2.877  -1.525   1.155  1.00  0.00     0.225 C 
ATOM      7  O   UNL     1      -3.997  -1.020   1.278  1.00  0.00    -0.275 OA
ATOM      8  H   UNL     1      -3.674  -3.341   0.923  1.00  0.00     0.164 HD
BRANCH   6   9
ATOM      9  C   UNL     1      -1.617  -0.673   1.224  1.00  0.00     0.137 C 
BRANCH   9  10
ATOM     10  C   UNL     1      -0.754  -0.995   2.409  1.00  0.00    -0.017 A 
ATOM     11  C   UNL     1      -2.419  -0.580   4.351  1.00  0.00     0.065 C 
ATOM     12  C   UNL     1      -1.120  -1.020   3.750  1.00  0.00     0.024 A 
ATOM     13  N   UNL     1      -0.024  -1.446   4.494  1.00  0.00    -0.314 N 
ATOM     14  C   UNL     1       0.631  -1.301   2.360  1.00  0.00     0.033 A 
ATOM     15  C   UNL     1       1.068  -1.596   3.639  1.00  0.00     0.053 A 
BRANCH  13  16
ATOM     16  C   UNL     1      -0.013  -1.703   5.891  1.00  0.00     0.046 A 
ATOM     17  C   UNL     1       0.967  -1.110   6.699  1.00  0.00     0.029 A 
ATOM     18  C   UNL     1      -0.936  -2.609   6.432  1.00  0.00     0.029 A 
ATOM     19  C   UNL     1       1.019  -1.425   8.056  1.00  0.00     0.041 A 
ATOM     20  C   UNL     1      -0.865  -2.928   7.788  1.00  0.00     0.041 A 
ATOM     21  C   UNL     1       0.110  -2.335   8.585  1.00  0.00     0.123 A 
ATOM     22  F   UNL     1       0.180  -2.652   9.885  1.00  0.00    -0.207 F 
ENDBRANCH  13  16
BRANCH  15  23
ATOM     23  C   UNL     1       2.394  -2.084   4.037  1.00  0.00    -0.001 A 
ATOM     24  C   UNL     1       2.542  -3.323   4.680  1.00  0.00     0.011 A 
ATOM     25  C   UNL     1       3.533  -1.311   3.777  1.00  0.00     0.011 A 
ATOM     26  C   UNL     1       3.799  -3.763   5.099  1.00  0.00     0.021 A 
ATOM     27  C   UNL     1       4.796  -1.746   4.190  1.00  0.00     0.021 A 
ATOM     28  C   UNL     1       4.919  -2.963   4.864  1.00  0.00     0.067 A 
BRANCH  28  29
ATOM     29  S   UNL     1       6.514  -3.550   5.381  1.00  0.00     0.175 S 
ATOM     30  C   UNL     1       6.436  -3.522   7.152  1.00  0.00     0.163 C 
ATOM     31  O   UNL     1       6.615  -4.928   4.962  1.00  0.00    -0.224 OA
ATOM     32  O   UNL     1       7.502  -2.556   4.977  1.00  0.00    -0.224 OA
ENDBRANCH  28  29
ENDBRANCH  15  23
ENDBRANCH   9  10
ENDBRANCH   6   9
ENDBRANCH   4   5
BRANCH   4  33
ATOM     33  C   UNL     1      -1.023  -3.512  -0.701  1.00  0.00     0.193 C 
BRANCH  33  34
ATOM     34  O   UNL     1      -1.913  -2.873  -1.621  1.00  0.00    -0.394 OA
ATOM     35  H   UNL     1      -2.693  -3.432  -1.758  1.00  0.00     0.210 HD
ENDBRANCH  33  34
ENDBRANCH   4  33
ENDBRANCH   2   4
ENDBRANCH   1   2
BRANCH   1  36
ATOM     36  C   UNL     1      -1.919  -7.519   0.411  1.00  0.00     0.274 C 
BRANCH  36  37
ATOM     37  C   UNL     1      -0.791  -8.461  -0.105  1.00  0.00     0.275 C 
BRANCH  37  38
ATOM     38  O   UNL     1       0.010  -9.243   0.863  1.00  0.00    -0.458 OA
BRANCH  38  39
ATOM     39  C   UNL     1       1.321  -8.877   1.040  1.00  0.00     0.338 C 
ATOM     40  O   UNL     1       1.731  -7.758   0.745  1.00  0.00    -0.246 OA
BRANCH  39  41
ATOM     41  C   UNL     1       2.262  -9.906   1.712  1.00  0.00     0.060 A 
ATOM     42  C   UNL     1       3.008  -9.461   2.783  1.00  0.00     0.016 A 
ATOM     43  C   UNL     1       2.630 -11.207   1.289  1.00  0.00     0.016 A 
ATOM     44  C   UNL     1       4.001 -10.296   3.411  1.00  0.00     0.010 A 
ATOM     45  C   UNL     1       3.731 -12.038   1.914  1.00  0.00     0.010 A 
ATOM     46  C   UNL     1       4.488 -11.615   3.022  1.00  0.00    -0.014 A 
BRANCH  46  47
ATOM     47  C   UNL     1       5.885 -12.226   3.821  1.00  0.00     0.031 A 
ATOM     48  C   UNL     1       6.447 -10.980   4.403  1.00  0.00     0.074 A 
ATOM     49  C   UNL     1       6.817 -13.283   4.048  1.00  0.00     0.049 A 
ATOM     50  N   UNL     1       6.817 -10.055   3.566  1.00  0.00    -0.248 NA
ATOM     51  C   UNL     1       6.224 -10.516   5.773  1.00  0.00     0.031 C 
ATOM     52  C   UNL     1       6.891 -14.623   3.425  1.00  0.00     0.029 A 
ATOM     53  N   UNL     1       8.007 -13.405   4.907  1.00  0.00    -0.354 N 
ATOM     54  C   UNL     1       7.106  -8.939   4.300  1.00  0.00     0.074 A 
ATOM     55  C   UNL     1       6.569  -9.227   5.628  1.00  0.00     0.031 C 
ATOM     56  C   UNL     1       7.858 -15.424   3.985  1.00  0.00     0.029 A 
ATOM     57  C   UNL     1       8.630 -14.728   5.022  1.00  0.00     0.049 A 
ATOM     58  H   UNL     1       8.371 -12.627   5.387  1.00  0.00     0.167 HD
ATOM     59  C   UNL     1       8.250  -8.307   3.920  1.00  0.00     0.037 A 
ATOM     60  C   UNL     1       9.722 -15.216   5.780  1.00  0.00     0.037 A 
ATOM     61  C   UNL     1       9.339  -8.687   4.774  1.00  0.00     0.049 A 
ATOM     62  C   UNL     1      10.636 -14.084   5.947  1.00  0.00     0.074 A 
ATOM     63  C   UNL     1       9.412  -8.932   6.132  1.00  0.00     0.029 A 
ATOM     64  N   UNL     1      10.375  -9.380   4.193  1.00  0.00    -0.354 N 
ATOM     65  N   UNL     1      11.423 -13.720   4.983  1.00  0.00    -0.248 NA
ATOM     66  C   UNL     1      10.870 -13.434   7.232  1.00  0.00     0.031 C 
ATOM     67  C   UNL     1      10.042 -10.189   6.208  1.00  0.00     0.029 A 
ATOM     68  C   UNL     1      10.727 -10.416   5.022  1.00  0.00     0.049 A 
ATOM     69  H   UNL     1      10.794  -9.169   3.327  1.00  0.00     0.167 HD
ATOM     70  C   UNL     1      11.820 -12.485   5.371  1.00  0.00     0.074 A 
ATOM     71  C   UNL     1      11.706 -12.478   6.819  1.00  0.00     0.031 C 
ATOM     72  C   UNL     1      11.494 -11.508   4.493  1.00  0.00     0.037 A 
BRANCH  59  73
ATOM     73  C   UNL     1       8.357  -8.147   2.417  1.00  0.00     0.064 A 
ATOM     74  C   UNL     1       8.253  -6.870   1.863  1.00  0.00     0.173 A 
ATOM     75  C   UNL     1       8.390  -9.236   1.514  1.00  0.00     0.173 A 
ATOM     76  F   UNL     1       8.326  -5.786   2.648  1.00  0.00    -0.203 F 
ATOM     77  C   UNL     1       8.088  -6.695   0.487  1.00  0.00     0.198 A 
ATOM     78  C   UNL     1       8.136  -9.066   0.158  1.00  0.00     0.198 A 
ATOM     79  F   UNL     1       8.677 -10.478   1.938  1.00  0.00    -0.203 F 
ATOM     80  F   UNL     1       8.027  -5.459  -0.027  1.00  0.00    -0.200 F 
ATOM     81  C   UNL     1       7.979  -7.793  -0.355  1.00  0.00     0.200 A 
ATOM     82  F   UNL     1       8.048 -10.135  -0.647  1.00  0.00    -0.200 F 
ATOM     83  F   UNL     1       7.757  -7.622  -1.666  1.00  0.00    -0.200 F 
ENDBRANCH  59  73
BRANCH  60  84
ATOM     84  C   UNL     1      10.537 -16.482   6.331  1.00  0.00     0.064 A 
ATOM     85  C   UNL     1      11.986 -16.479   6.440  1.00  0.00     0.173 A 
ATOM     86  C   UNL     1       9.948 -17.419   7.197  1.00  0.00     0.173 A 
ATOM     87  F   UNL     1      12.745 -15.692   5.666  1.00  0.00    -0.203 F 
ATOM     88  C   UNL     1      12.725 -17.219   7.392  1.00  0.00     0.198 A 
ATOM     89  C   UNL     1      10.703 -18.199   8.127  1.00  0.00     0.198 A 
ATOM     90  F   UNL     1       8.616 -17.536   7.239  1.00  0.00    -0.203 F 
ATOM     91  F   UNL     1      14.052 -17.039   7.514  1.00  0.00    -0.200 F 
ATOM     92  C   UNL     1      12.078 -18.069   8.252  1.00  0.00     0.200 A 
ATOM     93  F   UNL     1      10.071 -19.033   8.968  1.00  0.00    -0.200 F 
ATOM     94  F   UNL     1      12.760 -18.725   9.206  1.00  0.00    -0.200 F 
ENDBRANCH  60  84
BRANCH  72  95
ATOM     95  C   UNL     1      11.804 -11.769   3.032  1.00  0.00     0.064 A 
ATOM     96  C   UNL     1      11.432 -12.898   2.260  1.00  0.00     0.173 A 
ATOM     97  C   UNL     1      12.625 -10.831   2.392  1.00  0.00     0.173 A 
ATOM     98  F   UNL     1      10.565 -13.817   2.707  1.00  0.00    -0.203 F 
ATOM     99  C   UNL     1      11.934 -13.103   0.971  1.00  0.00     0.198 A 
ATOM    100  C   UNL     1      13.079 -11.012   1.088  1.00  0.00     0.198 A 
ATOM    101  F   UNL     1      12.982  -9.709   3.036  1.00  0.00    -0.203 F 
ATOM    102  F   UNL     1      11.617 -14.217   0.294  1.00  0.00    -0.200 F 
ATOM    103  C   UNL     1      12.758 -12.159   0.387  1.00  0.00     0.200 A 
ATOM    104  F   UNL     1      13.833 -10.064   0.515  1.00  0.00    -0.200 F 
ATOM    105  F   UNL     1      13.228 -12.345  -0.854  1.00  0.00    -0.200 F 
ENDBRANCH  72  95
ENDBRANCH  46  47
ENDBRANCH  39  41
ENDBRANCH  38  39
ENDBRANCH  37  38
ENDBRANCH  36  37
ENDBRANCH   1  36
TORSDOF 19
