REMARK SMILES COc1ccc([C@H]2CC(c3ccccc3)=NN2C(=O)CCCC(=O)OCCOC(=O)c2ccc(-c3c4nc(c(-c5c(F)c(F)c(F)c(F)c5F)c5ccc([nH]5)c(-c5c(F)c(F)c(F)c(F)c5F)c5nc(c(-c6c(F)c(F)c(F)c(F)c6F)c6ccc3[nH]6)C=C5)C=C4)cc2)cc1
REMARK SMILES IDX 23 1 24 2 22 3 21 4 20 5 18 6 19 7 17 8 7 9 8 10 9 11 16 12
REMARK SMILES IDX 6 13 3 14 4 15 95 16 5 17 94 18 2 19 1 20 10 21 11 22 15 23
REMARK SMILES IDX 12 24 14 25 13 26 25 27 26 28 27 29 28 30 29 31 30 32 31 33
REMARK SMILES IDX 32 34 93 35 33 36 92 37 34 38 35 39 36 40 86 41 37 42 91 43
REMARK SMILES IDX 85 44 87 45 38 46 90 47 84 48 83 49 39 51 71 52 51 53 70 54
REMARK SMILES IDX 52 55 55 56 69 57 88 58 53 59 54 60 68 62 89 63 56 64 40 65
REMARK SMILES IDX 41 66 49 67 42 68 43 69 47 70 50 71 44 72 45 73 48 74 46 75
REMARK SMILES IDX 72 76 73 77 81 78 74 79 75 80 79 81 82 82 76 83 77 84 80 85
REMARK SMILES IDX 78 86 57 87 58 88 66 89 59 90 60 91 64 92 67 93 61 94 62 95
REMARK SMILES IDX 65 96 63 97
REMARK H PARENT 87 50 55 61
REMARK Flexibility Score: inf
ROOT
ATOM      1  C   UNL     1       0.215  -5.538   2.016  1.00  0.00     0.305 C 
ATOM      2  O   UNL     1      -0.190  -4.585   1.365  1.00  0.00    -0.252 OA
ENDROOT
BRANCH   1   3
ATOM      3  C   UNL     1       1.529  -5.512   2.761  1.00  0.00     0.123 C 
BRANCH   3   4
ATOM      4  C   UNL     1       2.005  -6.841   3.317  1.00  0.00     0.022 C 
BRANCH   4   5
ATOM      5  C   UNL     1       2.228  -7.910   2.254  1.00  0.00     0.103 C 
BRANCH   5   6
ATOM      6  C   UNL     1       3.484  -7.679   1.440  1.00  0.00     0.243 C 
ATOM      7  O   UNL     1       4.568  -7.970   1.959  1.00  0.00    -0.273 OA
BRANCH   6   8
ATOM      8  N   UNL     1       3.362  -7.232   0.133  1.00  0.00    -0.225 N 
ATOM      9  C   UNL     1       2.213  -6.711  -0.650  1.00  0.00     0.147 C 
ATOM     10  C   UNL     1       2.506  -7.231  -2.052  1.00  0.00     0.091 C 
ATOM     11  C   UNL     1       3.980  -7.439  -1.904  1.00  0.00     0.071 C 
ATOM     12  N   UNL     1       4.442  -7.463  -0.696  1.00  0.00    -0.174 NA
BRANCH   9  13
ATOM     13  C   UNL     1       2.092  -5.186  -0.717  1.00  0.00    -0.023 A 
ATOM     14  C   UNL     1       1.673  -2.379  -0.749  1.00  0.00     0.118 A 
ATOM     15  C   UNL     1       0.707  -3.247  -1.253  1.00  0.00     0.047 A 
ATOM     16  C   UNL     1       2.862  -2.911  -0.254  1.00  0.00     0.047 A 
ATOM     17  C   UNL     1       0.916  -4.630  -1.254  1.00  0.00     0.010 A 
ATOM     18  C   UNL     1       3.080  -4.301  -0.261  1.00  0.00     0.010 A 
BRANCH  14  19
ATOM     19  O   UNL     1       1.305  -1.067  -0.756  1.00  0.00    -0.497 OA
ATOM     20  C   UNL     1       2.312  -0.067  -0.700  1.00  0.00     0.278 C 
ENDBRANCH  14  19
ENDBRANCH   9  13
BRANCH  11  21
ATOM     21  C   UNL     1       4.802  -7.687  -3.076  1.00  0.00    -0.002 A 
ATOM     22  C   UNL     1       4.825  -8.970  -3.624  1.00  0.00     0.010 A 
ATOM     23  C   UNL     1       5.548  -6.643  -3.615  1.00  0.00     0.010 A 
ATOM     24  C   UNL     1       5.609  -9.207  -4.748  1.00  0.00     0.001 A 
ATOM     25  C   UNL     1       6.326  -6.887  -4.742  1.00  0.00     0.001 A 
ATOM     26  C   UNL     1       6.355  -8.166  -5.307  1.00  0.00     0.000 A 
ENDBRANCH  11  21
ENDBRANCH   6   8
ENDBRANCH   5   6
ENDBRANCH   4   5
ENDBRANCH   3   4
ENDBRANCH   1   3
BRANCH   1  27
ATOM     27  O   UNL     1      -0.482  -6.691   2.158  1.00  0.00    -0.462 OA
BRANCH  27  28
ATOM     28  C   UNL     1      -1.745  -6.745   1.468  1.00  0.00     0.274 C 
BRANCH  28  29
ATOM     29  C   UNL     1      -2.891  -6.256   2.358  1.00  0.00     0.275 C 
BRANCH  29  30
ATOM     30  O   UNL     1      -2.913  -4.819   2.453  1.00  0.00    -0.458 OA
BRANCH  30  31
ATOM     31  C   UNL     1      -2.165  -4.283   3.451  1.00  0.00     0.338 C 
ATOM     32  O   UNL     1      -1.603  -4.886   4.348  1.00  0.00    -0.246 OA
BRANCH  31  33
ATOM     33  C   UNL     1      -1.936  -2.849   3.167  1.00  0.00     0.060 A 
ATOM     34  C   UNL     1      -0.618  -2.378   3.225  1.00  0.00     0.016 A 
ATOM     35  C   UNL     1      -2.976  -1.984   2.827  1.00  0.00     0.016 A 
ATOM     36  C   UNL     1      -0.324  -1.061   2.904  1.00  0.00     0.010 A 
ATOM     37  C   UNL     1      -2.693  -0.638   2.576  1.00  0.00     0.010 A 
ATOM     38  C   UNL     1      -1.367  -0.174   2.624  1.00  0.00    -0.014 A 
BRANCH  38  39
ATOM     39  C   UNL     1      -1.057   1.268   2.587  1.00  0.00     0.031 A 
ATOM     40  C   UNL     1      -0.907   1.986   3.895  1.00  0.00     0.074 A 
ATOM     41  C   UNL     1      -0.841   1.899   1.421  1.00  0.00     0.049 A 
ATOM     42  N   UNL     1      -0.634   3.242   4.128  1.00  0.00    -0.248 NA
ATOM     43  C   UNL     1      -1.087   1.171   5.110  1.00  0.00     0.031 C 
ATOM     44  C   UNL     1      -0.889   1.271   0.105  1.00  0.00     0.029 A 
ATOM     45  N   UNL     1      -0.503   3.203   1.163  1.00  0.00    -0.354 N 
ATOM     46  C   UNL     1      -0.648   3.375   5.510  1.00  0.00     0.074 A 
ATOM     47  C   UNL     1      -0.917   2.069   6.067  1.00  0.00     0.031 C 
ATOM     48  C   UNL     1      -0.547   2.181  -0.824  1.00  0.00     0.029 A 
ATOM     49  C   UNL     1      -0.298   3.464  -0.170  1.00  0.00     0.049 A 
ATOM     50  H   UNL     1      -0.415   3.887   1.865  1.00  0.00     0.167 HD
ATOM     51  C   UNL     1      -0.493   4.501   6.243  1.00  0.00     0.037 A 
ATOM     52  C   UNL     1       0.051   4.615  -0.778  1.00  0.00     0.037 A 
ATOM     53  C   UNL     1      -0.260   5.799   5.674  1.00  0.00     0.049 A 
ATOM     54  C   UNL     1       0.206   5.858   0.065  1.00  0.00     0.074 A 
ATOM     55  C   UNL     1      -0.159   7.019   6.315  1.00  0.00     0.029 A 
ATOM     56  N   UNL     1      -0.100   6.042   4.316  1.00  0.00    -0.354 N 
ATOM     57  N   UNL     1       0.149   5.990   1.369  1.00  0.00    -0.248 NA
ATOM     58  C   UNL     1       0.441   7.119  -0.654  1.00  0.00     0.031 C 
ATOM     59  C   UNL     1       0.014   8.008   5.341  1.00  0.00     0.029 A 
ATOM     60  C   UNL     1       0.078   7.397   4.098  1.00  0.00     0.049 A 
ATOM     61  H   UNL     1      -0.111   5.353   3.614  1.00  0.00     0.167 HD
ATOM     62  C   UNL     1       0.329   7.343   1.625  1.00  0.00     0.074 A 
ATOM     63  C   UNL     1       0.549   7.984   0.345  1.00  0.00     0.031 C 
ATOM     64  C   UNL     1       0.290   8.004   2.809  1.00  0.00     0.037 A 
BRANCH  51  65
ATOM     65  C   UNL     1      -0.682   4.379   7.724  1.00  0.00     0.064 A 
ATOM     66  C   UNL     1       0.267   3.760   8.550  1.00  0.00     0.173 A 
ATOM     67  C   UNL     1      -1.852   4.873   8.321  1.00  0.00     0.173 A 
ATOM     68  F   UNL     1       1.387   3.244   8.022  1.00  0.00    -0.203 F 
ATOM     69  C   UNL     1       0.040   3.619   9.917  1.00  0.00     0.198 A 
ATOM     70  C   UNL     1      -2.063   4.755   9.691  1.00  0.00     0.198 A 
ATOM     71  F   UNL     1      -2.795   5.465   7.573  1.00  0.00    -0.203 F 
ATOM     72  F   UNL     1       0.934   2.975  10.680  1.00  0.00    -0.200 F 
ATOM     73  C   UNL     1      -1.121   4.120  10.486  1.00  0.00     0.200 A 
ATOM     74  F   UNL     1      -3.184   5.244  10.239  1.00  0.00    -0.200 F 
ATOM     75  F   UNL     1      -1.340   3.981  11.801  1.00  0.00    -0.200 F 
ENDBRANCH  51  65
BRANCH  52  76
ATOM     76  C   UNL     1       0.272   4.663  -2.249  1.00  0.00     0.064 A 
ATOM     77  C   UNL     1       1.537   4.968  -2.773  1.00  0.00     0.173 A 
ATOM     78  C   UNL     1      -0.770   4.440  -3.162  1.00  0.00     0.173 A 
ATOM     79  F   UNL     1       2.563   5.216  -1.945  1.00  0.00    -0.203 F 
ATOM     80  C   UNL     1       1.746   5.068  -4.148  1.00  0.00     0.198 A 
ATOM     81  C   UNL     1      -0.551   4.506  -4.537  1.00  0.00     0.198 A 
ATOM     82  F   UNL     1      -2.003   4.155  -2.720  1.00  0.00    -0.203 F 
ATOM     83  F   UNL     1       2.953   5.415  -4.616  1.00  0.00    -0.200 F 
ATOM     84  C   UNL     1       0.704   4.830  -5.029  1.00  0.00     0.200 A 
ATOM     85  F   UNL     1      -1.560   4.264  -5.386  1.00  0.00    -0.200 F 
ATOM     86  F   UNL     1       0.905   4.924  -6.351  1.00  0.00    -0.200 F 
ENDBRANCH  52  76
BRANCH  64  87
ATOM     87  C   UNL     1       0.476   9.493   2.773  1.00  0.00     0.064 A 
ATOM     88  C   UNL     1      -0.526  10.341   2.279  1.00  0.00     0.173 A 
ATOM     89  C   UNL     1       1.635  10.081   3.302  1.00  0.00     0.173 A 
ATOM     90  F   UNL     1      -1.648   9.826   1.753  1.00  0.00    -0.203 F 
ATOM     91  C   UNL     1      -0.366  11.723   2.297  1.00  0.00     0.198 A 
ATOM     92  C   UNL     1       1.778  11.464   3.345  1.00  0.00     0.198 A 
ATOM     93  F   UNL     1       2.617   9.313   3.796  1.00  0.00    -0.203 F 
ATOM     94  F   UNL     1      -1.320  12.513   1.785  1.00  0.00    -0.200 F 
ATOM     95  C   UNL     1       0.781  12.284   2.838  1.00  0.00     0.200 A 
ATOM     96  F   UNL     1       2.880  12.005   3.883  1.00  0.00    -0.200 F 
ATOM     97  F   UNL     1       0.927  13.616   2.868  1.00  0.00    -0.200 F 
ENDBRANCH  64  87
ENDBRANCH  38  39
ENDBRANCH  31  33
ENDBRANCH  30  31
ENDBRANCH  29  30
ENDBRANCH  28  29
ENDBRANCH  27  28
ENDBRANCH   1  27
TORSDOF 18
