REMARK SMILES Cc1ccccc1/[NH+]=C1\S[C@@H](CC(=O)Nc2ccc(C(=O)OCCOC(=O)c3ccc(-c4c5nc(c(-c6c(F)c(F)c(F)c(F)c6F)c6ccc([nH]6)c(-c6c(F)c(F)c(F)c(F)c6F)c6nc(c(-c7c(F)c(F)c(F)c(F)c7F)c7ccc4[nH]7)C=C6)C=C5)cc3)cc2)C(=O)N1C
REMARK SMILES IDX 23 1 22 2 20 3 21 4 19 5 16 6 17 7 92 8 18 9 91 10 15 11
REMARK SMILES IDX 13 12 14 13 12 15 11 16 8 17 9 18 10 20 95 21 93 22 96 23
REMARK SMILES IDX 94 24 7 25 1 26 2 27 3 28 4 29 6 30 5 31 24 32 25 33 26 34
REMARK SMILES IDX 27 35 28 36 29 37 90 38 30 39 89 40 31 41 32 42 33 43 83 44
REMARK SMILES IDX 34 45 88 46 82 47 84 48 35 49 87 50 81 51 80 52 36 54 68 55
REMARK SMILES IDX 48 56 67 57 49 58 52 59 66 60 85 61 50 62 51 63 65 65 86 66
REMARK SMILES IDX 53 67 37 68 38 69 46 70 39 71 40 72 44 73 47 74 41 75 42 76
REMARK SMILES IDX 45 77 43 78 69 79 70 80 78 81 71 82 72 83 76 84 79 85 73 86
REMARK SMILES IDX 74 87 77 88 75 89 54 90 55 91 63 92 56 93 57 94 61 95 64 96
REMARK SMILES IDX 58 97 59 98 62 99 60 100
REMARK H PARENT 15 14 8 19 84 53 52 64
REMARK Flexibility Score: inf
ROOT
ATOM      1  C   UNL     1       3.011   7.472  -2.216  1.00  0.00     0.275 C 
ENDROOT
BRANCH   1   2
ATOM      2  O   UNL     1       4.125   7.187  -1.361  1.00  0.00    -0.458 OA
BRANCH   2   3
ATOM      3  C   UNL     1       4.479   5.880  -1.344  1.00  0.00     0.338 C 
ATOM      4  O   UNL     1       3.930   4.959  -1.929  1.00  0.00    -0.246 OA
BRANCH   3   5
ATOM      5  C   UNL     1       5.594   5.642  -0.416  1.00  0.00     0.060 A 
ATOM      6  C   UNL     1       7.150   4.215   1.352  1.00  0.00     0.041 A 
ATOM      7  C   UNL     1       6.107   5.003   1.839  1.00  0.00     0.027 A 
ATOM      8  C   UNL     1       7.572   4.326   0.033  1.00  0.00     0.027 A 
ATOM      9  C   UNL     1       5.304   5.705   0.944  1.00  0.00     0.018 A 
ATOM     10  C   UNL     1       6.769   5.025  -0.864  1.00  0.00     0.018 A 
BRANCH   6  11
ATOM     11  N   UNL     1       7.516   3.084   2.092  1.00  0.00    -0.326 N 
ATOM     12  C   UNL     1       6.793   1.905   2.050  1.00  0.00     0.226 C 
ATOM     13  O   UNL     1       6.891   1.098   2.977  1.00  0.00    -0.275 OA
ATOM     14  H   UNL     1       8.316   3.130   2.663  1.00  0.00     0.169 HD
BRANCH  12  15
ATOM     15  C   UNL     1       5.929   1.589   0.833  1.00  0.00     0.128 C 
BRANCH  15  16
ATOM     16  C   UNL     1       4.436   1.544   1.100  1.00  0.00     0.183 C 
ATOM     17  N   UNL     1       0.926   1.802   0.203  1.00  0.00    -0.234 N 
ATOM     18  C   UNL     1       2.179   2.067   0.150  1.00  0.00     0.319 C 
ATOM     19  H   UNL     1       0.372   2.550   0.522  1.00  0.00     0.313 HD
ATOM     20  S   UNL     1       3.539   1.205  -0.471  1.00  0.00    -0.022 SA
ATOM     21  N   UNL     1       2.656   3.147   0.825  1.00  0.00    -0.193 N 
ATOM     22  C   UNL     1       3.744   2.812   1.600  1.00  0.00     0.324 C 
ATOM     23  C   UNL     1       1.854   4.333   1.063  1.00  0.00     0.301 C 
ATOM     24  O   UNL     1       4.004   3.337   2.678  1.00  0.00    -0.245 OA
BRANCH  17  25
ATOM     25  C   UNL     1       0.199   0.647  -0.108  1.00  0.00     0.128 A 
ATOM     26  C   UNL     1       1.905  -1.205   0.515  1.00  0.00     0.049 C 
ATOM     27  C   UNL     1       0.558  -0.704   0.085  1.00  0.00    -0.004 A 
ATOM     28  C   UNL     1      -0.417  -1.711  -0.084  1.00  0.00     0.008 A 
ATOM     29  C   UNL     1      -1.749  -1.401  -0.331  1.00  0.00     0.001 A 
ATOM     30  C   UNL     1      -1.157   0.924  -0.374  1.00  0.00     0.052 A 
ATOM     31  C   UNL     1      -2.125  -0.077  -0.464  1.00  0.00     0.004 A 
ENDBRANCH  17  25
ENDBRANCH  15  16
ENDBRANCH  12  15
ENDBRANCH   6  11
ENDBRANCH   3   5
ENDBRANCH   2   3
ENDBRANCH   1   2
BRANCH   1  32
ATOM     32  C   UNL     1       3.105   8.869  -2.848  1.00  0.00     0.275 C 
BRANCH  32  33
ATOM     33  O   UNL     1       4.423   9.409  -3.153  1.00  0.00    -0.458 OA
BRANCH  33  34
ATOM     34  C   UNL     1       5.535   8.729  -3.543  1.00  0.00     0.338 C 
ATOM     35  O   UNL     1       6.655   9.081  -3.271  1.00  0.00    -0.246 OA
BRANCH  34  36
ATOM     36  C   UNL     1       5.294   7.487  -4.297  1.00  0.00     0.060 A 
ATOM     37  C   UNL     1       6.105   6.379  -4.020  1.00  0.00     0.016 A 
ATOM     38  C   UNL     1       4.201   7.396  -5.151  1.00  0.00     0.016 A 
ATOM     39  C   UNL     1       5.732   5.124  -4.479  1.00  0.00     0.010 A 
ATOM     40  C   UNL     1       3.762   6.149  -5.512  1.00  0.00     0.010 A 
ATOM     41  C   UNL     1       4.538   5.025  -5.191  1.00  0.00    -0.014 A 
BRANCH  41  42
ATOM     42  C   UNL     1       4.220   3.863  -5.992  1.00  0.00     0.031 A 
ATOM     43  C   UNL     1       3.510   2.705  -5.432  1.00  0.00     0.074 A 
ATOM     44  C   UNL     1       4.591   4.068  -7.276  1.00  0.00     0.049 A 
ATOM     45  N   UNL     1       3.745   1.492  -5.793  1.00  0.00    -0.248 NA
ATOM     46  C   UNL     1       2.501   2.794  -4.373  1.00  0.00     0.031 C 
ATOM     47  C   UNL     1       4.301   3.358  -8.502  1.00  0.00     0.029 A 
ATOM     48  N   UNL     1       5.525   5.050  -7.671  1.00  0.00    -0.354 N 
ATOM     49  C   UNL     1       2.688   0.734  -5.331  1.00  0.00     0.074 A 
ATOM     50  C   UNL     1       2.049   1.530  -4.313  1.00  0.00     0.031 C 
ATOM     51  C   UNL     1       5.245   3.685  -9.410  1.00  0.00     0.029 A 
ATOM     52  C   UNL     1       6.240   4.515  -8.736  1.00  0.00     0.049 A 
ATOM     53  H   UNL     1       5.646   5.940  -7.269  1.00  0.00     0.167 HD
ATOM     54  C   UNL     1       2.305  -0.361  -6.050  1.00  0.00     0.037 A 
ATOM     55  C   UNL     1       7.553   4.203  -8.531  1.00  0.00     0.037 A 
ATOM     56  C   UNL     1       3.109  -0.443  -7.261  1.00  0.00     0.049 A 
ATOM     57  C   UNL     1       7.745   2.716  -8.656  1.00  0.00     0.074 A 
ATOM     58  C   UNL     1       2.876   0.086  -8.521  1.00  0.00     0.029 A 
ATOM     59  N   UNL     1       4.471  -0.702  -7.182  1.00  0.00    -0.354 N 
ATOM     60  N   UNL     1       6.886   1.826  -8.236  1.00  0.00    -0.248 NA
ATOM     61  C   UNL     1       8.877   2.140  -9.366  1.00  0.00     0.031 C 
ATOM     62  C   UNL     1       4.111   0.159  -9.201  1.00  0.00     0.029 A 
ATOM     63  C   UNL     1       5.097  -0.304  -8.348  1.00  0.00     0.049 A 
ATOM     64  H   UNL     1       4.924  -1.109  -6.409  1.00  0.00     0.167 HD
ATOM     65  C   UNL     1       7.275   0.593  -8.700  1.00  0.00     0.074 A 
ATOM     66  C   UNL     1       8.535   0.842  -9.379  1.00  0.00     0.031 C 
ATOM     67  C   UNL     1       6.512  -0.533  -8.559  1.00  0.00     0.037 A 
BRANCH  54  68
ATOM     68  C   UNL     1       0.999  -1.098  -5.880  1.00  0.00     0.064 A 
ATOM     69  C   UNL     1       0.282  -1.572  -7.004  1.00  0.00     0.173 A 
ATOM     70  C   UNL     1       0.416  -1.386  -4.633  1.00  0.00     0.173 A 
ATOM     71  F   UNL     1       0.739  -1.414  -8.251  1.00  0.00    -0.203 F 
ATOM     72  C   UNL     1      -0.945  -2.227  -6.897  1.00  0.00     0.198 A 
ATOM     73  C   UNL     1      -0.826  -2.034  -4.529  1.00  0.00     0.198 A 
ATOM     74  F   UNL     1       1.048  -1.074  -3.494  1.00  0.00    -0.203 F 
ATOM     75  F   UNL     1      -1.576  -2.638  -8.006  1.00  0.00    -0.200 F 
ATOM     76  C   UNL     1      -1.507  -2.446  -5.660  1.00  0.00     0.200 A 
ATOM     77  F   UNL     1      -1.362  -2.270  -3.324  1.00  0.00    -0.200 F 
ATOM     78  F   UNL     1      -2.692  -3.065  -5.559  1.00  0.00    -0.200 F 
ENDBRANCH  54  68
BRANCH  55  79
ATOM     79  C   UNL     1       8.283   5.097  -7.569  1.00  0.00     0.064 A 
ATOM     80  C   UNL     1       8.202   6.501  -7.741  1.00  0.00     0.173 A 
ATOM     81  C   UNL     1       8.855   4.650  -6.371  1.00  0.00     0.173 A 
ATOM     82  F   UNL     1       7.680   7.009  -8.870  1.00  0.00    -0.203 F 
ATOM     83  C   UNL     1       8.570   7.397  -6.736  1.00  0.00     0.198 A 
ATOM     84  C   UNL     1       9.247   5.553  -5.372  1.00  0.00     0.198 A 
ATOM     85  F   UNL     1       8.977   3.340  -6.121  1.00  0.00    -0.203 F 
ATOM     86  F   UNL     1       8.364   8.711  -6.904  1.00  0.00    -0.200 F 
ATOM     87  C   UNL     1       9.086   6.921  -5.547  1.00  0.00     0.200 A 
ATOM     88  F   UNL     1       9.706   5.093  -4.198  1.00  0.00    -0.200 F 
ATOM     89  F   UNL     1       9.378   7.768  -4.549  1.00  0.00    -0.200 F 
ENDBRANCH  55  79
BRANCH  67  90
ATOM     90  C   UNL     1       6.961  -1.961  -8.768  1.00  0.00     0.064 A 
ATOM     91  C   UNL     1       8.302  -2.369  -8.730  1.00  0.00     0.173 A 
ATOM     92  C   UNL     1       6.012  -3.014  -8.863  1.00  0.00     0.173 A 
ATOM     93  F   UNL     1       9.294  -1.502  -8.494  1.00  0.00    -0.203 F 
ATOM     94  C   UNL     1       8.669  -3.709  -8.866  1.00  0.00     0.198 A 
ATOM     95  C   UNL     1       6.380  -4.354  -8.912  1.00  0.00     0.198 A 
ATOM     96  F   UNL     1       4.690  -2.788  -8.877  1.00  0.00    -0.203 F 
ATOM     97  F   UNL     1       9.969  -4.034  -8.892  1.00  0.00    -0.200 F 
ATOM     98  C   UNL     1       7.711  -4.701  -8.941  1.00  0.00     0.200 A 
ATOM     99  F   UNL     1       5.433  -5.303  -8.911  1.00  0.00    -0.200 F 
ATOM    100  F   UNL     1       8.070  -5.988  -9.015  1.00  0.00    -0.200 F 
ENDBRANCH  67  90
ENDBRANCH  41  42
ENDBRANCH  34  36
ENDBRANCH  33  34
ENDBRANCH  32  33
ENDBRANCH   1  32
TORSDOF 15
