REMARK SMILES C[C@]1(C(=O)OCCOC(=O)c2ccc(-c3c4nc(c(-c5c(F)c(F)c(F)c(F)c5F)c5ccc([nH]5)c(-c5c(F)c(F)c(F)c(F)c5F)c5nc(c(-c6c(F)c(F)c(F)c(F)c6F)c6ccc3[nH]6)C=C5)C=C4)cc2)[NH2+]C2(C(=O)c3ccccc3C2=O)[C@@H]2C(=O)N(c3ccccc3)C(=O)[C@H]21
REMARK SMILES IDX 7 1 6 2 5 3 3 4 4 5 2 6 1 7 74 8 98 9 75 10 86 13 96 14
REMARK SMILES IDX 76 15 84 16 87 17 89 18 97 19 77 20 78 21 83 22 85 23 88 24
REMARK SMILES IDX 79 25 82 26 80 27 81 28 90 29 91 30 95 31 92 32 94 33 93 34
REMARK SMILES IDX 8 35 9 36 10 37 11 38 12 39 73 40 13 41 72 42 14 43 15 44
REMARK SMILES IDX 16 45 66 46 17 47 71 48 65 49 67 50 18 51 70 52 64 53 63 54
REMARK SMILES IDX 19 56 51 57 31 58 50 59 32 60 35 61 49 62 68 63 33 64 34 65
REMARK SMILES IDX 48 67 69 68 36 69 20 70 21 71 29 72 22 73 23 74 27 75 30 76
REMARK SMILES IDX 24 77 25 78 28 79 26 80 52 81 53 82 61 83 54 84 55 85 59 86
REMARK SMILES IDX 62 87 56 88 57 89 60 90 58 91 37 92 38 93 46 94 39 95 40 96
REMARK SMILES IDX 44 97 47 98 41 99 42 100 45 101 43 102
REMARK H PARENT 74 11 74 12 67 55 35 66
REMARK Flexibility Score: inf
ROOT
ATOM      1  C   UNL     1      -0.736   1.303   4.546  1.00  0.00     0.275 C 
ENDROOT
BRANCH   1   2
ATOM      2  C   UNL     1       0.081   2.329   3.763  1.00  0.00     0.274 C 
BRANCH   2   3
ATOM      3  O   UNL     1      -0.139   2.211   2.343  1.00  0.00    -0.457 OA
BRANCH   3   4
ATOM      4  C   UNL     1       0.839   1.627   1.595  1.00  0.00     0.368 C 
ATOM      5  O   UNL     1       1.854   1.131   2.067  1.00  0.00    -0.245 OA
BRANCH   4   6
ATOM      6  C   UNL     1       0.575   1.765   0.060  1.00  0.00     0.205 C 
ATOM      7  C   UNL     1       1.237   0.634  -0.734  1.00  0.00     0.093 C 
ATOM      8  N   UNL     1      -0.900   1.816  -0.280  1.00  0.00    -0.313 N 
ATOM      9  C   UNL     1       1.059   3.110  -0.410  1.00  0.00     0.172 C 
ATOM     10  C   UNL     1      -1.228   3.225  -0.735  1.00  0.00     0.237 C 
ATOM     11  H   UNL     1      -1.454   1.580   0.543  1.00  0.00     0.348 HD
ATOM     12  H   UNL     1      -1.117   1.145  -1.018  1.00  0.00     0.348 HD
ATOM     13  C   UNL     1      -0.128   3.995  -0.087  1.00  0.00     0.177 C 
ATOM     14  C   UNL     1       2.177   3.879   0.191  1.00  0.00     0.244 C 
ATOM     15  C   UNL     1      -1.329   3.276  -2.260  1.00  0.00     0.232 C 
ATOM     16  C   UNL     1      -2.637   3.603  -0.281  1.00  0.00     0.232 C 
ATOM     17  C   UNL     1       0.469   5.328  -0.362  1.00  0.00     0.245 C 
ATOM     18  N   UNL     1       1.783   5.209   0.104  1.00  0.00    -0.250 N 
ATOM     19  O   UNL     1       3.215   3.382   0.591  1.00  0.00    -0.273 OA
ATOM     20  O   UNL     1      -0.453   3.039  -3.072  1.00  0.00    -0.286 OA
ATOM     21  C   UNL     1      -2.717   3.546  -2.621  1.00  0.00     0.036 A 
ATOM     22  C   UNL     1      -3.483   3.718  -1.475  1.00  0.00     0.036 A 
ATOM     23  O   UNL     1      -3.037   3.796   0.853  1.00  0.00    -0.286 OA
ATOM     24  O   UNL     1      -0.145   6.293  -0.778  1.00  0.00    -0.273 OA
ATOM     25  C   UNL     1      -3.269   3.593  -3.888  1.00  0.00     0.013 A 
ATOM     26  C   UNL     1      -4.844   3.945  -1.550  1.00  0.00     0.013 A 
ATOM     27  C   UNL     1      -4.642   3.826  -3.982  1.00  0.00     0.001 A 
ATOM     28  C   UNL     1      -5.424   3.998  -2.823  1.00  0.00     0.001 A 
BRANCH  18  29
ATOM     29  C   UNL     1       2.580   6.263   0.599  1.00  0.00     0.052 A 
ATOM     30  C   UNL     1       3.979   6.190   0.543  1.00  0.00     0.027 A 
ATOM     31  C   UNL     1       1.987   7.326   1.291  1.00  0.00     0.027 A 
ATOM     32  C   UNL     1       4.772   7.143   1.184  1.00  0.00     0.002 A 
ATOM     33  C   UNL     1       2.782   8.257   1.966  1.00  0.00     0.002 A 
ATOM     34  C   UNL     1       4.171   8.165   1.911  1.00  0.00     0.000 A 
ENDBRANCH  18  29
ENDBRANCH   4   6
ENDBRANCH   3   4
ENDBRANCH   2   3
ENDBRANCH   1   2
BRANCH   1  35
ATOM     35  O   UNL     1      -0.219  -0.022   4.336  1.00  0.00    -0.458 OA
BRANCH  35  36
ATOM     36  C   UNL     1      -0.822  -0.722   3.348  1.00  0.00     0.338 C 
ATOM     37  O   UNL     1      -1.796  -0.412   2.689  1.00  0.00    -0.246 OA
BRANCH  36  38
ATOM     38  C   UNL     1       0.005  -1.895   3.046  1.00  0.00     0.060 A 
ATOM     39  C   UNL     1      -0.038  -3.048   3.819  1.00  0.00     0.016 A 
ATOM     40  C   UNL     1       0.800  -1.838   1.905  1.00  0.00     0.016 A 
ATOM     41  C   UNL     1       0.755  -4.136   3.443  1.00  0.00     0.010 A 
ATOM     42  C   UNL     1       1.563  -2.923   1.508  1.00  0.00     0.010 A 
ATOM     43  C   UNL     1       1.559  -4.079   2.285  1.00  0.00    -0.014 A 
BRANCH  43  44
ATOM     44  C   UNL     1       2.356  -5.244   1.846  1.00  0.00     0.031 A 
ATOM     45  C   UNL     1       3.856  -5.196   1.842  1.00  0.00     0.074 A 
ATOM     46  C   UNL     1       1.701  -6.330   1.398  1.00  0.00     0.049 A 
ATOM     47  N   UNL     1       4.707  -6.154   1.574  1.00  0.00    -0.248 NA
ATOM     48  C   UNL     1       4.488  -3.902   2.148  1.00  0.00     0.031 C 
ATOM     49  C   UNL     1       0.248  -6.430   1.248  1.00  0.00     0.029 A 
ATOM     50  N   UNL     1       2.164  -7.557   1.002  1.00  0.00    -0.354 N 
ATOM     51  C   UNL     1       5.967  -5.583   1.693  1.00  0.00     0.074 A 
ATOM     52  C   UNL     1       5.774  -4.180   1.980  1.00  0.00     0.031 C 
ATOM     53  C   UNL     1      -0.067  -7.675   0.860  1.00  0.00     0.029 A 
ATOM     54  C   UNL     1       1.161  -8.450   0.714  1.00  0.00     0.049 A 
ATOM     55  H   UNL     1       3.121  -7.777   0.930  1.00  0.00     0.167 HD
ATOM     56  C   UNL     1       7.174  -6.191   1.608  1.00  0.00     0.037 A 
ATOM     57  C   UNL     1       1.229  -9.756   0.401  1.00  0.00     0.037 A 
ATOM     58  C   UNL     1       7.345  -7.595   1.338  1.00  0.00     0.049 A 
ATOM     59  C   UNL     1       2.577 -10.418   0.354  1.00  0.00     0.074 A 
ATOM     60  C   UNL     1       8.515  -8.330   1.295  1.00  0.00     0.029 A 
ATOM     61  N   UNL     1       6.306  -8.474   1.063  1.00  0.00    -0.354 N 
ATOM     62  N   UNL     1       3.760  -9.898   0.574  1.00  0.00    -0.248 NA
ATOM     63  C   UNL     1       2.601 -11.849   0.026  1.00  0.00     0.031 C 
ATOM     64  C   UNL     1       8.189  -9.647   0.956  1.00  0.00     0.029 A 
ATOM     65  C   UNL     1       6.811  -9.743   0.834  1.00  0.00     0.049 A 
ATOM     66  H   UNL     1       5.353  -8.232   1.035  1.00  0.00     0.167 HD
ATOM     67  C   UNL     1       4.668 -10.936   0.429  1.00  0.00     0.074 A 
ATOM     68  C   UNL     1       3.895 -12.124   0.123  1.00  0.00     0.031 C 
ATOM     69  C   UNL     1       6.019 -10.909   0.532  1.00  0.00     0.037 A 
BRANCH  56  70
ATOM     70  C   UNL     1       8.401  -5.359   1.851  1.00  0.00     0.064 A 
ATOM     71  C   UNL     1       8.699  -4.860   3.130  1.00  0.00     0.173 A 
ATOM     72  C   UNL     1       9.325  -5.119   0.824  1.00  0.00     0.173 A 
ATOM     73  F   UNL     1       7.848  -5.058   4.147  1.00  0.00    -0.203 F 
ATOM     74  C   UNL     1       9.866  -4.137   3.365  1.00  0.00     0.198 A 
ATOM     75  C   UNL     1      10.506  -4.420   1.070  1.00  0.00     0.198 A 
ATOM     76  F   UNL     1       9.097  -5.580  -0.415  1.00  0.00    -0.203 F 
ATOM     77  F   UNL     1      10.111  -3.644   4.587  1.00  0.00    -0.200 F 
ATOM     78  C   UNL     1      10.773  -3.926   2.338  1.00  0.00     0.200 A 
ATOM     79  F   UNL     1      11.390  -4.232   0.081  1.00  0.00    -0.200 F 
ATOM     80  F   UNL     1      11.905  -3.248   2.571  1.00  0.00    -0.200 F 
ENDBRANCH  56  70
BRANCH  57  81
ATOM     81  C   UNL     1      -0.025 -10.525   0.205  1.00  0.00     0.064 A 
ATOM     82  C   UNL     1      -0.446 -11.462   1.159  1.00  0.00     0.173 A 
ATOM     83  C   UNL     1      -0.856 -10.304  -0.904  1.00  0.00     0.173 A 
ATOM     84  F   UNL     1       0.319 -11.715   2.231  1.00  0.00    -0.203 F 
ATOM     85  C   UNL     1      -1.645 -12.155   1.008  1.00  0.00     0.198 A 
ATOM     86  C   UNL     1      -2.068 -10.978  -1.040  1.00  0.00     0.198 A 
ATOM     87  F   UNL     1      -0.504  -9.408  -1.838  1.00  0.00    -0.203 F 
ATOM     88  F   UNL     1      -2.010 -13.064   1.922  1.00  0.00    -0.200 F 
ATOM     89  C   UNL     1      -2.459 -11.906  -0.087  1.00  0.00     0.200 A 
ATOM     90  F   UNL     1      -2.861 -10.720  -2.089  1.00  0.00    -0.200 F 
ATOM     91  F   UNL     1      -3.621 -12.560  -0.223  1.00  0.00    -0.200 F 
ENDBRANCH  57  81
BRANCH  69  92
ATOM     92  C   UNL     1       6.752 -12.200   0.319  1.00  0.00     0.064 A 
ATOM     93  C   UNL     1       6.886 -12.760  -0.959  1.00  0.00     0.173 A 
ATOM     94  C   UNL     1       7.392 -12.840   1.391  1.00  0.00     0.173 A 
ATOM     95  F   UNL     1       6.282 -12.190  -2.013  1.00  0.00    -0.203 F 
ATOM     96  C   UNL     1       7.623 -13.924  -1.155  1.00  0.00     0.198 A 
ATOM     97  C   UNL     1       8.152 -13.987   1.187  1.00  0.00     0.198 A 
ATOM     98  F   UNL     1       7.301 -12.338   2.632  1.00  0.00    -0.203 F 
ATOM     99  F   UNL     1       7.709 -14.461  -2.379  1.00  0.00    -0.200 F 
ATOM    100  C   UNL     1       8.264 -14.530  -0.084  1.00  0.00     0.200 A 
ATOM    101  F   UNL     1       8.784 -14.563   2.219  1.00  0.00    -0.200 F 
ATOM    102  F   UNL     1       8.988 -15.641  -0.278  1.00  0.00    -0.200 F 
ENDBRANCH  69  92
ENDBRANCH  43  44
ENDBRANCH  36  38
ENDBRANCH  35  36
ENDBRANCH   1  35
TORSDOF 12
