REMARK SMILES CCOc1c(Br)cc(CNc2cccc(C(=O)OCCOC(=O)c3ccc(-c4c5nc(c(-c6c(F)c(F)c(F)c(F)c6F)c6ccc([nH]6)c(-c6c(F)c(F)c(F)c(F)c6F)c6nc(c(-c7c(F)c(F)c(F)c(F)c7F)c7ccc4[nH]7)C=C6)C=C5)cc3)c2C)cc1OC
REMARK SMILES IDX 18 1 16 2 17 3 15 4 11 5 12 6 87 7 13 8 88 9 14 10 10 11
REMARK SMILES IDX 9 13 8 14 4 15 5 16 90 17 6 18 7 19 89 20 3 21 2 22 1 23
REMARK SMILES IDX 91 24 92 25 19 26 20 27 21 28 22 29 23 30 24 31 25 32 86 33
REMARK SMILES IDX 26 34 85 35 27 36 28 37 29 38 79 39 30 40 84 41 78 42 80 43
REMARK SMILES IDX 31 44 83 45 77 46 76 47 32 49 64 50 44 51 63 52 45 53 48 54
REMARK SMILES IDX 62 55 81 56 46 57 47 58 61 60 82 61 49 62 33 63 34 64 42 65
REMARK SMILES IDX 35 66 36 67 40 68 43 69 37 70 38 71 41 72 39 73 65 74 66 75
REMARK SMILES IDX 74 76 67 77 68 78 72 79 75 80 69 81 70 82 73 83 71 84 50 85
REMARK SMILES IDX 51 86 59 87 52 88 53 89 57 90 60 91 54 92 55 93 58 94 56 95
REMARK H PARENT 10 12 80 48 48 59
REMARK Flexibility Score: inf
ROOT
ATOM      1  O   UNL     1      10.712   1.588  -1.519  1.00  0.00    -0.458 OA
ENDROOT
BRANCH   1   2
ATOM      2  C   UNL     1      10.772   0.236  -1.516  1.00  0.00     0.338 C 
ATOM      3  O   UNL     1      11.274  -0.465  -2.371  1.00  0.00    -0.246 OA
BRANCH   2   4
ATOM      4  C   UNL     1      10.158  -0.249  -0.248  1.00  0.00     0.065 A 
ATOM      5  C   UNL     1       8.585  -1.605   1.067  1.00  0.00     0.038 A 
ATOM      6  C   UNL     1       9.203  -1.101   2.224  1.00  0.00     0.026 A 
ATOM      7  C   UNL     1       9.104  -1.197  -0.196  1.00  0.00    -0.013 A 
ATOM      8  C   UNL     1      10.252  -0.184   2.165  1.00  0.00     0.003 A 
ATOM      9  C   UNL     1       8.519  -1.795  -1.453  1.00  0.00     0.047 C 
ATOM     10  C   UNL     1      10.714   0.259   0.935  1.00  0.00     0.016 A 
BRANCH   5  11
ATOM     11  N   UNL     1       7.468  -2.426   1.134  1.00  0.00    -0.381 N 
ATOM     12  H   UNL     1       7.186  -2.853   0.293  1.00  0.00     0.160 HD
BRANCH  11  13
ATOM     13  C   UNL     1       6.672  -2.721   2.310  1.00  0.00     0.149 C 
BRANCH  13  14
ATOM     14  C   UNL     1       5.207  -2.449   2.041  1.00  0.00    -0.024 A 
ATOM     15  C   UNL     1       2.440  -1.923   1.690  1.00  0.00     0.175 A 
ATOM     16  C   UNL     1       3.351  -0.884   1.952  1.00  0.00     0.064 A 
ATOM     17  C   UNL     1       2.909  -3.246   1.681  1.00  0.00     0.162 A 
ATOM     18  Br  UNL     1       2.769   0.891   2.315  1.00  0.00    -0.047 Br
ATOM     19  C   UNL     1       4.722  -1.138   2.072  1.00  0.00     0.025 A 
ATOM     20  C   UNL     1       4.288  -3.490   1.844  1.00  0.00     0.056 A 
BRANCH  15  21
ATOM     21  O   UNL     1       1.111  -1.608   1.562  1.00  0.00    -0.489 OA
BRANCH  21  22
ATOM     22  C   UNL     1       0.672  -1.568   0.196  1.00  0.00     0.226 C 
ATOM     23  C   UNL     1       0.603  -0.144  -0.325  1.00  0.00     0.049 C 
ENDBRANCH  21  22
ENDBRANCH  15  21
BRANCH  17  24
ATOM     24  O   UNL     1       2.191  -4.407   1.553  1.00  0.00    -0.493 OA
ATOM     25  C   UNL     1       0.792  -4.384   1.795  1.00  0.00     0.278 C 
ENDBRANCH  17  24
ENDBRANCH  13  14
ENDBRANCH  11  13
ENDBRANCH   5  11
ENDBRANCH   2   4
ENDBRANCH   1   2
BRANCH   1  26
ATOM     26  C   UNL     1      11.426   2.352  -2.506  1.00  0.00     0.275 C 
BRANCH  26  27
ATOM     27  C   UNL     1      11.453   1.928  -3.992  1.00  0.00     0.275 C 
BRANCH  27  28
ATOM     28  O   UNL     1      10.298   1.565  -4.801  1.00  0.00    -0.458 OA
BRANCH  28  29
ATOM     29  C   UNL     1       9.096   1.139  -4.366  1.00  0.00     0.338 C 
ATOM     30  O   UNL     1       8.486   0.186  -4.826  1.00  0.00    -0.246 OA
BRANCH  29  31
ATOM     31  C   UNL     1       8.482   2.033  -3.392  1.00  0.00     0.060 A 
ATOM     32  C   UNL     1       7.753   1.487  -2.327  1.00  0.00     0.016 A 
ATOM     33  C   UNL     1       8.743   3.397  -3.496  1.00  0.00     0.016 A 
ATOM     34  C   UNL     1       7.373   2.294  -1.274  1.00  0.00     0.010 A 
ATOM     35  C   UNL     1       8.441   4.189  -2.425  1.00  0.00     0.010 A 
ATOM     36  C   UNL     1       7.719   3.638  -1.351  1.00  0.00    -0.014 A 
BRANCH  36  37
ATOM     37  C   UNL     1       7.031   4.644  -0.579  1.00  0.00     0.031 A 
ATOM     38  C   UNL     1       7.519   5.074   0.729  1.00  0.00     0.074 A 
ATOM     39  C   UNL     1       6.065   5.223  -1.323  1.00  0.00     0.049 A 
ATOM     40  N   UNL     1       6.767   5.608   1.624  1.00  0.00    -0.248 NA
ATOM     41  C   UNL     1       8.900   4.896   1.174  1.00  0.00     0.031 C 
ATOM     42  C   UNL     1       5.393   6.497  -1.192  1.00  0.00     0.029 A 
ATOM     43  N   UNL     1       5.439   4.618  -2.429  1.00  0.00    -0.354 N 
ATOM     44  C   UNL     1       7.606   6.194   2.547  1.00  0.00     0.074 A 
ATOM     45  C   UNL     1       8.895   5.581   2.326  1.00  0.00     0.031 C 
ATOM     46  C   UNL     1       4.290   6.476  -1.968  1.00  0.00     0.029 A 
ATOM     47  C   UNL     1       4.143   5.121  -2.494  1.00  0.00     0.049 A 
ATOM     48  H   UNL     1       5.843   3.963  -3.042  1.00  0.00     0.167 HD
ATOM     49  C   UNL     1       7.157   7.301   3.209  1.00  0.00     0.037 A 
ATOM     50  C   UNL     1       3.120   4.262  -2.203  1.00  0.00     0.037 A 
ATOM     51  C   UNL     1       5.806   7.628   2.751  1.00  0.00     0.049 A 
ATOM     52  C   UNL     1       2.448   4.654  -0.909  1.00  0.00     0.074 A 
ATOM     53  C   UNL     1       5.375   8.508   1.770  1.00  0.00     0.029 A 
ATOM     54  N   UNL     1       4.752   6.750   2.984  1.00  0.00    -0.354 N 
ATOM     55  N   UNL     1       3.059   5.234   0.088  1.00  0.00    -0.248 NA
ATOM     56  C   UNL     1       1.023   4.466  -0.673  1.00  0.00     0.031 C 
ATOM     57  C   UNL     1       4.070   8.128   1.379  1.00  0.00     0.029 A 
ATOM     58  C   UNL     1       3.707   7.014   2.117  1.00  0.00     0.049 A 
ATOM     59  H   UNL     1       4.750   6.043   3.668  1.00  0.00     0.167 HD
ATOM     60  C   UNL     1       2.140   5.559   1.049  1.00  0.00     0.074 A 
ATOM     61  C   UNL     1       0.883   5.043   0.532  1.00  0.00     0.031 C 
ATOM     62  C   UNL     1       2.468   6.257   2.176  1.00  0.00     0.037 A 
BRANCH  49  63
ATOM     63  C   UNL     1       8.038   8.296   3.939  1.00  0.00     0.064 A 
ATOM     64  C   UNL     1       7.675   9.663   4.007  1.00  0.00     0.173 A 
ATOM     65  C   UNL     1       9.258   7.984   4.566  1.00  0.00     0.173 A 
ATOM     66  F   UNL     1       6.497  10.103   3.548  1.00  0.00    -0.203 F 
ATOM     67  C   UNL     1       8.506  10.642   4.555  1.00  0.00     0.198 A 
ATOM     68  C   UNL     1      10.105   8.971   5.092  1.00  0.00     0.198 A 
ATOM     69  F   UNL     1       9.649   6.714   4.732  1.00  0.00    -0.203 F 
ATOM     70  F   UNL     1       8.106  11.922   4.564  1.00  0.00    -0.200 F 
ATOM     71  C   UNL     1       9.734  10.301   5.075  1.00  0.00     0.200 A 
ATOM     72  F   UNL     1      11.288   8.621   5.619  1.00  0.00    -0.200 F 
ATOM     73  F   UNL     1      10.542  11.243   5.579  1.00  0.00    -0.200 F 
ENDBRANCH  49  63
BRANCH  50  74
ATOM     74  C   UNL     1       3.385   2.847  -2.628  1.00  0.00     0.064 A 
ATOM     75  C   UNL     1       3.620   2.562  -3.990  1.00  0.00     0.173 A 
ATOM     76  C   UNL     1       3.721   1.843  -1.713  1.00  0.00     0.173 A 
ATOM     77  F   UNL     1       3.344   3.487  -4.923  1.00  0.00    -0.203 F 
ATOM     78  C   UNL     1       4.227   1.372  -4.400  1.00  0.00     0.198 A 
ATOM     79  C   UNL     1       4.304   0.640  -2.126  1.00  0.00     0.198 A 
ATOM     80  F   UNL     1       3.571   2.058  -0.402  1.00  0.00    -0.203 F 
ATOM     81  F   UNL     1       4.522   1.184  -5.695  1.00  0.00    -0.200 F 
ATOM     82  C   UNL     1       4.579   0.415  -3.465  1.00  0.00     0.200 A 
ATOM     83  F   UNL     1       4.675  -0.272  -1.216  1.00  0.00    -0.200 F 
ATOM     84  F   UNL     1       5.219  -0.700  -3.842  1.00  0.00    -0.200 F 
ENDBRANCH  50  74
BRANCH  62  85
ATOM     85  C   UNL     1       1.596   6.422   3.395  1.00  0.00     0.064 A 
ATOM     86  C   UNL     1       0.601   5.507   3.767  1.00  0.00     0.173 A 
ATOM     87  C   UNL     1       1.853   7.458   4.329  1.00  0.00     0.173 A 
ATOM     88  F   UNL     1       0.354   4.407   3.043  1.00  0.00    -0.203 F 
ATOM     89  C   UNL     1      -0.141   5.662   4.938  1.00  0.00     0.198 A 
ATOM     90  C   UNL     1       1.163   7.564   5.533  1.00  0.00     0.198 A 
ATOM     91  F   UNL     1       2.800   8.384   4.121  1.00  0.00    -0.203 F 
ATOM     92  F   UNL     1      -1.126   4.797   5.215  1.00  0.00    -0.200 F 
ATOM     93  C   UNL     1       0.148   6.681   5.826  1.00  0.00     0.200 A 
ATOM     94  F   UNL     1       1.504   8.518   6.411  1.00  0.00    -0.200 F 
ATOM     95  F   UNL     1      -0.535   6.797   6.972  1.00  0.00    -0.200 F 
ENDBRANCH  62  85
ENDBRANCH  36  37
ENDBRANCH  29  31
ENDBRANCH  28  29
ENDBRANCH  27  28
ENDBRANCH  26  27
ENDBRANCH   1  26
TORSDOF 17
