REMARK SMILES CC(C)(C[C@@H](O)C(F)(F)F)C(=O)OCCOC(=O)c1ccc(-c2c3nc(c(-c4c(F)c(F)c(F)c(F)c4F)c4ccc([nH]4)c(-c4c(F)c(F)c(F)c(F)c4F)c4nc(c(-c5c(F)c(F)c(F)c(F)c5F)c5ccc2[nH]5)C=C4)C=C3)cc1
REMARK SMILES IDX 14 1 13 2 11 3 12 4 2 5 1 6 3 7 4 8 5 9 6 10 7 12 8 13 9 14
REMARK SMILES IDX 10 15 15 16 16 17 17 18 18 19 19 20 20 21 81 22 21 23 80 24
REMARK SMILES IDX 22 25 23 26 24 27 74 28 25 29 79 30 73 31 75 32 26 33 78 34
REMARK SMILES IDX 72 35 71 36 27 38 59 39 39 40 58 41 40 42 43 43 57 44 76 45
REMARK SMILES IDX 41 46 42 47 56 49 77 50 44 51 28 52 29 53 37 54 30 55 31 56
REMARK SMILES IDX 35 57 38 58 32 59 33 60 36 61 34 62 60 63 61 64 69 65 62 66
REMARK SMILES IDX 63 67 67 68 70 69 64 70 65 71 68 72 66 73 45 74 46 75 54 76
REMARK SMILES IDX 47 77 48 78 52 79 55 80 49 81 50 82 53 83 51 84
REMARK H PARENT 6 11 75 37 43 48
REMARK Flexibility Score: inf
ROOT
ATOM      1  C   UNL     1       1.261   4.579  -0.756  1.00  0.00     0.274 C 
ENDROOT
BRANCH   1   2
ATOM      2  O   UNL     1       0.447   3.497  -1.252  1.00  0.00    -0.462 OA
BRANCH   2   3
ATOM      3  C   UNL     1       0.968   2.249  -1.152  1.00  0.00     0.311 C 
ATOM      4  O   UNL     1       2.100   2.004  -0.751  1.00  0.00    -0.252 OA
BRANCH   3   5
ATOM      5  C   UNL     1       0.020   1.169  -1.689  1.00  0.00     0.065 C 
ATOM      6  C   UNL     1       0.357  -0.193  -1.044  1.00  0.00     0.023 C 
ATOM      7  C   UNL     1       0.330   1.053  -3.194  1.00  0.00     0.023 C 
BRANCH   5   8
ATOM      8  C   UNL     1      -1.494   1.474  -1.505  1.00  0.00     0.059 C 
BRANCH   8   9
ATOM      9  C   UNL     1      -1.975   1.689  -0.055  1.00  0.00     0.220 C 
BRANCH   9  10
ATOM     10  O   UNL     1      -1.843   3.083   0.260  1.00  0.00    -0.384 OA
ATOM     11  H   UNL     1      -2.383   3.606  -0.353  1.00  0.00     0.211 HD
ENDBRANCH   9  10
BRANCH   9  12
ATOM     12  C   UNL     1      -3.418   1.182   0.122  1.00  0.00     0.414 C 
ATOM     13  F   UNL     1      -3.474  -0.159  -0.060  1.00  0.00    -0.168 F 
ATOM     14  F   UNL     1      -3.862   1.435   1.374  1.00  0.00    -0.168 F 
ATOM     15  F   UNL     1      -4.276   1.752  -0.750  1.00  0.00    -0.168 F 
ENDBRANCH   9  12
ENDBRANCH   8   9
ENDBRANCH   5   8
ENDBRANCH   3   5
ENDBRANCH   2   3
ENDBRANCH   1   2
BRANCH   1  16
ATOM     16  C   UNL     1       0.958   4.882   0.713  1.00  0.00     0.275 C 
BRANCH  16  17
ATOM     17  O   UNL     1       1.430   3.807   1.547  1.00  0.00    -0.458 OA
BRANCH  17  18
ATOM     18  C   UNL     1       0.584   3.366   2.501  1.00  0.00     0.338 C 
ATOM     19  O   UNL     1      -0.531   3.788   2.773  1.00  0.00    -0.246 OA
BRANCH  18  20
ATOM     20  C   UNL     1       1.168   2.193   3.174  1.00  0.00     0.060 A 
ATOM     21  C   UNL     1       1.455   1.056   2.422  1.00  0.00     0.016 A 
ATOM     22  C   UNL     1       1.296   2.164   4.563  1.00  0.00     0.016 A 
ATOM     23  C   UNL     1       1.797  -0.136   3.053  1.00  0.00     0.010 A 
ATOM     24  C   UNL     1       1.712   0.984   5.194  1.00  0.00     0.010 A 
ATOM     25  C   UNL     1       1.927  -0.189   4.448  1.00  0.00    -0.014 A 
BRANCH  25  26
ATOM     26  C   UNL     1       2.213  -1.490   5.109  1.00  0.00     0.031 A 
ATOM     27  C   UNL     1       1.185  -2.125   6.007  1.00  0.00     0.074 A 
ATOM     28  C   UNL     1       3.365  -2.141   4.855  1.00  0.00     0.049 A 
ATOM     29  N   UNL     1       1.273  -3.218   6.724  1.00  0.00    -0.248 NA
ATOM     30  C   UNL     1      -0.112  -1.439   6.120  1.00  0.00     0.031 C 
ATOM     31  C   UNL     1       4.432  -1.661   3.977  1.00  0.00     0.029 A 
ATOM     32  N   UNL     1       3.816  -3.363   5.291  1.00  0.00    -0.354 N 
ATOM     33  C   UNL     1       0.072  -3.318   7.413  1.00  0.00     0.074 A 
ATOM     34  C   UNL     1      -0.737  -2.184   7.021  1.00  0.00     0.031 C 
ATOM     35  C   UNL     1       5.388  -2.600   3.895  1.00  0.00     0.029 A 
ATOM     36  C   UNL     1       5.029  -3.722   4.757  1.00  0.00     0.049 A 
ATOM     37  H   UNL     1       3.318  -3.926   5.926  1.00  0.00     0.167 HD
ATOM     38  C   UNL     1      -0.320  -4.268   8.296  1.00  0.00     0.037 A 
ATOM     39  C   UNL     1       5.773  -4.828   4.946  1.00  0.00     0.037 A 
ATOM     40  C   UNL     1       0.454  -5.429   8.645  1.00  0.00     0.049 A 
ATOM     41  C   UNL     1       5.294  -5.892   5.892  1.00  0.00     0.074 A 
ATOM     42  C   UNL     1       0.149  -6.434   9.548  1.00  0.00     0.029 A 
ATOM     43  N   UNL     1       1.678  -5.756   8.082  1.00  0.00    -0.354 N 
ATOM     44  N   UNL     1       4.191  -5.933   6.597  1.00  0.00    -0.248 NA
ATOM     45  C   UNL     1       6.172  -7.056   6.080  1.00  0.00     0.031 C 
ATOM     46  C   UNL     1       1.194  -7.366   9.537  1.00  0.00     0.029 A 
ATOM     47  C   UNL     1       2.136  -6.952   8.610  1.00  0.00     0.049 A 
ATOM     48  H   UNL     1       2.151  -5.218   7.406  1.00  0.00     0.167 HD
ATOM     49  C   UNL     1       4.245  -7.116   7.318  1.00  0.00     0.074 A 
ATOM     50  C   UNL     1       5.474  -7.783   6.941  1.00  0.00     0.031 C 
ATOM     51  C   UNL     1       3.362  -7.598   8.226  1.00  0.00     0.037 A 
BRANCH  38  52
ATOM     52  C   UNL     1      -1.640  -4.073   8.975  1.00  0.00     0.064 A 
ATOM     53  C   UNL     1      -2.851  -4.351   8.328  1.00  0.00     0.173 A 
ATOM     54  C   UNL     1      -1.688  -3.634  10.307  1.00  0.00     0.173 A 
ATOM     55  F   UNL     1      -2.855  -4.755   7.049  1.00  0.00    -0.203 F 
ATOM     56  C   UNL     1      -4.067  -4.183   8.987  1.00  0.00     0.198 A 
ATOM     57  C   UNL     1      -2.903  -3.485  10.968  1.00  0.00     0.198 A 
ATOM     58  F   UNL     1      -0.554  -3.356  10.967  1.00  0.00    -0.203 F 
ATOM     59  F   UNL     1      -5.216  -4.424   8.341  1.00  0.00    -0.200 F 
ATOM     60  C   UNL     1      -4.091  -3.756  10.307  1.00  0.00     0.200 A 
ATOM     61  F   UNL     1      -2.925  -3.078  12.245  1.00  0.00    -0.200 F 
ATOM     62  F   UNL     1      -5.262  -3.600  10.940  1.00  0.00    -0.200 F 
ENDBRANCH  38  52
BRANCH  39  63
ATOM     63  C   UNL     1       7.057  -4.982   4.218  1.00  0.00     0.064 A 
ATOM     64  C   UNL     1       7.173  -5.886   3.155  1.00  0.00     0.173 A 
ATOM     65  C   UNL     1       8.182  -4.218   4.559  1.00  0.00     0.173 A 
ATOM     66  F   UNL     1       6.129  -6.654   2.812  1.00  0.00    -0.203 F 
ATOM     67  C   UNL     1       8.372  -6.023   2.459  1.00  0.00     0.198 A 
ATOM     68  C   UNL     1       9.373  -4.341   3.849  1.00  0.00     0.198 A 
ATOM     69  F   UNL     1       8.117  -3.342   5.571  1.00  0.00    -0.203 F 
ATOM     70  F   UNL     1       8.468  -6.915   1.463  1.00  0.00    -0.200 F 
ATOM     71  C   UNL     1       9.469  -5.246   2.801  1.00  0.00     0.200 A 
ATOM     72  F   UNL     1      10.428  -3.582   4.177  1.00  0.00    -0.200 F 
ATOM     73  F   UNL     1      10.619  -5.372   2.126  1.00  0.00    -0.200 F 
ENDBRANCH  39  63
BRANCH  51  74
ATOM     74  C   UNL     1       3.699  -8.906   8.871  1.00  0.00     0.064 A 
ATOM     75  C   UNL     1       4.646  -8.981   9.903  1.00  0.00     0.173 A 
ATOM     76  C   UNL     1       3.057 -10.087   8.473  1.00  0.00     0.173 A 
ATOM     77  F   UNL     1       5.294  -7.878  10.305  1.00  0.00    -0.203 F 
ATOM     78  C   UNL     1       4.952 -10.199  10.502  1.00  0.00     0.198 A 
ATOM     79  C   UNL     1       3.355 -11.301   9.085  1.00  0.00     0.198 A 
ATOM     80  F   UNL     1       2.144 -10.061   7.490  1.00  0.00    -0.203 F 
ATOM     81  F   UNL     1       5.884 -10.256  11.463  1.00  0.00    -0.200 F 
ATOM     82  C   UNL     1       4.305 -11.357  10.094  1.00  0.00     0.200 A 
ATOM     83  F   UNL     1       2.729 -12.419   8.693  1.00  0.00    -0.200 F 
ATOM     84  F   UNL     1       4.605 -12.530  10.669  1.00  0.00    -0.200 F 
ENDBRANCH  51  74
ENDBRANCH  25  26
ENDBRANCH  18  20
ENDBRANCH  17  18
ENDBRANCH  16  17
ENDBRANCH   1  16
TORSDOF 15
