REMARK SMILES CN(C)C(=O)Nc1cccc(/C=C/C(=O)OCCOC(=O)c2ccc(-c3c4nc(c(-c5c(F)c(F)c(F)c(F)c5F)c5ccc([nH]5)c(-c5c(F)c(F)c(F)c(F)c5F)c5nc(c(-c6c(F)c(F)c(F)c(F)c6F)c6ccc3[nH]6)C=C5)C=C4)cc2)n1
REMARK SMILES IDX 17 1 16 2 14 3 15 4 13 5 12 6 11 7 7 8 8 9 85 10 9 11 10 12
REMARK SMILES IDX 6 13 1 14 2 15 3 16 4 17 5 18 18 20 19 21 20 22 21 23 22 24
REMARK SMILES IDX 23 25 84 26 24 27 83 28 25 29 26 30 27 31 77 32 28 33 82 34
REMARK SMILES IDX 76 35 78 36 29 37 81 38 75 39 74 40 30 42 62 43 42 44 61 45
REMARK SMILES IDX 43 46 46 47 60 48 79 49 44 50 45 51 59 53 80 54 47 55 31 56
REMARK SMILES IDX 32 57 40 58 33 59 34 60 38 61 41 62 35 63 36 64 39 65 37 66
REMARK SMILES IDX 63 67 64 68 72 69 65 70 66 71 70 72 73 73 67 74 68 75 71 76
REMARK SMILES IDX 69 77 48 78 49 79 57 80 50 81 51 82 55 83 58 84 52 85 53 86
REMARK SMILES IDX 56 87 54 88
REMARK H PARENT 6 19 78 41 46 52
REMARK Flexibility Score: inf
ROOT
ATOM      1  C   UNL     1       0.291  10.377  -5.150  1.00  0.00     0.275 C 
ENDROOT
BRANCH   1   2
ATOM      2  O   UNL     1      -0.099   9.103  -4.609  1.00  0.00    -0.459 OA
BRANCH   2   3
ATOM      3  C   UNL     1       0.903   8.351  -4.098  1.00  0.00     0.330 C 
ATOM      4  O   UNL     1       2.098   8.603  -4.154  1.00  0.00    -0.247 OA
BRANCH   3   5
ATOM      5  C   UNL     1       0.403   7.178  -3.363  1.00  0.00     0.095 C 
ATOM      6  C   UNL     1      -0.887   6.833  -3.217  1.00  0.00     0.036 C 
BRANCH   6   7
ATOM      7  C   UNL     1      -1.286   5.686  -2.394  1.00  0.00     0.066 A 
ATOM      8  C   UNL     1      -0.648   4.119  -0.812  1.00  0.00     0.134 A 
ATOM      9  C   UNL     1      -1.871   3.470  -0.896  1.00  0.00     0.047 A 
ATOM     10  N   UNL     1      -0.366   5.235  -1.510  1.00  0.00    -0.231 NA
ATOM     11  C   UNL     1      -2.830   3.972  -1.772  1.00  0.00     0.006 A 
ATOM     12  C   UNL     1      -2.532   5.092  -2.543  1.00  0.00     0.028 A 
BRANCH   8  13
ATOM     13  N   UNL     1       0.384   3.686   0.010  1.00  0.00    -0.292 N 
ATOM     14  C   UNL     1       0.691   0.045   0.399  1.00  0.00     0.148 C 
ATOM     15  N   UNL     1       0.431   1.331  -0.225  1.00  0.00    -0.331 N 
ATOM     16  C   UNL     1       0.276   1.299  -1.675  1.00  0.00     0.148 C 
ATOM     17  C   UNL     1       0.673   2.466   0.523  1.00  0.00     0.322 C 
ATOM     18  O   UNL     1       1.248   2.415   1.613  1.00  0.00    -0.248 OA
ATOM     19  H   UNL     1       1.020   4.392   0.266  1.00  0.00     0.173 HD
ENDBRANCH   8  13
ENDBRANCH   6   7
ENDBRANCH   3   5
ENDBRANCH   2   3
ENDBRANCH   1   2
BRANCH   1  20
ATOM     20  C   UNL     1       0.032  11.504  -4.146  1.00  0.00     0.275 C 
BRANCH  20  21
ATOM     21  O   UNL     1       0.919  11.428  -3.013  1.00  0.00    -0.458 OA
BRANCH  21  22
ATOM     22  C   UNL     1       0.449  10.721  -1.956  1.00  0.00     0.338 C 
ATOM     23  O   UNL     1      -0.643  10.190  -1.853  1.00  0.00    -0.246 OA
BRANCH  22  24
ATOM     24  C   UNL     1       1.512  10.578  -0.942  1.00  0.00     0.060 A 
ATOM     25  C   UNL     1       1.778   9.299  -0.442  1.00  0.00     0.016 A 
ATOM     26  C   UNL     1       2.198  11.688  -0.443  1.00  0.00     0.016 A 
ATOM     27  C   UNL     1       2.734   9.126   0.558  1.00  0.00     0.010 A 
ATOM     28  C   UNL     1       3.152  11.514   0.567  1.00  0.00     0.010 A 
ATOM     29  C   UNL     1       3.418  10.233   1.079  1.00  0.00    -0.014 A 
BRANCH  29  30
ATOM     30  C   UNL     1       4.378  10.047   2.193  1.00  0.00     0.031 A 
ATOM     31  C   UNL     1       3.961  10.358   3.602  1.00  0.00     0.074 A 
ATOM     32  C   UNL     1       5.613   9.576   1.944  1.00  0.00     0.049 A 
ATOM     33  N   UNL     1       4.653  10.271   4.710  1.00  0.00    -0.248 NA
ATOM     34  C   UNL     1       2.582  10.831   3.787  1.00  0.00     0.031 C 
ATOM     35  C   UNL     1       6.124   9.213   0.624  1.00  0.00     0.029 A 
ATOM     36  N   UNL     1       6.660   9.321   2.795  1.00  0.00    -0.354 N 
ATOM     37  C   UNL     1       3.795  10.676   5.723  1.00  0.00     0.074 A 
ATOM     38  C   UNL     1       2.541  11.038   5.096  1.00  0.00     0.031 C 
ATOM     39  C   UNL     1       7.388   8.776   0.752  1.00  0.00     0.029 A 
ATOM     40  C   UNL     1       7.783   8.856   2.157  1.00  0.00     0.049 A 
ATOM     41  H   UNL     1       6.610   9.459   3.768  1.00  0.00     0.167 HD
ATOM     42  C   UNL     1       4.031  10.732   7.056  1.00  0.00     0.037 A 
ATOM     43  C   UNL     1       8.995   8.542   2.651  1.00  0.00     0.037 A 
ATOM     44  C   UNL     1       5.277  10.370   7.681  1.00  0.00     0.049 A 
ATOM     45  C   UNL     1       9.249   8.668   4.129  1.00  0.00     0.074 A 
ATOM     46  C   UNL     1       5.604  10.379   9.026  1.00  0.00     0.029 A 
ATOM     47  N   UNL     1       6.404   9.938   6.998  1.00  0.00    -0.354 N 
ATOM     48  N   UNL     1       8.427   9.035   5.082  1.00  0.00    -0.248 NA
ATOM     49  C   UNL     1      10.602   8.337   4.599  1.00  0.00     0.031 C 
ATOM     50  C   UNL     1       6.943   9.991   9.154  1.00  0.00     0.029 A 
ATOM     51  C   UNL     1       7.437   9.700   7.893  1.00  0.00     0.049 A 
ATOM     52  H   UNL     1       6.463   9.818   6.023  1.00  0.00     0.167 HD
ATOM     53  C   UNL     1       9.152   8.958   6.263  1.00  0.00     0.074 A 
ATOM     54  C   UNL     1      10.479   8.498   5.910  1.00  0.00     0.031 C 
ATOM     55  C   UNL     1       8.752   9.242   7.527  1.00  0.00     0.037 A 
BRANCH  42  56
ATOM     56  C   UNL     1       2.917  11.224   7.931  1.00  0.00     0.064 A 
ATOM     57  C   UNL     1       1.788  10.434   8.198  1.00  0.00     0.173 A 
ATOM     58  C   UNL     1       2.992  12.489   8.534  1.00  0.00     0.173 A 
ATOM     59  F   UNL     1       1.664   9.223   7.636  1.00  0.00    -0.203 F 
ATOM     60  C   UNL     1       0.764  10.904   9.017  1.00  0.00     0.198 A 
ATOM     61  C   UNL     1       1.978  12.945   9.371  1.00  0.00     0.198 A 
ATOM     62  F   UNL     1       4.053  13.280   8.314  1.00  0.00    -0.203 F 
ATOM     63  F   UNL     1      -0.324  10.150   9.226  1.00  0.00    -0.200 F 
ATOM     64  C   UNL     1       0.862  12.155   9.607  1.00  0.00     0.200 A 
ATOM     65  F   UNL     1       2.078  14.150   9.947  1.00  0.00    -0.200 F 
ATOM     66  F   UNL     1      -0.123  12.604  10.397  1.00  0.00    -0.200 F 
ENDBRANCH  42  56
BRANCH  43  67
ATOM     67  C   UNL     1      10.065   8.075   1.734  1.00  0.00     0.064 A 
ATOM     68  C   UNL     1      10.501   6.743   1.752  1.00  0.00     0.173 A 
ATOM     69  C   UNL     1      10.675   8.951   0.824  1.00  0.00     0.173 A 
ATOM     70  F   UNL     1       9.967   5.876   2.625  1.00  0.00    -0.203 F 
ATOM     71  C   UNL     1      11.512   6.307   0.899  1.00  0.00     0.198 A 
ATOM     72  C   UNL     1      11.669   8.508  -0.044  1.00  0.00     0.198 A 
ATOM     73  F   UNL     1      10.297  10.237   0.773  1.00  0.00    -0.203 F 
ATOM     74  F   UNL     1      11.938   5.037   0.962  1.00  0.00    -0.200 F 
ATOM     75  C   UNL     1      12.091   7.187  -0.003  1.00  0.00     0.200 A 
ATOM     76  F   UNL     1      12.221   9.360  -0.919  1.00  0.00    -0.200 F 
ATOM     77  F   UNL     1      13.062   6.766  -0.824  1.00  0.00    -0.200 F 
ENDBRANCH  43  67
BRANCH  55  78
ATOM     78  C   UNL     1       9.755   9.043   8.624  1.00  0.00     0.064 A 
ATOM     79  C   UNL     1      10.825   9.932   8.810  1.00  0.00     0.173 A 
ATOM     80  C   UNL     1       9.625   7.973   9.522  1.00  0.00     0.173 A 
ATOM     81  F   UNL     1      11.001  10.961   7.968  1.00  0.00    -0.203 F 
ATOM     82  C   UNL     1      11.739   9.744   9.843  1.00  0.00     0.198 A 
ATOM     83  C   UNL     1      10.527   7.802  10.568  1.00  0.00     0.198 A 
ATOM     84  F   UNL     1       8.616   7.099   9.390  1.00  0.00    -0.203 F 
ATOM     85  F   UNL     1      12.777  10.581   9.978  1.00  0.00    -0.200 F 
ATOM     86  C   UNL     1      11.586   8.684  10.724  1.00  0.00     0.200 A 
ATOM     87  F   UNL     1      10.373   6.783  11.425  1.00  0.00    -0.200 F 
ATOM     88  F   UNL     1      12.465   8.507  11.720  1.00  0.00    -0.200 F 
ENDBRANCH  55  78
ENDBRANCH  29  30
ENDBRANCH  22  24
ENDBRANCH  21  22
ENDBRANCH  20  21
ENDBRANCH   1  20
TORSDOF 13
