REMARK SMILES Cc1cccc(NC(=O)[C@H]2C=C[C@@H]([NH3+])C2)c1C(=O)OCCOC(=O)c1ccc(-c2c3nc(c(-c4c(F)c(F)c(F)c(F)c4F)c4ccc([nH]4)c(-c4c(F)c(F)c(F)c(F)c4F)c4nc(c(-c5c(F)c(F)c(F)c(F)c5F)c5ccc2[nH]5)C=C4)C=C3)cc1
REMARK SMILES IDX 20 1 19 2 17 3 18 4 16 5 1 6 2 7 3 8 4 9 6 10 5 11 7 12 8 13
REMARK SMILES IDX 9 15 10 16 11 17 15 18 12 19 13 20 14 21 21 25 22 26 23 27
REMARK SMILES IDX 24 28 25 29 26 30 87 31 27 32 86 33 28 34 29 35 30 36 80 37
REMARK SMILES IDX 31 38 85 39 79 40 81 41 32 42 84 43 78 44 77 45 33 47 65 48
REMARK SMILES IDX 45 49 64 50 46 51 49 52 63 53 82 54 47 55 48 56 62 58 83 59
REMARK SMILES IDX 50 60 34 61 35 62 43 63 36 64 37 65 41 66 44 67 38 68 39 69
REMARK SMILES IDX 42 70 40 71 66 72 67 73 75 74 68 75 69 76 73 77 76 78 70 79
REMARK SMILES IDX 71 80 74 81 72 82 51 83 52 84 60 85 53 86 54 87 58 88 61 89
REMARK SMILES IDX 55 90 56 91 59 92 57 93
REMARK H PARENT 7 14 14 22 14 23 14 24 81 46 49 57
REMARK Flexibility Score: inf
ROOT
ATOM      1  C   UNL     1       3.069   2.702  -2.038  1.00  0.00     0.275 C 
ENDROOT
BRANCH   1   2
ATOM      2  O   UNL     1       1.840   1.935  -2.077  1.00  0.00    -0.458 OA
BRANCH   2   3
ATOM      3  C   UNL     1       1.581   1.287  -0.904  1.00  0.00     0.340 C 
ATOM      4  O   UNL     1       2.189   1.467   0.141  1.00  0.00    -0.246 OA
BRANCH   3   5
ATOM      5  C   UNL     1       0.707   0.102  -1.014  1.00  0.00     0.086 A 
ATOM      6  C   UNL     1       2.852  -1.277  -0.526  1.00  0.00     0.045 C 
ATOM      7  C   UNL     1       1.367  -1.135  -0.761  1.00  0.00    -0.034 A 
ATOM      8  C   UNL     1       0.615  -2.311  -0.671  1.00  0.00     0.004 A 
ATOM      9  C   UNL     1      -0.743  -2.287  -0.924  1.00  0.00     0.002 A 
ATOM     10  C   UNL     1      -0.703   0.135  -1.143  1.00  0.00     0.056 A 
ATOM     11  C   UNL     1      -1.364  -1.079  -1.214  1.00  0.00     0.027 A 
BRANCH  10  12
ATOM     12  N   UNL     1      -1.469   1.309  -1.226  1.00  0.00    -0.325 N 
ATOM     13  C   UNL     1      -2.779   1.631  -1.025  1.00  0.00     0.231 C 
ATOM     14  H   UNL     1      -0.930   2.088  -1.495  1.00  0.00     0.169 HD
ATOM     15  O   UNL     1      -3.043   2.802  -1.362  1.00  0.00    -0.274 OA
BRANCH  13  16
ATOM     16  C   UNL     1      -3.987   0.816  -0.466  1.00  0.00     0.107 C 
ATOM     17  C   UNL     1      -4.949   0.573  -1.600  1.00  0.00    -0.012 C 
ATOM     18  C   UNL     1      -4.031  -0.511   0.310  1.00  0.00     0.087 C 
ATOM     19  C   UNL     1      -5.447  -0.666  -1.614  1.00  0.00     0.033 C 
ATOM     20  C   UNL     1      -4.958  -1.485  -0.471  1.00  0.00     0.205 C 
BRANCH  20  21
ATOM     21  N   UNL     1      -4.320  -2.703  -0.950  1.00  0.00    -0.352 N 
ATOM     22  H   UNL     1      -3.559  -2.462  -1.584  1.00  0.00     0.345 HD
ATOM     23  H   UNL     1      -5.005  -3.276  -1.443  1.00  0.00     0.345 HD
ATOM     24  H   UNL     1      -3.948  -3.226  -0.157  1.00  0.00     0.345 HD
ENDBRANCH  20  21
ENDBRANCH  13  16
ENDBRANCH  10  12
ENDBRANCH   3   5
ENDBRANCH   2   3
ENDBRANCH   1   2
BRANCH   1  25
ATOM     25  C   UNL     1       3.086   4.002  -2.869  1.00  0.00     0.275 C 
BRANCH  25  26
ATOM     26  O   UNL     1       2.067   5.020  -2.714  1.00  0.00    -0.458 OA
BRANCH  26  27
ATOM     27  C   UNL     1       0.931   4.761  -2.043  1.00  0.00     0.338 C 
ATOM     28  O   UNL     1      -0.165   4.624  -2.576  1.00  0.00    -0.246 OA
BRANCH  27  29
ATOM     29  C   UNL     1       1.143   4.646  -0.593  1.00  0.00     0.060 A 
ATOM     30  C   UNL     1       0.199   3.930   0.158  1.00  0.00     0.016 A 
ATOM     31  C   UNL     1       2.362   5.050  -0.043  1.00  0.00     0.016 A 
ATOM     32  C   UNL     1       0.516   3.487   1.427  1.00  0.00     0.010 A 
ATOM     33  C   UNL     1       2.722   4.539   1.175  1.00  0.00     0.010 A 
ATOM     34  C   UNL     1       1.786   3.790   1.909  1.00  0.00    -0.014 A 
BRANCH  34  35
ATOM     35  C   UNL     1       2.095   3.726   3.318  1.00  0.00     0.031 A 
ATOM     36  C   UNL     1       2.662   2.516   3.927  1.00  0.00     0.074 A 
ATOM     37  C   UNL     1       1.946   4.961   3.845  1.00  0.00     0.049 A 
ATOM     38  N   UNL     1       2.640   2.281   5.190  1.00  0.00    -0.248 NA
ATOM     39  C   UNL     1       3.240   1.402   3.176  1.00  0.00     0.031 C 
ATOM     40  C   UNL     1       2.449   5.582   5.049  1.00  0.00     0.029 A 
ATOM     41  N   UNL     1       1.103   5.948   3.288  1.00  0.00    -0.354 N 
ATOM     42  C   UNL     1       3.510   1.234   5.433  1.00  0.00     0.074 A 
ATOM     43  C   UNL     1       3.692   0.606   4.153  1.00  0.00     0.031 C 
ATOM     44  C   UNL     1       1.700   6.676   5.305  1.00  0.00     0.029 A 
ATOM     45  C   UNL     1       0.596   6.692   4.347  1.00  0.00     0.049 A 
ATOM     46  H   UNL     1       0.910   6.083   2.332  1.00  0.00     0.167 HD
ATOM     47  C   UNL     1       4.122   1.191   6.653  1.00  0.00     0.037 A 
ATOM     48  C   UNL     1      -0.726   6.516   4.650  1.00  0.00     0.037 A 
ATOM     49  C   UNL     1       3.583   2.275   7.475  1.00  0.00     0.049 A 
ATOM     50  C   UNL     1      -0.852   5.809   5.973  1.00  0.00     0.074 A 
ATOM     51  C   UNL     1       4.027   3.572   7.673  1.00  0.00     0.029 A 
ATOM     52  N   UNL     1       2.241   2.250   7.835  1.00  0.00    -0.354 N 
ATOM     53  N   UNL     1      -0.027   4.890   6.399  1.00  0.00    -0.248 NA
ATOM     54  C   UNL     1      -1.871   6.173   6.947  1.00  0.00     0.031 C 
ATOM     55  C   UNL     1       2.906   4.353   8.062  1.00  0.00     0.029 A 
ATOM     56  C   UNL     1       1.791   3.530   8.102  1.00  0.00     0.049 A 
ATOM     57  H   UNL     1       1.688   1.437   7.891  1.00  0.00     0.167 HD
ATOM     58  C   UNL     1      -0.327   4.605   7.702  1.00  0.00     0.074 A 
ATOM     59  C   UNL     1      -1.500   5.416   7.991  1.00  0.00     0.031 C 
ATOM     60  C   UNL     1       0.409   3.761   8.483  1.00  0.00     0.037 A 
BRANCH  47  61
ATOM     61  C   UNL     1       5.394   0.448   7.027  1.00  0.00     0.064 A 
ATOM     62  C   UNL     1       6.118   0.839   8.181  1.00  0.00     0.173 A 
ATOM     63  C   UNL     1       5.996  -0.597   6.298  1.00  0.00     0.173 A 
ATOM     64  F   UNL     1       5.647   1.773   9.019  1.00  0.00    -0.203 F 
ATOM     65  C   UNL     1       7.358   0.292   8.528  1.00  0.00     0.198 A 
ATOM     66  C   UNL     1       7.243  -1.141   6.642  1.00  0.00     0.198 A 
ATOM     67  F   UNL     1       5.399  -1.160   5.245  1.00  0.00    -0.203 F 
ATOM     68  F   UNL     1       7.997   0.734   9.620  1.00  0.00    -0.200 F 
ATOM     69  C   UNL     1       7.928  -0.690   7.750  1.00  0.00     0.200 A 
ATOM     70  F   UNL     1       7.775  -2.111   5.884  1.00  0.00    -0.200 F 
ATOM     71  F   UNL     1       9.120  -1.209   8.073  1.00  0.00    -0.200 F 
ENDBRANCH  47  61
BRANCH  48  72
ATOM     72  C   UNL     1      -1.608   6.273   3.457  1.00  0.00     0.064 A 
ATOM     73  C   UNL     1      -1.577   7.207   2.396  1.00  0.00     0.173 A 
ATOM     74  C   UNL     1      -2.237   5.048   3.196  1.00  0.00     0.173 A 
ATOM     75  F   UNL     1      -1.003   8.408   2.576  1.00  0.00    -0.203 F 
ATOM     76  C   UNL     1      -2.039   6.891   1.119  1.00  0.00     0.198 A 
ATOM     77  C   UNL     1      -2.724   4.741   1.918  1.00  0.00     0.198 A 
ATOM     78  F   UNL     1      -2.312   4.105   4.146  1.00  0.00    -0.203 F 
ATOM     79  F   UNL     1      -1.869   7.759   0.111  1.00  0.00    -0.200 F 
ATOM     80  C   UNL     1      -2.602   5.654   0.878  1.00  0.00     0.200 A 
ATOM     81  F   UNL     1      -3.220   3.518   1.674  1.00  0.00    -0.200 F 
ATOM     82  F   UNL     1      -2.970   5.327  -0.366  1.00  0.00    -0.200 F 
ENDBRANCH  48  72
BRANCH  60  83
ATOM     83  C   UNL     1      -0.092   3.155   9.764  1.00  0.00     0.064 A 
ATOM     84  C   UNL     1      -1.453   2.928  10.019  1.00  0.00     0.173 A 
ATOM     85  C   UNL     1       0.810   2.626  10.716  1.00  0.00     0.173 A 
ATOM     86  F   UNL     1      -2.396   3.235   9.118  1.00  0.00    -0.203 F 
ATOM     87  C   UNL     1      -1.887   2.319  11.194  1.00  0.00     0.198 A 
ATOM     88  C   UNL     1       0.376   1.940  11.844  1.00  0.00     0.198 A 
ATOM     89  F   UNL     1       2.139   2.725  10.565  1.00  0.00    -0.203 F 
ATOM     90  F   UNL     1      -3.200   2.199  11.427  1.00  0.00    -0.200 F 
ATOM     91  C   UNL     1      -0.974   1.815  12.099  1.00  0.00     0.200 A 
ATOM     92  F   UNL     1       1.273   1.384  12.669  1.00  0.00    -0.200 F 
ATOM     93  F   UNL     1      -1.395   1.189  13.205  1.00  0.00    -0.200 F 
ENDBRANCH  60  83
ENDBRANCH  34  35
ENDBRANCH  27  29
ENDBRANCH  26  27
ENDBRANCH  25  26
ENDBRANCH   1  25
TORSDOF 14
