REMARK SMILES O=C(C[NH+]1CCN(c2nccc(N3CCCCC3)n2)CC1)OCCOC(=O)c1ccc(-c2c3nc(c(-c4c(F)c(F)c(F)c(F)c4F)c4ccc([nH]4)c(-c4c(F)c(F)c(F)c(F)c4F)c4nc(c(-c5c(F)c(F)c(F)c(F)c5F)c5ccc2[nH]5)C=C4)C=C3)cc1
REMARK SMILES IDX 23 1 22 2 2 3 1 4 3 5 4 6 5 7 21 8 6 10 20 11 7 12 8 13 9 14
REMARK SMILES IDX 19 15 10 16 12 17 11 18 13 19 14 20 18 21 15 22 17 23 16 24
REMARK SMILES IDX 24 25 25 26 26 27 27 28 28 29 29 30 90 31 30 32 89 33 31 34
REMARK SMILES IDX 32 35 33 36 83 37 34 38 88 39 82 40 84 41 35 42 87 43 81 44
REMARK SMILES IDX 80 45 36 47 68 48 48 49 67 50 49 51 52 52 66 53 85 54 50 55
REMARK SMILES IDX 51 56 65 58 86 59 53 60 37 61 38 62 46 63 39 64 40 65 44 66
REMARK SMILES IDX 47 67 41 68 42 69 45 70 43 71 69 72 70 73 78 74 71 75 72 76
REMARK SMILES IDX 76 77 79 78 73 79 74 80 77 81 75 82 54 83 55 84 63 85 56 86
REMARK SMILES IDX 57 87 61 88 64 89 58 90 59 91 62 92 60 93
REMARK H PARENT 4 9 84 46 52 57
REMARK Flexibility Score: inf
ROOT
ATOM      1  C   UNL     1       3.776   1.212  -0.682  1.00  0.00     0.274 C 
ENDROOT
BRANCH   1   2
ATOM      2  O   UNL     1       2.541   0.483  -0.675  1.00  0.00    -0.458 OA
BRANCH   2   3
ATOM      3  C   UNL     1       2.623  -0.874  -0.801  1.00  0.00     0.361 C 
ATOM      4  O   UNL     1       2.090  -1.457  -1.740  1.00  0.00    -0.245 OA
BRANCH   3   5
ATOM      5  C   UNL     1       3.188  -1.598   0.422  1.00  0.00     0.386 C 
BRANCH   5   6
ATOM      6  N   UNL     1       4.408  -2.392   0.140  1.00  0.00    -0.323 N 
ATOM      7  C   UNL     1       5.659  -1.694   0.535  1.00  0.00     0.284 C 
ATOM      8  C   UNL     1       4.386  -3.658   0.923  1.00  0.00     0.284 C 
ATOM      9  H   UNL     1       4.402  -2.550  -0.868  1.00  0.00     0.348 HD
ATOM     10  C   UNL     1       5.809  -1.377   2.041  1.00  0.00     0.181 C 
ATOM     11  C   UNL     1       4.479  -3.484   2.457  1.00  0.00     0.181 C 
ATOM     12  N   UNL     1       5.522  -2.548   2.847  1.00  0.00    -0.329 N 
BRANCH  12  13
ATOM     13  C   UNL     1       6.533  -2.946   3.679  1.00  0.00     0.227 A 
ATOM     14  N   UNL     1       6.840  -2.122   4.694  1.00  0.00    -0.221 NA
ATOM     15  N   UNL     1       7.204  -4.070   3.392  1.00  0.00    -0.196 NA
ATOM     16  C   UNL     1       7.847  -2.500   5.492  1.00  0.00     0.119 A 
ATOM     17  C   UNL     1       8.233  -4.404   4.187  1.00  0.00     0.134 A 
ATOM     18  C   UNL     1       8.573  -3.643   5.287  1.00  0.00     0.067 A 
BRANCH  17  19
ATOM     19  N   UNL     1       9.016  -5.500   3.869  1.00  0.00    -0.356 N 
ATOM     20  C   UNL     1       9.465  -5.658   2.491  1.00  0.00     0.118 C 
ATOM     21  C   UNL     1       8.936  -6.676   4.722  1.00  0.00     0.118 C 
ATOM     22  C   UNL     1       8.734  -6.796   1.787  1.00  0.00     0.022 C 
ATOM     23  C   UNL     1       8.160  -7.788   4.017  1.00  0.00     0.022 C 
ATOM     24  C   UNL     1       8.742  -8.068   2.633  1.00  0.00     0.004 C 
ENDBRANCH  17  19
ENDBRANCH  12  13
ENDBRANCH   5   6
ENDBRANCH   3   5
ENDBRANCH   2   3
ENDBRANCH   1   2
BRANCH   1  25
ATOM     25  C   UNL     1       3.956   2.091   0.561  1.00  0.00     0.275 C 
BRANCH  25  26
ATOM     26  O   UNL     1       3.639   1.377   1.768  1.00  0.00    -0.458 OA
BRANCH  26  27
ATOM     27  C   UNL     1       2.350   1.504   2.177  1.00  0.00     0.338 C 
ATOM     28  O   UNL     1       1.515   2.266   1.717  1.00  0.00    -0.246 OA
BRANCH  27  29
ATOM     29  C   UNL     1       2.017   0.455   3.170  1.00  0.00     0.060 A 
ATOM     30  C   UNL     1       0.742  -0.118   3.096  1.00  0.00     0.016 A 
ATOM     31  C   UNL     1       2.915   0.027   4.153  1.00  0.00     0.016 A 
ATOM     32  C   UNL     1       0.338  -1.062   4.042  1.00  0.00     0.010 A 
ATOM     33  C   UNL     1       2.516  -0.933   5.093  1.00  0.00     0.010 A 
ATOM     34  C   UNL     1       1.206  -1.444   5.075  1.00  0.00    -0.014 A 
BRANCH  34  35
ATOM     35  C   UNL     1       0.661  -2.213   6.225  1.00  0.00     0.031 A 
ATOM     36  C   UNL     1       0.277  -1.466   7.476  1.00  0.00     0.074 A 
ATOM     37  C   UNL     1       0.436  -3.537   6.149  1.00  0.00     0.049 A 
ATOM     38  N   UNL     1      -0.339  -1.897   8.549  1.00  0.00    -0.248 NA
ATOM     39  C   UNL     1       0.636  -0.040   7.523  1.00  0.00     0.031 C 
ATOM     40  C   UNL     1       0.755  -4.388   5.007  1.00  0.00     0.029 A 
ATOM     41  N   UNL     1      -0.131  -4.395   7.062  1.00  0.00    -0.354 N 
ATOM     42  C   UNL     1      -0.452  -0.795   9.387  1.00  0.00     0.074 A 
ATOM     43  C   UNL     1       0.206   0.310   8.726  1.00  0.00     0.031 C 
ATOM     44  C   UNL     1       0.370  -5.648   5.281  1.00  0.00     0.029 A 
ATOM     45  C   UNL     1      -0.221  -5.691   6.619  1.00  0.00     0.049 A 
ATOM     46  H   UNL     1      -0.443  -4.106   7.950  1.00  0.00     0.167 HD
ATOM     47  C   UNL     1      -1.069  -0.700  10.588  1.00  0.00     0.037 A 
ATOM     48  C   UNL     1      -0.734  -6.783   7.221  1.00  0.00     0.037 A 
ATOM     49  C   UNL     1      -1.727  -1.788  11.258  1.00  0.00     0.049 A 
ATOM     50  C   UNL     1      -1.374  -6.662   8.582  1.00  0.00     0.074 A 
ATOM     51  C   UNL     1      -2.411  -1.775  12.461  1.00  0.00     0.029 A 
ATOM     52  N   UNL     1      -1.772  -3.091  10.787  1.00  0.00    -0.354 N 
ATOM     53  N   UNL     1      -1.555  -5.598   9.325  1.00  0.00    -0.248 NA
ATOM     54  C   UNL     1      -1.901  -7.900   9.178  1.00  0.00     0.031 C 
ATOM     55  C   UNL     1      -2.829  -3.080  12.742  1.00  0.00     0.029 A 
ATOM     56  C   UNL     1      -2.450  -3.896  11.689  1.00  0.00     0.049 A 
ATOM     57  H   UNL     1      -1.381  -3.399   9.937  1.00  0.00     0.167 HD
ATOM     58  C   UNL     1      -2.253  -6.028  10.448  1.00  0.00     0.074 A 
ATOM     59  C   UNL     1      -2.467  -7.450  10.289  1.00  0.00     0.031 C 
ATOM     60  C   UNL     1      -2.682  -5.306  11.513  1.00  0.00     0.037 A 
BRANCH  47  61
ATOM     61  C   UNL     1      -1.052   0.640  11.262  1.00  0.00     0.064 A 
ATOM     62  C   UNL     1      -1.821   1.711  10.782  1.00  0.00     0.173 A 
ATOM     63  C   UNL     1      -0.274   0.849  12.409  1.00  0.00     0.173 A 
ATOM     64  F   UNL     1      -2.570   1.564   9.679  1.00  0.00    -0.203 F 
ATOM     65  C   UNL     1      -1.787   2.953  11.410  1.00  0.00     0.198 A 
ATOM     66  C   UNL     1      -0.264   2.084  13.050  1.00  0.00     0.198 A 
ATOM     67  F   UNL     1       0.476  -0.144  12.909  1.00  0.00    -0.203 F 
ATOM     68  F   UNL     1      -2.490   3.977  10.905  1.00  0.00    -0.200 F 
ATOM     69  C   UNL     1      -1.014   3.137  12.546  1.00  0.00     0.200 A 
ATOM     70  F   UNL     1       0.476   2.259  14.154  1.00  0.00    -0.200 F 
ATOM     71  F   UNL     1      -0.984   4.332  13.151  1.00  0.00    -0.200 F 
ENDBRANCH  47  61
BRANCH  48  72
ATOM     72  C   UNL     1      -0.704  -8.100   6.531  1.00  0.00     0.064 A 
ATOM     73  C   UNL     1      -1.885  -8.701   6.074  1.00  0.00     0.173 A 
ATOM     74  C   UNL     1       0.496  -8.806   6.365  1.00  0.00     0.173 A 
ATOM     75  F   UNL     1      -3.061  -8.077   6.239  1.00  0.00    -0.203 F 
ATOM     76  C   UNL     1      -1.871  -9.971   5.500  1.00  0.00     0.198 A 
ATOM     77  C   UNL     1       0.512 -10.064   5.768  1.00  0.00     0.198 A 
ATOM     78  F   UNL     1       1.651  -8.277   6.792  1.00  0.00    -0.203 F 
ATOM     79  F   UNL     1      -3.021 -10.547   5.124  1.00  0.00    -0.200 F 
ATOM     80  C   UNL     1      -0.672 -10.650   5.345  1.00  0.00     0.200 A 
ATOM     81  F   UNL     1       1.673 -10.717   5.616  1.00  0.00    -0.200 F 
ATOM     82  F   UNL     1      -0.659 -11.875   4.803  1.00  0.00    -0.200 F 
ENDBRANCH  48  72
BRANCH  60  83
ATOM     83  C   UNL     1      -3.478  -6.022  12.568  1.00  0.00     0.064 A 
ATOM     84  C   UNL     1      -2.886  -6.942  13.445  1.00  0.00     0.173 A 
ATOM     85  C   UNL     1      -4.846  -5.750  12.728  1.00  0.00     0.173 A 
ATOM     86  F   UNL     1      -1.585  -7.247  13.328  1.00  0.00    -0.203 F 
ATOM     87  C   UNL     1      -3.641  -7.584  14.426  1.00  0.00     0.198 A 
ATOM     88  C   UNL     1      -5.590  -6.370  13.728  1.00  0.00     0.198 A 
ATOM     89  F   UNL     1      -5.459  -4.871  11.921  1.00  0.00    -0.203 F 
ATOM     90  F   UNL     1      -3.065  -8.495  15.222  1.00  0.00    -0.200 F 
ATOM     91  C   UNL     1      -4.989  -7.292  14.570  1.00  0.00     0.200 A 
ATOM     92  F   UNL     1      -6.889  -6.075  13.875  1.00  0.00    -0.200 F 
ATOM     93  F   UNL     1      -5.711  -7.905  15.519  1.00  0.00    -0.200 F 
ENDBRANCH  60  83
ENDBRANCH  34  35
ENDBRANCH  27  29
ENDBRANCH  26  27
ENDBRANCH  25  26
ENDBRANCH   1  25
TORSDOF 14
