REMARK SMILES CCn1cccc1C(=O)N(C)c1snc(C)c1C(=O)OCCOC(=O)c1ccc(-c2c3nc(c(-c4c(F)c(F)c(F)c(F)c4F)c4ccc([nH]4)c(-c4c(F)c(F)c(F)c(F)c4F)c4nc(c(-c5c(F)c(F)c(F)c(F)c5F)c5ccc2[nH]5)C=C4)C=C3)cc1
REMARK SMILES IDX 21 1 20 2 18 3 19 4 17 5 12 6 13 7 14 8 15 9 16 10 10 11
REMARK SMILES IDX 11 12 8 13 9 14 7 15 3 16 4 17 5 18 6 19 2 20 1 21 22 22
REMARK SMILES IDX 23 23 24 24 25 25 26 26 27 27 88 28 28 29 87 30 29 31 30 32
REMARK SMILES IDX 31 33 81 34 32 35 86 36 80 37 82 38 33 39 85 40 79 41 78 42
REMARK SMILES IDX 34 44 66 45 46 46 65 47 47 48 50 49 64 50 83 51 48 52 49 53
REMARK SMILES IDX 63 55 84 56 51 57 35 58 36 59 44 60 37 61 38 62 42 63 45 64
REMARK SMILES IDX 39 65 40 66 43 67 41 68 67 69 68 70 76 71 69 72 70 73 74 74
REMARK SMILES IDX 77 75 71 76 72 77 75 78 73 79 52 80 53 81 61 82 54 83 55 84
REMARK SMILES IDX 59 85 62 86 56 87 57 88 60 89 58 90
REMARK H PARENT 82 43 50 54
REMARK Flexibility Score: inf
ROOT
ATOM      1  C   UNL     1       5.101  -0.120  -3.514  1.00  0.00     0.275 C 
ENDROOT
BRANCH   1   2
ATOM      2  O   UNL     1       3.927  -0.837  -3.097  1.00  0.00    -0.458 OA
BRANCH   2   3
ATOM      3  C   UNL     1       3.855  -2.150  -3.488  1.00  0.00     0.343 C 
ATOM      4  O   UNL     1       4.646  -2.660  -4.252  1.00  0.00    -0.246 OA
BRANCH   3   5
ATOM      5  C   UNL     1       2.768  -2.894  -2.848  1.00  0.00     0.117 A 
ATOM      6  C   UNL     1       1.710  -2.373  -2.122  1.00  0.00     0.133 A 
ATOM      7  S   UNL     1       0.672  -3.621  -1.619  1.00  0.00    -0.017 S 
ATOM      8  N   UNL     1       1.617  -4.858  -2.179  1.00  0.00    -0.195 NA
ATOM      9  C   UNL     1       2.712  -4.343  -2.748  1.00  0.00     0.068 A 
ATOM     10  C   UNL     1       3.789  -5.310  -3.122  1.00  0.00     0.069 C 
BRANCH   6  11
ATOM     11  N   UNL     1       1.512  -1.108  -1.560  1.00  0.00    -0.300 N 
ATOM     12  C   UNL     1       2.156  -0.854  -0.278  1.00  0.00     0.154 C 
BRANCH  11  13
ATOM     13  C   UNL     1       0.922  -0.151  -2.396  1.00  0.00     0.275 C 
ATOM     14  O   UNL     1       0.342  -0.487  -3.431  1.00  0.00    -0.267 OA
BRANCH  13  15
ATOM     15  C   UNL     1       1.151   1.271  -2.138  1.00  0.00     0.107 A 
ATOM     16  N   UNL     1       0.731   2.119  -1.121  1.00  0.00    -0.344 N 
ATOM     17  C   UNL     1       1.200   3.398  -1.381  1.00  0.00     0.086 A 
ATOM     18  C   UNL     1       1.794   3.414  -2.616  1.00  0.00     0.020 A 
ATOM     19  C   UNL     1       1.766   2.091  -3.087  1.00  0.00     0.033 A 
BRANCH  16  20
ATOM     20  C   UNL     1      -0.296   1.919  -0.107  1.00  0.00     0.119 C 
ATOM     21  C   UNL     1       0.044   1.045   1.083  1.00  0.00     0.027 C 
ENDBRANCH  16  20
ENDBRANCH  13  15
ENDBRANCH  11  13
ENDBRANCH   6  11
ENDBRANCH   3   5
ENDBRANCH   2   3
ENDBRANCH   1   2
BRANCH   1  22
ATOM     22  C   UNL     1       6.154  -0.057  -2.405  1.00  0.00     0.275 C 
BRANCH  22  23
ATOM     23  O   UNL     1       6.851  -1.288  -2.155  1.00  0.00    -0.458 OA
BRANCH  23  24
ATOM     24  C   UNL     1       6.240  -2.100  -1.268  1.00  0.00     0.338 C 
ATOM     25  O   UNL     1       5.061  -2.086  -0.955  1.00  0.00    -0.246 OA
BRANCH  24  26
ATOM     26  C   UNL     1       7.184  -2.948  -0.536  1.00  0.00     0.060 A 
ATOM     27  C   UNL     1       6.673  -4.111   0.051  1.00  0.00     0.016 A 
ATOM     28  C   UNL     1       8.479  -2.498  -0.251  1.00  0.00     0.016 A 
ATOM     29  C   UNL     1       7.453  -4.818   0.949  1.00  0.00     0.010 A 
ATOM     30  C   UNL     1       9.257  -3.198   0.663  1.00  0.00     0.010 A 
ATOM     31  C   UNL     1       8.740  -4.357   1.258  1.00  0.00    -0.014 A 
BRANCH  31  32
ATOM     32  C   UNL     1       9.592  -5.253   2.065  1.00  0.00     0.031 A 
ATOM     33  C   UNL     1      10.198  -6.362   1.205  1.00  0.00     0.074 A 
ATOM     34  C   UNL     1       9.646  -5.035   3.411  1.00  0.00     0.049 A 
ATOM     35  N   UNL     1      10.532  -7.572   1.530  1.00  0.00    -0.248 NA
ATOM     36  C   UNL     1      10.380  -6.121  -0.253  1.00  0.00     0.031 C 
ATOM     37  C   UNL     1       9.004  -3.895   4.089  1.00  0.00     0.029 A 
ATOM     38  N   UNL     1      10.217  -5.709   4.477  1.00  0.00    -0.354 N 
ATOM     39  C   UNL     1      11.140  -8.150   0.398  1.00  0.00     0.074 A 
ATOM     40  C   UNL     1      10.881  -7.271  -0.700  1.00  0.00     0.031 C 
ATOM     41  C   UNL     1       9.153  -3.987   5.426  1.00  0.00     0.029 A 
ATOM     42  C   UNL     1       9.919  -5.175   5.759  1.00  0.00     0.049 A 
ATOM     43  H   UNL     1      10.789  -6.501   4.355  1.00  0.00     0.167 HD
ATOM     44  C   UNL     1      11.967  -9.232   0.471  1.00  0.00     0.037 A 
ATOM     45  C   UNL     1      10.235  -5.662   7.002  1.00  0.00     0.037 A 
ATOM     46  C   UNL     1      12.027  -9.716   1.808  1.00  0.00     0.049 A 
ATOM     47  C   UNL     1      11.123  -6.811   6.767  1.00  0.00     0.074 A 
ATOM     48  C   UNL     1      11.130 -10.378   2.603  1.00  0.00     0.029 A 
ATOM     49  N   UNL     1      13.051  -9.241   2.588  1.00  0.00    -0.354 N 
ATOM     50  N   UNL     1      12.370  -6.717   6.414  1.00  0.00    -0.248 NA
ATOM     51  C   UNL     1      10.581  -8.171   6.896  1.00  0.00     0.031 C 
ATOM     52  C   UNL     1      11.440  -9.941   3.907  1.00  0.00     0.029 A 
ATOM     53  C   UNL     1      12.581  -9.130   3.870  1.00  0.00     0.049 A 
ATOM     54  H   UNL     1      13.960  -9.020   2.281  1.00  0.00     0.167 HD
ATOM     55  C   UNL     1      12.639  -7.989   5.963  1.00  0.00     0.074 A 
ATOM     56  C   UNL     1      11.674  -8.863   6.586  1.00  0.00     0.031 C 
ATOM     57  C   UNL     1      13.189  -8.141   4.732  1.00  0.00     0.037 A 
BRANCH  44  58
ATOM     58  C   UNL     1      12.983  -9.768  -0.500  1.00  0.00     0.064 A 
ATOM     59  C   UNL     1      13.502 -11.066  -0.267  1.00  0.00     0.173 A 
ATOM     60  C   UNL     1      13.711  -8.963  -1.387  1.00  0.00     0.173 A 
ATOM     61  F   UNL     1      12.857 -11.931   0.533  1.00  0.00    -0.203 F 
ATOM     62  C   UNL     1      14.739 -11.467  -0.765  1.00  0.00     0.198 A 
ATOM     63  C   UNL     1      14.925  -9.393  -1.930  1.00  0.00     0.198 A 
ATOM     64  F   UNL     1      13.335  -7.709  -1.664  1.00  0.00    -0.203 F 
ATOM     65  F   UNL     1      15.262 -12.643  -0.387  1.00  0.00    -0.200 F 
ATOM     66  C   UNL     1      15.460 -10.621  -1.583  1.00  0.00     0.200 A 
ATOM     67  F   UNL     1      15.618  -8.569  -2.729  1.00  0.00    -0.200 F 
ATOM     68  F   UNL     1      16.683 -10.970  -2.004  1.00  0.00    -0.200 F 
ENDBRANCH  44  58
BRANCH  45  69
ATOM     69  C   UNL     1       9.909  -5.367   8.456  1.00  0.00     0.064 A 
ATOM     70  C   UNL     1       9.235  -4.239   8.941  1.00  0.00     0.173 A 
ATOM     71  C   UNL     1      10.259  -6.303   9.477  1.00  0.00     0.173 A 
ATOM     72  F   UNL     1       8.941  -3.209   8.144  1.00  0.00    -0.203 F 
ATOM     73  C   UNL     1       8.855  -4.111  10.292  1.00  0.00     0.198 A 
ATOM     74  C   UNL     1       9.853  -6.195  10.807  1.00  0.00     0.198 A 
ATOM     75  F   UNL     1      11.024  -7.373   9.226  1.00  0.00    -0.203 F 
ATOM     76  F   UNL     1       8.202  -3.011  10.694  1.00  0.00    -0.200 F 
ATOM     77  C   UNL     1       9.134  -5.102  11.215  1.00  0.00     0.200 A 
ATOM     78  F   UNL     1      10.159  -7.171  11.676  1.00  0.00    -0.200 F 
ATOM     79  F   UNL     1       8.729  -4.995  12.488  1.00  0.00    -0.200 F 
ENDBRANCH  45  69
BRANCH  57  80
ATOM     80  C   UNL     1      14.013  -6.945   4.294  1.00  0.00     0.064 A 
ATOM     81  C   UNL     1      15.156  -6.574   5.019  1.00  0.00     0.173 A 
ATOM     82  C   UNL     1      13.619  -6.065   3.274  1.00  0.00     0.173 A 
ATOM     83  F   UNL     1      15.611  -7.367   6.001  1.00  0.00    -0.203 F 
ATOM     84  C   UNL     1      15.839  -5.383   4.754  1.00  0.00     0.198 A 
ATOM     85  C   UNL     1      14.300  -4.878   3.001  1.00  0.00     0.198 A 
ATOM     86  F   UNL     1      12.558  -6.339   2.520  1.00  0.00    -0.203 F 
ATOM     87  F   UNL     1      16.920  -5.059   5.476  1.00  0.00    -0.200 F 
ATOM     88  C   UNL     1      15.408  -4.533   3.749  1.00  0.00     0.200 A 
ATOM     89  F   UNL     1      13.878  -4.075   2.012  1.00  0.00    -0.200 F 
ATOM     90  F   UNL     1      16.064  -3.392   3.494  1.00  0.00    -0.200 F 
ENDBRANCH  57  80
ENDBRANCH  31  32
ENDBRANCH  24  26
ENDBRANCH  23  24
ENDBRANCH  22  23
ENDBRANCH   1  22
TORSDOF 15
