REMARK SMILES O=C(OCCOC(=O)c1cccc(OCC(F)F)c1)c1ccc(-c2c3nc(c(-c4c(F)c(F)c(F)c(F)c4F)c4ccc([nH]4)c(-c4c(F)c(F)c(F)c(F)c4F)c4nc(c(-c5c(F)c(F)c(F)c(F)c5F)c5ccc2[nH]5)C=C4)C=C3)cc1
REMARK SMILES IDX 5 1 4 2 3 3 2 4 1 5 20 6 21 7 82 8 22 9 81 10 23 11 24 12
REMARK SMILES IDX 25 13 75 14 26 15 80 16 74 17 76 18 27 19 79 20 73 21 72 22
REMARK SMILES IDX 28 24 60 25 40 26 59 27 41 28 44 29 58 30 77 31 42 32 43 33
REMARK SMILES IDX 57 35 78 36 45 37 29 38 30 39 38 40 31 41 32 42 36 43 39 44
REMARK SMILES IDX 33 45 34 46 37 47 35 48 61 49 62 50 70 51 63 52 64 53 68 54
REMARK SMILES IDX 71 55 65 56 66 57 69 58 67 59 46 60 47 61 55 62 48 63 49 64
REMARK SMILES IDX 53 65 56 66 50 67 51 68 54 69 52 70 6 71 7 72 8 73 9 74
REMARK SMILES IDX 10 75 19 76 11 77 13 78 12 79 14 80 15 81 16 82 17 83 18 84
REMARK H PARENT 76 23 44 34
REMARK Flexibility Score: inf
ROOT
ATOM      1  C   UNL     1       3.954  -1.315   1.748  1.00  0.00     0.275 C 
ENDROOT
BRANCH   1   2
ATOM      2  C   UNL     1       4.242   0.163   1.474  1.00  0.00     0.275 C 
BRANCH   2   3
ATOM      3  O   UNL     1       3.128   0.854   0.880  1.00  0.00    -0.458 OA
BRANCH   3   4
ATOM      4  C   UNL     1       2.769   1.053  -0.406  1.00  0.00     0.338 C 
ATOM      5  O   UNL     1       1.785   1.763  -0.618  1.00  0.00    -0.246 OA
BRANCH   4   6
ATOM      6  C   UNL     1       3.445   0.461  -1.616  1.00  0.00     0.060 A 
ATOM      7  C   UNL     1       4.618  -0.297  -1.643  1.00  0.00     0.016 A 
ATOM      8  C   UNL     1       2.804   0.691  -2.854  1.00  0.00     0.016 A 
ATOM      9  C   UNL     1       5.141  -0.788  -2.847  1.00  0.00     0.010 A 
ATOM     10  C   UNL     1       3.312   0.191  -4.059  1.00  0.00     0.010 A 
ATOM     11  C   UNL     1       4.500  -0.538  -4.062  1.00  0.00    -0.014 A 
BRANCH  11  12
ATOM     12  C   UNL     1       5.125  -0.995  -5.325  1.00  0.00     0.031 A 
ATOM     13  C   UNL     1       5.950  -0.040  -6.115  1.00  0.00     0.074 A 
ATOM     14  C   UNL     1       4.961  -2.259  -5.750  1.00  0.00     0.049 A 
ATOM     15  N   UNL     1       6.629  -0.258  -7.208  1.00  0.00    -0.248 NA
ATOM     16  C   UNL     1       5.981   1.349  -5.639  1.00  0.00     0.031 C 
ATOM     17  C   UNL     1       4.085  -3.210  -5.097  1.00  0.00     0.029 A 
ATOM     18  N   UNL     1       5.503  -2.971  -6.789  1.00  0.00    -0.354 N 
ATOM     19  C   UNL     1       7.122   0.979  -7.588  1.00  0.00     0.074 A 
ATOM     20  C   UNL     1       6.681   1.938  -6.596  1.00  0.00     0.031 C 
ATOM     21  C   UNL     1       4.190  -4.404  -5.697  1.00  0.00     0.029 A 
ATOM     22  C   UNL     1       5.157  -4.305  -6.775  1.00  0.00     0.049 A 
ATOM     23  H   UNL     1       6.081  -2.570  -7.476  1.00  0.00     0.167 HD
ATOM     24  C   UNL     1       7.844   1.277  -8.691  1.00  0.00     0.037 A 
ATOM     25  C   UNL     1       5.603  -5.332  -7.526  1.00  0.00     0.037 A 
ATOM     26  C   UNL     1       8.246   0.301  -9.669  1.00  0.00     0.049 A 
ATOM     27  C   UNL     1       6.537  -4.998  -8.654  1.00  0.00     0.074 A 
ATOM     28  C   UNL     1       8.963   0.489 -10.836  1.00  0.00     0.029 A 
ATOM     29  N   UNL     1       7.953  -1.057  -9.594  1.00  0.00    -0.354 N 
ATOM     30  N   UNL     1       7.034  -3.830  -8.986  1.00  0.00    -0.248 NA
ATOM     31  C   UNL     1       6.935  -6.098  -9.540  1.00  0.00     0.031 C 
ATOM     32  C   UNL     1       9.069  -0.747 -11.485  1.00  0.00     0.029 A 
ATOM     33  C   UNL     1       8.464  -1.716 -10.700  1.00  0.00     0.049 A 
ATOM     34  H   UNL     1       7.455  -1.486  -8.861  1.00  0.00     0.167 HD
ATOM     35  C   UNL     1       7.762  -4.043 -10.143  1.00  0.00     0.074 A 
ATOM     36  C   UNL     1       7.713  -5.468 -10.409  1.00  0.00     0.031 C 
ATOM     37  C   UNL     1       8.375  -3.135 -10.941  1.00  0.00     0.037 A 
BRANCH  24  38
ATOM     38  C   UNL     1       8.152   2.725  -8.917  1.00  0.00     0.064 A 
ATOM     39  C   UNL     1       9.054   3.429  -8.105  1.00  0.00     0.173 A 
ATOM     40  C   UNL     1       7.483   3.435  -9.926  1.00  0.00     0.173 A 
ATOM     41  F   UNL     1       9.694   2.802  -7.106  1.00  0.00    -0.203 F 
ATOM     42  C   UNL     1       9.244   4.799  -8.269  1.00  0.00     0.198 A 
ATOM     43  C   UNL     1       7.699   4.798 -10.106  1.00  0.00     0.198 A 
ATOM     44  F   UNL     1       6.603   2.811 -10.722  1.00  0.00    -0.203 F 
ATOM     45  F   UNL     1      10.054   5.465  -7.435  1.00  0.00    -0.200 F 
ATOM     46  C   UNL     1       8.569   5.481  -9.270  1.00  0.00     0.200 A 
ATOM     47  F   UNL     1       7.046   5.455 -11.075  1.00  0.00    -0.200 F 
ATOM     48  F   UNL     1       8.742   6.802  -9.417  1.00  0.00    -0.200 F 
ENDBRANCH  24  38
BRANCH  25  49
ATOM     49  C   UNL     1       5.223  -6.743  -7.221  1.00  0.00     0.064 A 
ATOM     50  C   UNL     1       6.201  -7.674  -6.832  1.00  0.00     0.173 A 
ATOM     51  C   UNL     1       3.900  -7.201  -7.296  1.00  0.00     0.173 A 
ATOM     52  F   UNL     1       7.487  -7.301  -6.753  1.00  0.00    -0.203 F 
ATOM     53  C   UNL     1       5.874  -9.001  -6.549  1.00  0.00     0.198 A 
ATOM     54  C   UNL     1       3.567  -8.518  -6.974  1.00  0.00     0.198 A 
ATOM     55  F   UNL     1       2.918  -6.363  -7.660  1.00  0.00    -0.203 F 
ATOM     56  F   UNL     1       6.838  -9.873  -6.224  1.00  0.00    -0.200 F 
ATOM     57  C   UNL     1       4.555  -9.419  -6.610  1.00  0.00     0.200 A 
ATOM     58  F   UNL     1       2.286  -8.911  -7.011  1.00  0.00    -0.200 F 
ATOM     59  F   UNL     1       4.237 -10.689  -6.322  1.00  0.00    -0.200 F 
ENDBRANCH  25  49
BRANCH  37  60
ATOM     60  C   UNL     1       8.996  -3.667 -12.197  1.00  0.00     0.064 A 
ATOM     61  C   UNL     1       8.202  -4.091 -13.273  1.00  0.00     0.173 A 
ATOM     62  C   UNL     1      10.388  -3.717 -12.339  1.00  0.00     0.173 A 
ATOM     63  F   UNL     1       6.864  -4.079 -13.172  1.00  0.00    -0.203 F 
ATOM     64  C   UNL     1       8.783  -4.566 -14.443  1.00  0.00     0.198 A 
ATOM     65  C   UNL     1      10.966  -4.167 -13.522  1.00  0.00     0.198 A 
ATOM     66  F   UNL     1      11.186  -3.321 -11.336  1.00  0.00    -0.203 F 
ATOM     67  F   UNL     1       8.008  -5.009 -15.443  1.00  0.00    -0.200 F 
ATOM     68  C   UNL     1      10.164  -4.596 -14.570  1.00  0.00     0.200 A 
ATOM     69  F   UNL     1      12.300  -4.187 -13.648  1.00  0.00    -0.200 F 
ATOM     70  F   UNL     1      10.724  -5.048 -15.701  1.00  0.00    -0.200 F 
ENDBRANCH  37  60
ENDBRANCH  11  12
ENDBRANCH   4   6
ENDBRANCH   3   4
ENDBRANCH   2   3
ENDBRANCH   1   2
BRANCH   1  71
ATOM     71  O   UNL     1       3.433  -1.997   0.601  1.00  0.00    -0.458 OA
BRANCH  71  72
ATOM     72  C   UNL     1       2.078  -2.061   0.517  1.00  0.00     0.338 C 
ATOM     73  O   UNL     1       1.266  -1.628   1.313  1.00  0.00    -0.246 OA
BRANCH  72  74
ATOM     74  C   UNL     1       1.727  -2.663  -0.781  1.00  0.00     0.063 A 
ATOM     75  C   UNL     1       0.781  -2.035  -1.594  1.00  0.00     0.016 A 
ATOM     76  C   UNL     1       2.378  -3.829  -1.200  1.00  0.00     0.062 A 
ATOM     77  C   UNL     1       0.499  -2.570  -2.848  1.00  0.00     0.005 A 
ATOM     78  C   UNL     1       2.114  -4.355  -2.458  1.00  0.00     0.120 A 
ATOM     79  C   UNL     1       1.153  -3.732  -3.269  1.00  0.00     0.046 A 
BRANCH  78  80
ATOM     80  O   UNL     1       2.767  -5.414  -3.027  1.00  0.00    -0.488 OA
BRANCH  80  81
ATOM     81  C   UNL     1       3.875  -6.001  -2.331  1.00  0.00     0.302 C 
BRANCH  81  82
ATOM     82  C   UNL     1       5.194  -5.234  -2.428  1.00  0.00     0.379 C 
ATOM     83  F   UNL     1       5.169  -4.106  -1.677  1.00  0.00    -0.207 F 
ATOM     84  F   UNL     1       6.190  -6.004  -1.912  1.00  0.00    -0.207 F 
ENDBRANCH  81  82
ENDBRANCH  80  81
ENDBRANCH  78  80
ENDBRANCH  72  74
ENDBRANCH  71  72
ENDBRANCH   1  71
TORSDOF 14
