REMARK SMILES CCc1ccc([C@H](C)[N@@H+]2[C@@H](C(=O)OCCOC(=O)c3ccc(-c4c5nc(c(-c6c(F)c(F)c(F)c(F)c6F)c6ccc([nH]6)c(-c6c(F)c(F)c(F)c(F)c6F)c6nc(c(-c7c(F)c(F)c(F)c(F)c7F)c7ccc4[nH]7)C=C6)C=C5)cc3)C[C@H]3CCCC[C@H]32)s1
REMARK SMILES IDX 14 1 13 2 11 3 12 4 10 5 9 6 88 7 82 9 83 10 87 11 84 12
REMARK SMILES IDX 86 13 85 14 7 15 8 16 6 17 3 18 4 19 89 20 5 21 2 22 1 23
REMARK SMILES IDX 15 24 16 25 17 26 18 27 19 28 20 29 81 30 21 31 80 32 22 33
REMARK SMILES IDX 23 34 24 35 74 36 25 37 79 38 73 39 75 40 26 41 78 42 72 43
REMARK SMILES IDX 71 44 27 46 59 47 39 48 58 49 40 50 43 51 57 52 76 53 41 54
REMARK SMILES IDX 42 55 56 57 77 58 44 59 28 60 29 61 37 62 30 63 31 64 35 65
REMARK SMILES IDX 38 66 32 67 33 68 36 69 34 70 60 71 61 72 69 73 62 74 63 75
REMARK SMILES IDX 67 76 70 77 64 78 65 79 68 80 66 81 45 82 46 83 54 84 47 85
REMARK SMILES IDX 48 86 52 87 55 88 49 89 50 90 53 91 51 92
REMARK H PARENT 9 8 75 45 43 56
REMARK Flexibility Score: inf
ROOT
ATOM      1  C   UNL     1       5.327   8.076   1.623  1.00  0.00     0.274 C 
ENDROOT
BRANCH   1   2
ATOM      2  O   UNL     1       4.550   6.921   2.008  1.00  0.00    -0.458 OA
BRANCH   2   3
ATOM      3  C   UNL     1       4.694   5.823   1.212  1.00  0.00     0.365 C 
ATOM      4  O   UNL     1       5.420   5.785   0.221  1.00  0.00    -0.245 OA
BRANCH   3   5
ATOM      5  C   UNL     1       3.749   4.675   1.587  1.00  0.00     0.296 C 
ATOM      6  N   UNL     1       3.604   4.455   3.058  1.00  0.00    -0.314 N 
ATOM      7  C   UNL     1       3.904   3.036   3.338  1.00  0.00     0.188 C 
ATOM      8  H   UNL     1       4.276   5.048   3.544  1.00  0.00     0.349 HD
ATOM      9  C   UNL     1       4.276   3.346   1.021  1.00  0.00     0.087 C 
ATOM     10  C   UNL     1       3.749   2.318   2.003  1.00  0.00     0.054 C 
ATOM     11  C   UNL     1       5.322   2.958   3.919  1.00  0.00     0.065 C 
ATOM     12  C   UNL     1       4.401   0.939   1.954  1.00  0.00     0.010 C 
ATOM     13  C   UNL     1       5.838   1.527   3.947  1.00  0.00     0.006 C 
ATOM     14  C   UNL     1       5.794   0.886   2.566  1.00  0.00     0.001 C 
BRANCH   6  15
ATOM     15  C   UNL     1       2.311   4.917   3.626  1.00  0.00     0.223 C 
ATOM     16  C   UNL     1       1.056   4.267   3.009  1.00  0.00     0.082 C 
BRANCH  15  17
ATOM     17  C   UNL     1       2.347   4.812   5.158  1.00  0.00     0.062 A 
ATOM     18  C   UNL     1       2.115   4.075   7.524  1.00  0.00     0.005 A 
ATOM     19  C   UNL     1       3.018   5.107   7.383  1.00  0.00     0.016 A 
ATOM     20  S   UNL     1       1.385   3.683   6.033  1.00  0.00    -0.139 S 
ATOM     21  C   UNL     1       3.149   5.531   6.027  1.00  0.00     0.022 A 
BRANCH  18  22
ATOM     22  C   UNL     1       1.754   3.307   8.761  1.00  0.00     0.043 C 
ATOM     23  C   UNL     1       0.582   3.929   9.502  1.00  0.00     0.010 C 
ENDBRANCH  18  22
ENDBRANCH  15  17
ENDBRANCH   6  15
ENDBRANCH   3   5
ENDBRANCH   2   3
ENDBRANCH   1   2
BRANCH   1  24
ATOM     24  C   UNL     1       6.602   8.184   2.457  1.00  0.00     0.275 C 
BRANCH  24  25
ATOM     25  O   UNL     1       7.412   7.019   2.237  1.00  0.00    -0.458 OA
BRANCH  25  26
ATOM     26  C   UNL     1       8.107   6.569   3.308  1.00  0.00     0.338 C 
ATOM     27  O   UNL     1       8.212   7.123   4.389  1.00  0.00    -0.246 OA
BRANCH  26  28
ATOM     28  C   UNL     1       8.717   5.248   3.006  1.00  0.00     0.060 A 
ATOM     29  C   UNL     1       8.222   4.433   1.990  1.00  0.00     0.016 A 
ATOM     30  C   UNL     1       9.740   4.763   3.824  1.00  0.00     0.016 A 
ATOM     31  C   UNL     1       8.656   3.109   1.879  1.00  0.00     0.010 A 
ATOM     32  C   UNL     1      10.235   3.461   3.648  1.00  0.00     0.010 A 
ATOM     33  C   UNL     1       9.653   2.584   2.718  1.00  0.00    -0.014 A 
BRANCH  33  34
ATOM     34  C   UNL     1      10.014   1.124   2.690  1.00  0.00     0.031 A 
ATOM     35  C   UNL     1      10.032   0.310   3.970  1.00  0.00     0.074 A 
ATOM     36  C   UNL     1      10.273   0.475   1.534  1.00  0.00     0.049 A 
ATOM     37  N   UNL     1      10.492  -0.902   4.182  1.00  0.00    -0.248 NA
ATOM     38  C   UNL     1       9.463   0.939   5.172  1.00  0.00     0.031 C 
ATOM     39  C   UNL     1      10.233   1.062   0.197  1.00  0.00     0.029 A 
ATOM     40  N   UNL     1      10.603  -0.842   1.300  1.00  0.00    -0.354 N 
ATOM     41  C   UNL     1      10.327  -1.145   5.542  1.00  0.00     0.074 A 
ATOM     42  C   UNL     1       9.709   0.033   6.107  1.00  0.00     0.031 C 
ATOM     43  C   UNL     1      10.442   0.103  -0.716  1.00  0.00     0.029 A 
ATOM     44  C   UNL     1      10.763  -1.145  -0.031  1.00  0.00     0.049 A 
ATOM     45  H   UNL     1      10.714  -1.505   2.020  1.00  0.00     0.167 HD
ATOM     46  C   UNL     1      10.667  -2.242   6.262  1.00  0.00     0.037 A 
ATOM     47  C   UNL     1      11.178  -2.271  -0.644  1.00  0.00     0.037 A 
ATOM     48  C   UNL     1      11.228  -3.448   5.713  1.00  0.00     0.049 A 
ATOM     49  C   UNL     1      11.623  -3.449   0.175  1.00  0.00     0.074 A 
ATOM     50  C   UNL     1      11.608  -4.604   6.375  1.00  0.00     0.029 A 
ATOM     51  N   UNL     1      11.470  -3.663   4.367  1.00  0.00    -0.354 N 
ATOM     52  N   UNL     1      11.581  -3.618   1.473  1.00  0.00    -0.248 NA
ATOM     53  C   UNL     1      12.222  -4.575  -0.558  1.00  0.00     0.031 C 
ATOM     54  C   UNL     1      12.114  -5.506   5.432  1.00  0.00     0.029 A 
ATOM     55  C   UNL     1      12.011  -4.926   4.180  1.00  0.00     0.049 A 
ATOM     56  H   UNL     1      11.285  -3.015   3.649  1.00  0.00     0.167 HD
ATOM     57  C   UNL     1      12.157  -4.858   1.713  1.00  0.00     0.074 A 
ATOM     58  C   UNL     1      12.513  -5.415   0.426  1.00  0.00     0.031 C 
ATOM     59  C   UNL     1      12.382  -5.470   2.901  1.00  0.00     0.037 A 
BRANCH  46  60
ATOM     60  C   UNL     1      10.493  -2.173   7.752  1.00  0.00     0.064 A 
ATOM     61  C   UNL     1       9.237  -2.283   8.362  1.00  0.00     0.173 A 
ATOM     62  C   UNL     1      11.619  -2.034   8.580  1.00  0.00     0.173 A 
ATOM     63  F   UNL     1       8.130  -2.402   7.614  1.00  0.00    -0.203 F 
ATOM     64  C   UNL     1       9.111  -2.236   9.749  1.00  0.00     0.198 A 
ATOM     65  C   UNL     1      11.492  -2.013   9.965  1.00  0.00     0.198 A 
ATOM     66  F   UNL     1      12.844  -1.932   8.043  1.00  0.00    -0.203 F 
ATOM     67  F   UNL     1       7.897  -2.305  10.313  1.00  0.00    -0.200 F 
ATOM     68  C   UNL     1      10.238  -2.108  10.549  1.00  0.00     0.200 A 
ATOM     69  F   UNL     1      12.583  -1.900  10.735  1.00  0.00    -0.200 F 
ATOM     70  F   UNL     1      10.115  -2.070  11.883  1.00  0.00    -0.200 F 
ENDBRANCH  46  60
BRANCH  47  71
ATOM     71  C   UNL     1      11.266  -2.310  -2.128  1.00  0.00     0.064 A 
ATOM     72  C   UNL     1      10.398  -3.114  -2.879  1.00  0.00     0.173 A 
ATOM     73  C   UNL     1      12.204  -1.532  -2.823  1.00  0.00     0.173 A 
ATOM     74  F   UNL     1       9.511  -3.905  -2.258  1.00  0.00    -0.203 F 
ATOM     75  C   UNL     1      10.459  -3.129  -4.271  1.00  0.00     0.198 A 
ATOM     76  C   UNL     1      12.241  -1.523  -4.215  1.00  0.00     0.198 A 
ATOM     77  F   UNL     1      13.065  -0.757  -2.148  1.00  0.00    -0.203 F 
ATOM     78  F   UNL     1       9.637  -3.927  -4.967  1.00  0.00    -0.200 F 
ATOM     79  C   UNL     1      11.370  -2.323  -4.938  1.00  0.00     0.200 A 
ATOM     80  F   UNL     1      13.115  -0.734  -4.853  1.00  0.00    -0.200 F 
ATOM     81  F   UNL     1      11.413  -2.322  -6.277  1.00  0.00    -0.200 F 
ENDBRANCH  47  71
BRANCH  59  82
ATOM     82  C   UNL     1      13.047  -6.813   2.867  1.00  0.00     0.064 A 
ATOM     83  C   UNL     1      14.419  -6.940   2.606  1.00  0.00     0.173 A 
ATOM     84  C   UNL     1      12.314  -7.981   3.122  1.00  0.00     0.173 A 
ATOM     85  F   UNL     1      15.159  -5.853   2.340  1.00  0.00    -0.203 F 
ATOM     86  C   UNL     1      15.030  -8.191   2.583  1.00  0.00     0.198 A 
ATOM     87  C   UNL     1      12.932  -9.229   3.119  1.00  0.00     0.198 A 
ATOM     88  F   UNL     1      11.000  -7.912   3.380  1.00  0.00    -0.203 F 
ATOM     89  F   UNL     1      16.334  -8.293   2.292  1.00  0.00    -0.200 F 
ATOM     90  C   UNL     1      14.288  -9.333   2.844  1.00  0.00     0.200 A 
ATOM     91  F   UNL     1      12.216 -10.331   3.378  1.00  0.00    -0.200 F 
ATOM     92  F   UNL     1      14.877 -10.537   2.821  1.00  0.00    -0.200 F 
ENDBRANCH  59  82
ENDBRANCH  33  34
ENDBRANCH  26  28
ENDBRANCH  25  26
ENDBRANCH  24  25
ENDBRANCH   1  24
TORSDOF 14
