REMARK SMILES CC1(C)Cc2c(-c3ccccc3)c(-c3ccc(Cl)cc3)c(CC(=O)OCCOC(=O)c3ccc(-c4c5nc(c(-c6c(F)c(F)c(F)c(F)c6F)c6ccc([nH]6)c(-c6c(F)c(F)c(F)c(F)c6F)c6nc(c(-c7c(F)c(F)c(F)c(F)c7F)c7ccc4[nH]7)C=C6)C=C5)cc3)n2C1
REMARK SMILES IDX 26 1 25 2 23 3 24 4 22 5 21 6 1 7 2 8 3 9 4 10 95 11 5 12
REMARK SMILES IDX 94 13 6 14 13 15 7 16 8 17 12 18 9 19 11 20 10 21 14 22
REMARK SMILES IDX 15 23 20 24 16 25 19 26 17 27 18 28 27 29 28 30 29 31 30 32
REMARK SMILES IDX 31 33 32 34 93 35 33 36 92 37 34 38 35 39 36 40 86 41 37 42
REMARK SMILES IDX 91 43 85 44 87 45 38 46 90 47 84 48 83 49 39 51 71 52 51 53
REMARK SMILES IDX 70 54 52 55 55 56 69 57 88 58 53 59 54 60 68 62 89 63 56 64
REMARK SMILES IDX 40 65 41 66 49 67 42 68 43 69 47 70 50 71 44 72 45 73 48 74
REMARK SMILES IDX 46 75 72 76 73 77 81 78 74 79 75 80 79 81 82 82 76 83 77 84
REMARK SMILES IDX 80 85 78 86 57 87 58 88 66 89 59 90 60 91 64 92 67 93 61 94
REMARK SMILES IDX 62 95 65 96 63 97
REMARK H PARENT 87 50 55 61
REMARK Flexibility Score: inf
ROOT
ATOM      1  C   UNL     1      -2.229   7.013  -2.502  1.00  0.00     0.274 C 
ENDROOT
BRANCH   1   2
ATOM      2  O   UNL     1      -1.270   6.298  -1.705  1.00  0.00    -0.462 OA
BRANCH   2   3
ATOM      3  C   UNL     1      -0.113   5.939  -2.307  1.00  0.00     0.311 C 
ATOM      4  O   UNL     1       0.050   5.966  -3.525  1.00  0.00    -0.252 OA
BRANCH   3   5
ATOM      5  C   UNL     1       1.023   5.616  -1.350  1.00  0.00     0.177 C 
BRANCH   5   6
ATOM      6  C   UNL     1       0.729   4.962  -0.017  1.00  0.00     0.037 A 
ATOM      7  C   UNL     1       1.194   0.010  -0.172  1.00  0.00     0.013 C 
ATOM      8  C   UNL     1       0.441   1.312   0.086  1.00  0.00    -0.012 C 
ATOM      9  C   UNL     1      -1.056   1.131  -0.228  1.00  0.00     0.013 C 
ATOM     10  C   UNL     1       0.630   1.758   1.571  1.00  0.00     0.063 C 
ATOM     11  C   UNL     1       1.014   2.486  -0.757  1.00  0.00     0.129 C 
ATOM     12  C   UNL     1       0.656   3.224   1.441  1.00  0.00     0.027 A 
ATOM     13  N   UNL     1       0.871   3.616   0.152  1.00  0.00    -0.346 N 
ATOM     14  C   UNL     1       0.422   4.328   2.201  1.00  0.00     0.011 A 
ATOM     15  C   UNL     1       0.421   5.436   1.270  1.00  0.00     0.011 A 
BRANCH  14  16
ATOM     16  C   UNL     1       0.039   4.307   3.607  1.00  0.00    -0.016 A 
ATOM     17  C   UNL     1       0.981   3.973   4.582  1.00  0.00     0.009 A 
ATOM     18  C   UNL     1      -1.221   4.774   4.010  1.00  0.00     0.009 A 
ATOM     19  C   UNL     1       0.679   4.148   5.936  1.00  0.00     0.001 A 
ATOM     20  C   UNL     1      -1.507   4.989   5.358  1.00  0.00     0.001 A 
ATOM     21  C   UNL     1      -0.554   4.676   6.322  1.00  0.00     0.000 A 
ENDBRANCH  14  16
BRANCH  15  22
ATOM     22  C   UNL     1      -0.230   6.686   1.614  1.00  0.00    -0.016 A 
ATOM     23  C   UNL     1       0.141   7.417   2.750  1.00  0.00     0.010 A 
ATOM     24  C   UNL     1      -1.531   6.810   1.130  1.00  0.00     0.010 A 
ATOM     25  C   UNL     1      -0.824   8.198   3.416  1.00  0.00     0.021 A 
ATOM     26  C   UNL     1      -2.454   7.636   1.733  1.00  0.00     0.021 A 
ATOM     27  C   UNL     1      -2.122   8.290   2.896  1.00  0.00     0.041 A 
ATOM     28  Cl  UNL     1      -3.466   9.052   3.641  1.00  0.00    -0.084 Cl
ENDBRANCH  15  22
ENDBRANCH   5   6
ENDBRANCH   3   5
ENDBRANCH   2   3
ENDBRANCH   1   2
BRANCH   1  29
ATOM     29  C   UNL     1      -2.751   8.231  -1.742  1.00  0.00     0.275 C 
BRANCH  29  30
ATOM     30  O   UNL     1      -1.900   9.389  -1.575  1.00  0.00    -0.458 OA
BRANCH  30  31
ATOM     31  C   UNL     1      -0.640   9.293  -1.097  1.00  0.00     0.338 C 
ATOM     32  O   UNL     1       0.246   8.566  -1.525  1.00  0.00    -0.246 OA
BRANCH  31  33
ATOM     33  C   UNL     1      -0.476  10.165   0.097  1.00  0.00     0.060 A 
ATOM     34  C   UNL     1       0.645  10.010   0.922  1.00  0.00     0.016 A 
ATOM     35  C   UNL     1      -1.495  11.044   0.480  1.00  0.00     0.016 A 
ATOM     36  C   UNL     1       0.670  10.621   2.181  1.00  0.00     0.010 A 
ATOM     37  C   UNL     1      -1.484  11.626   1.744  1.00  0.00     0.010 A 
ATOM     38  C   UNL     1      -0.436  11.365   2.633  1.00  0.00    -0.014 A 
BRANCH  38  39
ATOM     39  C   UNL     1      -0.312  12.213   3.836  1.00  0.00     0.031 A 
ATOM     40  C   UNL     1       0.736  13.225   3.584  1.00  0.00     0.074 A 
ATOM     41  C   UNL     1      -1.101  12.223   4.939  1.00  0.00     0.049 A 
ATOM     42  N   UNL     1       1.873  13.297   4.196  1.00  0.00    -0.248 NA
ATOM     43  C   UNL     1       0.669  14.039   2.357  1.00  0.00     0.031 C 
ATOM     44  C   UNL     1      -2.117  11.258   5.301  1.00  0.00     0.029 A 
ATOM     45  N   UNL     1      -1.254  13.157   5.944  1.00  0.00    -0.354 N 
ATOM     46  C   UNL     1       2.514  14.378   3.607  1.00  0.00     0.074 A 
ATOM     47  C   UNL     1       1.895  14.563   2.328  1.00  0.00     0.031 C 
ATOM     48  C   UNL     1      -3.017  11.770   6.163  1.00  0.00     0.029 A 
ATOM     49  C   UNL     1      -2.504  13.044   6.606  1.00  0.00     0.049 A 
ATOM     50  H   UNL     1      -0.571  13.827   6.176  1.00  0.00     0.167 HD
ATOM     51  C   UNL     1       3.113  15.291   4.417  1.00  0.00     0.037 A 
ATOM     52  C   UNL     1      -3.048  13.881   7.531  1.00  0.00     0.037 A 
ATOM     53  C   UNL     1       3.397  14.694   5.705  1.00  0.00     0.049 A 
ATOM     54  C   UNL     1      -1.919  14.622   8.120  1.00  0.00     0.074 A 
ATOM     55  C   UNL     1       4.179  13.659   6.175  1.00  0.00     0.029 A 
ATOM     56  N   UNL     1       2.418  14.911   6.637  1.00  0.00    -0.354 N 
ATOM     57  N   UNL     1      -1.047  14.069   8.914  1.00  0.00    -0.248 NA
ATOM     58  C   UNL     1      -1.501  15.854   7.474  1.00  0.00     0.031 C 
ATOM     59  C   UNL     1       3.516  13.153   7.334  1.00  0.00     0.029 A 
ATOM     60  C   UNL     1       2.397  13.941   7.595  1.00  0.00     0.049 A 
ATOM     61  H   UNL     1       1.801  15.678   6.617  1.00  0.00     0.167 HD
ATOM     62  C   UNL     1       0.160  14.586   8.483  1.00  0.00     0.074 A 
ATOM     63  C   UNL     1      -0.192  15.786   7.723  1.00  0.00     0.031 C 
ATOM     64  C   UNL     1       1.274  13.796   8.494  1.00  0.00     0.037 A 
BRANCH  51  65
ATOM     65  C   UNL     1       2.872  16.792   4.279  1.00  0.00     0.064 A 
ATOM     66  C   UNL     1       3.548  17.655   5.164  1.00  0.00     0.173 A 
ATOM     67  C   UNL     1       1.808  17.395   3.562  1.00  0.00     0.173 A 
ATOM     68  F   UNL     1       4.554  17.197   5.923  1.00  0.00    -0.203 F 
ATOM     69  C   UNL     1       3.144  18.980   5.365  1.00  0.00     0.198 A 
ATOM     70  C   UNL     1       1.438  18.727   3.732  1.00  0.00     0.198 A 
ATOM     71  F   UNL     1       1.000  16.723   2.740  1.00  0.00    -0.203 F 
ATOM     72  F   UNL     1       3.745  19.722   6.304  1.00  0.00    -0.200 F 
ATOM     73  C   UNL     1       2.086  19.513   4.652  1.00  0.00     0.200 A 
ATOM     74  F   UNL     1       0.388  19.207   3.048  1.00  0.00    -0.200 F 
ATOM     75  F   UNL     1       1.661  20.761   4.883  1.00  0.00    -0.200 F 
ENDBRANCH  51  65
BRANCH  52  76
ATOM     76  C   UNL     1      -4.463  14.250   7.812  1.00  0.00     0.064 A 
ATOM     77  C   UNL     1      -4.806  15.011   8.948  1.00  0.00     0.173 A 
ATOM     78  C   UNL     1      -5.451  14.152   6.815  1.00  0.00     0.173 A 
ATOM     79  F   UNL     1      -3.923  15.177   9.944  1.00  0.00    -0.203 F 
ATOM     80  C   UNL     1      -6.028  15.688   9.045  1.00  0.00     0.198 A 
ATOM     81  C   UNL     1      -6.672  14.827   6.915  1.00  0.00     0.198 A 
ATOM     82  F   UNL     1      -5.211  13.485   5.678  1.00  0.00    -0.203 F 
ATOM     83  F   UNL     1      -6.278  16.471  10.105  1.00  0.00    -0.200 F 
ATOM     84  C   UNL     1      -6.951  15.613   8.018  1.00  0.00     0.200 A 
ATOM     85  F   UNL     1      -7.547  14.772   5.900  1.00  0.00    -0.200 F 
ATOM     86  F   UNL     1      -8.084  16.328   8.070  1.00  0.00    -0.200 F 
ENDBRANCH  52  76
BRANCH  64  87
ATOM     87  C   UNL     1       1.279  12.624   9.433  1.00  0.00     0.064 A 
ATOM     88  C   UNL     1       0.418  11.516   9.358  1.00  0.00     0.173 A 
ATOM     89  C   UNL     1       2.269  12.608  10.426  1.00  0.00     0.173 A 
ATOM     90  F   UNL     1      -0.494  11.413   8.381  1.00  0.00    -0.203 F 
ATOM     91  C   UNL     1       0.517  10.469  10.276  1.00  0.00     0.198 A 
ATOM     92  C   UNL     1       2.392  11.544  11.311  1.00  0.00     0.198 A 
ATOM     93  F   UNL     1       3.147  13.620  10.514  1.00  0.00    -0.203 F 
ATOM     94  F   UNL     1      -0.331   9.431  10.207  1.00  0.00    -0.200 F 
ATOM     95  C   UNL     1       1.506  10.483  11.248  1.00  0.00     0.200 A 
ATOM     96  F   UNL     1       3.381  11.544  12.215  1.00  0.00    -0.200 F 
ATOM     97  F   UNL     1       1.619   9.464  12.112  1.00  0.00    -0.200 F 
ENDBRANCH  64  87
ENDBRANCH  38  39
ENDBRANCH  31  33
ENDBRANCH  30  31
ENDBRANCH  29  30
ENDBRANCH   1  29
TORSDOF 14
