REMARK SMILES CC(=O)N[C@@H](CCC(=O)OCCOC(=O)c1ccc(-c2c3nc(c(-c4c(F)c(F)c(F)c(F)c4F)c4ccc([nH]4)c(-c4c(F)c(F)c(F)c(F)c4F)c4nc(c(-c5c(F)c(F)c(F)c(F)c5F)c5ccc2[nH]5)C=C4)C=C3)cc1)Cc1nc(C)ccc1O
REMARK SMILES IDX 10 1 8 2 9 3 7 4 6 5 5 6 4 7 1 8 2 9 3 10 79 12 80 13 81 14
REMARK SMILES IDX 86 15 82 16 85 17 83 18 84 19 87 20 11 22 12 23 13 24 14 25
REMARK SMILES IDX 15 26 16 27 17 28 78 29 18 30 77 31 19 32 20 33 21 34 71 35
REMARK SMILES IDX 22 36 76 37 70 38 72 39 23 40 75 41 69 42 68 43 24 45 56 46
REMARK SMILES IDX 36 47 55 48 37 49 40 50 54 51 73 52 38 53 39 54 53 56 74 57
REMARK SMILES IDX 41 58 25 59 26 60 34 61 27 62 28 63 32 64 35 65 29 66 30 67
REMARK SMILES IDX 33 68 31 69 57 70 58 71 66 72 59 73 60 74 64 75 67 76 61 77
REMARK SMILES IDX 62 78 65 79 63 80 42 81 43 82 51 83 44 84 45 85 49 86 52 87
REMARK SMILES IDX 46 88 47 89 50 90 48 91
REMARK H PARENT 4 11 87 21 72 44 40 55
REMARK Flexibility Score: inf
ROOT
ATOM      1  O   UNL     1       0.450  -5.249  -2.828  1.00  0.00    -0.462 OA
ENDROOT
BRANCH   1   2
ATOM      2  C   UNL     1       1.431  -5.762  -2.060  1.00  0.00     0.305 C 
ATOM      3  O   UNL     1       1.956  -6.853  -2.237  1.00  0.00    -0.252 OA
BRANCH   2   4
ATOM      4  C   UNL     1       1.783  -4.840  -0.910  1.00  0.00     0.125 C 
BRANCH   4   5
ATOM      5  C   UNL     1       2.370  -3.461  -1.259  1.00  0.00     0.037 C 
BRANCH   5   6
ATOM      6  C   UNL     1       1.407  -2.261  -1.447  1.00  0.00     0.088 C 
BRANCH   6   7
ATOM      7  N   UNL     1       0.478  -2.179  -0.323  1.00  0.00    -0.353 N 
ATOM      8  C   UNL     1       0.934   0.191   0.222  1.00  0.00     0.114 C 
ATOM      9  C   UNL     1       0.223  -1.109   0.485  1.00  0.00     0.217 C 
ATOM     10  O   UNL     1      -0.571  -1.238   1.416  1.00  0.00    -0.275 OA
ATOM     11  H   UNL     1      -0.029  -2.999  -0.123  1.00  0.00     0.163 HD
ENDBRANCH   6   7
BRANCH   6  12
ATOM     12  C   UNL     1       0.760  -2.184  -2.843  1.00  0.00     0.085 C 
BRANCH  12  13
ATOM     13  C   UNL     1      -0.545  -1.445  -2.955  1.00  0.00     0.084 A 
ATOM     14  N   UNL     1      -0.459  -0.097  -3.085  1.00  0.00    -0.254 NA
ATOM     15  C   UNL     1      -1.771  -2.114  -2.965  1.00  0.00     0.137 A 
ATOM     16  C   UNL     1      -1.608   0.603  -3.237  1.00  0.00     0.038 A 
ATOM     17  C   UNL     1      -2.939  -1.386  -3.148  1.00  0.00     0.050 A 
ATOM     18  C   UNL     1      -1.469   2.091  -3.323  1.00  0.00     0.067 C 
ATOM     19  C   UNL     1      -2.858  -0.005  -3.288  1.00  0.00     0.027 A 
BRANCH  15  20
ATOM     20  O   UNL     1      -1.833  -3.467  -2.807  1.00  0.00    -0.506 OA
ATOM     21  H   UNL     1      -1.047  -3.961  -2.683  1.00  0.00     0.293 HD
ENDBRANCH  15  20
ENDBRANCH  12  13
ENDBRANCH   6  12
ENDBRANCH   5   6
ENDBRANCH   4   5
ENDBRANCH   2   4
ENDBRANCH   1   2
BRANCH   1  22
ATOM     22  C   UNL     1       0.099  -5.928  -4.051  1.00  0.00     0.274 C 
BRANCH  22  23
ATOM     23  C   UNL     1       0.899  -5.383  -5.239  1.00  0.00     0.275 C 
BRANCH  23  24
ATOM     24  O   UNL     1       2.232  -5.921  -5.224  1.00  0.00    -0.458 OA
BRANCH  24  25
ATOM     25  C   UNL     1       3.199  -5.104  -4.751  1.00  0.00     0.338 C 
ATOM     26  O   UNL     1       3.104  -3.924  -4.462  1.00  0.00    -0.246 OA
BRANCH  25  27
ATOM     27  C   UNL     1       4.387  -5.921  -4.467  1.00  0.00     0.060 A 
ATOM     28  C   UNL     1       4.818  -6.037  -3.142  1.00  0.00     0.016 A 
ATOM     29  C   UNL     1       5.059  -6.579  -5.497  1.00  0.00     0.016 A 
ATOM     30  C   UNL     1       5.908  -6.841  -2.831  1.00  0.00     0.010 A 
ATOM     31  C   UNL     1       6.159  -7.378  -5.187  1.00  0.00     0.010 A 
ATOM     32  C   UNL     1       6.586  -7.514  -3.853  1.00  0.00    -0.014 A 
BRANCH  32  33
ATOM     33  C   UNL     1       7.785  -8.316  -3.534  1.00  0.00     0.031 A 
ATOM     34  C   UNL     1       9.137  -7.772  -3.881  1.00  0.00     0.074 A 
ATOM     35  C   UNL     1       7.651  -9.517  -2.944  1.00  0.00     0.049 A 
ATOM     36  N   UNL     1      10.309  -8.342  -3.789  1.00  0.00    -0.248 NA
ATOM     37  C   UNL     1       9.173  -6.400  -4.414  1.00  0.00     0.031 C 
ATOM     38  C   UNL     1       6.382 -10.117  -2.533  1.00  0.00     0.029 A 
ATOM     39  N   UNL     1       8.592 -10.454  -2.603  1.00  0.00    -0.354 N 
ATOM     40  C   UNL     1      11.218  -7.412  -4.273  1.00  0.00     0.074 A 
ATOM     41  C   UNL     1      10.462  -6.246  -4.676  1.00  0.00     0.031 C 
ATOM     42  C   UNL     1       6.622 -11.330  -2.009  1.00  0.00     0.029 A 
ATOM     43  C   UNL     1       8.053 -11.609  -2.092  1.00  0.00     0.049 A 
ATOM     44  H   UNL     1       9.560 -10.313  -2.715  1.00  0.00     0.167 HD
ATOM     45  C   UNL     1      12.563  -7.530  -4.370  1.00  0.00     0.037 A 
ATOM     46  C   UNL     1       8.648 -12.772  -1.766  1.00  0.00     0.037 A 
ATOM     47  C   UNL     1      13.297  -8.695  -3.952  1.00  0.00     0.049 A 
ATOM     48  C   UNL     1      10.141 -12.891  -1.930  1.00  0.00     0.074 A 
ATOM     49  C   UNL     1      14.663  -8.908  -3.973  1.00  0.00     0.029 A 
ATOM     50  N   UNL     1      12.719  -9.851  -3.444  1.00  0.00    -0.354 N 
ATOM     51  N   UNL     1      11.001 -12.000  -2.364  1.00  0.00    -0.248 NA
ATOM     52  C   UNL     1      10.748 -14.176  -1.558  1.00  0.00     0.031 C 
ATOM     53  C   UNL     1      14.907 -10.214  -3.539  1.00  0.00     0.029 A 
ATOM     54  C   UNL     1      13.700 -10.793  -3.180  1.00  0.00     0.049 A 
ATOM     55  H   UNL     1      11.755  -9.982  -3.294  1.00  0.00     0.167 HD
ATOM     56  C   UNL     1      12.249 -12.604  -2.291  1.00  0.00     0.074 A 
ATOM     57  C   UNL     1      12.036 -13.932  -1.754  1.00  0.00     0.031 C 
ATOM     58  C   UNL     1      13.463 -12.107  -2.636  1.00  0.00     0.037 A 
BRANCH  45  59
ATOM     59  C   UNL     1      13.322  -6.391  -4.986  1.00  0.00     0.064 A 
ATOM     60  C   UNL     1      13.475  -5.158  -4.335  1.00  0.00     0.173 A 
ATOM     61  C   UNL     1      13.942  -6.553  -6.235  1.00  0.00     0.173 A 
ATOM     62  F   UNL     1      12.890  -4.944  -3.147  1.00  0.00    -0.203 F 
ATOM     63  C   UNL     1      14.201  -4.124  -4.921  1.00  0.00     0.198 A 
ATOM     64  C   UNL     1      14.693  -5.528  -6.803  1.00  0.00     0.198 A 
ATOM     65  F   UNL     1      13.828  -7.712  -6.902  1.00  0.00    -0.203 F 
ATOM     66  F   UNL     1      14.296  -2.939  -4.301  1.00  0.00    -0.200 F 
ATOM     67  C   UNL     1      14.816  -4.313  -6.149  1.00  0.00     0.200 A 
ATOM     68  F   UNL     1      15.297  -5.718  -7.985  1.00  0.00    -0.200 F 
ATOM     69  F   UNL     1      15.525  -3.320  -6.706  1.00  0.00    -0.200 F 
ENDBRANCH  45  59
BRANCH  46  70
ATOM     70  C   UNL     1       7.835 -13.920  -1.285  1.00  0.00     0.064 A 
ATOM     71  C   UNL     1       7.967 -14.411   0.021  1.00  0.00     0.173 A 
ATOM     72  C   UNL     1       6.922 -14.568  -2.132  1.00  0.00     0.173 A 
ATOM     73  F   UNL     1       8.843 -13.843   0.864  1.00  0.00    -0.203 F 
ATOM     74  C   UNL     1       7.240 -15.519   0.453  1.00  0.00     0.198 A 
ATOM     75  C   UNL     1       6.170 -15.654  -1.688  1.00  0.00     0.198 A 
ATOM     76  F   UNL     1       6.755 -14.142  -3.393  1.00  0.00    -0.203 F 
ATOM     77  F   UNL     1       7.431 -16.002   1.688  1.00  0.00    -0.200 F 
ATOM     78  C   UNL     1       6.338 -16.136  -0.400  1.00  0.00     0.200 A 
ATOM     79  F   UNL     1       5.289 -16.238  -2.513  1.00  0.00    -0.200 F 
ATOM     80  F   UNL     1       5.639 -17.201   0.016  1.00  0.00    -0.200 F 
ENDBRANCH  46  70
BRANCH  58  81
ATOM     81  C   UNL     1      14.658 -12.986  -2.403  1.00  0.00     0.064 A 
ATOM     82  C   UNL     1      14.896 -14.131  -3.178  1.00  0.00     0.173 A 
ATOM     83  C   UNL     1      15.599 -12.653  -1.417  1.00  0.00     0.173 A 
ATOM     84  F   UNL     1      14.020 -14.501  -4.124  1.00  0.00    -0.203 F 
ATOM     85  C   UNL     1      16.017 -14.925  -2.953  1.00  0.00     0.198 A 
ATOM     86  C   UNL     1      16.737 -13.428  -1.220  1.00  0.00     0.198 A 
ATOM     87  F   UNL     1      15.423 -11.563  -0.654  1.00  0.00    -0.203 F 
ATOM     88  F   UNL     1      16.197 -16.044  -3.668  1.00  0.00    -0.200 F 
ATOM     89  C   UNL     1      16.941 -14.569  -1.982  1.00  0.00     0.200 A 
ATOM     90  F   UNL     1      17.637 -13.071  -0.293  1.00  0.00    -0.200 F 
ATOM     91  F   UNL     1      18.025 -15.329  -1.774  1.00  0.00    -0.200 F 
ENDBRANCH  58  81
ENDBRANCH  32  33
ENDBRANCH  25  27
ENDBRANCH  24  25
ENDBRANCH  23  24
ENDBRANCH  22  23
ENDBRANCH   1  22
TORSDOF 17
