REMARK SMILES COc1cccc([C@@H]2C[N@@H+](Cc3nccn3C)C[C@H]2C(=O)OCCOC(=O)c2ccc(-c3c4nc(c(-c5c(F)c(F)c(F)c(F)c5F)c5ccc([nH]5)c(-c5c(F)c(F)c(F)c(F)c5F)c5nc(c(-c6c(F)c(F)c(F)c(F)c6F)c6ccc3[nH]6)C=C5)C=C4)cc2)c1
REMARK SMILES IDX 23 1 22 2 20 3 21 4 19 5 8 6 9 7 10 8 18 9 7 11 3 12 4 13
REMARK SMILES IDX 91 14 5 15 6 16 2 17 1 18 11 19 12 20 13 21 16 22 14 23
REMARK SMILES IDX 15 24 17 25 24 26 25 27 26 28 27 29 28 30 29 31 90 32 30 33
REMARK SMILES IDX 89 34 31 35 32 36 33 37 83 38 34 39 88 40 82 41 84 42 35 43
REMARK SMILES IDX 87 44 81 45 80 46 36 48 68 49 48 50 67 51 49 52 52 53 66 54
REMARK SMILES IDX 85 55 50 56 51 57 65 59 86 60 53 61 37 62 38 63 46 64 39 65
REMARK SMILES IDX 40 66 44 67 47 68 41 69 42 70 45 71 43 72 69 73 70 74 78 75
REMARK SMILES IDX 71 76 72 77 76 78 79 79 73 80 74 81 77 82 75 83 54 84 55 85
REMARK SMILES IDX 63 86 56 87 57 88 61 89 64 90 58 91 59 92 62 93 60 94
REMARK H PARENT 10 10 84 47 52 58
REMARK Flexibility Score: inf
ROOT
ATOM      1  C   UNL     1       4.145   1.423  -6.917  1.00  0.00     0.274 C 
ENDROOT
BRANCH   1   2
ATOM      2  O   UNL     1       4.127   0.417  -5.880  1.00  0.00    -0.462 OA
BRANCH   2   3
ATOM      3  C   UNL     1       4.779   0.708  -4.730  1.00  0.00     0.315 C 
ATOM      4  O   UNL     1       5.368   1.764  -4.519  1.00  0.00    -0.252 OA
BRANCH   3   5
ATOM      5  C   UNL     1       4.760  -0.400  -3.695  1.00  0.00     0.167 C 
ATOM      6  C   UNL     1       3.992  -1.687  -4.016  1.00  0.00     0.094 C 
ATOM      7  C   UNL     1       4.902  -2.788  -3.449  1.00  0.00     0.272 C 
ATOM      8  N   UNL     1       6.277  -2.294  -3.605  1.00  0.00    -0.327 N 
ATOM      9  C   UNL     1       6.211  -0.840  -3.469  1.00  0.00     0.278 C 
ATOM     10  H   UNL     1       6.877  -2.682  -2.877  1.00  0.00     0.348 HD
BRANCH   6  11
ATOM     11  C   UNL     1       2.566  -1.803  -3.498  1.00  0.00    -0.035 A 
ATOM     12  C   UNL     1       0.891  -1.795  -1.722  1.00  0.00     0.119 A 
ATOM     13  C   UNL     1      -0.069  -2.249  -2.627  1.00  0.00     0.046 A 
ATOM     14  C   UNL     1       2.207  -1.580  -2.153  1.00  0.00     0.050 A 
ATOM     15  C   UNL     1       0.266  -2.462  -3.960  1.00  0.00     0.004 A 
ATOM     16  C   UNL     1       1.573  -2.240  -4.391  1.00  0.00     0.004 A 
BRANCH  12  17
ATOM     17  O   UNL     1       0.436  -1.669  -0.438  1.00  0.00    -0.497 OA
ATOM     18  C   UNL     1       1.099  -0.715   0.379  1.00  0.00     0.278 C 
ENDBRANCH  12  17
ENDBRANCH   6  11
BRANCH   8  19
ATOM     19  C   UNL     1       6.969  -2.777  -4.815  1.00  0.00     0.339 C 
BRANCH  19  20
ATOM     20  C   UNL     1       6.234  -2.654  -6.122  1.00  0.00     0.164 A 
ATOM     21  N   UNL     1       5.291  -3.487  -6.532  1.00  0.00    -0.236 NA
ATOM     22  N   UNL     1       6.444  -1.680  -7.073  1.00  0.00    -0.333 N 
ATOM     23  C   UNL     1       4.859  -3.019  -7.741  1.00  0.00     0.131 A 
ATOM     24  C   UNL     1       5.557  -1.894  -8.096  1.00  0.00     0.107 A 
ATOM     25  C   UNL     1       7.410  -0.610  -7.041  1.00  0.00     0.151 C 
ENDBRANCH  19  20
ENDBRANCH   8  19
ENDBRANCH   3   5
ENDBRANCH   2   3
ENDBRANCH   1   2
BRANCH   1  26
ATOM     26  C   UNL     1       2.719   1.795  -7.303  1.00  0.00     0.275 C 
BRANCH  26  27
ATOM     27  O   UNL     1       2.092   2.376  -6.151  1.00  0.00    -0.458 OA
BRANCH  27  28
ATOM     28  C   UNL     1       1.082   1.656  -5.613  1.00  0.00     0.338 C 
ATOM     29  O   UNL     1       0.509   0.692  -6.080  1.00  0.00    -0.246 OA
BRANCH  28  30
ATOM     30  C   UNL     1       0.825   2.200  -4.275  1.00  0.00     0.060 A 
ATOM     31  C   UNL     1       1.731   1.913  -3.257  1.00  0.00     0.016 A 
ATOM     32  C   UNL     1      -0.334   2.925  -4.011  1.00  0.00     0.016 A 
ATOM     33  C   UNL     1       1.463   2.302  -1.952  1.00  0.00     0.010 A 
ATOM     34  C   UNL     1      -0.587   3.347  -2.703  1.00  0.00     0.010 A 
ATOM     35  C   UNL     1       0.289   3.003  -1.657  1.00  0.00    -0.014 A 
BRANCH  35  36
ATOM     36  C   UNL     1      -0.075   3.265  -0.241  1.00  0.00     0.031 A 
ATOM     37  C   UNL     1      -1.281   2.584   0.348  1.00  0.00     0.074 A 
ATOM     38  C   UNL     1       0.697   4.049   0.535  1.00  0.00     0.049 A 
ATOM     39  N   UNL     1      -1.856   2.773   1.508  1.00  0.00    -0.248 NA
ATOM     40  C   UNL     1      -1.924   1.552  -0.481  1.00  0.00     0.031 C 
ATOM     41  C   UNL     1       1.938   4.697   0.113  1.00  0.00     0.029 A 
ATOM     42  N   UNL     1       0.552   4.427   1.846  1.00  0.00    -0.354 N 
ATOM     43  C   UNL     1      -2.955   1.923   1.527  1.00  0.00     0.074 A 
ATOM     44  C   UNL     1      -2.966   1.216   0.264  1.00  0.00     0.031 C 
ATOM     45  C   UNL     1       2.453   5.376   1.150  1.00  0.00     0.029 A 
ATOM     46  C   UNL     1       1.540   5.273   2.285  1.00  0.00     0.049 A 
ATOM     47  H   UNL     1      -0.189   4.121   2.418  1.00  0.00     0.167 HD
ATOM     48  C   UNL     1      -3.870   1.751   2.510  1.00  0.00     0.037 A 
ATOM     49  C   UNL     1       1.674   5.926   3.455  1.00  0.00     0.037 A 
ATOM     50  C   UNL     1      -3.829   2.422   3.782  1.00  0.00     0.049 A 
ATOM     51  C   UNL     1       0.616   5.758   4.512  1.00  0.00     0.074 A 
ATOM     52  C   UNL     1      -4.712   2.322   4.843  1.00  0.00     0.029 A 
ATOM     53  N   UNL     1      -2.835   3.309   4.171  1.00  0.00    -0.354 N 
ATOM     54  N   UNL     1      -0.459   5.009   4.495  1.00  0.00    -0.248 NA
ATOM     55  C   UNL     1       0.784   6.540   5.745  1.00  0.00     0.031 C 
ATOM     56  C   UNL     1      -4.271   3.175   5.862  1.00  0.00     0.029 A 
ATOM     57  C   UNL     1      -3.089   3.772   5.452  1.00  0.00     0.049 A 
ATOM     58  H   UNL     1      -2.063   3.571   3.619  1.00  0.00     0.167 HD
ATOM     59  C   UNL     1      -1.091   5.220   5.713  1.00  0.00     0.074 A 
ATOM     60  C   UNL     1      -0.264   6.149   6.456  1.00  0.00     0.031 C 
ATOM     61  C   UNL     1      -2.254   4.697   6.173  1.00  0.00     0.037 A 
BRANCH  48  62
ATOM     62  C   UNL     1      -5.020   0.829   2.230  1.00  0.00     0.064 A 
ATOM     63  C   UNL     1      -4.865  -0.564   2.198  1.00  0.00     0.173 A 
ATOM     64  C   UNL     1      -6.305   1.352   2.017  1.00  0.00     0.173 A 
ATOM     65  F   UNL     1      -3.654  -1.112   2.381  1.00  0.00    -0.203 F 
ATOM     66  C   UNL     1      -5.950  -1.399   1.939  1.00  0.00     0.198 A 
ATOM     67  C   UNL     1      -7.392   0.513   1.785  1.00  0.00     0.198 A 
ATOM     68  F   UNL     1      -6.508   2.678   2.040  1.00  0.00    -0.203 F 
ATOM     69  F   UNL     1      -5.772  -2.726   1.871  1.00  0.00    -0.200 F 
ATOM     70  C   UNL     1      -7.212  -0.860   1.739  1.00  0.00     0.200 A 
ATOM     71  F   UNL     1      -8.613   1.036   1.603  1.00  0.00    -0.200 F 
ATOM     72  F   UNL     1      -8.256  -1.665   1.497  1.00  0.00    -0.200 F 
ENDBRANCH  48  62
BRANCH  49  73
ATOM     73  C   UNL     1       2.833   6.831   3.671  1.00  0.00     0.064 A 
ATOM     74  C   UNL     1       3.829   6.521   4.607  1.00  0.00     0.173 A 
ATOM     75  C   UNL     1       2.968   8.025   2.946  1.00  0.00     0.173 A 
ATOM     76  F   UNL     1       3.730   5.405   5.344  1.00  0.00    -0.203 F 
ATOM     77  C   UNL     1       4.911   7.374   4.814  1.00  0.00     0.198 A 
ATOM     78  C   UNL     1       4.065   8.861   3.133  1.00  0.00     0.198 A 
ATOM     79  F   UNL     1       2.039   8.370   2.042  1.00  0.00    -0.203 F 
ATOM     80  F   UNL     1       5.829   7.074   5.743  1.00  0.00    -0.200 F 
ATOM     81  C   UNL     1       5.033   8.539   4.071  1.00  0.00     0.200 A 
ATOM     82  F   UNL     1       4.185   9.979   2.402  1.00  0.00    -0.200 F 
ATOM     83  F   UNL     1       6.079   9.354   4.265  1.00  0.00    -0.200 F 
ENDBRANCH  49  73
BRANCH  61  84
ATOM     84  C   UNL     1      -2.684   5.103   7.552  1.00  0.00     0.064 A 
ATOM     85  C   UNL     1      -3.188   6.385   7.815  1.00  0.00     0.173 A 
ATOM     86  C   UNL     1      -2.609   4.192   8.616  1.00  0.00     0.173 A 
ATOM     87  F   UNL     1      -3.263   7.295   6.832  1.00  0.00    -0.203 F 
ATOM     88  C   UNL     1      -3.577   6.749   9.101  1.00  0.00     0.198 A 
ATOM     89  C   UNL     1      -3.023   4.552   9.895  1.00  0.00     0.198 A 
ATOM     90  F   UNL     1      -2.139   2.953   8.414  1.00  0.00    -0.203 F 
ATOM     91  F   UNL     1      -4.009   7.995   9.340  1.00  0.00    -0.200 F 
ATOM     92  C   UNL     1      -3.499   5.832  10.138  1.00  0.00     0.200 A 
ATOM     93  F   UNL     1      -2.956   3.662  10.895  1.00  0.00    -0.200 F 
ATOM     94  F   UNL     1      -3.872   6.185  11.376  1.00  0.00    -0.200 F 
ENDBRANCH  61  84
ENDBRANCH  35  36
ENDBRANCH  28  30
ENDBRANCH  27  28
ENDBRANCH  26  27
ENDBRANCH   1  26
TORSDOF 15
