REMARK SMILES COc1ccc(C(F)(F)F)cc1-c1cccnc1C(=O)OCCOC(=O)c1ccc(-c2c3nc(c(-c4c(F)c(F)c(F)c(F)c4F)c4ccc([nH]4)c(-c4c(F)c(F)c(F)c(F)c4F)c4nc(c(-c5c(F)c(F)c(F)c(F)c5F)c5ccc2[nH]5)C=C4)C=C3)cc1
REMARK SMILES IDX 22 1 21 2 19 3 20 4 18 5 13 6 14 7 15 8 17 9 16 10 12 11
REMARK SMILES IDX 3 12 4 13 5 14 11 15 6 16 2 17 1 18 7 19 8 20 9 21 10 22
REMARK SMILES IDX 23 23 24 24 25 25 26 26 27 27 28 28 89 29 29 30 88 31 30 32
REMARK SMILES IDX 31 33 32 34 82 35 33 36 87 37 81 38 83 39 34 40 86 41 80 42
REMARK SMILES IDX 79 43 35 45 67 46 47 47 66 48 48 49 51 50 65 51 84 52 49 53
REMARK SMILES IDX 50 54 64 56 85 57 52 58 36 59 37 60 45 61 38 62 39 63 43 64
REMARK SMILES IDX 46 65 40 66 41 67 44 68 42 69 68 70 69 71 77 72 70 73 71 74
REMARK SMILES IDX 75 75 78 76 72 77 73 78 76 79 74 80 53 81 54 82 62 83 55 84
REMARK SMILES IDX 56 85 60 86 63 87 57 88 58 89 61 90 59 91
REMARK H PARENT 83 44 51 55
REMARK Flexibility Score: inf
ROOT
ATOM      1  C   UNL     1       2.428   4.288   2.873  1.00  0.00     0.275 C 
ENDROOT
BRANCH   1   2
ATOM      2  O   UNL     1       2.682   3.247   1.908  1.00  0.00    -0.457 OA
BRANCH   2   3
ATOM      3  C   UNL     1       3.977   3.036   1.550  1.00  0.00     0.357 C 
ATOM      4  O   UNL     1       4.946   3.596   2.037  1.00  0.00    -0.244 OA
BRANCH   3   5
ATOM      5  C   UNL     1       4.078   1.980   0.483  1.00  0.00     0.156 A 
ATOM      6  C   UNL     1       3.204   1.908  -0.617  1.00  0.00     0.019 A 
ATOM      7  C   UNL     1       3.425   0.846  -1.512  1.00  0.00     0.013 A 
ATOM      8  C   UNL     1       4.452  -0.072  -1.298  1.00  0.00     0.021 A 
ATOM      9  N   UNL     1       5.114   1.109   0.685  1.00  0.00    -0.249 NA
ATOM     10  C   UNL     1       5.266   0.104  -0.199  1.00  0.00     0.112 A 
BRANCH   6  11
ATOM     11  C   UNL     1       2.102   2.859  -0.851  1.00  0.00     0.027 A 
ATOM     12  C   UNL     1       0.761   2.451  -0.982  1.00  0.00     0.126 A 
ATOM     13  C   UNL     1      -0.268   3.387  -1.127  1.00  0.00     0.048 A 
ATOM     14  C   UNL     1       0.015   4.751  -1.085  1.00  0.00     0.017 A 
ATOM     15  C   UNL     1       2.368   4.244  -0.884  1.00  0.00     0.025 A 
ATOM     16  C   UNL     1       1.337   5.196  -0.951  1.00  0.00     0.056 A 
BRANCH  12  17
ATOM     17  O   UNL     1       0.400   1.128  -1.046  1.00  0.00    -0.496 OA
ATOM     18  C   UNL     1       0.315   0.545   0.258  1.00  0.00     0.278 C 
ENDBRANCH  12  17
BRANCH  16  19
ATOM     19  C   UNL     1       1.640   6.670  -0.843  1.00  0.00     0.416 C 
ATOM     20  F   UNL     1       1.392   7.345  -1.996  1.00  0.00    -0.166 F 
ATOM     21  F   UNL     1       0.893   7.279   0.121  1.00  0.00    -0.166 F 
ATOM     22  F   UNL     1       2.937   6.933  -0.521  1.00  0.00    -0.166 F 
ENDBRANCH  16  19
ENDBRANCH   6  11
ENDBRANCH   3   5
ENDBRANCH   2   3
ENDBRANCH   1   2
BRANCH   1  23
ATOM     23  C   UNL     1       1.692   3.730   4.090  1.00  0.00     0.275 C 
BRANCH  23  24
ATOM     24  O   UNL     1       2.531   2.803   4.800  1.00  0.00    -0.458 OA
BRANCH  24  25
ATOM     25  C   UNL     1       2.408   1.516   4.407  1.00  0.00     0.338 C 
ATOM     26  O   UNL     1       1.583   1.044   3.636  1.00  0.00    -0.246 OA
BRANCH  25  27
ATOM     27  C   UNL     1       3.563   0.757   4.904  1.00  0.00     0.060 A 
ATOM     28  C   UNL     1       4.420   0.210   3.950  1.00  0.00     0.016 A 
ATOM     29  C   UNL     1       3.786   0.546   6.266  1.00  0.00     0.016 A 
ATOM     30  C   UNL     1       5.510  -0.554   4.344  1.00  0.00     0.010 A 
ATOM     31  C   UNL     1       4.880  -0.231   6.664  1.00  0.00     0.010 A 
ATOM     32  C   UNL     1       5.740  -0.795   5.704  1.00  0.00    -0.014 A 
BRANCH  32  33
ATOM     33  C   UNL     1       6.846  -1.700   6.094  1.00  0.00     0.031 A 
ATOM     34  C   UNL     1       6.537  -3.099   6.540  1.00  0.00     0.074 A 
ATOM     35  C   UNL     1       8.122  -1.288   5.987  1.00  0.00     0.049 A 
ATOM     36  N   UNL     1       7.352  -4.039   6.950  1.00  0.00    -0.248 NA
ATOM     37  C   UNL     1       5.121  -3.497   6.518  1.00  0.00     0.031 C 
ATOM     38  C   UNL     1       8.544   0.030   5.515  1.00  0.00     0.029 A 
ATOM     39  N   UNL     1       9.298  -1.942   6.258  1.00  0.00    -0.354 N 
ATOM     40  C   UNL     1       6.548  -5.128   7.256  1.00  0.00     0.074 A 
ATOM     41  C   UNL     1       5.180  -4.731   6.997  1.00  0.00     0.031 C 
ATOM     42  C   UNL     1       9.886   0.086   5.520  1.00  0.00     0.029 A 
ATOM     43  C   UNL     1      10.414  -1.175   6.035  1.00  0.00     0.049 A 
ATOM     44  H   UNL     1       9.337  -2.871   6.582  1.00  0.00     0.167 HD
ATOM     45  C   UNL     1       6.921  -6.348   7.710  1.00  0.00     0.037 A 
ATOM     46  C   UNL     1      11.715  -1.454   6.243  1.00  0.00     0.037 A 
ATOM     47  C   UNL     1       8.284  -6.745   7.943  1.00  0.00     0.049 A 
ATOM     48  C   UNL     1      12.099  -2.803   6.788  1.00  0.00     0.074 A 
ATOM     49  C   UNL     1       8.766  -7.964   8.388  1.00  0.00     0.029 A 
ATOM     50  N   UNL     1       9.388  -5.927   7.746  1.00  0.00    -0.354 N 
ATOM     51  N   UNL     1      11.332  -3.823   7.087  1.00  0.00    -0.248 NA
ATOM     52  C   UNL     1      13.529  -3.036   7.030  1.00  0.00     0.031 C 
ATOM     53  C   UNL     1      10.158  -7.871   8.497  1.00  0.00     0.029 A 
ATOM     54  C   UNL     1      10.547  -6.608   8.080  1.00  0.00     0.049 A 
ATOM     55  H   UNL     1       9.352  -5.000   7.417  1.00  0.00     0.167 HD
ATOM     56  C   UNL     1      12.183  -4.821   7.542  1.00  0.00     0.074 A 
ATOM     57  C   UNL     1      13.528  -4.291   7.459  1.00  0.00     0.031 C 
ATOM     58  C   UNL     1      11.877  -6.061   7.995  1.00  0.00     0.037 A 
BRANCH  45  59
ATOM     59  C   UNL     1       5.832  -7.332   8.016  1.00  0.00     0.064 A 
ATOM     60  C   UNL     1       5.112  -7.979   7.002  1.00  0.00     0.173 A 
ATOM     61  C   UNL     1       5.523  -7.650   9.348  1.00  0.00     0.173 A 
ATOM     62  F   UNL     1       5.359  -7.697   5.713  1.00  0.00    -0.203 F 
ATOM     63  C   UNL     1       4.107  -8.893   7.309  1.00  0.00     0.198 A 
ATOM     64  C   UNL     1       4.534  -8.582   9.651  1.00  0.00     0.198 A 
ATOM     65  F   UNL     1       6.184  -7.059  10.354  1.00  0.00    -0.203 F 
ATOM     66  F   UNL     1       3.403  -9.469   6.325  1.00  0.00    -0.200 F 
ATOM     67  C   UNL     1       3.823  -9.197   8.633  1.00  0.00     0.200 A 
ATOM     68  F   UNL     1       4.267  -8.881  10.930  1.00  0.00    -0.200 F 
ATOM     69  F   UNL     1       2.858 -10.079   8.927  1.00  0.00    -0.200 F 
ENDBRANCH  45  59
BRANCH  46  70
ATOM     70  C   UNL     1      12.746  -0.424   5.956  1.00  0.00     0.064 A 
ATOM     71  C   UNL     1      13.646  -0.576   4.893  1.00  0.00     0.173 A 
ATOM     72  C   UNL     1      12.851   0.734   6.741  1.00  0.00     0.173 A 
ATOM     73  F   UNL     1      13.603  -1.680   4.132  1.00  0.00    -0.203 F 
ATOM     74  C   UNL     1      14.618   0.387   4.632  1.00  0.00     0.198 A 
ATOM     75  C   UNL     1      13.806   1.708   6.463  1.00  0.00     0.198 A 
ATOM     76  F   UNL     1      12.016   0.922   7.774  1.00  0.00    -0.203 F 
ATOM     77  F   UNL     1      15.494   0.199   3.635  1.00  0.00    -0.200 F 
ATOM     78  C   UNL     1      14.693   1.532   5.412  1.00  0.00     0.200 A 
ATOM     79  F   UNL     1      13.868   2.816   7.214  1.00  0.00    -0.200 F 
ATOM     80  F   UNL     1      15.625   2.459   5.158  1.00  0.00    -0.200 F 
ENDBRANCH  46  70
BRANCH  58  81
ATOM     81  C   UNL     1      13.021  -6.932   8.424  1.00  0.00     0.064 A 
ATOM     82  C   UNL     1      13.706  -6.700   9.625  1.00  0.00     0.173 A 
ATOM     83  C   UNL     1      13.416  -8.026   7.640  1.00  0.00     0.173 A 
ATOM     84  F   UNL     1      13.374  -5.656  10.400  1.00  0.00    -0.203 F 
ATOM     85  C   UNL     1      14.761  -7.519  10.015  1.00  0.00     0.198 A 
ATOM     86  C   UNL     1      14.455  -8.858   8.046  1.00  0.00     0.198 A 
ATOM     87  F   UNL     1      12.788  -8.293   6.485  1.00  0.00    -0.203 F 
ATOM     88  F   UNL     1      15.431  -7.253  11.146  1.00  0.00    -0.200 F 
ATOM     89  C   UNL     1      15.131  -8.600   9.229  1.00  0.00     0.200 A 
ATOM     90  F   UNL     1      14.805  -9.908   7.291  1.00  0.00    -0.200 F 
ATOM     91  F   UNL     1      16.146  -9.389   9.608  1.00  0.00    -0.200 F 
ENDBRANCH  58  81
ENDBRANCH  32  33
ENDBRANCH  25  27
ENDBRANCH  24  25
ENDBRANCH  23  24
ENDBRANCH   1  23
TORSDOF 14
