REMARK SMILES CC(C)[C@H](CNc1ncnc2c1CCCCC2)C(=O)OCCOC(=O)c1ccc(-c2c3nc(c(-c4c(F)c(F)c(F)c(F)c4F)c4ccc([nH]4)c(-c4c(F)c(F)c(F)c(F)c4F)c4nc(c(-c5c(F)c(F)c(F)c(F)c5F)c5ccc2[nH]5)C=C4)C=C3)cc1
REMARK SMILES IDX 18 1 19 2 4 3 2 4 1 5 3 6 5 7 6 8 7 10 8 11 12 12 9 13 11 14
REMARK SMILES IDX 10 15 13 16 14 17 15 18 16 19 17 21 20 23 21 24 22 25 23 26
REMARK SMILES IDX 24 27 25 28 26 29 27 30 88 31 28 32 87 33 29 34 30 35 31 36
REMARK SMILES IDX 81 37 32 38 86 39 80 40 82 41 33 42 85 43 79 44 78 45 34 47
REMARK SMILES IDX 66 48 46 49 65 50 47 51 50 52 64 53 83 54 48 55 49 56 63 58
REMARK SMILES IDX 84 59 51 60 35 61 36 62 44 63 37 64 38 65 42 66 45 67 39 68
REMARK SMILES IDX 40 69 43 70 41 71 67 72 68 73 76 74 69 75 70 76 74 77 77 78
REMARK SMILES IDX 71 79 72 80 75 81 73 82 52 83 53 84 61 85 54 86 55 87 59 88
REMARK SMILES IDX 62 89 56 90 57 91 60 92 58 93
REMARK H PARENT 6 9 82 46 50 57
REMARK Flexibility Score: 80.00
ROOT
ATOM      1  C   UNL     1      -1.831   0.533   2.678  1.00  0.00     0.311 C 
ATOM      2  O   UNL     1      -2.959   0.986   2.500  1.00  0.00    -0.252 OA
ENDROOT
BRANCH   1   3
ATOM      3  C   UNL     1      -1.032  -0.058   1.529  1.00  0.00     0.121 C 
BRANCH   3   4
ATOM      4  C   UNL     1      -1.497  -1.520   1.277  1.00  0.00    -0.001 C 
ATOM      5  C   UNL     1      -1.469  -1.845  -0.222  1.00  0.00     0.008 C 
ATOM      6  C   UNL     1      -0.710  -2.570   2.062  1.00  0.00     0.008 C 
ENDBRANCH   3   4
BRANCH   3   7
ATOM      7  C   UNL     1       0.487   0.181   1.404  1.00  0.00     0.130 C 
BRANCH   7   8
ATOM      8  N   UNL     1       1.152   0.920   2.460  1.00  0.00    -0.369 N 
ATOM      9  H   UNL     1       0.994   1.888   2.538  1.00  0.00     0.162 HD
BRANCH   8  10
ATOM     10  C   UNL     1       2.001   0.306   3.358  1.00  0.00     0.132 A 
ATOM     11  N   UNL     1       1.654   0.495   4.643  1.00  0.00    -0.219 NA
ATOM     12  C   UNL     1       3.128  -0.428   2.998  1.00  0.00     0.016 A 
ATOM     13  C   UNL     1       2.385  -0.128   5.568  1.00  0.00     0.224 A 
ATOM     14  C   UNL     1       3.799  -1.057   4.045  1.00  0.00     0.049 A 
ATOM     15  N   UNL     1       3.432  -0.922   5.336  1.00  0.00    -0.241 NA
BRANCH  12  16
ATOM     16  C   UNL     1       3.675  -0.465   1.595  1.00  0.00     0.041 C 
BRANCH  16  17
ATOM     17  C   UNL     1       5.065   0.170   1.472  1.00  0.00     0.005 C 
BRANCH  17  18
ATOM     18  C   UNL     1       6.212  -0.746   1.890  1.00  0.00     0.001 C 
BRANCH  18  19
ATOM     19  C   UNL     1       6.230  -1.109   3.372  1.00  0.00     0.006 CG0
ATOM     20  G   UNL     1       5.013  -1.917   3.812  1.00  0.00     0.000 G0
ENDBRANCH  18  19
ENDBRANCH  17  18
ENDBRANCH  16  17
ENDBRANCH  12  16
BRANCH  14  21
ATOM     21  C   UNL     1       5.013  -1.917   3.812  1.00  0.00     0.057 CG0
ATOM     22  G   UNL     1       6.230  -1.109   3.372  1.00  0.00     0.000 G0
ENDBRANCH  14  21
ENDBRANCH   8  10
ENDBRANCH   7   8
ENDBRANCH   3   7
ENDBRANCH   1   3
BRANCH   1  23
ATOM     23  O   UNL     1      -1.224   0.465   3.879  1.00  0.00    -0.462 OA
BRANCH  23  24
ATOM     24  C   UNL     1      -1.935   1.038   4.995  1.00  0.00     0.274 C 
BRANCH  24  25
ATOM     25  C   UNL     1      -1.556   2.503   5.240  1.00  0.00     0.275 C 
BRANCH  25  26
ATOM     26  O   UNL     1      -2.035   3.372   4.193  1.00  0.00    -0.458 OA
BRANCH  26  27
ATOM     27  C   UNL     1      -1.115   3.690   3.256  1.00  0.00     0.338 C 
ATOM     28  O   UNL     1       0.052   3.342   3.219  1.00  0.00    -0.246 OA
BRANCH  27  29
ATOM     29  C   UNL     1      -1.726   4.427   2.145  1.00  0.00     0.060 A 
ATOM     30  C   UNL     1      -1.874   3.762   0.925  1.00  0.00     0.016 A 
ATOM     31  C   UNL     1      -2.005   5.789   2.251  1.00  0.00     0.016 A 
ATOM     32  C   UNL     1      -2.306   4.452  -0.201  1.00  0.00     0.010 A 
ATOM     33  C   UNL     1      -2.437   6.485   1.117  1.00  0.00     0.010 A 
ATOM     34  C   UNL     1      -2.579   5.821  -0.114  1.00  0.00    -0.014 A 
BRANCH  34  35
ATOM     35  C   UNL     1      -2.970   6.566  -1.330  1.00  0.00     0.031 A 
ATOM     36  C   UNL     1      -1.960   7.410  -2.045  1.00  0.00     0.074 A 
ATOM     37  C   UNL     1      -4.220   6.450  -1.810  1.00  0.00     0.049 A 
ATOM     38  N   UNL     1      -2.135   8.248  -3.034  1.00  0.00    -0.248 NA
ATOM     39  C   UNL     1      -0.564   7.288  -1.595  1.00  0.00     0.031 C 
ATOM     40  C   UNL     1      -5.259   5.585  -1.254  1.00  0.00     0.029 A 
ATOM     41  N   UNL     1      -4.824   7.063  -2.877  1.00  0.00    -0.354 N 
ATOM     42  C   UNL     1      -0.879   8.769  -3.313  1.00  0.00     0.074 A 
ATOM     43  C   UNL     1       0.052   8.149  -2.393  1.00  0.00     0.031 C 
ATOM     44  C   UNL     1      -6.377   5.723  -1.985  1.00  0.00     0.029 A 
ATOM     45  C   UNL     1      -6.145   6.724  -3.023  1.00  0.00     0.049 A 
ATOM     46  H   UNL     1      -4.356   7.686  -3.479  1.00  0.00     0.167 HD
ATOM     47  C   UNL     1      -0.542   9.687  -4.248  1.00  0.00     0.037 A 
ATOM     48  C   UNL     1      -7.072   7.198  -3.876  1.00  0.00     0.037 A 
ATOM     49  C   UNL     1      -1.475  10.302  -5.155  1.00  0.00     0.049 A 
ATOM     50  C   UNL     1      -6.691   8.273  -4.854  1.00  0.00     0.074 A 
ATOM     51  C   UNL     1      -1.248  11.298  -6.089  1.00  0.00     0.029 A 
ATOM     52  N   UNL     1      -2.817   9.964  -5.248  1.00  0.00    -0.354 N 
ATOM     53  N   UNL     1      -5.524   8.838  -5.045  1.00  0.00    -0.248 NA
ATOM     54  C   UNL     1      -7.759   8.790  -5.721  1.00  0.00     0.031 C 
ATOM     55  C   UNL     1      -2.458  11.575  -6.736  1.00  0.00     0.029 A 
ATOM     56  C   UNL     1      -3.431  10.730  -6.225  1.00  0.00     0.049 A 
ATOM     57  H   UNL     1      -3.267   9.281  -4.700  1.00  0.00     0.167 HD
ATOM     58  C   UNL     1      -5.714   9.772  -6.053  1.00  0.00     0.074 A 
ATOM     59  C   UNL     1      -7.106   9.687  -6.446  1.00  0.00     0.031 C 
ATOM     60  C   UNL     1      -4.816  10.628  -6.599  1.00  0.00     0.037 A 
BRANCH  47  61
ATOM     61  C   UNL     1       0.891  10.112  -4.311  1.00  0.00     0.064 A 
ATOM     62  C   UNL     1       1.865   9.313  -4.926  1.00  0.00     0.173 A 
ATOM     63  C   UNL     1       1.289  11.348  -3.781  1.00  0.00     0.173 A 
ATOM     64  F   UNL     1       1.534   8.115  -5.431  1.00  0.00    -0.203 F 
ATOM     65  C   UNL     1       3.190   9.735  -5.002  1.00  0.00     0.198 A 
ATOM     66  C   UNL     1       2.611  11.774  -3.873  1.00  0.00     0.198 A 
ATOM     67  F   UNL     1       0.392  12.146  -3.181  1.00  0.00    -0.203 F 
ATOM     68  F   UNL     1       4.111   8.946  -5.572  1.00  0.00    -0.200 F 
ATOM     69  C   UNL     1       3.560  10.966  -4.481  1.00  0.00     0.200 A 
ATOM     70  F   UNL     1       2.966  12.966  -3.374  1.00  0.00    -0.200 F 
ATOM     71  F   UNL     1       4.835  11.373  -4.561  1.00  0.00    -0.200 F 
ENDBRANCH  47  61
BRANCH  48  72
ATOM     72  C   UNL     1      -8.459   6.678  -3.811  1.00  0.00     0.064 A 
ATOM     73  C   UNL     1      -8.953   5.824  -4.805  1.00  0.00     0.173 A 
ATOM     74  C   UNL     1      -9.307   7.005  -2.743  1.00  0.00     0.173 A 
ATOM     75  F   UNL     1      -8.185   5.506  -5.857  1.00  0.00    -0.203 F 
ATOM     76  C   UNL     1     -10.248   5.315  -4.733  1.00  0.00     0.198 A 
ATOM     77  C   UNL     1     -10.594   6.479  -2.662  1.00  0.00     0.198 A 
ATOM     78  F   UNL     1      -8.878   7.822  -1.771  1.00  0.00    -0.203 F 
ATOM     79  F   UNL     1     -10.707   4.519  -5.708  1.00  0.00    -0.200 F 
ATOM     80  C   UNL     1     -11.064   5.637  -3.658  1.00  0.00     0.200 A 
ATOM     81  F   UNL     1     -11.376   6.785  -1.618  1.00  0.00    -0.200 F 
ATOM     82  F   UNL     1     -12.306   5.138  -3.585  1.00  0.00    -0.200 F 
ENDBRANCH  48  72
BRANCH  60  83
ATOM     83  C   UNL     1      -5.309  11.527  -7.690  1.00  0.00     0.064 A 
ATOM     84  C   UNL     1      -6.056  12.677  -7.403  1.00  0.00     0.173 A 
ATOM     85  C   UNL     1      -4.996  11.256  -9.029  1.00  0.00     0.173 A 
ATOM     86  F   UNL     1      -6.390  12.967  -6.136  1.00  0.00    -0.203 F 
ATOM     87  C   UNL     1      -6.485  13.521  -8.423  1.00  0.00     0.198 A 
ATOM     88  C   UNL     1      -5.413  12.110 -10.046  1.00  0.00     0.198 A 
ATOM     89  F   UNL     1      -4.282  10.167  -9.350  1.00  0.00    -0.203 F 
ATOM     90  F   UNL     1      -7.223  14.601  -8.132  1.00  0.00    -0.200 F 
ATOM     91  C   UNL     1      -6.160  13.239  -9.742  1.00  0.00     0.200 A 
ATOM     92  F   UNL     1      -5.095  11.840 -11.319  1.00  0.00    -0.200 F 
ATOM     93  F   UNL     1      -6.572  14.054 -10.723  1.00  0.00    -0.200 F 
ENDBRANCH  60  83
ENDBRANCH  34  35
ENDBRANCH  27  29
ENDBRANCH  26  27
ENDBRANCH  25  26
ENDBRANCH  24  25
ENDBRANCH  23  24
ENDBRANCH   1  23
TORSDOF 15
