REMARK SMILES Cc1ccc([N+](=O)[O-])c(O[C@@H]2CCC[C@]([NH3+])(C(=O)OCCOC(=O)c3ccc(-c4c5nc(c(-c6c(F)c(F)c(F)c(F)c6F)c6ccc([nH]6)c(-c6c(F)c(F)c(F)c(F)c6F)c6nc(c(-c7c(F)c(F)c(F)c(F)c7F)c7ccc4[nH]7)C=C6)C=C5)cc3)C2)c1
REMARK SMILES IDX 20 1 19 2 17 3 18 4 15 5 11 6 12 7 88 8 13 9 14 10 10 11
REMARK SMILES IDX 9 12 1 13 2 14 3 15 89 16 4 17 5 18 6 19 7 20 8 21 16 22
REMARK SMILES IDX 21 26 22 27 23 28 24 29 25 30 26 31 87 32 27 33 86 34 28 35
REMARK SMILES IDX 29 36 30 37 80 38 31 39 85 40 79 41 81 42 32 43 84 44 78 45
REMARK SMILES IDX 77 46 33 48 65 49 45 50 64 51 46 52 49 53 63 54 82 55 47 56
REMARK SMILES IDX 48 57 62 59 83 60 50 61 34 62 35 63 43 64 36 65 37 66 41 67
REMARK SMILES IDX 44 68 38 69 39 70 42 71 40 72 66 73 67 74 75 75 68 76 69 77
REMARK SMILES IDX 73 78 76 79 70 80 71 81 74 82 72 83 51 84 52 85 60 86 53 87
REMARK SMILES IDX 54 88 58 89 61 90 55 91 56 92 59 93 57 94
REMARK H PARENT 16 23 16 24 16 25 81 47 49 58
REMARK Flexibility Score: inf
ROOT
ATOM      1  C   UNL     1       4.012   4.681   2.225  1.00  0.00     0.274 C 
ENDROOT
BRANCH   1   2
ATOM      2  O   UNL     1       2.989   5.085   1.304  1.00  0.00    -0.457 OA
BRANCH   2   3
ATOM      3  C   UNL     1       1.921   4.222   1.318  1.00  0.00     0.368 C 
ATOM      4  O   UNL     1       1.899   3.214   2.020  1.00  0.00    -0.245 OA
BRANCH   3   5
ATOM      5  C   UNL     1       0.813   4.587   0.282  1.00  0.00     0.196 C 
ATOM      6  C   UNL     1      -1.102   3.223  -0.895  1.00  0.00     0.180 C 
ATOM      7  C   UNL     1      -0.390   3.436  -2.234  1.00  0.00     0.046 C 
ATOM      8  C   UNL     1      -0.340   3.560   0.400  1.00  0.00     0.126 C 
ATOM      9  C   UNL     1       0.494   4.668  -2.242  1.00  0.00     0.011 C 
ATOM     10  C   UNL     1       1.489   4.595  -1.098  1.00  0.00     0.081 C 
BRANCH   6  11
ATOM     11  O   UNL     1      -1.742   1.931  -0.863  1.00  0.00    -0.483 OA
BRANCH  11  12
ATOM     12  C   UNL     1      -1.063   0.785  -0.549  1.00  0.00     0.197 A 
ATOM     13  C   UNL     1       2.487  -0.548  -0.092  1.00  0.00     0.044 C 
ATOM     14  C   UNL     1       0.987  -0.507  -0.158  1.00  0.00    -0.047 A 
ATOM     15  C   UNL     1       0.229  -1.639   0.142  1.00  0.00     0.011 A 
ATOM     16  C   UNL     1       0.335   0.674  -0.546  1.00  0.00     0.057 A 
ATOM     17  C   UNL     1      -1.163  -1.572   0.110  1.00  0.00     0.090 A 
ATOM     18  C   UNL     1      -1.798  -0.360  -0.215  1.00  0.00     0.310 A 
BRANCH  18  19
ATOM     19  N   UNL     1      -3.258  -0.333  -0.163  1.00  0.00     0.066 N 
ATOM     20  O   UNL     1      -3.853  -1.340  -0.578  1.00  0.00    -0.258 OA
ATOM     21  O   UNL     1      -3.812   0.652   0.344  1.00  0.00    -0.258 OA
ENDBRANCH  18  19
ENDBRANCH  11  12
ENDBRANCH   6  11
BRANCH   5  22
ATOM     22  N   UNL     1       0.234   5.921   0.540  1.00  0.00    -0.343 N 
ATOM     23  H   UNL     1      -0.484   6.121  -0.156  1.00  0.00     0.345 HD
ATOM     24  H   UNL     1       0.968   6.627   0.484  1.00  0.00     0.345 HD
ATOM     25  H   UNL     1      -0.182   5.937   1.471  1.00  0.00     0.345 HD
ENDBRANCH   5  22
ENDBRANCH   3   5
ENDBRANCH   2   3
ENDBRANCH   1   2
BRANCH   1  26
ATOM     26  C   UNL     1       5.133   5.711   2.414  1.00  0.00     0.275 C 
BRANCH  26  27
ATOM     27  O   UNL     1       4.862   7.125   2.607  1.00  0.00    -0.458 OA
BRANCH  27  28
ATOM     28  C   UNL     1       3.644   7.703   2.542  1.00  0.00     0.338 C 
ATOM     29  O   UNL     1       3.396   8.663   1.821  1.00  0.00    -0.246 OA
BRANCH  28  30
ATOM     30  C   UNL     1       2.642   7.140   3.461  1.00  0.00     0.060 A 
ATOM     31  C   UNL     1       1.294   7.181   3.082  1.00  0.00     0.016 A 
ATOM     32  C   UNL     1       3.046   6.455   4.605  1.00  0.00     0.016 A 
ATOM     33  C   UNL     1       0.359   6.402   3.751  1.00  0.00     0.010 A 
ATOM     34  C   UNL     1       2.131   5.650   5.246  1.00  0.00     0.010 A 
ATOM     35  C   UNL     1       0.792   5.625   4.820  1.00  0.00    -0.014 A 
BRANCH  35  36
ATOM     36  C   UNL     1      -0.123   4.997   5.757  1.00  0.00     0.031 A 
ATOM     37  C   UNL     1      -0.713   3.662   5.565  1.00  0.00     0.074 A 
ATOM     38  C   UNL     1      -0.257   5.734   6.878  1.00  0.00     0.049 A 
ATOM     39  N   UNL     1      -1.610   3.156   6.339  1.00  0.00    -0.248 NA
ATOM     40  C   UNL     1      -0.392   2.791   4.442  1.00  0.00     0.031 C 
ATOM     41  C   UNL     1      -0.769   5.383   8.187  1.00  0.00     0.029 A 
ATOM     42  N   UNL     1      -0.079   7.130   6.931  1.00  0.00    -0.354 N 
ATOM     43  C   UNL     1      -1.788   1.831   5.991  1.00  0.00     0.074 A 
ATOM     44  C   UNL     1      -1.089   1.688   4.741  1.00  0.00     0.031 C 
ATOM     45  C   UNL     1      -1.143   6.519   8.808  1.00  0.00     0.029 A 
ATOM     46  C   UNL     1      -1.060   7.588   7.815  1.00  0.00     0.049 A 
ATOM     47  H   UNL     1       0.591   7.667   6.450  1.00  0.00     0.167 HD
ATOM     48  C   UNL     1      -2.392   1.008   6.900  1.00  0.00     0.037 A 
ATOM     49  C   UNL     1      -2.136   8.264   7.313  1.00  0.00     0.037 A 
ATOM     50  C   UNL     1      -3.004   1.823   7.949  1.00  0.00     0.049 A 
ATOM     51  C   UNL     1      -3.420   7.553   7.649  1.00  0.00     0.074 A 
ATOM     52  C   UNL     1      -2.546   2.225   9.192  1.00  0.00     0.029 A 
ATOM     53  N   UNL     1      -4.074   2.653   7.625  1.00  0.00    -0.354 N 
ATOM     54  N   UNL     1      -3.570   6.256   7.635  1.00  0.00    -0.248 NA
ATOM     55  C   UNL     1      -4.597   8.271   8.117  1.00  0.00     0.031 C 
ATOM     56  C   UNL     1      -3.262   3.397   9.551  1.00  0.00     0.029 A 
ATOM     57  C   UNL     1      -4.187   3.668   8.554  1.00  0.00     0.049 A 
ATOM     58  H   UNL     1      -4.664   2.534   6.846  1.00  0.00     0.167 HD
ATOM     59  C   UNL     1      -4.795   5.958   8.174  1.00  0.00     0.074 A 
ATOM     60  C   UNL     1      -5.410   7.250   8.430  1.00  0.00     0.031 C 
ATOM     61  C   UNL     1      -5.216   4.686   8.437  1.00  0.00     0.037 A 
BRANCH  48  62
ATOM     62  C   UNL     1      -2.192  -0.496   7.035  1.00  0.00     0.064 A 
ATOM     63  C   UNL     1      -2.528  -1.142   8.252  1.00  0.00     0.173 A 
ATOM     64  C   UNL     1      -1.570  -1.340   6.093  1.00  0.00     0.173 A 
ATOM     65  F   UNL     1      -3.188  -0.499   9.226  1.00  0.00    -0.203 F 
ATOM     66  C   UNL     1      -2.183  -2.471   8.531  1.00  0.00     0.198 A 
ATOM     67  C   UNL     1      -1.225  -2.670   6.373  1.00  0.00     0.198 A 
ATOM     68  F   UNL     1      -1.273  -0.933   4.859  1.00  0.00    -0.203 F 
ATOM     69  F   UNL     1      -2.487  -3.002   9.724  1.00  0.00    -0.200 F 
ATOM     70  C   UNL     1      -1.513  -3.230   7.597  1.00  0.00     0.200 A 
ATOM     71  F   UNL     1      -0.593  -3.399   5.440  1.00  0.00    -0.200 F 
ATOM     72  F   UNL     1      -1.156  -4.492   7.870  1.00  0.00    -0.200 F 
ENDBRANCH  48  62
BRANCH  49  73
ATOM     73  C   UNL     1      -1.885   9.013   6.039  1.00  0.00     0.064 A 
ATOM     74  C   UNL     1      -0.811   9.929   5.978  1.00  0.00     0.173 A 
ATOM     75  C   UNL     1      -2.494   8.678   4.822  1.00  0.00     0.173 A 
ATOM     76  F   UNL     1      -0.190  10.310   7.107  1.00  0.00    -0.203 F 
ATOM     77  C   UNL     1      -0.308  10.398   4.764  1.00  0.00     0.198 A 
ATOM     78  C   UNL     1      -2.000   9.165   3.606  1.00  0.00     0.198 A 
ATOM     79  F   UNL     1      -3.527   7.825   4.789  1.00  0.00    -0.203 F 
ATOM     80  F   UNL     1       0.774  11.190   4.748  1.00  0.00    -0.200 F 
ATOM     81  C   UNL     1      -0.894  10.002   3.576  1.00  0.00     0.200 A 
ATOM     82  F   UNL     1      -2.556   8.771   2.450  1.00  0.00    -0.200 F 
ATOM     83  F   UNL     1      -0.377  10.397   2.403  1.00  0.00    -0.200 F 
ENDBRANCH  49  73
BRANCH  61  84
ATOM     84  C   UNL     1      -6.641   4.312   8.747  1.00  0.00     0.064 A 
ATOM     85  C   UNL     1      -7.745   5.014   8.237  1.00  0.00     0.173 A 
ATOM     86  C   UNL     1      -6.941   3.120   9.447  1.00  0.00     0.173 A 
ATOM     87  F   UNL     1      -7.585   6.085   7.447  1.00  0.00    -0.203 F 
ATOM     88  C   UNL     1      -9.055   4.602   8.479  1.00  0.00     0.198 A 
ATOM     89  C   UNL     1      -8.248   2.677   9.631  1.00  0.00     0.198 A 
ATOM     90  F   UNL     1      -5.976   2.336   9.948  1.00  0.00    -0.203 F 
ATOM     91  F   UNL     1     -10.075   5.338   8.017  1.00  0.00    -0.200 F 
ATOM     92  C   UNL     1      -9.306   3.429   9.165  1.00  0.00     0.200 A 
ATOM     93  F   UNL     1      -8.474   1.508  10.247  1.00  0.00    -0.200 F 
ATOM     94  F   UNL     1     -10.565   3.014   9.356  1.00  0.00    -0.200 F 
ENDBRANCH  61  84
ENDBRANCH  35  36
ENDBRANCH  28  30
ENDBRANCH  27  28
ENDBRANCH  26  27
ENDBRANCH   1  26
TORSDOF 15
