REMARK SMILES O=C(OCCOC(=O)c1ccc(-c2c3nc(c(-c4c(F)c(F)c(F)c(F)c4F)c4ccc([nH]4)c(-c4c(F)c(F)c(F)c(F)c4F)c4nc(c(-c5c(F)c(F)c(F)c(F)c5F)c5ccc2[nH]5)C=C4)C=C3)cc1)C1=Cc2cc(Cl)cc(Cl)c2O[C@@H]1C(F)(F)F
REMARK SMILES IDX 5 1 4 2 3 3 2 4 1 5 72 6 73 7 83 8 74 9 82 10 75 11 81 12
REMARK SMILES IDX 76 13 79 14 77 15 78 16 80 17 84 18 85 19 86 20 87 21 6 22
REMARK SMILES IDX 7 23 8 24 9 25 10 26 71 27 11 28 70 29 12 30 13 31 14 32
REMARK SMILES IDX 64 33 15 34 69 35 63 36 65 37 16 38 68 39 62 40 61 41 17 43
REMARK SMILES IDX 49 44 29 45 48 46 30 47 33 48 47 49 66 50 31 51 32 52 46 54
REMARK SMILES IDX 67 55 34 56 18 57 19 58 27 59 20 60 21 61 25 62 28 63 22 64
REMARK SMILES IDX 23 65 26 66 24 67 50 68 51 69 59 70 52 71 53 72 57 73 60 74
REMARK SMILES IDX 54 75 55 76 58 77 56 78 35 79 36 80 44 81 37 82 38 83 42 84
REMARK SMILES IDX 45 85 39 86 40 87 43 88 41 89
REMARK H PARENT 65 42 33 53
REMARK Flexibility Score: inf
ROOT
ATOM      1  C   UNL     1       4.793   0.395  -0.718  1.00  0.00     0.275 C 
ENDROOT
BRANCH   1   2
ATOM      2  C   UNL     1       3.962   0.023   1.249  1.00  0.00     0.275 C 
BRANCH   2   3
ATOM      3  O   UNL     1       3.079   0.992   2.082  1.00  0.00    -0.459 OA
BRANCH   3   4
ATOM      4  C   UNL     1       3.333   2.281   1.826  1.00  0.00     0.338 C 
ATOM      5  O   UNL     1       2.743   3.271   2.178  1.00  0.00    -0.246 OA
BRANCH   4   6
ATOM      6  C   UNL     1       4.200   2.018   0.701  1.00  0.00     0.087 C 
ATOM      7  C   UNL     1       5.544   1.647   1.083  1.00  0.00     0.027 C 
ATOM      8  C   UNL     1       2.944   0.916  -0.242  1.00  0.00     0.316 C 
ATOM      9  C   UNL     1       6.180  -0.008   0.913  1.00  0.00     0.020 A 
ATOM     10  O   UNL     1       3.571  -0.921  -0.343  1.00  0.00    -0.474 OA
ATOM     11  C   UNL     1       7.426  -0.243   1.418  1.00  0.00     0.032 A 
ATOM     12  C   UNL     1       5.220  -1.337   0.352  1.00  0.00     0.146 A 
ATOM     13  C   UNL     1       7.803  -1.591   1.439  1.00  0.00     0.043 A 
ATOM     14  C   UNL     1       5.679  -2.624   0.422  1.00  0.00     0.085 A 
ATOM     15  Cl  UNL     1       9.374  -1.930   2.092  1.00  0.00    -0.084 Cl
ATOM     16  C   UNL     1       6.984  -2.711   0.985  1.00  0.00     0.045 A 
ATOM     17  Cl  UNL     1       4.815  -4.010  -0.035  1.00  0.00    -0.080 Cl
BRANCH   8  18
ATOM     18  C   UNL     1       2.763   2.138  -1.272  1.00  0.00     0.430 C 
ATOM     19  F   UNL     1       1.768   2.002  -2.117  1.00  0.00    -0.167 F 
ATOM     20  F   UNL     1       2.392   3.250  -0.565  1.00  0.00    -0.167 F 
ATOM     21  F   UNL     1       3.865   2.540  -1.948  1.00  0.00    -0.167 F 
ENDBRANCH   8  18
ENDBRANCH   4   6
ENDBRANCH   3   4
ENDBRANCH   2   3
ENDBRANCH   1   2
BRANCH   1  22
ATOM     22  O   UNL     1       3.873   0.193  -2.215  1.00  0.00    -0.458 OA
BRANCH  22  23
ATOM     23  C   UNL     1       2.950  -0.666  -2.801  1.00  0.00     0.338 C 
ATOM     24  O   UNL     1       2.563  -1.758  -2.427  1.00  0.00    -0.246 OA
BRANCH  23  25
ATOM     25  C   UNL     1       2.199   0.116  -3.844  1.00  0.00     0.060 A 
ATOM     26  C   UNL     1       0.859   0.499  -3.604  1.00  0.00     0.016 A 
ATOM     27  C   UNL     1       2.941   0.787  -4.809  1.00  0.00     0.016 A 
ATOM     28  C   UNL     1       0.402   1.752  -4.089  1.00  0.00     0.010 A 
ATOM     29  C   UNL     1       2.473   2.006  -5.304  1.00  0.00     0.010 A 
ATOM     30  C   UNL     1       1.260   2.563  -4.853  1.00  0.00    -0.014 A 
BRANCH  30  31
ATOM     31  C   UNL     1       0.884   3.918  -5.362  1.00  0.00     0.031 A 
ATOM     32  C   UNL     1       0.234   3.937  -6.709  1.00  0.00     0.074 A 
ATOM     33  C   UNL     1       1.225   5.089  -4.772  1.00  0.00     0.049 A 
ATOM     34  N   UNL     1       0.001   4.938  -7.513  1.00  0.00    -0.248 NA
ATOM     35  C   UNL     1      -0.162   2.621  -7.238  1.00  0.00     0.031 C 
ATOM     36  C   UNL     1       1.860   5.247  -3.465  1.00  0.00     0.029 A 
ATOM     37  N   UNL     1       1.106   6.393  -5.224  1.00  0.00    -0.354 N 
ATOM     38  C   UNL     1      -0.543   4.366  -8.652  1.00  0.00     0.074 A 
ATOM     39  C   UNL     1      -0.567   2.936  -8.454  1.00  0.00     0.031 C 
ATOM     40  C   UNL     1       2.091   6.555  -3.230  1.00  0.00     0.029 A 
ATOM     41  C   UNL     1       1.654   7.342  -4.381  1.00  0.00     0.049 A 
ATOM     42  H   UNL     1       0.668   6.625  -6.074  1.00  0.00     0.167 HD
ATOM     43  C   UNL     1      -0.994   4.977  -9.767  1.00  0.00     0.037 A 
ATOM     44  C   UNL     1       1.803   8.680  -4.536  1.00  0.00     0.037 A 
ATOM     45  C   UNL     1      -0.980   6.393  -9.977  1.00  0.00     0.049 A 
ATOM     46  C   UNL     1       1.329   9.332  -5.823  1.00  0.00     0.074 A 
ATOM     47  C   UNL     1      -1.463   7.102 -11.059  1.00  0.00     0.029 A 
ATOM     48  N   UNL     1      -0.444   7.314  -9.091  1.00  0.00    -0.354 N 
ATOM     49  N   UNL     1       0.731   8.791  -6.858  1.00  0.00    -0.248 NA
ATOM     50  C   UNL     1       1.557  10.783  -5.970  1.00  0.00     0.031 C 
ATOM     51  C   UNL     1      -1.170   8.452 -10.856  1.00  0.00     0.029 A 
ATOM     52  C   UNL     1      -0.556   8.587  -9.621  1.00  0.00     0.049 A 
ATOM     53  H   UNL     1      -0.045   7.096  -8.218  1.00  0.00     0.167 HD
ATOM     54  C   UNL     1       0.484   9.831  -7.750  1.00  0.00     0.074 A 
ATOM     55  C   UNL     1       0.975  11.041  -7.132  1.00  0.00     0.031 C 
ATOM     56  C   UNL     1      -0.090   9.787  -8.976  1.00  0.00     0.037 A 
BRANCH  43  57
ATOM     57  C   UNL     1      -1.519   4.091 -10.850  1.00  0.00     0.064 A 
ATOM     58  C   UNL     1      -2.728   3.394 -10.703  1.00  0.00     0.173 A 
ATOM     59  C   UNL     1      -0.796   3.925 -12.038  1.00  0.00     0.173 A 
ATOM     60  F   UNL     1      -3.433   3.497  -9.566  1.00  0.00    -0.203 F 
ATOM     61  C   UNL     1      -3.180   2.538 -11.700  1.00  0.00     0.198 A 
ATOM     62  C   UNL     1      -1.269   3.094 -13.047  1.00  0.00     0.198 A 
ATOM     63  F   UNL     1       0.372   4.561 -12.215  1.00  0.00    -0.203 F 
ATOM     64  F   UNL     1      -4.303   1.831 -11.514  1.00  0.00    -0.200 F 
ATOM     65  C   UNL     1      -2.455   2.396 -12.874  1.00  0.00     0.200 A 
ATOM     66  F   UNL     1      -0.571   2.959 -14.182  1.00  0.00    -0.200 F 
ATOM     67  F   UNL     1      -2.894   1.573 -13.836  1.00  0.00    -0.200 F 
ENDBRANCH  43  57
BRANCH  44  68
ATOM     68  C   UNL     1       2.454   9.539  -3.492  1.00  0.00     0.064 A 
ATOM     69  C   UNL     1       1.746  10.579  -2.864  1.00  0.00     0.173 A 
ATOM     70  C   UNL     1       3.825   9.440  -3.206  1.00  0.00     0.173 A 
ATOM     71  F   UNL     1       0.444  10.757  -3.131  1.00  0.00    -0.203 F 
ATOM     72  C   UNL     1       2.387  11.507  -2.038  1.00  0.00     0.198 A 
ATOM     73  C   UNL     1       4.458  10.347  -2.351  1.00  0.00     0.198 A 
ATOM     74  F   UNL     1       4.565   8.484  -3.785  1.00  0.00    -0.203 F 
ATOM     75  F   UNL     1       1.700  12.543  -1.535  1.00  0.00    -0.200 F 
ATOM     76  C   UNL     1       3.743  11.390  -1.782  1.00  0.00     0.200 A 
ATOM     77  F   UNL     1       5.771  10.231  -2.107  1.00  0.00    -0.200 F 
ATOM     78  F   UNL     1       4.365  12.295  -1.013  1.00  0.00    -0.200 F 
ENDBRANCH  44  68
BRANCH  56  79
ATOM     79  C   UNL     1      -0.264  11.075  -9.728  1.00  0.00     0.064 A 
ATOM     80  C   UNL     1       0.826  11.745 -10.301  1.00  0.00     0.173 A 
ATOM     81  C   UNL     1      -1.549  11.585  -9.969  1.00  0.00     0.173 A 
ATOM     82  F   UNL     1       2.076  11.305 -10.092  1.00  0.00    -0.203 F 
ATOM     83  C   UNL     1       0.636  12.882 -11.083  1.00  0.00     0.198 A 
ATOM     84  C   UNL     1      -1.738  12.701 -10.779  1.00  0.00     0.198 A 
ATOM     85  F   UNL     1      -2.627  10.975  -9.453  1.00  0.00    -0.203 F 
ATOM     86  F   UNL     1       1.694  13.522 -11.599  1.00  0.00    -0.200 F 
ATOM     87  C   UNL     1      -0.646  13.350 -11.332  1.00  0.00     0.200 A 
ATOM     88  F   UNL     1      -2.979  13.138 -11.037  1.00  0.00    -0.200 F 
ATOM     89  F   UNL     1      -0.828  14.427 -12.109  1.00  0.00    -0.200 F 
ENDBRANCH  56  79
ENDBRANCH  30  31
ENDBRANCH  23  25
ENDBRANCH  22  23
ENDBRANCH   1  22
TORSDOF 12
