REMARK SMILES Cc1cccc(C(=O)Nc2cc(C(=O)OCCOC(=O)c3ccc(-c4c5nc(c(-c6c(F)c(F)c(F)c(F)c6F)c6ccc([nH]6)c(-c6c(F)c(F)c(F)c(F)c6F)c6nc(c(-c7c(F)c(F)c(F)c(F)c7F)c7ccc4[nH]7)C=C6)C=C5)cc3)ccc2N2CC[NH+](CC(=O)NC(C)(C)C)CC2)c1
REMARK SMILES IDX 16 1 15 2 13 3 14 4 12 5 10 6 11 7 86 8 85 9 84 10 9 11 7 12
REMARK SMILES IDX 8 13 6 15 1 16 2 17 3 18 101 19 4 20 5 21 87 22 88 23 100 24
REMARK SMILES IDX 89 25 99 26 90 27 91 29 92 30 93 31 94 32 95 34 96 35 97 36
REMARK SMILES IDX 98 37 17 38 18 39 19 40 20 41 21 42 22 43 83 44 23 45 82 46
REMARK SMILES IDX 24 47 25 48 26 49 76 50 27 51 81 52 75 53 77 54 28 55 80 56
REMARK SMILES IDX 74 57 73 58 29 60 61 61 41 62 60 63 42 64 45 65 59 66 78 67
REMARK SMILES IDX 43 68 44 69 58 71 79 72 46 73 30 74 31 75 39 76 32 77 33 78
REMARK SMILES IDX 37 79 40 80 34 81 35 82 38 83 36 84 62 85 63 86 71 87 64 88
REMARK SMILES IDX 65 89 69 90 72 91 66 92 67 93 70 94 68 95 47 96 48 97 56 98
REMARK SMILES IDX 49 99 50 100 54 101 57 102 51 103 52 104 55 105 53 106
REMARK H PARENT 9 14 90 28 94 33 77 59 45 70
REMARK Flexibility Score: inf
ROOT
ATOM      1  C   UNL     1       2.770   1.796  -5.113  1.00  0.00     0.275 C 
ENDROOT
BRANCH   1   2
ATOM      2  O   UNL     1       2.370   2.957  -4.376  1.00  0.00    -0.458 OA
BRANCH   2   3
ATOM      3  C   UNL     1       1.955   2.655  -3.135  1.00  0.00     0.338 C 
ATOM      4  O   UNL     1       1.927   1.548  -2.622  1.00  0.00    -0.246 OA
BRANCH   3   5
ATOM      5  C   UNL     1       1.383   3.775  -2.412  1.00  0.00     0.062 A 
ATOM      6  C   UNL     1      -0.464   4.247  -0.974  1.00  0.00     0.065 A 
ATOM      7  C   UNL     1       0.066   3.555  -2.038  1.00  0.00     0.044 A 
ATOM      8  C   UNL     1       0.259   5.339  -0.381  1.00  0.00     0.061 A 
ATOM      9  C   UNL     1       1.564   5.587  -0.857  1.00  0.00     0.029 A 
ATOM     10  C   UNL     1       2.148   4.782  -1.839  1.00  0.00     0.018 A 
BRANCH   6  11
ATOM     11  N   UNL     1      -1.728   3.878  -0.488  1.00  0.00    -0.320 N 
ATOM     12  C   UNL     1      -2.430   2.698  -0.343  1.00  0.00     0.255 C 
ATOM     13  O   UNL     1      -3.516   2.807   0.245  1.00  0.00    -0.269 OA
ATOM     14  H   UNL     1      -2.243   4.655  -0.172  1.00  0.00     0.170 HD
BRANCH  12  15
ATOM     15  C   UNL     1      -2.030   1.314  -0.766  1.00  0.00     0.040 A 
ATOM     16  C   UNL     1       0.846  -0.987  -1.811  1.00  0.00     0.044 C 
ATOM     17  C   UNL     1      -0.515  -0.494  -1.421  1.00  0.00    -0.050 A 
ATOM     18  C   UNL     1      -1.598  -1.340  -1.656  1.00  0.00     0.003 A 
ATOM     19  C   UNL     1      -0.732   0.808  -0.909  1.00  0.00     0.017 A 
ATOM     20  C   UNL     1      -2.886  -0.892  -1.419  1.00  0.00     0.001 A 
ATOM     21  C   UNL     1      -3.097   0.424  -1.001  1.00  0.00     0.014 A 
ENDBRANCH  12  15
ENDBRANCH   6  11
BRANCH   8  22
ATOM     22  N   UNL     1      -0.254   6.096   0.664  1.00  0.00    -0.359 N 
ATOM     23  C   UNL     1       0.226   7.442   1.058  1.00  0.00     0.178 C 
ATOM     24  C   UNL     1      -0.864   5.416   1.798  1.00  0.00     0.178 C 
ATOM     25  C   UNL     1      -0.897   8.250   1.804  1.00  0.00     0.284 C 
ATOM     26  C   UNL     1      -2.141   6.197   2.151  1.00  0.00     0.284 C 
ATOM     27  N   UNL     1      -1.861   7.534   2.676  1.00  0.00    -0.324 N 
ATOM     28  H   UNL     1      -2.717   8.087   2.623  1.00  0.00     0.348 HD
BRANCH  27  29
ATOM     29  C   UNL     1      -1.608   7.569   4.127  1.00  0.00     0.363 C 
BRANCH  29  30
ATOM     30  C   UNL     1      -0.426   6.744   4.617  1.00  0.00     0.275 C 
ATOM     31  O   UNL     1       0.722   7.199   4.516  1.00  0.00    -0.268 OA
ATOM     32  N   UNL     1      -0.527   5.508   5.181  1.00  0.00    -0.347 N 
ATOM     33  H   UNL     1       0.332   5.252   5.588  1.00  0.00     0.164 HD
BRANCH  32  34
ATOM     34  C   UNL     1      -1.529   4.420   5.377  1.00  0.00     0.032 C 
ATOM     35  C   UNL     1      -1.458   3.389   4.233  1.00  0.00     0.034 C 
ATOM     36  C   UNL     1      -1.105   3.667   6.657  1.00  0.00     0.034 C 
ATOM     37  C   UNL     1      -2.978   4.874   5.583  1.00  0.00     0.034 C 
ENDBRANCH  32  34
ENDBRANCH  29  30
ENDBRANCH  27  29
ENDBRANCH   8  22
ENDBRANCH   3   5
ENDBRANCH   2   3
ENDBRANCH   1   2
BRANCH   1  38
ATOM     38  C   UNL     1       4.112   2.022  -5.805  1.00  0.00     0.275 C 
BRANCH  38  39
ATOM     39  O   UNL     1       5.288   2.353  -5.014  1.00  0.00    -0.458 OA
BRANCH  39  40
ATOM     40  C   UNL     1       5.195   2.918  -3.780  1.00  0.00     0.338 C 
ATOM     41  O   UNL     1       5.327   4.098  -3.556  1.00  0.00    -0.246 OA
BRANCH  40  42
ATOM     42  C   UNL     1       5.016   1.899  -2.707  1.00  0.00     0.060 A 
ATOM     43  C   UNL     1       4.792   2.295  -1.372  1.00  0.00     0.016 A 
ATOM     44  C   UNL     1       4.926   0.557  -3.058  1.00  0.00     0.016 A 
ATOM     45  C   UNL     1       4.424   1.350  -0.400  1.00  0.00     0.010 A 
ATOM     46  C   UNL     1       4.452  -0.345  -2.137  1.00  0.00     0.010 A 
ATOM     47  C   UNL     1       4.251   0.023  -0.790  1.00  0.00    -0.014 A 
BRANCH  47  48
ATOM     48  C   UNL     1       4.155  -1.150   0.086  1.00  0.00     0.031 A 
ATOM     49  C   UNL     1       2.900  -1.710   0.630  1.00  0.00     0.074 A 
ATOM     50  C   UNL     1       5.287  -1.887   0.018  1.00  0.00     0.049 A 
ATOM     51  N   UNL     1       2.627  -2.974   0.578  1.00  0.00    -0.248 NA
ATOM     52  C   UNL     1       1.829  -0.913   1.246  1.00  0.00     0.031 C 
ATOM     53  C   UNL     1       5.543  -3.280   0.336  1.00  0.00     0.029 A 
ATOM     54  N   UNL     1       6.566  -1.364  -0.244  1.00  0.00    -0.354 N 
ATOM     55  C   UNL     1       1.407  -3.176   1.173  1.00  0.00     0.074 A 
ATOM     56  C   UNL     1       0.914  -1.856   1.530  1.00  0.00     0.031 C 
ATOM     57  C   UNL     1       6.853  -3.408   0.621  1.00  0.00     0.029 A 
ATOM     58  C   UNL     1       7.412  -2.062   0.629  1.00  0.00     0.049 A 
ATOM     59  H   UNL     1       6.812  -0.666  -0.894  1.00  0.00     0.167 HD
ATOM     60  C   UNL     1       1.146  -4.344   1.821  1.00  0.00     0.037 A 
ATOM     61  C   UNL     1       7.844  -1.392   1.740  1.00  0.00     0.037 A 
ATOM     62  C   UNL     1       2.372  -4.912   2.331  1.00  0.00     0.049 A 
ATOM     63  C   UNL     1       7.300  -2.024   2.998  1.00  0.00     0.074 A 
ATOM     64  C   UNL     1       3.319  -5.798   1.856  1.00  0.00     0.029 A 
ATOM     65  N   UNL     1       2.922  -4.279   3.430  1.00  0.00    -0.354 N 
ATOM     66  N   UNL     1       6.143  -2.627   3.087  1.00  0.00    -0.248 NA
ATOM     67  C   UNL     1       8.077  -2.102   4.227  1.00  0.00     0.031 C 
ATOM     68  C   UNL     1       4.502  -5.598   2.626  1.00  0.00     0.029 A 
ATOM     69  C   UNL     1       4.244  -4.625   3.579  1.00  0.00     0.049 A 
ATOM     70  H   UNL     1       2.434  -3.664   4.025  1.00  0.00     0.167 HD
ATOM     71  C   UNL     1       6.058  -3.245   4.307  1.00  0.00     0.074 A 
ATOM     72  C   UNL     1       7.279  -2.864   4.993  1.00  0.00     0.031 C 
ATOM     73  C   UNL     1       5.019  -4.056   4.667  1.00  0.00     0.037 A 
BRANCH  60  74
ATOM     74  C   UNL     1      -0.148  -5.089   1.624  1.00  0.00     0.064 A 
ATOM     75  C   UNL     1      -0.209  -6.486   1.832  1.00  0.00     0.173 A 
ATOM     76  C   UNL     1      -1.327  -4.505   1.120  1.00  0.00     0.173 A 
ATOM     77  F   UNL     1       0.838  -7.161   2.329  1.00  0.00    -0.203 F 
ATOM     78  C   UNL     1      -1.337  -7.244   1.506  1.00  0.00     0.198 A 
ATOM     79  C   UNL     1      -2.460  -5.264   0.804  1.00  0.00     0.198 A 
ATOM     80  F   UNL     1      -1.410  -3.187   0.905  1.00  0.00    -0.203 F 
ATOM     81  F   UNL     1      -1.321  -8.573   1.678  1.00  0.00    -0.200 F 
ATOM     82  C   UNL     1      -2.460  -6.634   0.982  1.00  0.00     0.200 A 
ATOM     83  F   UNL     1      -3.547  -4.659   0.303  1.00  0.00    -0.200 F 
ATOM     84  F   UNL     1      -3.533  -7.363   0.647  1.00  0.00    -0.200 F 
ENDBRANCH  60  74
BRANCH  61  85
ATOM     85  C   UNL     1       8.055   0.076   1.496  1.00  0.00     0.064 A 
ATOM     86  C   UNL     1       8.877   0.457   0.407  1.00  0.00     0.173 A 
ATOM     87  C   UNL     1       7.249   1.077   2.052  1.00  0.00     0.173 A 
ATOM     88  F   UNL     1       9.673  -0.453  -0.180  1.00  0.00    -0.203 F 
ATOM     89  C   UNL     1       8.809   1.727  -0.165  1.00  0.00     0.198 A 
ATOM     90  C   UNL     1       7.211   2.365   1.497  1.00  0.00     0.198 A 
ATOM     91  F   UNL     1       6.429   0.802   3.076  1.00  0.00    -0.203 F 
ATOM     92  F   UNL     1       9.512   2.002  -1.273  1.00  0.00    -0.200 F 
ATOM     93  C   UNL     1       7.963   2.678   0.373  1.00  0.00     0.200 A 
ATOM     94  F   UNL     1       6.377   3.287   2.003  1.00  0.00    -0.200 F 
ATOM     95  F   UNL     1       7.844   3.880  -0.210  1.00  0.00    -0.200 F 
ENDBRANCH  61  85
BRANCH  73  96
ATOM     96  C   UNL     1       4.671  -4.437   6.086  1.00  0.00     0.064 A 
ATOM     97  C   UNL     1       5.026  -3.657   7.199  1.00  0.00     0.173 A 
ATOM     98  C   UNL     1       3.794  -5.517   6.358  1.00  0.00     0.173 A 
ATOM     99  F   UNL     1       5.718  -2.518   7.062  1.00  0.00    -0.203 F 
ATOM    100  C   UNL     1       4.615  -3.980   8.493  1.00  0.00     0.198 A 
ATOM    101  C   UNL     1       3.327  -5.793   7.642  1.00  0.00     0.198 A 
ATOM    102  F   UNL     1       3.326  -6.307   5.381  1.00  0.00    -0.203 F 
ATOM    103  F   UNL     1       5.028  -3.229   9.522  1.00  0.00    -0.200 F 
ATOM    104  C   UNL     1       3.757  -5.039   8.713  1.00  0.00     0.200 A 
ATOM    105  F   UNL     1       2.433  -6.774   7.828  1.00  0.00    -0.200 F 
ATOM    106  F   UNL     1       3.320  -5.310   9.950  1.00  0.00    -0.200 F 
ENDBRANCH  73  96
ENDBRANCH  47  48
ENDBRANCH  40  42
ENDBRANCH  39  40
ENDBRANCH  38  39
ENDBRANCH   1  38
TORSDOF 17
