REMARK SMILES Cc1ccccc1NC(=O)CSc1nc(C(=O)OCCOC(=O)c2ccc(-c3c4nc(c(-c5c(F)c(F)c(F)c(F)c5F)c5ccc([nH]5)c(-c5c(F)c(F)c(F)c(F)c5F)c5nc(c(-c6c(F)c(F)c(F)c(F)c6F)c6ccc3[nH]6)C=C5)C=C4)cc2)c2ccccc2n1
REMARK SMILES IDX 19 1 18 2 16 3 17 4 15 5 13 6 14 7 93 8 92 9 87 10 91 11
REMARK SMILES IDX 88 12 90 13 89 14 12 15 11 16 9 17 8 18 10 20 7 21 1 22 2 23
REMARK SMILES IDX 3 24 4 25 6 26 5 27 20 28 21 29 22 30 23 31 24 32 25 33
REMARK SMILES IDX 86 34 26 35 85 36 27 37 28 38 29 39 79 40 30 41 84 42 78 43
REMARK SMILES IDX 80 44 31 45 83 46 77 47 76 48 32 50 64 51 44 52 63 53 45 54
REMARK SMILES IDX 48 55 62 56 81 57 46 58 47 59 61 61 82 62 49 63 33 64 34 65
REMARK SMILES IDX 42 66 35 67 36 68 40 69 43 70 37 71 38 72 41 73 39 74 65 75
REMARK SMILES IDX 66 76 74 77 67 78 68 79 72 80 75 81 69 82 70 83 73 84 71 85
REMARK SMILES IDX 50 86 51 87 59 88 52 89 53 90 57 91 60 92 54 93 55 94 58 95
REMARK SMILES IDX 56 96
REMARK H PARENT 8 19 80 49 48 60
REMARK Flexibility Score: inf
ROOT
ATOM      1  C   UNL     1      -2.802   8.260  -6.864  1.00  0.00     0.275 C 
ENDROOT
BRANCH   1   2
ATOM      2  O   UNL     1      -2.064   7.201  -6.245  1.00  0.00    -0.457 OA
BRANCH   2   3
ATOM      3  C   UNL     1      -2.651   5.990  -6.249  1.00  0.00     0.357 C 
ATOM      4  O   UNL     1      -3.738   5.722  -6.776  1.00  0.00    -0.244 OA
BRANCH   3   5
ATOM      5  C   UNL     1      -1.765   5.003  -5.594  1.00  0.00     0.160 A 
ATOM      6  C   UNL     1      -1.489   3.511  -3.893  1.00  0.00     0.189 A 
ATOM      7  N   UNL     1      -2.191   4.528  -4.397  1.00  0.00    -0.215 NA
ATOM      8  N   UNL     1      -0.488   2.894  -4.535  1.00  0.00    -0.222 NA
ATOM      9  C   UNL     1      -0.112   3.371  -5.730  1.00  0.00     0.076 A 
ATOM     10  C   UNL     1      -0.676   4.504  -6.310  1.00  0.00     0.034 A 
ATOM     11  C   UNL     1       0.850   2.682  -6.456  1.00  0.00     0.029 A 
ATOM     12  C   UNL     1      -0.174   5.007  -7.541  1.00  0.00     0.013 A 
ATOM     13  C   UNL     1       1.310   3.135  -7.697  1.00  0.00     0.002 A 
ATOM     14  C   UNL     1       0.826   4.324  -8.224  1.00  0.00     0.001 A 
BRANCH   6  15
ATOM     15  S   UNL     1      -2.107   2.709  -2.439  1.00  0.00    -0.076 SA
BRANCH  15  16
ATOM     16  C   UNL     1      -1.388   3.701  -1.097  1.00  0.00     0.178 C 
BRANCH  16  17
ATOM     17  C   UNL     1       0.079   3.450  -0.835  1.00  0.00     0.234 C 
ATOM     18  N   UNL     1       0.601   2.285  -0.354  1.00  0.00    -0.325 N 
ATOM     19  H   UNL     1       1.567   2.346  -0.175  1.00  0.00     0.169 HD
ATOM     20  O   UNL     1       0.887   4.368  -1.038  1.00  0.00    -0.274 OA
BRANCH  18  21
ATOM     21  C   UNL     1       0.071   1.012  -0.056  1.00  0.00     0.044 A 
ATOM     22  C   UNL     1       2.444  -0.033  -0.122  1.00  0.00     0.046 C 
ATOM     23  C   UNL     1       0.942  -0.102  -0.019  1.00  0.00    -0.027 A 
ATOM     24  C   UNL     1       0.395  -1.400   0.066  1.00  0.00     0.005 A 
ATOM     25  C   UNL     1      -0.976  -1.599   0.186  1.00  0.00     0.000 A 
ATOM     26  C   UNL     1      -1.289   0.790   0.177  1.00  0.00     0.026 A 
ATOM     27  C   UNL     1      -1.814  -0.501   0.277  1.00  0.00     0.002 A 
ENDBRANCH  18  21
ENDBRANCH  16  17
ENDBRANCH  15  16
ENDBRANCH   6  15
ENDBRANCH   3   5
ENDBRANCH   2   3
ENDBRANCH   1   2
BRANCH   1  28
ATOM     28  C   UNL     1      -4.133   8.685  -6.201  1.00  0.00     0.275 C 
BRANCH  28  29
ATOM     29  O   UNL     1      -4.657   7.972  -5.039  1.00  0.00    -0.458 OA
BRANCH  29  30
ATOM     30  C   UNL     1      -4.120   7.677  -3.829  1.00  0.00     0.338 C 
ATOM     31  O   UNL     1      -4.717   7.010  -2.989  1.00  0.00    -0.246 OA
BRANCH  30  32
ATOM     32  C   UNL     1      -2.736   8.088  -3.576  1.00  0.00     0.060 A 
ATOM     33  C   UNL     1      -1.840   7.197  -2.964  1.00  0.00     0.016 A 
ATOM     34  C   UNL     1      -2.296   9.285  -4.098  1.00  0.00     0.016 A 
ATOM     35  C   UNL     1      -0.474   7.452  -2.992  1.00  0.00     0.010 A 
ATOM     36  C   UNL     1      -0.965   9.408  -4.370  1.00  0.00     0.010 A 
ATOM     37  C   UNL     1      -0.055   8.555  -3.730  1.00  0.00    -0.014 A 
BRANCH  37  38
ATOM     38  C   UNL     1       1.248   9.178  -3.605  1.00  0.00     0.031 A 
ATOM     39  C   UNL     1       2.423   8.667  -4.305  1.00  0.00     0.074 A 
ATOM     40  C   UNL     1       1.172  10.346  -2.924  1.00  0.00     0.049 A 
ATOM     41  N   UNL     1       3.620   8.762  -3.849  1.00  0.00    -0.248 NA
ATOM     42  C   UNL     1       2.354   8.000  -5.601  1.00  0.00     0.031 C 
ATOM     43  C   UNL     1       2.109  11.431  -2.728  1.00  0.00     0.029 A 
ATOM     44  N   UNL     1       0.067  10.724  -2.133  1.00  0.00    -0.354 N 
ATOM     45  C   UNL     1       4.474   8.536  -4.908  1.00  0.00     0.074 A 
ATOM     46  C   UNL     1       3.654   7.914  -5.922  1.00  0.00     0.031 C 
ATOM     47  C   UNL     1       1.716  12.127  -1.638  1.00  0.00     0.029 A 
ATOM     48  C   UNL     1       0.564  11.443  -1.054  1.00  0.00     0.049 A 
ATOM     49  H   UNL     1      -0.879  10.518  -2.312  1.00  0.00     0.167 HD
ATOM     50  C   UNL     1       5.713   9.115  -4.867  1.00  0.00     0.037 A 
ATOM     51  C   UNL     1       0.484  10.823   0.160  1.00  0.00     0.037 A 
ATOM     52  C   UNL     1       5.834   9.906  -3.636  1.00  0.00     0.049 A 
ATOM     53  C   UNL     1       1.860  10.413   0.618  1.00  0.00     0.074 A 
ATOM     54  C   UNL     1       5.628  11.257  -3.402  1.00  0.00     0.029 A 
ATOM     55  N   UNL     1       5.768   9.280  -2.392  1.00  0.00    -0.354 N 
ATOM     56  N   UNL     1       2.864  10.195  -0.189  1.00  0.00    -0.248 NA
ATOM     57  C   UNL     1       2.221  10.282   2.021  1.00  0.00     0.031 C 
ATOM     58  C   UNL     1       5.341  11.425  -2.023  1.00  0.00     0.029 A 
ATOM     59  C   UNL     1       5.383  10.182  -1.413  1.00  0.00     0.049 A 
ATOM     60  H   UNL     1       5.968   8.330  -2.232  1.00  0.00     0.167 HD
ATOM     61  C   UNL     1       3.993   9.964   0.543  1.00  0.00     0.074 A 
ATOM     62  C   UNL     1       3.537  10.029   1.923  1.00  0.00     0.031 C 
ATOM     63  C   UNL     1       5.219   9.759  -0.028  1.00  0.00     0.037 A 
BRANCH  50  64
ATOM     64  C   UNL     1       6.652   9.283  -6.050  1.00  0.00     0.064 A 
ATOM     65  C   UNL     1       7.582  10.350  -6.084  1.00  0.00     0.173 A 
ATOM     66  C   UNL     1       6.684   8.448  -7.183  1.00  0.00     0.173 A 
ATOM     67  F   UNL     1       7.741  11.178  -5.044  1.00  0.00    -0.203 F 
ATOM     68  C   UNL     1       8.398  10.613  -7.190  1.00  0.00     0.198 A 
ATOM     69  C   UNL     1       7.480   8.730  -8.305  1.00  0.00     0.198 A 
ATOM     70  F   UNL     1       5.990   7.306  -7.228  1.00  0.00    -0.203 F 
ATOM     71  F   UNL     1       9.246  11.651  -7.158  1.00  0.00    -0.200 F 
ATOM     72  C   UNL     1       8.330   9.817  -8.311  1.00  0.00     0.200 A 
ATOM     73  F   UNL     1       7.419   7.931  -9.381  1.00  0.00    -0.200 F 
ATOM     74  F   UNL     1       9.096  10.080  -9.379  1.00  0.00    -0.200 F 
ENDBRANCH  50  64
BRANCH  51  75
ATOM     75  C   UNL     1      -0.794  10.045   0.360  1.00  0.00     0.064 A 
ATOM     76  C   UNL     1      -2.024  10.700   0.101  1.00  0.00     0.173 A 
ATOM     77  C   UNL     1      -0.858   8.655   0.524  1.00  0.00     0.173 A 
ATOM     78  F   UNL     1      -2.052  12.034  -0.062  1.00  0.00    -0.203 F 
ATOM     79  C   UNL     1      -3.217  10.002  -0.091  1.00  0.00     0.198 A 
ATOM     80  C   UNL     1      -2.067   7.957   0.368  1.00  0.00     0.198 A 
ATOM     81  F   UNL     1       0.252   7.949   0.777  1.00  0.00    -0.203 F 
ATOM     82  F   UNL     1      -4.326  10.661  -0.457  1.00  0.00    -0.200 F 
ATOM     83  C   UNL     1      -3.237   8.627   0.035  1.00  0.00     0.200 A 
ATOM     84  F   UNL     1      -2.088   6.619   0.474  1.00  0.00    -0.200 F 
ATOM     85  F   UNL     1      -4.372   7.950  -0.184  1.00  0.00    -0.200 F 
ENDBRANCH  51  75
BRANCH  63  86
ATOM     86  C   UNL     1       6.427   9.253   0.713  1.00  0.00     0.064 A 
ATOM     87  C   UNL     1       6.350   8.434   1.850  1.00  0.00     0.173 A 
ATOM     88  C   UNL     1       7.729   9.477   0.206  1.00  0.00     0.173 A 
ATOM     89  F   UNL     1       5.173   8.012   2.331  1.00  0.00    -0.203 F 
ATOM     90  C   UNL     1       7.492   7.971   2.500  1.00  0.00     0.198 A 
ATOM     91  C   UNL     1       8.862   8.941   0.809  1.00  0.00     0.198 A 
ATOM     92  F   UNL     1       7.943  10.199  -0.904  1.00  0.00    -0.203 F 
ATOM     93  F   UNL     1       7.366   7.263   3.631  1.00  0.00    -0.200 F 
ATOM     94  C   UNL     1       8.746   8.216   1.975  1.00  0.00     0.200 A 
ATOM     95  F   UNL     1      10.064   9.120   0.243  1.00  0.00    -0.200 F 
ATOM     96  F   UNL     1       9.838   7.732   2.579  1.00  0.00    -0.200 F 
ENDBRANCH  63  86
ENDBRANCH  37  38
ENDBRANCH  30  32
ENDBRANCH  29  30
ENDBRANCH  28  29
ENDBRANCH   1  28
TORSDOF 15
