REMARK SMILES NC(=O)CC[C@H](C(=O)OCCOC(=O)c1ccc(-c2c3nc(c(-c4c(F)c(F)c(F)c(F)c4F)c4ccc([nH]4)c(-c4c(F)c(F)c(F)c(F)c4F)c4nc(c(-c5c(F)c(F)c(F)c(F)c5F)c5ccc2[nH]5)C=C4)C=C3)cc1)N1C(=O)/C(=C/c2ccc(O)c(O)c2)SC1=S
REMARK SMILES IDX 10 1 9 2 7 3 8 4 6 5 5 6 4 7 2 8 1 9 3 12 78 13 79 14 92 15
REMARK SMILES IDX 80 16 81 17 91 18 93 19 82 20 83 21 84 22 90 23 85 24 88 25
REMARK SMILES IDX 86 26 89 27 87 29 11 31 12 32 13 33 14 34 15 35 16 36 77 37
REMARK SMILES IDX 17 38 76 39 18 40 19 41 20 42 70 43 21 44 75 45 69 46 71 47
REMARK SMILES IDX 22 48 74 49 68 50 67 51 23 53 55 54 35 55 54 56 36 57 39 58
REMARK SMILES IDX 53 59 72 60 37 61 38 62 52 64 73 65 40 66 24 67 25 68 33 69
REMARK SMILES IDX 26 70 27 71 31 72 34 73 28 74 29 75 32 76 30 77 56 78 57 79
REMARK SMILES IDX 65 80 58 81 59 82 63 83 66 84 60 85 61 86 64 87 62 88 41 89
REMARK SMILES IDX 42 90 50 91 43 92 44 93 48 94 51 95 45 96 46 97 49 98 47 99
REMARK H PARENT 1 10 1 11 89 28 87 30 71 52 39 63
REMARK Flexibility Score: inf
ROOT
ATOM      1  C   UNL     1       0.591   0.553  -4.619  1.00  0.00     0.274 C 
ENDROOT
BRANCH   1   2
ATOM      2  O   UNL     1       1.725   0.888  -3.790  1.00  0.00    -0.461 OA
BRANCH   2   3
ATOM      3  C   UNL     1       1.788   0.237  -2.593  1.00  0.00     0.329 C 
ATOM      4  O   UNL     1       0.995  -0.631  -2.253  1.00  0.00    -0.250 OA
BRANCH   3   5
ATOM      5  C   UNL     1       2.862   0.802  -1.644  1.00  0.00     0.202 C 
BRANCH   5   6
ATOM      6  C   UNL     1       3.558  -0.258  -0.762  1.00  0.00     0.047 C 
BRANCH   6   7
ATOM      7  C   UNL     1       2.697  -0.798   0.391  1.00  0.00     0.102 C 
BRANCH   7   8
ATOM      8  C   UNL     1       1.966  -2.079   0.043  1.00  0.00     0.217 C 
ATOM      9  N   UNL     1       0.614  -2.038   0.184  1.00  0.00    -0.370 N 
ATOM     10  H   UNL     1       0.073  -2.834  -0.023  1.00  0.00     0.159 HD
ATOM     11  H   UNL     1       0.176  -1.212   0.494  1.00  0.00     0.159 HD
ATOM     12  O   UNL     1       2.538  -3.099  -0.325  1.00  0.00    -0.275 OA
ENDBRANCH   7   8
ENDBRANCH   6   7
ENDBRANCH   5   6
BRANCH   5  13
ATOM     13  N   UNL     1       3.771   1.748  -2.343  1.00  0.00    -0.278 N 
ATOM     14  C   UNL     1       3.338   3.068  -2.415  1.00  0.00     0.266 C 
ATOM     15  C   UNL     1       4.923   1.460  -3.050  1.00  0.00     0.149 C 
ATOM     16  O   UNL     1       2.313   3.513  -1.916  1.00  0.00    -0.268 OA
ATOM     17  C   UNL     1       4.270   3.888  -3.224  1.00  0.00     0.081 C 
ATOM     18  S   UNL     1       5.554   2.919  -3.805  1.00  0.00    -0.054 SA
ATOM     19  S   UNL     1       5.738   0.022  -3.243  1.00  0.00    -0.052 S 
ATOM     20  C   UNL     1       4.071   5.195  -3.438  1.00  0.00     0.029 C 
BRANCH  20  21
ATOM     21  C   UNL     1       4.952   6.039  -4.250  1.00  0.00    -0.020 A 
ATOM     22  C   UNL     1       5.785   6.977  -3.623  1.00  0.00     0.012 A 
ATOM     23  C   UNL     1       4.985   5.892  -5.645  1.00  0.00     0.058 A 
ATOM     24  C   UNL     1       6.659   7.757  -4.382  1.00  0.00     0.051 A 
ATOM     25  C   UNL     1       5.864   6.669  -6.389  1.00  0.00     0.157 A 
ATOM     26  C   UNL     1       6.693   7.594  -5.759  1.00  0.00     0.157 A 
BRANCH  25  27
ATOM     27  O   UNL     1       5.958   6.553  -7.749  1.00  0.00    -0.504 OA
ATOM     28  H   UNL     1       6.561   7.090  -8.225  1.00  0.00     0.293 HD
ENDBRANCH  25  27
BRANCH  26  29
ATOM     29  O   UNL     1       7.558   8.347  -6.499  1.00  0.00    -0.504 OA
ATOM     30  H   UNL     1       8.116   8.970  -6.076  1.00  0.00     0.293 HD
ENDBRANCH  26  29
ENDBRANCH  20  21
ENDBRANCH   5  13
ENDBRANCH   3   5
ENDBRANCH   2   3
ENDBRANCH   1   2
BRANCH   1  31
ATOM     31  C   UNL     1       1.002  -0.329  -5.792  1.00  0.00     0.275 C 
BRANCH  31  32
ATOM     32  O   UNL     1       1.719  -1.475  -5.307  1.00  0.00    -0.458 OA
BRANCH  32  33
ATOM     33  C   UNL     1       2.997  -1.579  -5.742  1.00  0.00     0.338 C 
ATOM     34  O   UNL     1       3.562  -0.854  -6.542  1.00  0.00    -0.246 OA
BRANCH  33  35
ATOM     35  C   UNL     1       3.666  -2.718  -5.086  1.00  0.00     0.060 A 
ATOM     36  C   UNL     1       3.610  -2.873  -3.702  1.00  0.00     0.016 A 
ATOM     37  C   UNL     1       4.489  -3.545  -5.849  1.00  0.00     0.016 A 
ATOM     38  C   UNL     1       4.472  -3.770  -3.067  1.00  0.00     0.010 A 
ATOM     39  C   UNL     1       5.267  -4.518  -5.217  1.00  0.00     0.010 A 
ATOM     40  C   UNL     1       5.306  -4.611  -3.813  1.00  0.00    -0.014 A 
BRANCH  40  41
ATOM     41  C   UNL     1       6.263  -5.552  -3.163  1.00  0.00     0.031 A 
ATOM     42  C   UNL     1       7.727  -5.489  -3.518  1.00  0.00     0.074 A 
ATOM     43  C   UNL     1       5.845  -6.485  -2.284  1.00  0.00     0.049 A 
ATOM     44  N   UNL     1       8.665  -6.387  -3.351  1.00  0.00    -0.248 NA
ATOM     45  C   UNL     1       8.192  -4.251  -4.166  1.00  0.00     0.031 C 
ATOM     46  C   UNL     1       4.485  -6.624  -1.766  1.00  0.00     0.029 A 
ATOM     47  N   UNL     1       6.535  -7.511  -1.681  1.00  0.00    -0.354 N 
ATOM     48  C   UNL     1       9.805  -5.858  -3.942  1.00  0.00     0.074 A 
ATOM     49  C   UNL     1       9.451  -4.551  -4.455  1.00  0.00     0.031 C 
ATOM     50  C   UNL     1       4.440  -7.665  -0.920  1.00  0.00     0.029 A 
ATOM     51  C   UNL     1       5.740  -8.324  -0.911  1.00  0.00     0.049 A 
ATOM     52  H   UNL     1       7.504  -7.649  -1.791  1.00  0.00     0.167 HD
ATOM     53  C   UNL     1      11.032  -6.421  -4.054  1.00  0.00     0.037 A 
ATOM     54  C   UNL     1       6.005  -9.502  -0.315  1.00  0.00     0.037 A 
ATOM     55  C   UNL     1      11.403  -7.684  -3.471  1.00  0.00     0.049 A 
ATOM     56  C   UNL     1       7.366 -10.121  -0.469  1.00  0.00     0.074 A 
ATOM     57  C   UNL     1      12.622  -8.337  -3.525  1.00  0.00     0.029 A 
ATOM     58  N   UNL     1      10.562  -8.469  -2.698  1.00  0.00    -0.354 N 
ATOM     59  N   UNL     1       8.412  -9.668  -1.115  1.00  0.00    -0.248 NA
ATOM     60  C   UNL     1       7.576 -11.429   0.168  1.00  0.00     0.031 C 
ATOM     61  C   UNL     1      12.513  -9.530  -2.802  1.00  0.00     0.029 A 
ATOM     62  C   UNL     1      11.236  -9.601  -2.270  1.00  0.00     0.049 A 
ATOM     63  H   UNL     1       9.625  -8.255  -2.485  1.00  0.00     0.167 HD
ATOM     64  C   UNL     1       9.406 -10.622  -0.948  1.00  0.00     0.074 A 
ATOM     65  C   UNL     1       8.844 -11.675  -0.130  1.00  0.00     0.031 C 
ATOM     66  C   UNL     1      10.669 -10.627  -1.437  1.00  0.00     0.037 A 
BRANCH  53  67
ATOM     67  C   UNL     1      12.064  -5.700  -4.869  1.00  0.00     0.064 A 
ATOM     68  C   UNL     1      12.737  -4.570  -4.387  1.00  0.00     0.173 A 
ATOM     69  C   UNL     1      12.428  -6.195  -6.132  1.00  0.00     0.173 A 
ATOM     70  F   UNL     1      12.419  -4.053  -3.191  1.00  0.00    -0.203 F 
ATOM     71  C   UNL     1      13.730  -3.953  -5.145  1.00  0.00     0.198 A 
ATOM     72  C   UNL     1      13.436  -5.590  -6.876  1.00  0.00     0.198 A 
ATOM     73  F   UNL     1      11.818  -7.279  -6.634  1.00  0.00    -0.203 F 
ATOM     74  F   UNL     1      14.345  -2.857  -4.678  1.00  0.00    -0.200 F 
ATOM     75  C   UNL     1      14.084  -4.468  -6.384  1.00  0.00     0.200 A 
ATOM     76  F   UNL     1      13.786  -6.098  -8.066  1.00  0.00    -0.200 F 
ATOM     77  F   UNL     1      15.050  -3.882  -7.105  1.00  0.00    -0.200 F 
ENDBRANCH  53  67
BRANCH  54  78
ATOM     78  C   UNL     1       4.933 -10.209   0.433  1.00  0.00     0.064 A 
ATOM     79  C   UNL     1       4.996 -10.348   1.826  1.00  0.00     0.173 A 
ATOM     80  C   UNL     1       3.829 -10.766  -0.231  1.00  0.00     0.173 A 
ATOM     81  F   UNL     1       6.047  -9.860   2.500  1.00  0.00    -0.203 F 
ATOM     82  C   UNL     1       4.001 -11.028   2.525  1.00  0.00     0.198 A 
ATOM     83  C   UNL     1       2.820 -11.419   0.473  1.00  0.00     0.198 A 
ATOM     84  F   UNL     1       3.725 -10.665  -1.564  1.00  0.00    -0.203 F 
ATOM     85  F   UNL     1       4.108 -11.188   3.851  1.00  0.00    -0.200 F 
ATOM     86  C   UNL     1       2.911 -11.556   1.849  1.00  0.00     0.200 A 
ATOM     87  F   UNL     1       1.764 -11.918  -0.183  1.00  0.00    -0.200 F 
ATOM     88  F   UNL     1       1.954 -12.207   2.524  1.00  0.00    -0.200 F 
ENDBRANCH  54  78
BRANCH  66  89
ATOM     89  C   UNL     1      11.546 -11.781  -1.060  1.00  0.00     0.064 A 
ATOM     90  C   UNL     1      11.403 -13.038  -1.665  1.00  0.00     0.173 A 
ATOM     91  C   UNL     1      12.572 -11.613  -0.118  1.00  0.00     0.173 A 
ATOM     92  F   UNL     1      10.426 -13.249  -2.559  1.00  0.00    -0.203 F 
ATOM     93  C   UNL     1      12.248 -14.091  -1.327  1.00  0.00     0.198 A 
ATOM     94  C   UNL     1      13.428 -12.662   0.201  1.00  0.00     0.198 A 
ATOM     95  F   UNL     1      12.749 -10.427   0.484  1.00  0.00    -0.203 F 
ATOM     96  F   UNL     1      12.075 -15.294  -1.892  1.00  0.00    -0.200 F 
ATOM     97  C   UNL     1      13.263 -13.901  -0.401  1.00  0.00     0.200 A 
ATOM     98  F   UNL     1      14.412 -12.476   1.091  1.00  0.00    -0.200 F 
ATOM     99  F   UNL     1      14.080 -14.915  -0.082  1.00  0.00    -0.200 F 
ENDBRANCH  66  89
ENDBRANCH  40  41
ENDBRANCH  33  35
ENDBRANCH  32  33
ENDBRANCH  31  32
ENDBRANCH   1  31
TORSDOF 18
