REMARK SMILES C[C@H](NC(=O)CCn1ccccc1=O)C(=O)OCCOC(=O)c1ccc(-c2c3nc(c(-c4c(F)c(F)c(F)c(F)c4F)c4ccc([nH]4)c(-c4c(F)c(F)c(F)c(F)c4F)c4nc(c(-c5c(F)c(F)c(F)c(F)c5F)c5ccc2[nH]5)C=C4)C=C3)cc1
REMARK SMILES IDX 18 1 17 2 15 3 16 4 2 5 1 6 3 7 4 8 5 10 6 11 7 12 8 13 9 14
REMARK SMILES IDX 13 15 10 16 12 17 14 18 11 19 19 20 20 21 21 22 22 23 23 24
REMARK SMILES IDX 24 25 85 26 25 27 84 28 26 29 27 30 28 31 78 32 29 33 83 34
REMARK SMILES IDX 77 35 79 36 30 37 82 38 76 39 75 40 31 42 63 43 43 44 62 45
REMARK SMILES IDX 44 46 47 47 61 48 80 49 45 50 46 51 60 53 81 54 48 55 32 56
REMARK SMILES IDX 33 57 41 58 34 59 35 60 39 61 42 62 36 63 37 64 40 65 38 66
REMARK SMILES IDX 64 67 65 68 73 69 66 70 67 71 71 72 74 73 68 74 69 75 72 76
REMARK SMILES IDX 70 77 49 78 50 79 58 80 51 81 52 82 56 83 59 84 53 85 54 86
REMARK SMILES IDX 57 87 55 88
REMARK H PARENT 3 9 79 41 47 52
REMARK Flexibility Score: inf
ROOT
ATOM      1  C   UNL     1      -3.275   0.340  -0.583  1.00  0.00     0.274 C 
ENDROOT
BRANCH   1   2
ATOM      2  O   UNL     1      -1.907   0.156  -1.007  1.00  0.00    -0.461 OA
BRANCH   2   3
ATOM      3  C   UNL     1      -0.994   0.902  -0.335  1.00  0.00     0.328 C 
ATOM      4  O   UNL     1      -1.233   1.507   0.705  1.00  0.00    -0.250 OA
BRANCH   3   5
ATOM      5  C   UNL     1       0.373   0.970  -1.014  1.00  0.00     0.189 C 
ATOM      6  C   UNL     1       0.371   0.901  -2.530  1.00  0.00     0.043 C 
BRANCH   5   7
ATOM      7  N   UNL     1       1.476   0.225  -0.435  1.00  0.00    -0.343 N 
ATOM      8  C   UNL     1       2.650   0.697   0.066  1.00  0.00     0.222 C 
ATOM      9  H   UNL     1       1.359  -0.752  -0.399  1.00  0.00     0.164 HD
ATOM     10  O   UNL     1       3.578  -0.110   0.180  1.00  0.00    -0.275 OA
BRANCH   8  11
ATOM     11  C   UNL     1       2.807   2.111   0.628  1.00  0.00     0.122 C 
BRANCH  11  12
ATOM     12  C   UNL     1       2.689   3.342  -0.286  1.00  0.00     0.135 C 
BRANCH  12  13
ATOM     13  N   UNL     1       1.369   3.997  -0.396  1.00  0.00    -0.315 N 
ATOM     14  C   UNL     1       0.521   4.095   0.701  1.00  0.00     0.089 A 
ATOM     15  C   UNL     1       0.972   4.459  -1.660  1.00  0.00     0.250 A 
ATOM     16  C   UNL     1      -0.756   4.475   0.563  1.00  0.00     0.018 A 
ATOM     17  C   UNL     1      -0.461   4.847  -1.797  1.00  0.00     0.072 A 
ATOM     18  O   UNL     1       1.689   4.482  -2.656  1.00  0.00    -0.269 OA
ATOM     19  C   UNL     1      -1.274   4.815  -0.735  1.00  0.00     0.007 A 
ENDBRANCH  12  13
ENDBRANCH  11  12
ENDBRANCH   8  11
ENDBRANCH   5   7
ENDBRANCH   3   5
ENDBRANCH   2   3
ENDBRANCH   1   2
BRANCH   1  20
ATOM     20  C   UNL     1      -3.707  -0.560   0.583  1.00  0.00     0.275 C 
BRANCH  20  21
ATOM     21  O   UNL     1      -3.298  -0.041   1.864  1.00  0.00    -0.458 OA
BRANCH  21  22
ATOM     22  C   UNL     1      -2.118  -0.505   2.343  1.00  0.00     0.338 C 
ATOM     23  O   UNL     1      -1.402  -1.355   1.831  1.00  0.00    -0.246 OA
BRANCH  22  24
ATOM     24  C   UNL     1      -1.735   0.278   3.538  1.00  0.00     0.060 A 
ATOM     25  C   UNL     1      -2.608   0.414   4.617  1.00  0.00     0.016 A 
ATOM     26  C   UNL     1      -0.460   0.860   3.586  1.00  0.00     0.016 A 
ATOM     27  C   UNL     1      -2.200   1.133   5.744  1.00  0.00     0.010 A 
ATOM     28  C   UNL     1      -0.054   1.582   4.712  1.00  0.00     0.010 A 
ATOM     29  C   UNL     1      -0.919   1.716   5.805  1.00  0.00    -0.014 A 
BRANCH  29  30
ATOM     30  C   UNL     1      -0.468   2.339   7.075  1.00  0.00     0.031 A 
ATOM     31  C   UNL     1      -0.395   3.825   7.248  1.00  0.00     0.074 A 
ATOM     32  C   UNL     1      -0.151   1.529   8.102  1.00  0.00     0.049 A 
ATOM     33  N   UNL     1      -0.240   4.516   8.350  1.00  0.00    -0.248 NA
ATOM     34  C   UNL     1      -0.493   4.643   6.032  1.00  0.00     0.031 C 
ATOM     35  C   UNL     1      -0.111   0.069   8.027  1.00  0.00     0.029 A 
ATOM     36  N   UNL     1       0.166   1.809   9.408  1.00  0.00    -0.354 N 
ATOM     37  C   UNL     1      -0.256   5.850   7.968  1.00  0.00     0.074 A 
ATOM     38  C   UNL     1      -0.368   5.870   6.524  1.00  0.00     0.031 C 
ATOM     39  C   UNL     1       0.155  -0.423   9.246  1.00  0.00     0.029 A 
ATOM     40  C   UNL     1       0.316   0.686  10.184  1.00  0.00     0.049 A 
ATOM     41  H   UNL     1       0.275   2.724   9.754  1.00  0.00     0.167 HD
ATOM     42  C   UNL     1      -0.209   6.950   8.759  1.00  0.00     0.037 A 
ATOM     43  C   UNL     1       0.527   0.559  11.508  1.00  0.00     0.037 A 
ATOM     44  C   UNL     1      -0.077   6.911  10.195  1.00  0.00     0.049 A 
ATOM     45  C   UNL     1       0.589   1.793  12.364  1.00  0.00     0.074 A 
ATOM     46  C   UNL     1      -0.090   7.967  11.091  1.00  0.00     0.029 A 
ATOM     47  N   UNL     1       0.116   5.758  10.943  1.00  0.00    -0.354 N 
ATOM     48  N   UNL     1       0.433   3.047  12.016  1.00  0.00    -0.248 NA
ATOM     49  C   UNL     1       0.845   1.596  13.798  1.00  0.00     0.031 C 
ATOM     50  C   UNL     1       0.161   7.460  12.370  1.00  0.00     0.029 A 
ATOM     51  C   UNL     1       0.269   6.081  12.283  1.00  0.00     0.049 A 
ATOM     52  H   UNL     1       0.141   4.844  10.577  1.00  0.00     0.167 HD
ATOM     53  C   UNL     1       0.561   3.787  13.183  1.00  0.00     0.074 A 
ATOM     54  C   UNL     1       0.784   2.840  14.256  1.00  0.00     0.031 C 
ATOM     55  C   UNL     1       0.502   5.132  13.344  1.00  0.00     0.037 A 
BRANCH  42  56
ATOM     56  C   UNL     1      -0.320   8.296   8.100  1.00  0.00     0.064 A 
ATOM     57  C   UNL     1      -1.520   8.723   7.511  1.00  0.00     0.173 A 
ATOM     58  C   UNL     1       0.752   9.202   8.128  1.00  0.00     0.173 A 
ATOM     59  F   UNL     1      -2.578   7.900   7.458  1.00  0.00    -0.203 F 
ATOM     60  C   UNL     1      -1.635   9.995   6.953  1.00  0.00     0.198 A 
ATOM     61  C   UNL     1       0.624  10.483   7.596  1.00  0.00     0.198 A 
ATOM     62  F   UNL     1       1.919   8.853   8.691  1.00  0.00    -0.203 F 
ATOM     63  F   UNL     1      -2.780  10.364   6.363  1.00  0.00    -0.200 F 
ATOM     64  C   UNL     1      -0.566  10.876   7.004  1.00  0.00     0.200 A 
ATOM     65  F   UNL     1       1.652  11.341   7.664  1.00  0.00    -0.200 F 
ATOM     66  F   UNL     1      -0.683  12.104   6.481  1.00  0.00    -0.200 F 
ENDBRANCH  42  56
BRANCH  43  67
ATOM     67  C   UNL     1       0.622  -0.801  12.096  1.00  0.00     0.064 A 
ATOM     68  C   UNL     1      -0.408  -1.312  12.897  1.00  0.00     0.173 A 
ATOM     69  C   UNL     1       1.708  -1.643  11.813  1.00  0.00     0.173 A 
ATOM     70  F   UNL     1      -1.460  -0.541  13.208  1.00  0.00    -0.203 F 
ATOM     71  C   UNL     1      -0.356  -2.614  13.391  1.00  0.00     0.198 A 
ATOM     72  C   UNL     1       1.746  -2.953  12.284  1.00  0.00     0.198 A 
ATOM     73  F   UNL     1       2.715  -1.202  11.044  1.00  0.00    -0.203 F 
ATOM     74  F   UNL     1      -1.345  -3.073  14.170  1.00  0.00    -0.200 F 
ATOM     75  C   UNL     1       0.715  -3.437  13.074  1.00  0.00     0.200 A 
ATOM     76  F   UNL     1       2.772  -3.750  11.959  1.00  0.00    -0.200 F 
ATOM     77  F   UNL     1       0.751  -4.697  13.528  1.00  0.00    -0.200 F 
ENDBRANCH  43  67
BRANCH  55  78
ATOM     78  C   UNL     1       0.697   5.680  14.730  1.00  0.00     0.064 A 
ATOM     79  C   UNL     1       1.959   5.685  15.341  1.00  0.00     0.173 A 
ATOM     80  C   UNL     1      -0.365   6.297  15.411  1.00  0.00     0.173 A 
ATOM     81  F   UNL     1       3.003   5.096  14.738  1.00  0.00    -0.203 F 
ATOM     82  C   UNL     1       2.151   6.285  16.583  1.00  0.00     0.198 A 
ATOM     83  C   UNL     1      -0.162   6.921  16.639  1.00  0.00     0.198 A 
ATOM     84  F   UNL     1      -1.591   6.325  14.868  1.00  0.00    -0.203 F 
ATOM     85  F   UNL     1       3.361   6.256  17.158  1.00  0.00    -0.200 F 
ATOM     86  C   UNL     1       1.095   6.914  17.224  1.00  0.00     0.200 A 
ATOM     87  F   UNL     1      -1.181   7.543  17.248  1.00  0.00    -0.200 F 
ATOM     88  F   UNL     1       1.288   7.514  18.406  1.00  0.00    -0.200 F 
ENDBRANCH  55  78
ENDBRANCH  29  30
ENDBRANCH  22  24
ENDBRANCH  21  22
ENDBRANCH  20  21
ENDBRANCH   1  20
TORSDOF 15
