REMARK SMILES CCCc1cc2c(cc1Cl)C=C(C(=O)OCCOC(=O)c1ccc(-c3c4nc(c(-c5c(F)c(F)c(F)c(F)c5F)c5ccc([nH]5)c(-c5c(F)c(F)c(F)c(F)c5F)c5nc(c(-c6c(F)c(F)c(F)c(F)c6F)c6ccc3[nH]6)C=C5)C=C4)cc1)[C@@H](C(F)(F)F)O2
REMARK SMILES IDX 16 1 15 2 13 3 14 4 12 5 4 6 5 7 9 8 6 9 8 10 10 11 7 12
REMARK SMILES IDX 89 13 11 14 84 15 3 16 2 17 1 18 85 19 86 20 87 21 88 22
REMARK SMILES IDX 17 23 18 24 19 25 20 26 21 27 22 28 83 29 23 30 82 31 24 32
REMARK SMILES IDX 25 33 26 34 76 35 27 36 81 37 75 38 77 39 28 40 80 41 74 42
REMARK SMILES IDX 73 43 29 45 61 46 41 47 60 48 42 49 45 50 59 51 78 52 43 53
REMARK SMILES IDX 44 54 58 56 79 57 46 58 30 59 31 60 39 61 32 62 33 63 37 64
REMARK SMILES IDX 40 65 34 66 35 67 38 68 36 69 62 70 63 71 71 72 64 73 65 74
REMARK SMILES IDX 69 75 72 76 66 77 67 78 70 79 68 80 47 81 48 82 56 83 49 84
REMARK SMILES IDX 50 85 54 86 57 87 51 88 52 89 55 90 53 91
REMARK H PARENT 77 44 45 55
REMARK Flexibility Score: inf
ROOT
ATOM      1  C   UNL     1       0.038 -10.160  -2.030  1.00  0.00     0.275 C 
ENDROOT
BRANCH   1   2
ATOM      2  O   UNL     1       0.510  -8.793  -2.058  1.00  0.00    -0.459 OA
BRANCH   2   3
ATOM      3  C   UNL     1      -0.307  -7.913  -2.680  1.00  0.00     0.338 C 
ATOM      4  O   UNL     1      -1.380  -8.165  -3.207  1.00  0.00    -0.246 OA
BRANCH   3   5
ATOM      5  C   UNL     1       0.232  -6.542  -2.596  1.00  0.00     0.087 C 
ATOM      6  C   UNL     1       0.610  -1.516  -2.430  1.00  0.00    -0.026 A 
ATOM      7  C   UNL     1       1.532  -2.571  -2.637  1.00  0.00     0.052 A 
ATOM      8  C   UNL     1      -0.732  -1.847  -2.186  1.00  0.00     0.045 A 
ATOM      9  C   UNL     1       1.129  -3.908  -2.595  1.00  0.00     0.128 A 
ATOM     10  C   UNL     1      -1.123  -3.182  -2.099  1.00  0.00     0.032 A 
ATOM     11  Cl  UNL     1      -1.987  -0.672  -2.040  1.00  0.00    -0.084 Cl
ATOM     12  C   UNL     1      -0.198  -4.204  -2.314  1.00  0.00     0.019 A 
ATOM     13  O   UNL     1       2.077  -4.868  -2.824  1.00  0.00    -0.475 OA
ATOM     14  C   UNL     1      -0.638  -5.578  -2.282  1.00  0.00     0.027 C 
ATOM     15  C   UNL     1       1.645  -6.253  -3.017  1.00  0.00     0.316 C 
BRANCH   6  16
ATOM     16  C   UNL     1       1.108  -0.090  -2.533  1.00  0.00     0.037 C 
BRANCH  16  17
ATOM     17  C   UNL     1       0.883   0.824  -1.319  1.00  0.00     0.001 C 
ATOM     18  C   UNL     1       1.325   0.225   0.007  1.00  0.00     0.004 C 
ENDBRANCH  16  17
ENDBRANCH   6  16
BRANCH  15  19
ATOM     19  C   UNL     1       1.860  -6.654  -4.487  1.00  0.00     0.430 C 
ATOM     20  F   UNL     1       3.120  -6.382  -4.899  1.00  0.00    -0.167 F 
ATOM     21  F   UNL     1       1.672  -7.985  -4.667  1.00  0.00    -0.167 F 
ATOM     22  F   UNL     1       1.010  -6.012  -5.320  1.00  0.00    -0.167 F 
ENDBRANCH  15  19
ENDBRANCH   3   5
ENDBRANCH   2   3
ENDBRANCH   1   2
BRANCH   1  23
ATOM     23  C   UNL     1      -0.561 -10.521  -0.670  1.00  0.00     0.275 C 
BRANCH  23  24
ATOM     24  O   UNL     1      -1.772  -9.777  -0.443  1.00  0.00    -0.458 OA
BRANCH  24  25
ATOM     25  C   UNL     1      -1.726  -8.878   0.567  1.00  0.00     0.338 C 
ATOM     26  O   UNL     1      -0.795  -8.646   1.317  1.00  0.00    -0.246 OA
BRANCH  25  27
ATOM     27  C   UNL     1      -2.984  -8.117   0.609  1.00  0.00     0.060 A 
ATOM     28  C   UNL     1      -3.810  -8.147   1.726  1.00  0.00     0.016 A 
ATOM     29  C   UNL     1      -3.253  -7.231  -0.426  1.00  0.00     0.016 A 
ATOM     30  C   UNL     1      -4.914  -7.286   1.782  1.00  0.00     0.010 A 
ATOM     31  C   UNL     1      -4.249  -6.268  -0.296  1.00  0.00     0.010 A 
ATOM     32  C   UNL     1      -5.126  -6.301   0.793  1.00  0.00    -0.014 A 
BRANCH  32  33
ATOM     33  C   UNL     1      -6.254  -5.325   0.892  1.00  0.00     0.031 A 
ATOM     34  C   UNL     1      -7.250  -5.159  -0.234  1.00  0.00     0.074 A 
ATOM     35  C   UNL     1      -6.375  -4.551   1.991  1.00  0.00     0.049 A 
ATOM     36  N   UNL     1      -8.303  -4.378  -0.299  1.00  0.00    -0.248 NA
ATOM     37  C   UNL     1      -7.014  -5.928  -1.465  1.00  0.00     0.031 C 
ATOM     38  C   UNL     1      -5.428  -4.511   3.107  1.00  0.00     0.029 A 
ATOM     39  N   UNL     1      -7.357  -3.663   2.362  1.00  0.00    -0.354 N 
ATOM     40  C   UNL     1      -8.821  -4.542  -1.579  1.00  0.00     0.074 A 
ATOM     41  C   UNL     1      -7.927  -5.430  -2.284  1.00  0.00     0.031 C 
ATOM     42  C   UNL     1      -5.920  -3.723   4.075  1.00  0.00     0.029 A 
ATOM     43  C   UNL     1      -7.196  -3.168   3.635  1.00  0.00     0.049 A 
ATOM     44  H   UNL     1      -8.103  -3.407   1.774  1.00  0.00     0.167 HD
ATOM     45  C   UNL     1      -9.964  -4.044  -2.109  1.00  0.00     0.037 A 
ATOM     46  C   UNL     1      -7.999  -2.383   4.378  1.00  0.00     0.037 A 
ATOM     47  C   UNL     1     -10.899  -3.223  -1.388  1.00  0.00     0.049 A 
ATOM     48  C   UNL     1      -9.304  -1.905   3.805  1.00  0.00     0.074 A 
ATOM     49  C   UNL     1     -12.130  -2.747  -1.804  1.00  0.00     0.029 A 
ATOM     50  N   UNL     1     -10.710  -2.769  -0.092  1.00  0.00    -0.354 N 
ATOM     51  N   UNL     1      -9.821  -2.140   2.625  1.00  0.00    -0.248 NA
ATOM     52  C   UNL     1     -10.137  -1.056   4.668  1.00  0.00     0.031 C 
ATOM     53  C   UNL     1     -12.676  -1.984  -0.767  1.00  0.00     0.029 A 
ATOM     54  C   UNL     1     -11.801  -2.013   0.306  1.00  0.00     0.049 A 
ATOM     55  H   UNL     1      -9.919  -2.956   0.463  1.00  0.00     0.167 HD
ATOM     56  C   UNL     1     -11.042  -1.480   2.605  1.00  0.00     0.074 A 
ATOM     57  C   UNL     1     -11.200  -0.853   3.901  1.00  0.00     0.031 C 
ATOM     58  C   UNL     1     -11.946  -1.398   1.600  1.00  0.00     0.037 A 
BRANCH  45  59
ATOM     59  C   UNL     1     -10.296  -4.416  -3.527  1.00  0.00     0.064 A 
ATOM     60  C   UNL     1     -10.651  -5.729  -3.874  1.00  0.00     0.173 A 
ATOM     61  C   UNL     1     -10.297  -3.449  -4.543  1.00  0.00     0.173 A 
ATOM     62  F   UNL     1     -10.660  -6.695  -2.943  1.00  0.00    -0.203 F 
ATOM     63  C   UNL     1     -10.958  -6.067  -5.189  1.00  0.00     0.198 A 
ATOM     64  C   UNL     1     -10.638  -3.784  -5.852  1.00  0.00     0.198 A 
ATOM     65  F   UNL     1      -9.979  -2.175  -4.267  1.00  0.00    -0.203 F 
ATOM     66  F   UNL     1     -11.240  -7.340  -5.503  1.00  0.00    -0.200 F 
ATOM     67  C   UNL     1     -10.958  -5.094  -6.176  1.00  0.00     0.200 A 
ATOM     68  F   UNL     1     -10.655  -2.838  -6.803  1.00  0.00    -0.200 F 
ATOM     69  F   UNL     1     -11.262  -5.419  -7.440  1.00  0.00    -0.200 F 
ENDBRANCH  45  59
BRANCH  46  70
ATOM     70  C   UNL     1      -7.625  -2.081   5.784  1.00  0.00     0.064 A 
ATOM     71  C   UNL     1      -8.299  -2.702   6.846  1.00  0.00     0.173 A 
ATOM     72  C   UNL     1      -6.568  -1.216   6.098  1.00  0.00     0.173 A 
ATOM     73  F   UNL     1      -9.328  -3.525   6.595  1.00  0.00    -0.203 F 
ATOM     74  C   UNL     1      -7.929  -2.468   8.169  1.00  0.00     0.198 A 
ATOM     75  C   UNL     1      -6.185  -1.000   7.420  1.00  0.00     0.198 A 
ATOM     76  F   UNL     1      -5.889  -0.604   5.117  1.00  0.00    -0.203 F 
ATOM     77  F   UNL     1      -8.604  -3.058   9.165  1.00  0.00    -0.200 F 
ATOM     78  C   UNL     1      -6.867  -1.624   8.454  1.00  0.00     0.200 A 
ATOM     79  F   UNL     1      -5.148  -0.196   7.693  1.00  0.00    -0.200 F 
ATOM     80  F   UNL     1      -6.501  -1.413   9.726  1.00  0.00    -0.200 F 
ENDBRANCH  46  70
BRANCH  58  81
ATOM     81  C   UNL     1     -13.195  -0.608   1.851  1.00  0.00     0.064 A 
ATOM     82  C   UNL     1     -13.178   0.793   1.871  1.00  0.00     0.173 A 
ATOM     83  C   UNL     1     -14.432  -1.256   1.990  1.00  0.00     0.173 A 
ATOM     84  F   UNL     1     -12.018   1.456   1.752  1.00  0.00    -0.203 F 
ATOM     85  C   UNL     1     -14.355   1.520   2.031  1.00  0.00     0.198 A 
ATOM     86  C   UNL     1     -15.609  -0.526   2.126  1.00  0.00     0.198 A 
ATOM     87  F   UNL     1     -14.500  -2.595   1.969  1.00  0.00    -0.203 F 
ATOM     88  F   UNL     1     -14.313   2.858   2.073  1.00  0.00    -0.200 F 
ATOM     89  C   UNL     1     -15.569   0.860   2.148  1.00  0.00     0.200 A 
ATOM     90  F   UNL     1     -16.784  -1.164   2.226  1.00  0.00    -0.200 F 
ATOM     91  F   UNL     1     -16.703   1.561   2.285  1.00  0.00    -0.200 F 
ENDBRANCH  58  81
ENDBRANCH  32  33
ENDBRANCH  25  27
ENDBRANCH  24  25
ENDBRANCH  23  24
ENDBRANCH   1  23
TORSDOF 14
