REMARK SMILES COc1ncccc1CC1(C(=O)OCCOC(=O)c2ccc(-c3c4nc(c(-c5c(F)c(F)c(F)c(F)c5F)c5ccc([nH]5)c(-c5c(F)c(F)c(F)c(F)c5F)c5nc(c(-c6c(F)c(F)c(F)c(F)c6F)c6ccc3[nH]6)C=C5)C=C4)cc2)CCC(C)(C)CC1
REMARK SMILES IDX 14 1 13 2 11 3 12 4 10 5 82 6 88 7 83 8 87 9 84 10 85 11
REMARK SMILES IDX 86 12 9 13 8 14 3 15 4 16 5 17 7 18 6 19 2 20 1 21 15 22
REMARK SMILES IDX 16 23 17 24 18 25 19 26 20 27 81 28 21 29 80 30 22 31 23 32
REMARK SMILES IDX 24 33 74 34 25 35 79 36 73 37 75 38 26 39 78 40 72 41 71 42
REMARK SMILES IDX 27 44 59 45 39 46 58 47 40 48 43 49 57 50 76 51 41 52 42 53
REMARK SMILES IDX 56 55 77 56 44 57 28 58 29 59 37 60 30 61 31 62 35 63 38 64
REMARK SMILES IDX 32 65 33 66 36 67 34 68 60 69 61 70 69 71 62 72 63 73 67 74
REMARK SMILES IDX 70 75 64 76 65 77 68 78 66 79 45 80 46 81 54 82 47 83 48 84
REMARK SMILES IDX 52 85 55 86 49 87 50 88 53 89 51 90
REMARK H PARENT 75 43 43 54
REMARK Flexibility Score: inf
ROOT
ATOM      1  C   UNL     1       4.563   1.670  -2.427  1.00  0.00     0.274 C 
ENDROOT
BRANCH   1   2
ATOM      2  O   UNL     1       3.482   0.844  -1.943  1.00  0.00    -0.462 OA
BRANCH   2   3
ATOM      3  C   UNL     1       3.813  -0.395  -1.493  1.00  0.00     0.312 C 
ATOM      4  O   UNL     1       4.960  -0.829  -1.457  1.00  0.00    -0.252 OA
BRANCH   3   5
ATOM      5  C   UNL     1       2.601  -1.212  -0.978  1.00  0.00     0.072 C 
ATOM      6  C   UNL     1       2.648  -2.539  -1.767  1.00  0.00     0.019 C 
ATOM      7  C   UNL     1       1.270  -0.487  -1.271  1.00  0.00     0.019 C 
ATOM      8  C   UNL     1       1.396  -3.412  -1.705  1.00  0.00     0.007 C 
ATOM      9  C   UNL     1       0.025  -1.353  -1.096  1.00  0.00     0.007 C 
ATOM     10  C   UNL     1       0.060  -2.670  -1.892  1.00  0.00    -0.035 C 
ATOM     11  C   UNL     1      -1.077  -3.578  -1.379  1.00  0.00     0.011 C 
ATOM     12  C   UNL     1      -0.179  -2.396  -3.388  1.00  0.00     0.011 C 
BRANCH   5  13
ATOM     13  C   UNL     1       2.910  -1.347   0.547  1.00  0.00     0.060 C 
BRANCH  13  14
ATOM     14  C   UNL     1       2.027  -2.102   1.502  1.00  0.00     0.015 A 
ATOM     15  C   UNL     1       1.167  -1.448   2.386  1.00  0.00     0.216 A 
ATOM     16  N   UNL     1       0.337  -2.068   3.252  1.00  0.00    -0.222 NA
ATOM     17  C   UNL     1       0.382  -3.418   3.263  1.00  0.00     0.115 A 
ATOM     18  C   UNL     1       2.088  -3.493   1.602  1.00  0.00     0.011 A 
ATOM     19  C   UNL     1       1.244  -4.167   2.478  1.00  0.00     0.021 A 
BRANCH  15  20
ATOM     20  O   UNL     1       1.290  -0.084   2.512  1.00  0.00    -0.481 OA
ATOM     21  C   UNL     1       0.079   0.587   2.197  1.00  0.00     0.280 C 
ENDBRANCH  15  20
ENDBRANCH  13  14
ENDBRANCH   5  13
ENDBRANCH   3   5
ENDBRANCH   2   3
ENDBRANCH   1   2
BRANCH   1  22
ATOM     22  C   UNL     1       4.795   2.836  -1.472  1.00  0.00     0.275 C 
BRANCH  22  23
ATOM     23  O   UNL     1       5.220   2.313  -0.203  1.00  0.00    -0.458 OA
BRANCH  23  24
ATOM     24  C   UNL     1       4.698   2.921   0.889  1.00  0.00     0.338 C 
ATOM     25  O   UNL     1       3.983   3.906   0.910  1.00  0.00    -0.246 OA
BRANCH  24  26
ATOM     26  C   UNL     1       5.097   2.184   2.108  1.00  0.00     0.060 A 
ATOM     27  C   UNL     1       5.119   0.792   2.115  1.00  0.00     0.016 A 
ATOM     28  C   UNL     1       5.326   2.882   3.293  1.00  0.00     0.016 A 
ATOM     29  C   UNL     1       5.206   0.098   3.321  1.00  0.00     0.010 A 
ATOM     30  C   UNL     1       5.557   2.179   4.482  1.00  0.00     0.010 A 
ATOM     31  C   UNL     1       5.441   0.777   4.526  1.00  0.00    -0.014 A 
BRANCH  31  32
ATOM     32  C   UNL     1       5.506   0.041   5.825  1.00  0.00     0.031 A 
ATOM     33  C   UNL     1       4.619   0.450   6.977  1.00  0.00     0.074 A 
ATOM     34  C   UNL     1       6.333  -1.012   5.992  1.00  0.00     0.049 A 
ATOM     35  N   UNL     1       4.676   0.095   8.238  1.00  0.00    -0.248 NA
ATOM     36  C   UNL     1       3.542   1.406   6.677  1.00  0.00     0.031 C 
ATOM     37  C   UNL     1       7.223  -1.568   4.973  1.00  0.00     0.029 A 
ATOM     38  N   UNL     1       6.543  -1.821   7.084  1.00  0.00    -0.354 N 
ATOM     39  C   UNL     1       3.705   0.848   8.890  1.00  0.00     0.074 A 
ATOM     40  C   UNL     1       3.067   1.671   7.885  1.00  0.00     0.031 C 
ATOM     41  C   UNL     1       7.819  -2.668   5.457  1.00  0.00     0.029 A 
ATOM     42  C   UNL     1       7.434  -2.840   6.854  1.00  0.00     0.049 A 
ATOM     43  H   UNL     1       6.095  -1.683   7.950  1.00  0.00     0.167 HD
ATOM     44  C   UNL     1       3.379   0.853  10.205  1.00  0.00     0.037 A 
ATOM     45  C   UNL     1       7.915  -3.791   7.677  1.00  0.00     0.037 A 
ATOM     46  C   UNL     1       3.938  -0.037  11.190  1.00  0.00     0.049 A 
ATOM     47  C   UNL     1       7.509  -3.795   9.123  1.00  0.00     0.074 A 
ATOM     48  C   UNL     1       3.676  -0.103  12.548  1.00  0.00     0.029 A 
ATOM     49  N   UNL     1       4.842  -1.050  10.910  1.00  0.00    -0.354 N 
ATOM     50  N   UNL     1       6.682  -2.998   9.751  1.00  0.00    -0.248 NA
ATOM     51  C   UNL     1       8.130  -4.816   9.980  1.00  0.00     0.031 C 
ATOM     52  C   UNL     1       4.428  -1.151  13.092  1.00  0.00     0.029 A 
ATOM     53  C   UNL     1       5.137  -1.754  12.066  1.00  0.00     0.049 A 
ATOM     54  H   UNL     1       5.219  -1.241  10.020  1.00  0.00     0.167 HD
ATOM     55  C   UNL     1       6.681  -3.417  11.073  1.00  0.00     0.074 A 
ATOM     56  C   UNL     1       7.569  -4.559  11.153  1.00  0.00     0.031 C 
ATOM     57  C   UNL     1       6.015  -2.892  12.130  1.00  0.00     0.037 A 
BRANCH  44  58
ATOM     58  C   UNL     1       2.388   1.880  10.669  1.00  0.00     0.064 A 
ATOM     59  C   UNL     1       1.018   1.769  10.400  1.00  0.00     0.173 A 
ATOM     60  C   UNL     1       2.822   2.980  11.428  1.00  0.00     0.173 A 
ATOM     61  F   UNL     1       0.554   0.744   9.670  1.00  0.00    -0.203 F 
ATOM     62  C   UNL     1       0.120   2.734  10.852  1.00  0.00     0.198 A 
ATOM     63  C   UNL     1       1.919   3.928  11.900  1.00  0.00     0.198 A 
ATOM     64  F   UNL     1       4.123   3.128  11.721  1.00  0.00    -0.203 F 
ATOM     65  F   UNL     1      -1.181   2.631  10.547  1.00  0.00    -0.200 F 
ATOM     66  C   UNL     1       0.570   3.808  11.605  1.00  0.00     0.200 A 
ATOM     67  F   UNL     1       2.354   4.958  12.639  1.00  0.00    -0.200 F 
ATOM     68  F   UNL     1      -0.297   4.731  12.044  1.00  0.00    -0.200 F 
ENDBRANCH  44  58
BRANCH  45  69
ATOM     69  C   UNL     1       8.855  -4.815   7.152  1.00  0.00     0.064 A 
ATOM     70  C   UNL     1       8.449  -6.149   7.006  1.00  0.00     0.173 A 
ATOM     71  C   UNL     1      10.164  -4.484   6.774  1.00  0.00     0.173 A 
ATOM     72  F   UNL     1       7.215  -6.517   7.381  1.00  0.00    -0.203 F 
ATOM     73  C   UNL     1       9.319  -7.114   6.505  1.00  0.00     0.198 A 
ATOM     74  C   UNL     1      11.024  -5.445   6.247  1.00  0.00     0.198 A 
ATOM     75  F   UNL     1      10.600  -3.223   6.897  1.00  0.00    -0.203 F 
ATOM     76  F   UNL     1       8.917  -8.389   6.407  1.00  0.00    -0.200 F 
ATOM     77  C   UNL     1      10.602  -6.760   6.117  1.00  0.00     0.200 A 
ATOM     78  F   UNL     1      12.259  -5.096   5.862  1.00  0.00    -0.200 F 
ATOM     79  F   UNL     1      11.435  -7.686   5.624  1.00  0.00    -0.200 F 
ENDBRANCH  45  69
BRANCH  57  80
ATOM     80  C   UNL     1       6.204  -3.566  13.455  1.00  0.00     0.064 A 
ATOM     81  C   UNL     1       7.380  -3.396  14.199  1.00  0.00     0.173 A 
ATOM     82  C   UNL     1       5.194  -4.377  13.991  1.00  0.00     0.173 A 
ATOM     83  F   UNL     1       8.380  -2.642  13.718  1.00  0.00    -0.203 F 
ATOM     84  C   UNL     1       7.548  -4.036  15.424  1.00  0.00     0.198 A 
ATOM     85  C   UNL     1       5.357  -5.000  15.225  1.00  0.00     0.198 A 
ATOM     86  F   UNL     1       4.051  -4.568  13.316  1.00  0.00    -0.203 F 
ATOM     87  F   UNL     1       8.697  -3.895  16.099  1.00  0.00    -0.200 F 
ATOM     88  C   UNL     1       6.536  -4.834  15.937  1.00  0.00     0.200 A 
ATOM     89  F   UNL     1       4.378  -5.768  15.722  1.00  0.00    -0.200 F 
ATOM     90  F   UNL     1       6.702  -5.453  17.114  1.00  0.00    -0.200 F 
ENDBRANCH  57  80
ENDBRANCH  31  32
ENDBRANCH  24  26
ENDBRANCH  23  24
ENDBRANCH  22  23
ENDBRANCH   1  22
TORSDOF 14
