REMARK SMILES CCc1nnsc1C(=O)N[C@](C)(CC)C(=O)OCCOC(=O)c1ccc(-c2c3nc(c(-c4c(F)c(F)c(F)c(F)c4F)c4ccc([nH]4)c(-c4c(F)c(F)c(F)c(F)c4F)c4nc(c(-c5c(F)c(F)c(F)c(F)c5F)c5ccc2[nH]5)C=C4)C=C3)cc1
REMARK SMILES IDX 18 1 17 2 15 3 16 4 11 5 12 6 10 7 8 8 9 9 7 11 3 12 4 13
REMARK SMILES IDX 5 14 6 15 2 16 1 17 13 18 14 19 19 20 20 21 21 22 22 23
REMARK SMILES IDX 23 24 24 25 85 26 25 27 84 28 26 29 27 30 28 31 78 32 29 33
REMARK SMILES IDX 83 34 77 35 79 36 30 37 82 38 76 39 75 40 31 42 63 43 43 44
REMARK SMILES IDX 62 45 44 46 47 47 61 48 80 49 45 50 46 51 60 53 81 54 48 55
REMARK SMILES IDX 32 56 33 57 41 58 34 59 35 60 39 61 42 62 36 63 37 64 40 65
REMARK SMILES IDX 38 66 64 67 65 68 73 69 66 70 67 71 71 72 74 73 68 74 69 75
REMARK SMILES IDX 72 76 70 77 49 78 50 79 58 80 51 81 52 82 56 83 59 84 53 85
REMARK SMILES IDX 54 86 57 87 55 88
REMARK H PARENT 10 10 79 41 47 52
REMARK Flexibility Score: inf
ROOT
ATOM      1  C   UNL     1       2.206  -0.732   2.366  1.00  0.00     0.274 C 
ENDROOT
BRANCH   1   2
ATOM      2  O   UNL     1       1.433  -0.493   1.169  1.00  0.00    -0.460 OA
BRANCH   2   3
ATOM      3  C   UNL     1       0.342  -1.298   1.061  1.00  0.00     0.331 C 
ATOM      4  O   UNL     1       0.077  -2.190   1.861  1.00  0.00    -0.249 OA
BRANCH   3   5
ATOM      5  C   UNL     1      -0.481  -1.022  -0.225  1.00  0.00     0.135 C 
ATOM      6  C   UNL     1      -0.600   0.417  -0.739  1.00  0.00     0.047 C 
BRANCH   5   7
ATOM      7  N   UNL     1      -1.857  -1.528  -0.008  1.00  0.00    -0.336 N 
ATOM      8  C   UNL     1      -2.860  -1.304   0.906  1.00  0.00     0.265 C 
ATOM      9  O   UNL     1      -3.941  -1.784   0.538  1.00  0.00    -0.268 OA
ATOM     10  H   UNL     1      -2.118  -2.190  -0.688  1.00  0.00     0.165 HD
BRANCH   8  11
ATOM     11  C   UNL     1      -2.723  -0.676   2.209  1.00  0.00     0.136 A 
ATOM     12  C   UNL     1      -2.123   0.429   2.817  1.00  0.00     0.088 A 
ATOM     13  N   UNL     1      -2.422   0.591   4.174  1.00  0.00    -0.142 NA
ATOM     14  N   UNL     1      -3.240  -0.332   4.627  1.00  0.00    -0.090 NA
ATOM     15  S   UNL     1      -3.676  -1.429   3.463  1.00  0.00    -0.006 S 
BRANCH  12  16
ATOM     16  C   UNL     1      -1.272   1.520   2.277  1.00  0.00     0.056 C 
ATOM     17  C   UNL     1      -2.063   2.592   1.547  1.00  0.00     0.011 C 
ENDBRANCH  12  16
ENDBRANCH   8  11
ENDBRANCH   5   7
BRANCH   5  18
ATOM     18  C   UNL     1       0.190  -1.875  -1.348  1.00  0.00     0.037 C 
ATOM     19  C   UNL     1       1.517  -1.324  -1.877  1.00  0.00     0.007 C 
ENDBRANCH   5  18
ENDBRANCH   3   5
ENDBRANCH   2   3
ENDBRANCH   1   2
BRANCH   1  20
ATOM     20  C   UNL     1       3.448   0.152   2.349  1.00  0.00     0.275 C 
BRANCH  20  21
ATOM     21  O   UNL     1       2.999   1.511   2.253  1.00  0.00    -0.458 OA
BRANCH  21  22
ATOM     22  C   UNL     1       3.812   2.360   1.590  1.00  0.00     0.338 C 
ATOM     23  O   UNL     1       4.963   2.157   1.231  1.00  0.00    -0.246 OA
BRANCH  22  24
ATOM     24  C   UNL     1       3.061   3.603   1.327  1.00  0.00     0.060 A 
ATOM     25  C   UNL     1       1.704   3.537   0.995  1.00  0.00     0.016 A 
ATOM     26  C   UNL     1       3.713   4.836   1.352  1.00  0.00     0.016 A 
ATOM     27  C   UNL     1       1.001   4.697   0.685  1.00  0.00     0.010 A 
ATOM     28  C   UNL     1       2.989   6.006   1.094  1.00  0.00     0.010 A 
ATOM     29  C   UNL     1       1.625   5.946   0.753  1.00  0.00    -0.014 A 
BRANCH  29  30
ATOM     30  C   UNL     1       0.875   7.170   0.370  1.00  0.00     0.031 A 
ATOM     31  C   UNL     1       1.325   7.956  -0.826  1.00  0.00     0.074 A 
ATOM     32  C   UNL     1      -0.233   7.556   1.034  1.00  0.00     0.049 A 
ATOM     33  N   UNL     1       1.003   9.168  -1.194  1.00  0.00    -0.248 NA
ATOM     34  C   UNL     1       2.272   7.281  -1.727  1.00  0.00     0.031 C 
ATOM     35  C   UNL     1      -0.864   6.828   2.135  1.00  0.00     0.029 A 
ATOM     36  N   UNL     1      -1.036   8.658   0.864  1.00  0.00    -0.354 N 
ATOM     37  C   UNL     1       1.769   9.432  -2.321  1.00  0.00     0.074 A 
ATOM     38  C   UNL     1       2.545   8.242  -2.598  1.00  0.00     0.031 C 
ATOM     39  C   UNL     1      -1.974   7.480   2.514  1.00  0.00     0.029 A 
ATOM     40  C   UNL     1      -2.076   8.725   1.759  1.00  0.00     0.049 A 
ATOM     41  H   UNL     1      -0.880   9.335   0.167  1.00  0.00     0.167 HD
ATOM     42  C   UNL     1       1.831  10.577  -3.040  1.00  0.00     0.037 A 
ATOM     43  C   UNL     1      -2.973   9.706   1.983  1.00  0.00     0.037 A 
ATOM     44  C   UNL     1       1.010  11.731  -2.789  1.00  0.00     0.049 A 
ATOM     45  C   UNL     1      -2.860  10.989   1.201  1.00  0.00     0.074 A 
ATOM     46  C   UNL     1       1.026  12.961  -3.421  1.00  0.00     0.029 A 
ATOM     47  N   UNL     1      -0.001  11.780  -1.840  1.00  0.00    -0.354 N 
ATOM     48  N   UNL     1      -2.030  11.300   0.235  1.00  0.00    -0.248 NA
ATOM     49  C   UNL     1      -3.781  12.074   1.572  1.00  0.00     0.031 C 
ATOM     50  C   UNL     1       0.037  13.764  -2.839  1.00  0.00     0.029 A 
ATOM     51  C   UNL     1      -0.617  13.020  -1.869  1.00  0.00     0.049 A 
ATOM     52  H   UNL     1      -0.244  11.043  -1.235  1.00  0.00     0.167 HD
ATOM     53  C   UNL     1      -2.323  12.612  -0.113  1.00  0.00     0.074 A 
ATOM     54  C   UNL     1      -3.430  13.029   0.723  1.00  0.00     0.031 C 
ATOM     55  C   UNL     1      -1.720  13.408  -1.029  1.00  0.00     0.037 A 
BRANCH  42  56
ATOM     56  C   UNL     1       2.875  10.656  -4.111  1.00  0.00     0.064 A 
ATOM     57  C   UNL     1       2.750   9.976  -5.330  1.00  0.00     0.173 A 
ATOM     58  C   UNL     1       4.030  11.427  -3.903  1.00  0.00     0.173 A 
ATOM     59  F   UNL     1       1.678   9.205  -5.566  1.00  0.00    -0.203 F 
ATOM     60  C   UNL     1       3.755  10.045  -6.292  1.00  0.00     0.198 A 
ATOM     61  C   UNL     1       5.020  11.514  -4.876  1.00  0.00     0.198 A 
ATOM     62  F   UNL     1       4.198  12.094  -2.751  1.00  0.00    -0.203 F 
ATOM     63  F   UNL     1       3.640   9.345  -7.429  1.00  0.00    -0.200 F 
ATOM     64  C   UNL     1       4.886  10.816  -6.067  1.00  0.00     0.200 A 
ATOM     65  F   UNL     1       6.109  12.264  -4.657  1.00  0.00    -0.200 F 
ATOM     66  F   UNL     1       5.854  10.878  -6.992  1.00  0.00    -0.200 F 
ENDBRANCH  42  56
BRANCH  43  67
ATOM     67  C   UNL     1      -4.003   9.553   3.045  1.00  0.00     0.064 A 
ATOM     68  C   UNL     1      -5.367   9.488   2.727  1.00  0.00     0.173 A 
ATOM     69  C   UNL     1      -3.650   9.491   4.402  1.00  0.00     0.173 A 
ATOM     70  F   UNL     1      -5.760   9.579   1.447  1.00  0.00    -0.203 F 
ATOM     71  C   UNL     1      -6.335   9.373   3.723  1.00  0.00     0.198 A 
ATOM     72  C   UNL     1      -4.616   9.343   5.395  1.00  0.00     0.198 A 
ATOM     73  F   UNL     1      -2.360   9.563   4.764  1.00  0.00    -0.203 F 
ATOM     74  F   UNL     1      -7.634   9.359   3.393  1.00  0.00    -0.200 F 
ATOM     75  C   UNL     1      -5.959   9.291   5.055  1.00  0.00     0.200 A 
ATOM     76  F   UNL     1      -4.245   9.255   6.679  1.00  0.00    -0.200 F 
ATOM     77  F   UNL     1      -6.889   9.175   6.012  1.00  0.00    -0.200 F 
ENDBRANCH  43  67
BRANCH  55  78
ATOM     78  C   UNL     1      -2.255  14.799  -1.183  1.00  0.00     0.064 A 
ATOM     79  C   UNL     1      -1.980  15.795  -0.235  1.00  0.00     0.173 A 
ATOM     80  C   UNL     1      -3.015  15.148  -2.308  1.00  0.00     0.173 A 
ATOM     81  F   UNL     1      -1.270  15.503   0.865  1.00  0.00    -0.203 F 
ATOM     82  C   UNL     1      -2.465  17.090  -0.401  1.00  0.00     0.198 A 
ATOM     83  C   UNL     1      -3.479  16.449  -2.481  1.00  0.00     0.198 A 
ATOM     84  F   UNL     1      -3.300  14.230  -3.244  1.00  0.00    -0.203 F 
ATOM     85  F   UNL     1      -2.222  18.018   0.535  1.00  0.00    -0.200 F 
ATOM     86  C   UNL     1      -3.208  17.417  -1.525  1.00  0.00     0.200 A 
ATOM     87  F   UNL     1      -4.190  16.766  -3.572  1.00  0.00    -0.200 F 
ATOM     88  F   UNL     1      -3.670  18.665  -1.685  1.00  0.00    -0.200 F 
ENDBRANCH  55  78
ENDBRANCH  29  30
ENDBRANCH  22  24
ENDBRANCH  21  22
ENDBRANCH  20  21
ENDBRANCH   1  20
TORSDOF 15
