REMARK SMILES C[C@H](NC(=O)OCc1ccccc1)C(=O)NCC(=O)N1CCC[C@H]1C(=O)OCCOC(=O)c1ccc(-c2c3nc(c(-c4c(F)c(F)c(F)c(F)c4F)c4ccc([nH]4)c(-c4c(F)c(F)c(F)c(F)c4F)c4nc(c(-c5c(F)c(F)c(F)c(F)c5F)c5ccc2[nH]5)C=C4)C=C3)cc1
REMARK SMILES IDX 20 1 21 2 22 3 23 4 24 5 18 6 19 7 17 8 16 9 14 10 15 11
REMARK SMILES IDX 2 13 1 14 3 15 4 16 5 18 6 19 7 20 8 21 9 22 13 23 10 24
REMARK SMILES IDX 12 25 11 26 25 27 26 28 27 29 28 30 29 31 30 32 31 33 32 34
REMARK SMILES IDX 33 35 34 36 95 37 35 38 94 39 36 40 37 41 38 42 88 43 39 44
REMARK SMILES IDX 93 45 87 46 89 47 40 48 92 49 86 50 85 51 41 53 73 54 53 55
REMARK SMILES IDX 72 56 54 57 57 58 71 59 90 60 55 61 56 62 70 64 91 65 58 66
REMARK SMILES IDX 42 67 43 68 51 69 44 70 45 71 49 72 52 73 46 74 47 75 50 76
REMARK SMILES IDX 48 77 74 78 75 79 83 80 76 81 77 82 81 83 84 84 78 85 79 86
REMARK SMILES IDX 82 87 80 88 59 89 60 90 68 91 61 92 62 93 66 94 69 95 63 96
REMARK SMILES IDX 64 97 67 98 65 99
REMARK H PARENT 16 12 3 17 89 52 57 63
REMARK Flexibility Score: inf
ROOT
ATOM      1  N   UNL     1      -1.358   2.003   1.159  1.00  0.00    -0.327 N 
ATOM      2  C   UNL     1      -1.590   2.255  -0.240  1.00  0.00     0.120 C 
ATOM      3  C   UNL     1      -0.335   2.998  -0.653  1.00  0.00     0.024 C 
ATOM      4  C   UNL     1       0.010   3.839   0.572  1.00  0.00     0.039 C 
ATOM      5  C   UNL     1      -0.550   3.058   1.776  1.00  0.00     0.195 C 
ENDROOT
BRANCH   1   6
ATOM      6  C   UNL     1      -1.954   0.952   1.813  1.00  0.00     0.242 C 
ATOM      7  O   UNL     1      -3.152   0.966   2.085  1.00  0.00    -0.273 OA
BRANCH   6   8
ATOM      8  C   UNL     1      -1.172  -0.370   1.818  1.00  0.00     0.216 C 
BRANCH   8   9
ATOM      9  N   UNL     1      -1.638  -1.106   0.642  1.00  0.00    -0.345 N 
ATOM     10  C   UNL     1      -1.011  -1.599  -0.463  1.00  0.00     0.242 C 
ATOM     11  O   UNL     1      -1.724  -2.055  -1.362  1.00  0.00    -0.273 OA
ATOM     12  H   UNL     1      -2.607  -1.283   0.652  1.00  0.00     0.164 HD
BRANCH  10  13
ATOM     13  C   UNL     1       0.516  -1.769  -0.517  1.00  0.00     0.171 C 
ATOM     14  C   UNL     1       0.876  -2.996   0.320  1.00  0.00     0.042 C 
BRANCH  13  15
ATOM     15  N   UNL     1       1.178  -0.555  -0.071  1.00  0.00    -0.310 N 
ATOM     16  C   UNL     1       2.500  -0.356   0.139  1.00  0.00     0.408 C 
ATOM     17  H   UNL     1       0.593   0.218   0.099  1.00  0.00     0.167 HD
ATOM     18  O   UNL     1       2.886   0.651   0.720  1.00  0.00    -0.225 OA
BRANCH  16  19
ATOM     19  O   UNL     1       3.275  -1.326  -0.389  1.00  0.00    -0.445 OA
BRANCH  19  20
ATOM     20  C   UNL     1       4.686  -1.169  -0.196  1.00  0.00     0.270 C 
BRANCH  20  21
ATOM     21  C   UNL     1       5.366  -0.341  -1.266  1.00  0.00    -0.011 A 
ATOM     22  C   UNL     1       6.713  -0.593  -1.568  1.00  0.00     0.007 A 
ATOM     23  C   UNL     1       4.736   0.739  -1.903  1.00  0.00     0.007 A 
ATOM     24  C   UNL     1       7.403   0.209  -2.480  1.00  0.00     0.000 A 
ATOM     25  C   UNL     1       5.426   1.544  -2.810  1.00  0.00     0.000 A 
ATOM     26  C   UNL     1       6.761   1.280  -3.096  1.00  0.00     0.000 A 
ENDBRANCH  20  21
ENDBRANCH  19  20
ENDBRANCH  16  19
ENDBRANCH  13  15
ENDBRANCH  10  13
ENDBRANCH   8   9
ENDBRANCH   6   8
ENDBRANCH   1   6
BRANCH   5  27
ATOM     27  C   UNL     1      -1.247   4.115   2.650  1.00  0.00     0.328 C 
ATOM     28  O   UNL     1      -0.640   4.726   3.525  1.00  0.00    -0.250 OA
BRANCH  27  29
ATOM     29  O   UNL     1      -2.515   4.400   2.244  1.00  0.00    -0.461 OA
BRANCH  29  30
ATOM     30  C   UNL     1      -3.187   5.441   2.988  1.00  0.00     0.274 C 
BRANCH  30  31
ATOM     31  C   UNL     1      -4.179   4.826   3.966  1.00  0.00     0.275 C 
BRANCH  31  32
ATOM     32  O   UNL     1      -3.495   3.820   4.731  1.00  0.00    -0.458 OA
BRANCH  32  33
ATOM     33  C   UNL     1      -4.024   2.578   4.637  1.00  0.00     0.338 C 
ATOM     34  O   UNL     1      -5.102   2.274   4.155  1.00  0.00    -0.246 OA
BRANCH  33  35
ATOM     35  C   UNL     1      -3.121   1.597   5.276  1.00  0.00     0.060 A 
ATOM     36  C   UNL     1      -1.740   1.601   5.061  1.00  0.00     0.016 A 
ATOM     37  C   UNL     1      -3.697   0.591   6.046  1.00  0.00     0.016 A 
ATOM     38  C   UNL     1      -0.951   0.555   5.542  1.00  0.00     0.010 A 
ATOM     39  C   UNL     1      -2.890  -0.392   6.622  1.00  0.00     0.010 A 
ATOM     40  C   UNL     1      -1.511  -0.438   6.357  1.00  0.00    -0.014 A 
BRANCH  40  41
ATOM     41  C   UNL     1      -0.668  -1.501   6.971  1.00  0.00     0.031 A 
ATOM     42  C   UNL     1      -0.976  -2.958   6.737  1.00  0.00     0.074 A 
ATOM     43  C   UNL     1       0.344  -1.158   7.794  1.00  0.00     0.049 A 
ATOM     44  N   UNL     1      -0.470  -4.015   7.322  1.00  0.00    -0.248 NA
ATOM     45  C   UNL     1      -1.996  -3.269   5.722  1.00  0.00     0.031 C 
ATOM     46  C   UNL     1       0.756   0.212   8.106  1.00  0.00     0.029 A 
ATOM     47  N   UNL     1       1.200  -1.935   8.536  1.00  0.00    -0.354 N 
ATOM     48  C   UNL     1      -1.141  -5.107   6.787  1.00  0.00     0.074 A 
ATOM     49  C   UNL     1      -2.094  -4.588   5.829  1.00  0.00     0.031 C 
ATOM     50  C   UNL     1       1.789   0.180   8.960  1.00  0.00     0.029 A 
ATOM     51  C   UNL     1       2.058  -1.205   9.324  1.00  0.00     0.049 A 
ATOM     52  H   UNL     1       1.199  -2.919   8.507  1.00  0.00     0.167 HD
ATOM     53  C   UNL     1      -0.979  -6.421   7.076  1.00  0.00     0.037 A 
ATOM     54  C   UNL     1       2.927  -1.595  10.275  1.00  0.00     0.037 A 
ATOM     55  C   UNL     1      -0.001  -6.939   8.000  1.00  0.00     0.049 A 
ATOM     56  C   UNL     1       3.064  -3.058  10.591  1.00  0.00     0.074 A 
ATOM     57  C   UNL     1       0.284  -8.261   8.300  1.00  0.00     0.029 A 
ATOM     58  N   UNL     1       0.845  -6.164   8.778  1.00  0.00    -0.354 N 
ATOM     59  N   UNL     1       2.446  -4.082  10.055  1.00  0.00    -0.248 NA
ATOM     60  C   UNL     1       4.016  -3.419  11.650  1.00  0.00     0.031 C 
ATOM     61  C   UNL     1       1.258  -8.284   9.303  1.00  0.00     0.029 A 
ATOM     62  C   UNL     1       1.627  -6.979   9.583  1.00  0.00     0.049 A 
ATOM     63  H   UNL     1       0.885  -5.180   8.762  1.00  0.00     0.167 HD
ATOM     64  C   UNL     1       2.950  -5.207  10.694  1.00  0.00     0.074 A 
ATOM     65  C   UNL     1       3.942  -4.741  11.639  1.00  0.00     0.031 C 
ATOM     66  C   UNL     1       2.616  -6.508  10.518  1.00  0.00     0.037 A 
BRANCH  53  67
ATOM     67  C   UNL     1      -1.892  -7.413   6.413  1.00  0.00     0.064 A 
ATOM     68  C   UNL     1      -1.771  -7.745   5.056  1.00  0.00     0.173 A 
ATOM     69  C   UNL     1      -2.841  -8.112   7.178  1.00  0.00     0.173 A 
ATOM     70  F   UNL     1      -0.886  -7.103   4.280  1.00  0.00    -0.203 F 
ATOM     71  C   UNL     1      -2.573  -8.733   4.488  1.00  0.00     0.198 A 
ATOM     72  C   UNL     1      -3.619  -9.118   6.613  1.00  0.00     0.198 A 
ATOM     73  F   UNL     1      -2.990  -7.839   8.483  1.00  0.00    -0.203 F 
ATOM     74  F   UNL     1      -2.457  -9.018   3.183  1.00  0.00    -0.200 F 
ATOM     75  C   UNL     1      -3.487  -9.426   5.268  1.00  0.00     0.200 A 
ATOM     76  F   UNL     1      -4.488  -9.798   7.374  1.00  0.00    -0.200 F 
ATOM     77  F   UNL     1      -4.239 -10.393   4.724  1.00  0.00    -0.200 F 
ENDBRANCH  53  67
BRANCH  54  78
ATOM     78  C   UNL     1       3.708  -0.581  11.033  1.00  0.00     0.064 A 
ATOM     79  C   UNL     1       5.102  -0.505  10.916  1.00  0.00     0.173 A 
ATOM     80  C   UNL     1       3.078   0.316  11.910  1.00  0.00     0.173 A 
ATOM     81  F   UNL     1       5.753  -1.356  10.108  1.00  0.00    -0.203 F 
ATOM     82  C   UNL     1       5.839   0.407  11.668  1.00  0.00     0.198 A 
ATOM     83  C   UNL     1       3.812   1.253  12.632  1.00  0.00     0.198 A 
ATOM     84  F   UNL     1       1.745   0.288  12.058  1.00  0.00    -0.203 F 
ATOM     85  F   UNL     1       7.176   0.414  11.584  1.00  0.00    -0.200 F 
ATOM     86  C   UNL     1       5.193   1.289  12.521  1.00  0.00     0.200 A 
ATOM     87  F   UNL     1       3.182   2.116  13.441  1.00  0.00    -0.200 F 
ATOM     88  F   UNL     1       5.903   2.166  13.244  1.00  0.00    -0.200 F 
ENDBRANCH  54  78
BRANCH  66  89
ATOM     89  C   UNL     1       3.361  -7.524  11.336  1.00  0.00     0.064 A 
ATOM     90  C   UNL     1       3.172  -7.639  12.722  1.00  0.00     0.173 A 
ATOM     91  C   UNL     1       4.271  -8.399  10.723  1.00  0.00     0.173 A 
ATOM     92  F   UNL     1       2.327  -6.814  13.359  1.00  0.00    -0.203 F 
ATOM     93  C   UNL     1       3.892  -8.568  13.468  1.00  0.00     0.198 A 
ATOM     94  C   UNL     1       4.963  -9.351  11.467  1.00  0.00     0.198 A 
ATOM     95  F   UNL     1       4.485  -8.336   9.401  1.00  0.00    -0.203 F 
ATOM     96  F   UNL     1       3.742  -8.617  14.799  1.00  0.00    -0.200 F 
ATOM     97  C   UNL     1       4.782  -9.427  12.840  1.00  0.00     0.200 A 
ATOM     98  F   UNL     1       5.811 -10.189  10.856  1.00  0.00    -0.200 F 
ATOM     99  F   UNL     1       5.474 -10.321  13.559  1.00  0.00    -0.200 F 
ENDBRANCH  66  89
ENDBRANCH  40  41
ENDBRANCH  33  35
ENDBRANCH  32  33
ENDBRANCH  31  32
ENDBRANCH  30  31
ENDBRANCH  29  30
ENDBRANCH  27  29
ENDBRANCH   5  27
TORSDOF 19
