REMARK SMILES O=C(OCCOC(=O)c1ccc(COc2cccc(C(F)(F)F)c2)nc1)c1ccc(-c2c3nc(c(-c4c(F)c(F)c(F)c(F)c4F)c4ccc([nH]4)c(-c4c(F)c(F)c(F)c(F)c4F)c4nc(c(-c5c(F)c(F)c(F)c(F)c5F)c5ccc2[nH]5)C=C4)C=C3)cc1
REMARK SMILES IDX 5 1 4 2 3 3 2 4 1 5 27 6 28 7 89 8 29 9 88 10 30 11 31 12
REMARK SMILES IDX 32 13 82 14 33 15 87 16 81 17 83 18 34 19 86 20 80 21 79 22
REMARK SMILES IDX 35 24 67 25 47 26 66 27 48 28 51 29 65 30 84 31 49 32 50 33
REMARK SMILES IDX 64 35 85 36 52 37 36 38 37 39 45 40 38 41 39 42 43 43 46 44
REMARK SMILES IDX 40 45 41 46 44 47 42 48 68 49 69 50 77 51 70 52 71 53 75 54
REMARK SMILES IDX 78 55 72 56 73 57 76 58 74 59 53 60 54 61 62 62 55 63 56 64
REMARK SMILES IDX 60 65 63 66 57 67 58 68 61 69 59 70 6 71 7 72 8 73 9 74
REMARK SMILES IDX 10 75 26 76 11 77 25 78 12 79 13 80 14 81 15 82 16 83 24 84
REMARK SMILES IDX 17 85 19 86 18 87 20 88 21 89 22 90 23 91
REMARK H PARENT 83 23 51 34
REMARK Flexibility Score: inf
ROOT
ATOM      1  C   UNL     1       4.087   0.881  -2.029  1.00  0.00     0.275 C 
ENDROOT
BRANCH   1   2
ATOM      2  C   UNL     1       4.196  -0.541  -1.474  1.00  0.00     0.275 C 
BRANCH   2   3
ATOM      3  O   UNL     1       3.088  -0.959  -0.652  1.00  0.00    -0.458 OA
BRANCH   3   4
ATOM      4  C   UNL     1       2.912  -0.882   0.688  1.00  0.00     0.338 C 
ATOM      5  O   UNL     1       2.017  -1.543   1.212  1.00  0.00    -0.246 OA
BRANCH   4   6
ATOM      6  C   UNL     1       3.643   0.088   1.559  1.00  0.00     0.060 A 
ATOM      7  C   UNL     1       4.974   0.476   1.409  1.00  0.00     0.016 A 
ATOM      8  C   UNL     1       2.916   0.630   2.638  1.00  0.00     0.016 A 
ATOM      9  C   UNL     1       5.550   1.415   2.270  1.00  0.00     0.010 A 
ATOM     10  C   UNL     1       3.478   1.584   3.492  1.00  0.00     0.010 A 
ATOM     11  C   UNL     1       4.812   1.965   3.321  1.00  0.00    -0.014 A 
BRANCH  11  12
ATOM     12  C   UNL     1       5.516   2.772   4.341  1.00  0.00     0.031 A 
ATOM     13  C   UNL     1       5.944   2.087   5.605  1.00  0.00     0.074 A 
ATOM     14  C   UNL     1       5.853   4.052   4.106  1.00  0.00     0.049 A 
ATOM     15  N   UNL     1       6.722   2.526   6.559  1.00  0.00    -0.248 NA
ATOM     16  C   UNL     1       5.460   0.711   5.805  1.00  0.00     0.031 C 
ATOM     17  C   UNL     1       5.544   4.791   2.886  1.00  0.00     0.029 A 
ATOM     18  N   UNL     1       6.540   4.956   4.875  1.00  0.00    -0.354 N 
ATOM     19  C   UNL     1       6.856   1.466   7.444  1.00  0.00     0.074 A 
ATOM     20  C   UNL     1       6.024   0.389   6.957  1.00  0.00     0.031 C 
ATOM     21  C   UNL     1       6.006   6.048   2.997  1.00  0.00     0.029 A 
ATOM     22  C   UNL     1       6.671   6.191   4.289  1.00  0.00     0.049 A 
ATOM     23  H   UNL     1       6.904   4.739   5.763  1.00  0.00     0.167 HD
ATOM     24  C   UNL     1       7.635   1.386   8.546  1.00  0.00     0.037 A 
ATOM     25  C   UNL     1       7.284   7.303   4.739  1.00  0.00     0.037 A 
ATOM     26  C   UNL     1       8.429   2.474   9.043  1.00  0.00     0.049 A 
ATOM     27  C   UNL     1       8.050   7.225   6.033  1.00  0.00     0.074 A 
ATOM     28  C   UNL     1       9.243   2.515  10.159  1.00  0.00     0.029 A 
ATOM     29  N   UNL     1       8.487   3.730   8.454  1.00  0.00    -0.354 N 
ATOM     30  N   UNL     1       8.232   6.195   6.824  1.00  0.00    -0.248 NA
ATOM     31  C   UNL     1       8.727   8.451   6.477  1.00  0.00     0.031 C 
ATOM     32  C   UNL     1       9.756   3.812  10.273  1.00  0.00     0.029 A 
ATOM     33  C   UNL     1       9.301   4.564   9.200  1.00  0.00     0.049 A 
ATOM     34  H   UNL     1       8.018   3.989   7.628  1.00  0.00     0.167 HD
ATOM     35  C   UNL     1       9.085   6.630   7.829  1.00  0.00     0.074 A 
ATOM     36  C   UNL     1       9.381   8.021   7.547  1.00  0.00     0.031 C 
ATOM     37  C   UNL     1       9.589   5.941   8.882  1.00  0.00     0.037 A 
BRANCH  24  38
ATOM     38  C   UNL     1       7.630   0.079   9.281  1.00  0.00     0.064 A 
ATOM     39  C   UNL     1       8.241  -1.065   8.742  1.00  0.00     0.173 A 
ATOM     40  C   UNL     1       6.973  -0.044  10.512  1.00  0.00     0.173 A 
ATOM     41  F   UNL     1       8.860  -1.004   7.554  1.00  0.00    -0.203 F 
ATOM     42  C   UNL     1       8.163  -2.292   9.395  1.00  0.00     0.198 A 
ATOM     43  C   UNL     1       6.918  -1.268  11.174  1.00  0.00     0.198 A 
ATOM     44  F   UNL     1       6.368   1.018  11.065  1.00  0.00    -0.203 F 
ATOM     45  F   UNL     1       8.700  -3.384   8.833  1.00  0.00    -0.200 F 
ATOM     46  C   UNL     1       7.503  -2.392  10.611  1.00  0.00     0.200 A 
ATOM     47  F   UNL     1       6.282  -1.363  12.350  1.00  0.00    -0.200 F 
ATOM     48  F   UNL     1       7.418  -3.576  11.232  1.00  0.00    -0.200 F 
ENDBRANCH  24  38
BRANCH  25  49
ATOM     49  C   UNL     1       7.242   8.558   3.943  1.00  0.00     0.064 A 
ATOM     50  C   UNL     1       8.392   9.067   3.322  1.00  0.00     0.173 A 
ATOM     51  C   UNL     1       6.051   9.284   3.800  1.00  0.00     0.173 A 
ATOM     52  F   UNL     1       9.559   8.417   3.439  1.00  0.00    -0.203 F 
ATOM     53  C   UNL     1       8.357  10.266   2.612  1.00  0.00     0.198 A 
ATOM     54  C   UNL     1       6.012  10.472   3.071  1.00  0.00     0.198 A 
ATOM     55  F   UNL     1       4.920   8.837   4.365  1.00  0.00    -0.203 F 
ATOM     56  F   UNL     1       9.480  10.751   2.065  1.00  0.00    -0.200 F 
ATOM     57  C   UNL     1       7.167  10.967   2.485  1.00  0.00     0.200 A 
ATOM     58  F   UNL     1       4.857  11.138   2.940  1.00  0.00    -0.200 F 
ATOM     59  F   UNL     1       7.134  12.120   1.803  1.00  0.00    -0.200 F 
ENDBRANCH  25  49
BRANCH  37  60
ATOM     60  C   UNL     1      10.551   6.666   9.775  1.00  0.00     0.064 A 
ATOM     61  C   UNL     1      10.124   7.666  10.660  1.00  0.00     0.173 A 
ATOM     62  C   UNL     1      11.911   6.322   9.773  1.00  0.00     0.173 A 
ATOM     63  F   UNL     1       8.836   8.039  10.686  1.00  0.00    -0.203 F 
ATOM     64  C   UNL     1      11.031   8.315  11.493  1.00  0.00     0.198 A 
ATOM     65  C   UNL     1      12.809   6.951  10.628  1.00  0.00     0.198 A 
ATOM     66  F   UNL     1      12.366   5.367   8.948  1.00  0.00    -0.203 F 
ATOM     67  F   UNL     1      10.611   9.301  12.297  1.00  0.00    -0.200 F 
ATOM     68  C   UNL     1      12.370   7.952  11.482  1.00  0.00     0.200 A 
ATOM     69  F   UNL     1      14.100   6.591  10.626  1.00  0.00    -0.200 F 
ATOM     70  F   UNL     1      13.240   8.573  12.291  1.00  0.00    -0.200 F 
ENDBRANCH  37  60
ENDBRANCH  11  12
ENDBRANCH   4   6
ENDBRANCH   3   4
ENDBRANCH   2   3
ENDBRANCH   1   2
BRANCH   1  71
ATOM     71  O   UNL     1       3.681   1.839  -1.043  1.00  0.00    -0.458 OA
BRANCH  71  72
ATOM     72  C   UNL     1       2.339   2.032  -0.982  1.00  0.00     0.339 C 
ATOM     73  O   UNL     1       1.493   1.530  -1.704  1.00  0.00    -0.246 OA
BRANCH  72  74
ATOM     74  C   UNL     1       2.003   2.840   0.193  1.00  0.00     0.078 A 
ATOM     75  C   UNL     1       2.689   3.998   0.550  1.00  0.00     0.019 A 
ATOM     76  C   UNL     1       0.925   2.440   0.965  1.00  0.00     0.127 A 
ATOM     77  C   UNL     1       2.225   4.749   1.632  1.00  0.00     0.028 A 
ATOM     78  N   UNL     1       0.487   3.125   2.047  1.00  0.00    -0.257 NA
ATOM     79  C   UNL     1       1.097   4.307   2.329  1.00  0.00     0.078 A 
BRANCH  79  80
ATOM     80  C   UNL     1       0.353   5.258   3.248  1.00  0.00     0.285 C 
BRANCH  80  81
ATOM     81  O   UNL     1      -1.029   5.477   2.873  1.00  0.00    -0.487 OA
BRANCH  81  82
ATOM     82  C   UNL     1      -1.219   6.197   1.724  1.00  0.00     0.120 A 
ATOM     83  C   UNL     1      -1.982   7.356   1.796  1.00  0.00     0.046 A 
ATOM     84  C   UNL     1      -0.788   5.753   0.474  1.00  0.00     0.059 A 
ATOM     85  C   UNL     1      -2.240   8.094   0.636  1.00  0.00     0.004 A 
ATOM     86  C   UNL     1      -0.965   6.515  -0.686  1.00  0.00     0.059 A 
ATOM     87  C   UNL     1      -1.716   7.689  -0.596  1.00  0.00     0.013 A 
BRANCH  86  88
ATOM     88  C   UNL     1      -0.362   6.051  -1.988  1.00  0.00     0.416 C 
ATOM     89  F   UNL     1      -1.277   5.520  -2.841  1.00  0.00    -0.166 F 
ATOM     90  F   UNL     1       0.249   7.062  -2.668  1.00  0.00    -0.166 F 
ATOM     91  F   UNL     1       0.602   5.097  -1.827  1.00  0.00    -0.166 F 
ENDBRANCH  86  88
ENDBRANCH  81  82
ENDBRANCH  80  81
ENDBRANCH  79  80
ENDBRANCH  72  74
ENDBRANCH  71  72
ENDBRANCH   1  71
TORSDOF 15
