REMARK SMILES O=C(OCCOC(=O)[C@@H](CCOCCO)c1cccc(F)c1)c1ccc(-c2c3nc(c(-c4c(F)c(F)c(F)c(F)c4F)c4ccc([nH]4)c(-c4c(F)c(F)c(F)c(F)c4F)c4nc(c(-c5c(F)c(F)c(F)c(F)c5F)c5ccc2[nH]5)C=C4)C=C3)cc1
REMARK SMILES IDX 7 1 8 2 6 3 5 4 4 5 3 6 2 7 1 8 23 9 24 10 85 11 25 12 84 13
REMARK SMILES IDX 26 14 27 15 28 16 78 17 29 18 83 19 77 20 79 21 30 22 82 23
REMARK SMILES IDX 76 24 75 25 31 27 63 28 43 29 62 30 44 31 47 32 61 33 80 34
REMARK SMILES IDX 45 35 46 36 60 38 81 39 48 40 32 41 33 42 41 43 34 44 35 45
REMARK SMILES IDX 39 46 42 47 36 48 37 49 40 50 38 51 64 52 65 53 73 54 66 55
REMARK SMILES IDX 67 56 71 57 74 58 68 59 69 60 72 61 70 62 49 63 50 64 58 65
REMARK SMILES IDX 51 66 52 67 56 68 59 69 53 70 54 71 57 72 55 73 9 74 10 75
REMARK SMILES IDX 11 76 12 77 13 78 14 79 15 80 16 82 17 83 22 84 18 85 20 86
REMARK SMILES IDX 19 87 21 88
REMARK H PARENT 79 26 47 37 15 81
REMARK Flexibility Score: inf
ROOT
ATOM      1  C   UNL     1       2.179   3.082  -0.683  1.00  0.00     0.313 C 
ATOM      2  O   UNL     1       2.309   3.719  -1.716  1.00  0.00    -0.252 OA
ENDROOT
BRANCH   1   3
ATOM      3  O   UNL     1       2.326   1.711  -0.599  1.00  0.00    -0.462 OA
BRANCH   3   4
ATOM      4  C   UNL     1       3.002   1.034  -1.683  1.00  0.00     0.274 C 
BRANCH   4   5
ATOM      5  C   UNL     1       3.900  -0.122  -1.176  1.00  0.00     0.275 C 
BRANCH   5   6
ATOM      6  O   UNL     1       3.184  -1.206  -0.537  1.00  0.00    -0.458 OA
BRANCH   6   7
ATOM      7  C   UNL     1       2.754  -1.257   0.748  1.00  0.00     0.338 C 
ATOM      8  O   UNL     1       1.636  -1.704   0.991  1.00  0.00    -0.246 OA
BRANCH   7   9
ATOM      9  C   UNL     1       3.607  -0.824   1.907  1.00  0.00     0.060 A 
ATOM     10  C   UNL     1       5.000  -0.699   1.888  1.00  0.00     0.016 A 
ATOM     11  C   UNL     1       2.936  -0.506   3.107  1.00  0.00     0.016 A 
ATOM     12  C   UNL     1       5.672  -0.084   2.971  1.00  0.00     0.010 A 
ATOM     13  C   UNL     1       3.599   0.100   4.188  1.00  0.00     0.010 A 
ATOM     14  C   UNL     1       4.965   0.391   4.101  1.00  0.00    -0.014 A 
BRANCH  14  15
ATOM     15  C   UNL     1       5.680   1.093   5.210  1.00  0.00     0.031 A 
ATOM     16  C   UNL     1       6.338   0.230   6.227  1.00  0.00     0.074 A 
ATOM     17  C   UNL     1       5.746   2.436   5.359  1.00  0.00     0.049 A 
ATOM     18  N   UNL     1       7.104   0.564   7.227  1.00  0.00    -0.248 NA
ATOM     19  C   UNL     1       6.031  -1.204   6.131  1.00  0.00     0.031 C 
ATOM     20  C   UNL     1       4.993   3.406   4.586  1.00  0.00     0.029 A 
ATOM     21  N   UNL     1       6.489   3.237   6.202  1.00  0.00    -0.354 N 
ATOM     22  C   UNL     1       7.381  -0.622   7.878  1.00  0.00     0.074 A 
ATOM     23  C   UNL     1       6.653  -1.672   7.198  1.00  0.00     0.031 C 
ATOM     24  C   UNL     1       5.404   4.652   4.862  1.00  0.00     0.029 A 
ATOM     25  C   UNL     1       6.402   4.588   5.913  1.00  0.00     0.049 A 
ATOM     26  H   UNL     1       7.032   2.880   6.942  1.00  0.00     0.167 HD
ATOM     27  C   UNL     1       8.180  -0.823   8.948  1.00  0.00     0.037 A 
ATOM     28  C   UNL     1       7.045   5.653   6.438  1.00  0.00     0.037 A 
ATOM     29  C   UNL     1       8.819   0.232   9.677  1.00  0.00     0.049 A 
ATOM     30  C   UNL     1       7.953   5.409   7.613  1.00  0.00     0.074 A 
ATOM     31  C   UNL     1       9.582   0.150  10.825  1.00  0.00     0.029 A 
ATOM     32  N   UNL     1       8.742   1.577   9.335  1.00  0.00    -0.354 N 
ATOM     33  N   UNL     1       8.263   4.271   8.185  1.00  0.00    -0.248 NA
ATOM     34  C   UNL     1       8.561   6.587   8.249  1.00  0.00     0.031 C 
ATOM     35  C   UNL     1       9.948   1.450  11.192  1.00  0.00     0.029 A 
ATOM     36  C   UNL     1       9.454   2.337  10.246  1.00  0.00     0.049 A 
ATOM     37  H   UNL     1       8.254   1.936   8.559  1.00  0.00     0.167 HD
ATOM     38  C   UNL     1       9.088   4.591   9.251  1.00  0.00     0.074 A 
ATOM     39  C   UNL     1       9.268   6.029   9.224  1.00  0.00     0.031 C 
ATOM     40  C   UNL     1       9.627   3.768  10.183  1.00  0.00     0.037 A 
BRANCH  27  41
ATOM     41  C   UNL     1       8.336  -2.251   9.360  1.00  0.00     0.064 A 
ATOM     42  C   UNL     1       7.657  -2.754  10.475  1.00  0.00     0.173 A 
ATOM     43  C   UNL     1       9.028  -3.157   8.536  1.00  0.00     0.173 A 
ATOM     44  F   UNL     1       6.965  -1.930  11.276  1.00  0.00    -0.203 F 
ATOM     45  C   UNL     1       7.634  -4.122  10.734  1.00  0.00     0.198 A 
ATOM     46  C   UNL     1       8.974  -4.524   8.780  1.00  0.00     0.198 A 
ATOM     47  F   UNL     1       9.650  -2.722   7.429  1.00  0.00    -0.203 F 
ATOM     48  F   UNL     1       6.949  -4.590  11.786  1.00  0.00    -0.200 F 
ATOM     49  C   UNL     1       8.274  -5.006   9.876  1.00  0.00     0.200 A 
ATOM     50  F   UNL     1       9.544  -5.378   7.918  1.00  0.00    -0.200 F 
ATOM     51  F   UNL     1       8.188  -6.326  10.087  1.00  0.00    -0.200 F 
ENDBRANCH  27  41
BRANCH  28  52
ATOM     52  C   UNL     1       6.881   7.029   5.871  1.00  0.00     0.064 A 
ATOM     53  C   UNL     1       5.669   7.734   5.935  1.00  0.00     0.173 A 
ATOM     54  C   UNL     1       7.967   7.684   5.265  1.00  0.00     0.173 A 
ATOM     55  F   UNL     1       4.598   7.174   6.517  1.00  0.00    -0.203 F 
ATOM     56  C   UNL     1       5.545   9.021   5.406  1.00  0.00     0.198 A 
ATOM     57  C   UNL     1       7.851   8.982   4.764  1.00  0.00     0.198 A 
ATOM     58  F   UNL     1       9.162   7.078   5.203  1.00  0.00    -0.203 F 
ATOM     59  F   UNL     1       4.369   9.661   5.471  1.00  0.00    -0.200 F 
ATOM     60  C   UNL     1       6.638   9.647   4.827  1.00  0.00     0.200 A 
ATOM     61  F   UNL     1       8.924   9.596   4.244  1.00  0.00    -0.200 F 
ATOM     62  F   UNL     1       6.528  10.896   4.352  1.00  0.00    -0.200 F 
ENDBRANCH  28  52
BRANCH  40  63
ATOM     63  C   UNL     1      10.479   4.391  11.244  1.00  0.00     0.064 A 
ATOM     64  C   UNL     1      11.863   4.163  11.255  1.00  0.00     0.173 A 
ATOM     65  C   UNL     1       9.916   5.109  12.308  1.00  0.00     0.173 A 
ATOM     66  F   UNL     1      12.443   3.479  10.257  1.00  0.00    -0.203 F 
ATOM     67  C   UNL     1      12.649   4.603  12.313  1.00  0.00     0.198 A 
ATOM     68  C   UNL     1      10.711   5.571  13.353  1.00  0.00     0.198 A 
ATOM     69  F   UNL     1       8.599   5.364  12.330  1.00  0.00    -0.203 F 
ATOM     70  F   UNL     1      13.961   4.332  12.329  1.00  0.00    -0.200 F 
ATOM     71  C   UNL     1      12.073   5.305  13.362  1.00  0.00     0.200 A 
ATOM     72  F   UNL     1      10.158   6.267  14.356  1.00  0.00    -0.200 F 
ATOM     73  F   UNL     1      12.830   5.722  14.385  1.00  0.00    -0.200 F 
ENDBRANCH  40  63
ENDBRANCH  14  15
ENDBRANCH   7   9
ENDBRANCH   6   7
ENDBRANCH   5   6
ENDBRANCH   4   5
ENDBRANCH   3   4
ENDBRANCH   1   3
BRANCH   1  74
ATOM     74  C   UNL     1       1.868   3.675   0.706  1.00  0.00     0.131 C 
BRANCH  74  75
ATOM     75  C   UNL     1       2.542   2.828   1.788  1.00  0.00     0.048 C 
BRANCH  75  76
ATOM     76  C   UNL     1       4.007   2.431   1.525  1.00  0.00     0.161 C 
BRANCH  76  77
ATOM     77  O   UNL     1       5.003   3.429   1.430  1.00  0.00    -0.379 OA
BRANCH  77  78
ATOM     78  C   UNL     1       5.439   3.735   0.107  1.00  0.00     0.188 C 
BRANCH  78  79
ATOM     79  C   UNL     1       6.768   3.061  -0.214  1.00  0.00     0.184 C 
BRANCH  79  80
ATOM     80  O   UNL     1       6.670   1.644  -0.095  1.00  0.00    -0.394 OA
ATOM     81  H   UNL     1       6.431   1.413   0.816  1.00  0.00     0.210 HD
ENDBRANCH  79  80
ENDBRANCH  78  79
ENDBRANCH  77  78
ENDBRANCH  76  77
ENDBRANCH  75  76
ENDBRANCH  74  75
BRANCH  74  82
ATOM     82  C   UNL     1       2.126   5.179   0.912  1.00  0.00    -0.031 A 
ATOM     83  C   UNL     1       1.220   6.127   0.418  1.00  0.00     0.005 A 
ATOM     84  C   UNL     1       3.189   5.683   1.685  1.00  0.00     0.043 A 
ATOM     85  C   UNL     1       1.406   7.501   0.657  1.00  0.00     0.003 A 
ATOM     86  C   UNL     1       3.402   7.042   1.878  1.00  0.00     0.123 A 
ATOM     87  C   UNL     1       2.513   7.962   1.368  1.00  0.00     0.039 A 
ATOM     88  F   UNL     1       4.467   7.445   2.587  1.00  0.00    -0.207 F 
ENDBRANCH  74  82
ENDBRANCH   1  74
TORSDOF 18
