REMARK SMILES COc1ccc(S(=O)(=O)N(Cc2ccccc2)c2ccccc2C(=O)OCCOC(=O)c2ccc(-c3c4nc(c(-c5c(F)c(F)c(F)c(F)c5F)c5ccc([nH]5)c(-c5c(F)c(F)c(F)c(F)c5F)c5nc(c(-c6c(F)c(F)c(F)c(F)c6F)c6ccc3[nH]6)C=C5)C=C4)cc2)cc1
REMARK SMILES IDX 27 1 26 2 24 3 25 4 23 5 18 6 19 7 20 8 22 9 21 10 10 11
REMARK SMILES IDX 7 12 8 13 9 14 6 15 3 16 4 17 96 18 5 19 95 20 2 21 1 22
REMARK SMILES IDX 11 23 12 24 13 25 17 26 14 27 16 28 15 29 28 30 29 31 30 32
REMARK SMILES IDX 31 33 32 34 33 35 94 36 34 37 93 38 35 39 36 40 37 41 87 42
REMARK SMILES IDX 38 43 92 44 86 45 88 46 39 47 91 48 85 49 84 50 40 52 72 53
REMARK SMILES IDX 52 54 71 55 53 56 56 57 70 58 89 59 54 60 55 61 69 63 90 64
REMARK SMILES IDX 57 65 41 66 42 67 50 68 43 69 44 70 48 71 51 72 45 73 46 74
REMARK SMILES IDX 49 75 47 76 73 77 74 78 82 79 75 80 76 81 80 82 83 83 77 84
REMARK SMILES IDX 78 85 81 86 79 87 58 88 59 89 67 90 60 91 61 92 65 93 68 94
REMARK SMILES IDX 62 95 63 96 66 97 64 98
REMARK H PARENT 88 51 56 62
REMARK Flexibility Score: inf
ROOT
ATOM      1  C   UNL     1       0.442  -0.048  -7.687  1.00  0.00     0.275 C 
ENDROOT
BRANCH   1   2
ATOM      2  O   UNL     1       1.818  -0.449  -7.854  1.00  0.00    -0.458 OA
BRANCH   2   3
ATOM      3  C   UNL     1       2.039  -1.310  -8.880  1.00  0.00     0.340 C 
ATOM      4  O   UNL     1       1.243  -1.593  -9.765  1.00  0.00    -0.246 OA
BRANCH   3   5
ATOM      5  C   UNL     1       3.433  -1.811  -8.912  1.00  0.00     0.084 A 
ATOM      6  C   UNL     1       4.168  -2.249  -7.799  1.00  0.00     0.067 A 
ATOM      7  C   UNL     1       5.448  -2.787  -8.049  1.00  0.00     0.028 A 
ATOM      8  C   UNL     1       6.040  -2.776  -9.315  1.00  0.00     0.002 A 
ATOM      9  C   UNL     1       4.021  -1.868 -10.199  1.00  0.00     0.018 A 
ATOM     10  C   UNL     1       5.330  -2.294 -10.395  1.00  0.00     0.001 A 
BRANCH   6  11
ATOM     11  N   UNL     1       3.712  -2.126  -6.414  1.00  0.00    -0.261 N 
BRANCH  11  12
ATOM     12  S   UNL     1       2.458  -3.160  -5.881  1.00  0.00     0.264 S 
ATOM     13  O   UNL     1       3.002  -4.440  -5.482  1.00  0.00    -0.201 OA
ATOM     14  O   UNL     1       1.396  -3.140  -6.866  1.00  0.00    -0.201 OA
BRANCH  12  15
ATOM     15  C   UNL     1       1.778  -2.421  -4.393  1.00  0.00     0.088 A 
ATOM     16  C   UNL     1       0.686  -1.335  -2.045  1.00  0.00     0.118 A 
ATOM     17  C   UNL     1      -0.113  -1.523  -3.175  1.00  0.00     0.048 A 
ATOM     18  C   UNL     1       2.016  -1.748  -2.070  1.00  0.00     0.048 A 
ATOM     19  C   UNL     1       0.431  -2.049  -4.353  1.00  0.00     0.026 A 
ATOM     20  C   UNL     1       2.548  -2.327  -3.228  1.00  0.00     0.026 A 
BRANCH  16  21
ATOM     21  O   UNL     1       0.053  -0.841  -0.938  1.00  0.00    -0.497 OA
ATOM     22  C   UNL     1       0.811   0.087  -0.168  1.00  0.00     0.278 C 
ENDBRANCH  16  21
ENDBRANCH  12  15
ENDBRANCH  11  12
BRANCH  11  23
ATOM     23  C   UNL     1       4.678  -1.488  -5.470  1.00  0.00     0.171 C 
BRANCH  23  24
ATOM     24  C   UNL     1       5.898  -2.259  -4.981  1.00  0.00    -0.027 A 
ATOM     25  C   UNL     1       5.896  -3.632  -4.697  1.00  0.00     0.005 A 
ATOM     26  C   UNL     1       7.118  -1.576  -4.831  1.00  0.00     0.005 A 
ATOM     27  C   UNL     1       7.067  -4.319  -4.371  1.00  0.00     0.000 A 
ATOM     28  C   UNL     1       8.291  -2.258  -4.485  1.00  0.00     0.000 A 
ATOM     29  C   UNL     1       8.268  -3.633  -4.273  1.00  0.00     0.000 A 
ENDBRANCH  23  24
ENDBRANCH  11  23
ENDBRANCH   6  11
ENDBRANCH   3   5
ENDBRANCH   2   3
ENDBRANCH   1   2
BRANCH   1  30
ATOM     30  C   UNL     1       0.218   1.411  -8.070  1.00  0.00     0.275 C 
BRANCH  30  31
ATOM     31  O   UNL     1       0.442   1.591  -9.477  1.00  0.00    -0.458 OA
BRANCH  31  32
ATOM     32  C   UNL     1       1.552   2.288  -9.801  1.00  0.00     0.338 C 
ATOM     33  O   UNL     1       2.329   2.860  -9.057  1.00  0.00    -0.246 OA
BRANCH  32  34
ATOM     34  C   UNL     1       1.773   2.186 -11.249  1.00  0.00     0.060 A 
ATOM     35  C   UNL     1       2.251   0.979 -11.746  1.00  0.00     0.016 A 
ATOM     36  C   UNL     1       1.671   3.296 -12.079  1.00  0.00     0.016 A 
ATOM     37  C   UNL     1       2.728   0.887 -13.046  1.00  0.00     0.010 A 
ATOM     38  C   UNL     1       2.058   3.178 -13.419  1.00  0.00     0.010 A 
ATOM     39  C   UNL     1       2.631   1.985 -13.906  1.00  0.00    -0.014 A 
BRANCH  39  40
ATOM     40  C   UNL     1       3.191   1.918 -15.284  1.00  0.00     0.031 A 
ATOM     41  C   UNL     1       4.239   2.913 -15.702  1.00  0.00     0.074 A 
ATOM     42  C   UNL     1       2.781   0.977 -16.157  1.00  0.00     0.049 A 
ATOM     43  N   UNL     1       4.663   3.222 -16.900  1.00  0.00    -0.248 NA
ATOM     44  C   UNL     1       4.882   3.680 -14.622  1.00  0.00     0.031 C 
ATOM     45  C   UNL     1       1.835  -0.101 -15.866  1.00  0.00     0.029 A 
ATOM     46  N   UNL     1       3.109   0.780 -17.477  1.00  0.00    -0.354 N 
ATOM     47  C   UNL     1       5.556   4.271 -16.725  1.00  0.00     0.074 A 
ATOM     48  C   UNL     1       5.625   4.538 -15.305  1.00  0.00     0.031 C 
ATOM     49  C   UNL     1       1.676  -0.856 -16.963  1.00  0.00     0.029 A 
ATOM     50  C   UNL     1       2.422  -0.255 -18.062  1.00  0.00     0.049 A 
ATOM     51  H   UNL     1       3.772   1.328 -17.957  1.00  0.00     0.167 HD
ATOM     52  C   UNL     1       6.243   4.954 -17.672  1.00  0.00     0.037 A 
ATOM     53  C   UNL     1       2.346  -0.639 -19.351  1.00  0.00     0.037 A 
ATOM     54  C   UNL     1       6.219   4.627 -19.074  1.00  0.00     0.049 A 
ATOM     55  C   UNL     1       3.096   0.146 -20.389  1.00  0.00     0.074 A 
ATOM     56  C   UNL     1       6.893   5.237 -20.117  1.00  0.00     0.029 A 
ATOM     57  N   UNL     1       5.494   3.579 -19.624  1.00  0.00    -0.354 N 
ATOM     58  N   UNL     1       3.873   1.191 -20.233  1.00  0.00    -0.248 NA
ATOM     59  C   UNL     1       2.939  -0.283 -21.785  1.00  0.00     0.031 C 
ATOM     60  C   UNL     1       6.548   4.581 -21.303  1.00  0.00     0.029 A 
ATOM     61  C   UNL     1       5.696   3.533 -20.994  1.00  0.00     0.049 A 
ATOM     62  H   UNL     1       4.922   2.960 -19.116  1.00  0.00     0.167 HD
ATOM     63  C   UNL     1       4.304   1.539 -21.505  1.00  0.00     0.074 A 
ATOM     64  C   UNL     1       3.719   0.581 -22.420  1.00  0.00     0.031 C 
ATOM     65  C   UNL     1       5.107   2.564 -21.883  1.00  0.00     0.037 A 
BRANCH  52  66
ATOM     66  C   UNL     1       7.036   6.151 -17.233  1.00  0.00     0.064 A 
ATOM     67  C   UNL     1       8.222   6.037 -16.496  1.00  0.00     0.173 A 
ATOM     68  C   UNL     1       6.605   7.441 -17.584  1.00  0.00     0.173 A 
ATOM     69  F   UNL     1       8.670   4.829 -16.121  1.00  0.00    -0.203 F 
ATOM     70  C   UNL     1       8.933   7.169 -16.102  1.00  0.00     0.198 A 
ATOM     71  C   UNL     1       7.333   8.569 -17.215  1.00  0.00     0.198 A 
ATOM     72  F   UNL     1       5.478   7.609 -18.293  1.00  0.00    -0.203 F 
ATOM     73  F   UNL     1      10.039   7.038 -15.355  1.00  0.00    -0.200 F 
ATOM     74  C   UNL     1       8.492   8.433 -16.468  1.00  0.00     0.200 A 
ATOM     75  F   UNL     1       6.911   9.788 -17.580  1.00  0.00    -0.200 F 
ATOM     76  F   UNL     1       9.181   9.520 -16.093  1.00  0.00    -0.200 F 
ENDBRANCH  52  66
BRANCH  53  77
ATOM     77  C   UNL     1       1.475  -1.784 -19.730  1.00  0.00     0.064 A 
ATOM     78  C   UNL     1       2.023  -2.986 -20.195  1.00  0.00     0.173 A 
ATOM     79  C   UNL     1       0.078  -1.705 -19.616  1.00  0.00     0.173 A 
ATOM     80  F   UNL     1       3.350  -3.102 -20.349  1.00  0.00    -0.203 F 
ATOM     81  C   UNL     1       1.208  -4.064 -20.535  1.00  0.00     0.198 A 
ATOM     82  C   UNL     1      -0.734  -2.794 -19.925  1.00  0.00     0.198 A 
ATOM     83  F   UNL     1      -0.498  -0.575 -19.179  1.00  0.00    -0.203 F 
ATOM     84  F   UNL     1       1.754  -5.190 -21.013  1.00  0.00    -0.200 F 
ATOM     85  C   UNL     1      -0.169  -3.971 -20.390  1.00  0.00     0.200 A 
ATOM     86  F   UNL     1      -2.061  -2.703 -19.768  1.00  0.00    -0.200 F 
ATOM     87  F   UNL     1      -0.951  -5.013 -20.703  1.00  0.00    -0.200 F 
ENDBRANCH  53  77
BRANCH  65  88
ATOM     88  C   UNL     1       5.425   2.678 -23.343  1.00  0.00     0.064 A 
ATOM     89  C   UNL     1       4.478   3.143 -24.266  1.00  0.00     0.173 A 
ATOM     90  C   UNL     1       6.705   2.355 -23.816  1.00  0.00     0.173 A 
ATOM     91  F   UNL     1       3.235   3.448 -23.863  1.00  0.00    -0.203 F 
ATOM     92  C   UNL     1       4.796   3.261 -25.616  1.00  0.00     0.198 A 
ATOM     93  C   UNL     1       7.028   2.499 -25.162  1.00  0.00     0.198 A 
ATOM     94  F   UNL     1       7.646   1.910 -22.970  1.00  0.00    -0.203 F 
ATOM     95  F   UNL     1       3.864   3.668 -26.489  1.00  0.00    -0.200 F 
ATOM     96  C   UNL     1       6.072   2.946 -26.061  1.00  0.00     0.200 A 
ATOM     97  F   UNL     1       8.264   2.205 -25.588  1.00  0.00    -0.200 F 
ATOM     98  F   UNL     1       6.378   3.067 -27.360  1.00  0.00    -0.200 F 
ENDBRANCH  65  88
ENDBRANCH  39  40
ENDBRANCH  32  34
ENDBRANCH  31  32
ENDBRANCH  30  31
ENDBRANCH   1  30
TORSDOF 17
