REMARK SMILES O=C(C[C@@H]1CN(C(=O)[C@H]2C[C@H](O)C[NH2+]2)CCO1)OCCOC(=O)c1ccc(-c2c3nc(c(-c4c(F)c(F)c(F)c(F)c4F)c4ccc([nH]4)c(-c4c(F)c(F)c(F)c(F)c4F)c4nc(c(-c5c(F)c(F)c(F)c(F)c5F)c5ccc2[nH]5)C=C4)C=C3)cc1
REMARK SMILES IDX 19 1 18 2 2 3 1 4 3 5 4 6 5 7 17 8 6 9 16 10 15 11 7 12 8 13
REMARK SMILES IDX 9 14 10 15 14 16 11 17 13 18 12 21 20 23 21 24 22 25 23 26
REMARK SMILES IDX 24 27 25 28 86 29 26 30 85 31 27 32 28 33 29 34 79 35 30 36
REMARK SMILES IDX 84 37 78 38 80 39 31 40 83 41 77 42 76 43 32 45 64 46 44 47
REMARK SMILES IDX 63 48 45 49 48 50 62 51 81 52 46 53 47 54 61 56 82 57 49 58
REMARK SMILES IDX 33 59 34 60 42 61 35 62 36 63 40 64 43 65 37 66 38 67 41 68
REMARK SMILES IDX 39 69 65 70 66 71 74 72 67 73 68 74 72 75 75 76 69 77 70 78
REMARK SMILES IDX 73 79 71 80 50 81 51 82 59 83 52 84 53 85 57 86 60 87 54 88
REMARK SMILES IDX 55 89 58 90 56 91
REMARK H PARENT 14 19 14 20 12 22 80 44 48 55
REMARK Flexibility Score: inf
ROOT
ATOM      1  C   UNL     1       4.839   0.429  -0.988  1.00  0.00     0.274 C 
ENDROOT
BRANCH   1   2
ATOM      2  O   UNL     1       3.511  -0.123  -0.827  1.00  0.00    -0.462 OA
BRANCH   2   3
ATOM      3  C   UNL     1       2.707   0.042   0.245  1.00  0.00     0.308 C 
ATOM      4  O   UNL     1       1.538  -0.337   0.201  1.00  0.00    -0.252 OA
BRANCH   3   5
ATOM      5  C   UNL     1       3.283   0.559   1.534  1.00  0.00     0.156 C 
BRANCH   5   6
ATOM      6  C   UNL     1       4.043  -0.510   2.301  1.00  0.00     0.148 C 
ATOM      7  C   UNL     1       3.323  -1.869   2.334  1.00  0.00     0.152 C 
ATOM      8  O   UNL     1       4.235  -0.040   3.654  1.00  0.00    -0.374 OA
ATOM      9  N   UNL     1       4.170  -2.820   3.043  1.00  0.00    -0.333 N 
ATOM     10  C   UNL     1       5.042  -0.963   4.415  1.00  0.00     0.182 C 
ATOM     11  C   UNL     1       4.455  -2.385   4.416  1.00  0.00     0.148 C 
BRANCH   9  12
ATOM     12  C   UNL     1       4.803  -3.942   2.530  1.00  0.00     0.281 C 
ATOM     13  O   UNL     1       5.562  -4.607   3.245  1.00  0.00    -0.268 OA
BRANCH  12  14
ATOM     14  C   UNL     1       4.602  -4.378   1.056  1.00  0.00     0.275 C 
ATOM     15  C   UNL     1       3.171  -4.687   0.619  1.00  0.00     0.113 C 
ATOM     16  N   UNL     1       5.172  -3.397   0.088  1.00  0.00    -0.334 N 
ATOM     17  C   UNL     1       2.990  -3.943  -0.701  1.00  0.00     0.175 C 
ATOM     18  C   UNL     1       4.417  -3.638  -1.148  1.00  0.00     0.293 C 
ATOM     19  H   UNL     1       6.167  -3.567  -0.056  1.00  0.00     0.347 HD
ATOM     20  H   UNL     1       5.094  -2.434   0.415  1.00  0.00     0.347 HD
BRANCH  17  21
ATOM     21  O   UNL     1       2.288  -4.743  -1.635  1.00  0.00    -0.387 OA
ATOM     22  H   UNL     1       2.765  -5.577  -1.769  1.00  0.00     0.211 HD
ENDBRANCH  17  21
ENDBRANCH  12  14
ENDBRANCH   9  12
ENDBRANCH   5   6
ENDBRANCH   3   5
ENDBRANCH   2   3
ENDBRANCH   1   2
BRANCH   1  23
ATOM     23  C   UNL     1       4.791   1.783  -1.694  1.00  0.00     0.275 C 
BRANCH  23  24
ATOM     24  O   UNL     1       4.229   2.754  -0.797  1.00  0.00    -0.458 OA
BRANCH  24  25
ATOM     25  C   UNL     1       2.914   3.035  -0.986  1.00  0.00     0.338 C 
ATOM     26  O   UNL     1       2.224   2.693  -1.923  1.00  0.00    -0.246 OA
BRANCH  25  27
ATOM     27  C   UNL     1       2.383   3.650   0.255  1.00  0.00     0.060 A 
ATOM     28  C   UNL     1       1.060   3.359   0.611  1.00  0.00     0.016 A 
ATOM     29  C   UNL     1       3.177   4.449   1.086  1.00  0.00     0.016 A 
ATOM     30  C   UNL     1       0.516   3.904   1.773  1.00  0.00     0.010 A 
ATOM     31  C   UNL     1       2.634   4.989   2.254  1.00  0.00     0.010 A 
ATOM     32  C   UNL     1       1.290   4.748   2.581  1.00  0.00    -0.014 A 
BRANCH  32  33
ATOM     33  C   UNL     1       0.633   5.521   3.659  1.00  0.00     0.031 A 
ATOM     34  C   UNL     1       0.171   6.918   3.353  1.00  0.00     0.074 A 
ATOM     35  C   UNL     1       0.418   4.983   4.872  1.00  0.00     0.049 A 
ATOM     36  N   UNL     1      -0.494   7.758   4.103  1.00  0.00    -0.248 NA
ATOM     37  C   UNL     1       0.509   7.439   2.018  1.00  0.00     0.031 C 
ATOM     38  C   UNL     1       0.830   3.646   5.291  1.00  0.00     0.029 A 
ATOM     39  N   UNL     1      -0.205   5.508   5.976  1.00  0.00    -0.354 N 
ATOM     40  C   UNL     1      -0.679   8.890   3.322  1.00  0.00     0.074 A 
ATOM     41  C   UNL     1      -0.004   8.658   2.064  1.00  0.00     0.031 C 
ATOM     42  C   UNL     1       0.453   3.456   6.569  1.00  0.00     0.029 A 
ATOM     43  C   UNL     1      -0.224   4.658   7.053  1.00  0.00     0.049 A 
ATOM     44  H   UNL     1      -0.601   6.409   5.994  1.00  0.00     0.167 HD
ATOM     45  C   UNL     1      -1.373  10.015   3.615  1.00  0.00     0.037 A 
ATOM     46  C   UNL     1      -0.735   4.837   8.287  1.00  0.00     0.037 A 
ATOM     47  C   UNL     1      -2.022  10.260   4.874  1.00  0.00     0.049 A 
ATOM     48  C   UNL     1      -1.464   6.118   8.606  1.00  0.00     0.074 A 
ATOM     49  C   UNL     1      -2.743  11.370   5.274  1.00  0.00     0.029 A 
ATOM     50  N   UNL     1      -2.015   9.377   5.944  1.00  0.00    -0.354 N 
ATOM     51  N   UNL     1      -1.687   7.159   7.841  1.00  0.00    -0.248 NA
ATOM     52  C   UNL     1      -2.031   6.237   9.957  1.00  0.00     0.031 C 
ATOM     53  C   UNL     1      -3.144  11.174   6.601  1.00  0.00     0.029 A 
ATOM     54  C   UNL     1      -2.708   9.924   7.011  1.00  0.00     0.049 A 
ATOM     55  H   UNL     1      -1.582   8.493   5.944  1.00  0.00     0.167 HD
ATOM     56  C   UNL     1      -2.438   8.043   8.605  1.00  0.00     0.074 A 
ATOM     57  C   UNL     1      -2.651   7.407   9.889  1.00  0.00     0.031 C 
ATOM     58  C   UNL     1      -2.909   9.272   8.279  1.00  0.00     0.037 A 
BRANCH  45  59
ATOM     59  C   UNL     1      -1.462  11.060   2.544  1.00  0.00     0.064 A 
ATOM     60  C   UNL     1      -2.258  10.865   1.404  1.00  0.00     0.173 A 
ATOM     61  C   UNL     1      -0.760  12.267   2.659  1.00  0.00     0.173 A 
ATOM     62  F   UNL     1      -2.932   9.717   1.239  1.00  0.00    -0.203 F 
ATOM     63  C   UNL     1      -2.328  11.834   0.407  1.00  0.00     0.198 A 
ATOM     64  C   UNL     1      -0.853  13.244   1.671  1.00  0.00     0.198 A 
ATOM     65  F   UNL     1       0.017  12.499   3.728  1.00  0.00    -0.203 F 
ATOM     66  F   UNL     1      -3.057  11.608  -0.695  1.00  0.00    -0.200 F 
ATOM     67  C   UNL     1      -1.631  13.024   0.544  1.00  0.00     0.200 A 
ATOM     68  F   UNL     1      -0.182  14.397   1.807  1.00  0.00    -0.200 F 
ATOM     69  F   UNL     1      -1.700  13.957  -0.416  1.00  0.00    -0.200 F 
ENDBRANCH  45  59
BRANCH  46  70
ATOM     70  C   UNL     1      -0.592   3.774   9.314  1.00  0.00     0.064 A 
ATOM     71  C   UNL     1      -1.700   3.041   9.760  1.00  0.00     0.173 A 
ATOM     72  C   UNL     1       0.653   3.495   9.898  1.00  0.00     0.173 A 
ATOM     73  F   UNL     1      -2.916   3.290   9.251  1.00  0.00    -0.203 F 
ATOM     74  C   UNL     1      -1.574   2.088  10.769  1.00  0.00     0.198 A 
ATOM     75  C   UNL     1       0.782   2.523  10.888  1.00  0.00     0.198 A 
ATOM     76  F   UNL     1       1.744   4.170   9.507  1.00  0.00    -0.203 F 
ATOM     77  F   UNL     1      -2.659   1.440  11.214  1.00  0.00    -0.200 F 
ATOM     78  C   UNL     1      -0.333   1.827  11.330  1.00  0.00     0.200 A 
ATOM     79  F   UNL     1       1.985   2.269  11.421  1.00  0.00    -0.200 F 
ATOM     80  F   UNL     1      -0.213   0.915  12.303  1.00  0.00    -0.200 F 
ENDBRANCH  46  70
BRANCH  58  81
ATOM     81  C   UNL     1      -3.716   9.996   9.317  1.00  0.00     0.064 A 
ATOM     82  C   UNL     1      -3.119  10.540  10.463  1.00  0.00     0.173 A 
ATOM     83  C   UNL     1      -5.098  10.172   9.148  1.00  0.00     0.173 A 
ATOM     84  F   UNL     1      -1.803  10.387  10.676  1.00  0.00    -0.203 F 
ATOM     85  C   UNL     1      -3.881  11.207  11.418  1.00  0.00     0.198 A 
ATOM     86  C   UNL     1      -5.852  10.864  10.091  1.00  0.00     0.198 A 
ATOM     87  F   UNL     1      -5.716   9.678   8.064  1.00  0.00    -0.203 F 
ATOM     88  F   UNL     1      -3.298  11.675  12.530  1.00  0.00    -0.200 F 
ATOM     89  C   UNL     1      -5.245  11.373  11.229  1.00  0.00     0.200 A 
ATOM     90  F   UNL     1      -7.168  11.035   9.900  1.00  0.00    -0.200 F 
ATOM     91  F   UNL     1      -5.977  12.017  12.149  1.00  0.00    -0.200 F 
ENDBRANCH  58  81
ENDBRANCH  32  33
ENDBRANCH  25  27
ENDBRANCH  24  25
ENDBRANCH  23  24
ENDBRANCH   1  23
TORSDOF 15
