REMARK SMILES O=C(OCCOC(=O)c1cc2ccccc2cc1OCCO)c1ccc(-c2c3nc(c(-c4c(F)c(F)c(F)c(F)c4F)c4ccc([nH]4)c(-c4c(F)c(F)c(F)c(F)c4F)c4nc(c(-c5c(F)c(F)c(F)c(F)c5F)c5ccc2[nH]5)C=C4)C=C3)cc1
REMARK SMILES IDX 5 1 4 2 3 3 2 4 1 5 23 6 24 7 85 8 25 9 84 10 26 11 27 12
REMARK SMILES IDX 28 13 78 14 29 15 83 16 77 17 79 18 30 19 82 20 76 21 75 22
REMARK SMILES IDX 31 24 63 25 43 26 62 27 44 28 47 29 61 30 80 31 45 32 46 33
REMARK SMILES IDX 60 35 81 36 48 37 32 38 33 39 41 40 34 41 35 42 39 43 42 44
REMARK SMILES IDX 36 45 37 46 40 47 38 48 64 49 65 50 73 51 66 52 67 53 71 54
REMARK SMILES IDX 74 55 68 56 69 57 72 58 70 59 49 60 50 61 58 62 51 63 52 64
REMARK SMILES IDX 56 65 59 66 53 67 54 68 57 69 55 70 6 71 7 72 8 73 9 74
REMARK SMILES IDX 10 75 18 76 11 77 17 78 12 79 16 80 13 81 15 82 14 83 19 84
REMARK SMILES IDX 20 85 21 86 22 87
REMARK H PARENT 79 23 47 34 22 88
REMARK Flexibility Score: inf
ROOT
ATOM      1  C   UNL     1       3.736   1.707   0.356  1.00  0.00     0.275 C 
ENDROOT
BRANCH   1   2
ATOM      2  C   UNL     1       3.996   1.093  -1.015  1.00  0.00     0.275 C 
BRANCH   2   3
ATOM      3  O   UNL     1       2.989   0.158  -1.452  1.00  0.00    -0.458 OA
BRANCH   3   4
ATOM      4  C   UNL     1       2.825  -1.151  -1.146  1.00  0.00     0.338 C 
ATOM      5  O   UNL     1       1.879  -1.766  -1.635  1.00  0.00    -0.246 OA
BRANCH   4   6
ATOM      6  C   UNL     1       3.668  -1.868  -0.144  1.00  0.00     0.060 A 
ATOM      7  C   UNL     1       5.036  -1.678   0.045  1.00  0.00     0.016 A 
ATOM      8  C   UNL     1       3.023  -2.841   0.638  1.00  0.00     0.016 A 
ATOM      9  C   UNL     1       5.712  -2.341   1.076  1.00  0.00     0.010 A 
ATOM     10  C   UNL     1       3.692  -3.515   1.665  1.00  0.00     0.010 A 
ATOM     11  C   UNL     1       5.043  -3.253   1.899  1.00  0.00    -0.014 A 
BRANCH  11  12
ATOM     12  C   UNL     1       5.818  -4.041   2.885  1.00  0.00     0.031 A 
ATOM     13  C   UNL     1       6.397  -5.346   2.446  1.00  0.00     0.074 A 
ATOM     14  C   UNL     1       6.063  -3.570   4.120  1.00  0.00     0.049 A 
ATOM     15  N   UNL     1       7.252  -6.115   3.065  1.00  0.00    -0.248 NA
ATOM     16  C   UNL     1       5.978  -5.836   1.124  1.00  0.00     0.031 C 
ATOM     17  C   UNL     1       5.564  -2.306   4.636  1.00  0.00     0.029 A 
ATOM     18  N   UNL     1       6.792  -4.084   5.161  1.00  0.00    -0.354 N 
ATOM     19  C   UNL     1       7.528  -7.142   2.178  1.00  0.00     0.074 A 
ATOM     20  C   UNL     1       6.693  -6.944   1.013  1.00  0.00     0.031 C 
ATOM     21  C   UNL     1       5.973  -2.142   5.904  1.00  0.00     0.029 A 
ATOM     22  C   UNL     1       6.790  -3.288   6.282  1.00  0.00     0.049 A 
ATOM     23  H   UNL     1       7.272  -4.942   5.111  1.00  0.00     0.167 HD
ATOM     24  C   UNL     1       8.428  -8.141   2.314  1.00  0.00     0.037 A 
ATOM     25  C   UNL     1       7.397  -3.461   7.472  1.00  0.00     0.037 A 
ATOM     26  C   UNL     1       9.191  -8.376   3.508  1.00  0.00     0.049 A 
ATOM     27  C   UNL     1       8.304  -4.652   7.641  1.00  0.00     0.074 A 
ATOM     28  C   UNL     1      10.079  -9.399   3.782  1.00  0.00     0.029 A 
ATOM     29  N   UNL     1       9.132  -7.580   4.645  1.00  0.00    -0.354 N 
ATOM     30  N   UNL     1       8.615  -5.583   6.771  1.00  0.00    -0.248 NA
ATOM     31  C   UNL     1       8.966  -4.803   8.943  1.00  0.00     0.031 C 
ATOM     32  C   UNL     1      10.521  -9.249   5.101  1.00  0.00     0.029 A 
ATOM     33  C   UNL     1       9.948  -8.104   5.633  1.00  0.00     0.049 A 
ATOM     34  H   UNL     1       8.589  -6.763   4.736  1.00  0.00     0.167 HD
ATOM     35  C   UNL     1       9.528  -6.411   7.407  1.00  0.00     0.074 A 
ATOM     36  C   UNL     1       9.739  -5.858   8.729  1.00  0.00     0.031 C 
ATOM     37  C   UNL     1      10.136  -7.531   6.942  1.00  0.00     0.037 A 
BRANCH  24  38
ATOM     38  C   UNL     1       8.600  -9.046   1.135  1.00  0.00     0.064 A 
ATOM     39  C   UNL     1       9.244  -8.600  -0.030  1.00  0.00     0.173 A 
ATOM     40  C   UNL     1       8.086 -10.349   1.148  1.00  0.00     0.173 A 
ATOM     41  F   UNL     1       9.726  -7.349  -0.099  1.00  0.00    -0.203 F 
ATOM     42  C   UNL     1       9.343  -9.419  -1.151  1.00  0.00     0.198 A 
ATOM     43  C   UNL     1       8.207 -11.173   0.033  1.00  0.00     0.198 A 
ATOM     44  F   UNL     1       7.452 -10.815   2.234  1.00  0.00    -0.203 F 
ATOM     45  F   UNL     1       9.912  -8.954  -2.272  1.00  0.00    -0.200 F 
ATOM     46  C   UNL     1       8.827 -10.706  -1.117  1.00  0.00     0.200 A 
ATOM     47  F   UNL     1       7.708 -12.416   0.065  1.00  0.00    -0.200 F 
ATOM     48  F   UNL     1       8.913 -11.491  -2.200  1.00  0.00    -0.200 F 
ENDBRANCH  24  38
BRANCH  25  49
ATOM     49  C   UNL     1       7.193  -2.490   8.582  1.00  0.00     0.064 A 
ATOM     50  C   UNL     1       8.244  -1.699   9.068  1.00  0.00     0.173 A 
ATOM     51  C   UNL     1       5.947  -2.373   9.218  1.00  0.00     0.173 A 
ATOM     52  F   UNL     1       9.459  -1.783   8.507  1.00  0.00    -0.203 F 
ATOM     53  C   UNL     1       8.069  -0.863  10.170  1.00  0.00     0.198 A 
ATOM     54  C   UNL     1       5.766  -1.516  10.303  1.00  0.00     0.198 A 
ATOM     55  F   UNL     1       4.904  -3.101   8.792  1.00  0.00    -0.203 F 
ATOM     56  F   UNL     1       9.109  -0.169  10.653  1.00  0.00    -0.200 F 
ATOM     57  C   UNL     1       6.831  -0.772  10.787  1.00  0.00     0.200 A 
ATOM     58  F   UNL     1       4.564  -1.423  10.887  1.00  0.00    -0.200 F 
ATOM     59  F   UNL     1       6.667   0.022  11.854  1.00  0.00    -0.200 F 
ENDBRANCH  25  49
BRANCH  37  60
ATOM     60  C   UNL     1      11.096  -8.215   7.871  1.00  0.00     0.064 A 
ATOM     61  C   UNL     1      10.652  -8.905   9.009  1.00  0.00     0.173 A 
ATOM     62  C   UNL     1      12.473  -8.203   7.603  1.00  0.00     0.173 A 
ATOM     63  F   UNL     1       9.346  -8.930   9.316  1.00  0.00    -0.203 F 
ATOM     64  C   UNL     1      11.555  -9.531   9.862  1.00  0.00     0.198 A 
ATOM     65  C   UNL     1      13.370  -8.859   8.441  1.00  0.00     0.198 A 
ATOM     66  F   UNL     1      12.947  -7.562   6.524  1.00  0.00    -0.203 F 
ATOM     67  F   UNL     1      11.113 -10.136  10.973  1.00  0.00    -0.200 F 
ATOM     68  C   UNL     1      12.911  -9.514   9.574  1.00  0.00     0.200 A 
ATOM     69  F   UNL     1      14.679  -8.854   8.154  1.00  0.00    -0.200 F 
ATOM     70  F   UNL     1      13.779 -10.123  10.394  1.00  0.00    -0.200 F 
ENDBRANCH  37  60
ENDBRANCH  11  12
ENDBRANCH   4   6
ENDBRANCH   3   4
ENDBRANCH   2   3
ENDBRANCH   1   2
BRANCH   1  71
ATOM     71  O   UNL     1       3.325   0.728   1.322  1.00  0.00    -0.458 OA
BRANCH  71  72
ATOM     72  C   UNL     1       2.137   0.964   1.933  1.00  0.00     0.342 C 
ATOM     73  O   UNL     1       1.363   1.882   1.734  1.00  0.00    -0.246 OA
BRANCH  72  74
ATOM     74  C   UNL     1       1.891  -0.125   2.881  1.00  0.00     0.102 A 
ATOM     75  C   UNL     1       0.948  -1.073   2.437  1.00  0.00     0.028 A 
ATOM     76  C   UNL     1       2.547  -0.290   4.102  1.00  0.00     0.134 A 
ATOM     77  C   UNL     1       0.714  -2.256   3.154  1.00  0.00    -0.017 A 
ATOM     78  C   UNL     1       2.240  -1.443   4.852  1.00  0.00     0.056 A 
ATOM     79  C   UNL     1      -0.112  -3.276   2.650  1.00  0.00     0.009 A 
ATOM     80  C   UNL     1       1.376  -2.447   4.380  1.00  0.00    -0.015 A 
ATOM     81  C   UNL     1      -0.259  -4.480   3.342  1.00  0.00     0.001 A 
ATOM     82  C   UNL     1       1.196  -3.652   5.080  1.00  0.00     0.009 A 
ATOM     83  C   UNL     1       0.392  -4.667   4.557  1.00  0.00     0.001 A 
BRANCH  76  84
ATOM     84  O   UNL     1       3.503   0.455   4.726  1.00  0.00    -0.490 OA
BRANCH  84  85
ATOM     85  C   UNL     1       4.091   1.648   4.214  1.00  0.00     0.257 C 
BRANCH  85  86
ATOM     86  C   UNL     1       5.550   1.398   3.810  1.00  0.00     0.197 C 
BRANCH  86  87
ATOM     87  O   UNL     1       5.696   0.564   2.665  1.00  0.00    -0.393 OA
ATOM     88  H   UNL     1       5.325  -0.312   2.854  1.00  0.00     0.210 HD
ENDBRANCH  86  87
ENDBRANCH  85  86
ENDBRANCH  84  85
ENDBRANCH  76  84
ENDBRANCH  72  74
ENDBRANCH  71  72
ENDBRANCH   1  71
TORSDOF 15
