REMARK SMILES [NH3+][C@H]1COC[C@@H]1C(=O)NC1(CC(=O)OCCOC(=O)c2ccc(-c3c4nc(c(-c5c(F)c(F)c(F)c(F)c5F)c5ccc([nH]5)c(-c5c(F)c(F)c(F)c(F)c5F)c5nc(c(-c6c(F)c(F)c(F)c(F)c6F)c6ccc3[nH]6)C=C5)C=C4)cc2)CCC1
REMARK SMILES IDX 15 1 14 2 12 3 13 4 11 5 10 6 83 7 85 8 84 9 9 10 7 11 8 12
REMARK SMILES IDX 6 14 2 15 3 16 4 17 5 18 1 19 16 23 17 24 18 25 19 26 20 27
REMARK SMILES IDX 21 28 82 29 22 30 81 31 23 32 24 33 25 34 75 35 26 36 80 37
REMARK SMILES IDX 74 38 76 39 27 40 79 41 73 42 72 43 28 45 60 46 40 47 59 48
REMARK SMILES IDX 41 49 44 50 58 51 77 52 42 53 43 54 57 56 78 57 45 58 29 59
REMARK SMILES IDX 30 60 38 61 31 62 32 63 36 64 39 65 33 66 34 67 37 68 35 69
REMARK SMILES IDX 61 70 62 71 70 72 63 73 64 74 68 75 71 76 65 77 66 78 69 79
REMARK SMILES IDX 67 80 46 81 47 82 55 83 48 84 49 85 53 86 56 87 50 88 51 89
REMARK SMILES IDX 54 90 52 91
REMARK H PARENT 9 13 1 20 1 21 1 22 76 44 44 55
REMARK Flexibility Score: inf
ROOT
ATOM      1  C   UNL     1      -6.404  -3.622   0.933  1.00  0.00     0.274 C 
ENDROOT
BRANCH   1   2
ATOM      2  O   UNL     1      -5.395  -3.379  -0.072  1.00  0.00    -0.462 OA
BRANCH   2   3
ATOM      3  C   UNL     1      -5.705  -2.458  -1.016  1.00  0.00     0.308 C 
ATOM      4  O   UNL     1      -6.751  -1.815  -1.038  1.00  0.00    -0.252 OA
BRANCH   3   5
ATOM      5  C   UNL     1      -4.685  -2.333  -2.119  1.00  0.00     0.151 C 
BRANCH   5   6
ATOM      6  C   UNL     1      -3.204  -2.678  -1.857  1.00  0.00     0.050 C 
ATOM      7  C   UNL     1      -2.454  -2.858  -3.215  1.00  0.00     0.029 C 
ATOM      8  C   UNL     1      -2.859  -4.182  -1.602  1.00  0.00     0.029 C 
ATOM      9  C   UNL     1      -2.759  -4.365  -3.127  1.00  0.00     0.005 C 
BRANCH   6  10
ATOM     10  N   UNL     1      -2.642  -1.791  -0.803  1.00  0.00    -0.350 N 
ATOM     11  C   UNL     1      -1.630  -0.876  -0.698  1.00  0.00     0.232 C 
ATOM     12  O   UNL     1      -1.515  -0.279   0.378  1.00  0.00    -0.274 OA
ATOM     13  H   UNL     1      -3.130  -1.888   0.047  1.00  0.00     0.164 HD
BRANCH  11  14
ATOM     14  C   UNL     1      -0.654  -0.617  -1.824  1.00  0.00     0.164 C 
ATOM     15  C   UNL     1       0.509   0.264  -1.383  1.00  0.00     0.221 C 
ATOM     16  C   UNL     1      -0.051   1.672  -1.601  1.00  0.00     0.225 C 
ATOM     17  O   UNL     1      -1.045   1.595  -2.634  1.00  0.00    -0.374 OA
ATOM     18  C   UNL     1      -1.300   0.210  -2.917  1.00  0.00     0.180 C 
BRANCH  15  19
ATOM     19  N   UNL     1       1.689   0.009  -2.237  1.00  0.00    -0.352 N 
ATOM     20  H   UNL     1       2.462   0.602  -1.935  1.00  0.00     0.344 HD
ATOM     21  H   UNL     1       1.458   0.220  -3.208  1.00  0.00     0.344 HD
ATOM     22  H   UNL     1       1.961  -0.971  -2.157  1.00  0.00     0.344 HD
ENDBRANCH  15  19
ENDBRANCH  11  14
ENDBRANCH   6  10
ENDBRANCH   5   6
ENDBRANCH   3   5
ENDBRANCH   2   3
ENDBRANCH   1   2
BRANCH   1  23
ATOM     23  C   UNL     1      -6.108  -2.914   2.259  1.00  0.00     0.275 C 
BRANCH  23  24
ATOM     24  O   UNL     1      -6.113  -1.480   2.126  1.00  0.00    -0.458 OA
BRANCH  24  25
ATOM     25  C   UNL     1      -4.909  -0.959   1.796  1.00  0.00     0.338 C 
ATOM     26  O   UNL     1      -3.874  -1.581   1.627  1.00  0.00    -0.246 OA
BRANCH  25  27
ATOM     27  C   UNL     1      -5.042   0.474   1.494  1.00  0.00     0.060 A 
ATOM     28  C   UNL     1      -4.950   0.880   0.160  1.00  0.00     0.016 A 
ATOM     29  C   UNL     1      -5.162   1.415   2.515  1.00  0.00     0.016 A 
ATOM     30  C   UNL     1      -4.978   2.232  -0.165  1.00  0.00     0.010 A 
ATOM     31  C   UNL     1      -5.199   2.775   2.189  1.00  0.00     0.010 A 
ATOM     32  C   UNL     1      -5.102   3.189   0.848  1.00  0.00    -0.014 A 
BRANCH  32  33
ATOM     33  C   UNL     1      -5.106   4.628   0.499  1.00  0.00     0.031 A 
ATOM     34  C   UNL     1      -3.888   5.465   0.750  1.00  0.00     0.074 A 
ATOM     35  C   UNL     1      -6.203   5.175  -0.055  1.00  0.00     0.049 A 
ATOM     36  N   UNL     1      -3.730   6.757   0.615  1.00  0.00    -0.248 NA
ATOM     37  C   UNL     1      -2.689   4.754   1.218  1.00  0.00     0.031 C 
ATOM     38  C   UNL     1      -7.427   4.449  -0.392  1.00  0.00     0.029 A 
ATOM     39  N   UNL     1      -6.464   6.469  -0.427  1.00  0.00    -0.354 N 
ATOM     40  C   UNL     1      -2.425   7.019   1.004  1.00  0.00     0.074 A 
ATOM     41  C   UNL     1      -1.835   5.753   1.389  1.00  0.00     0.031 C 
ATOM     42  C   UNL     1      -8.312   5.309  -0.922  1.00  0.00     0.029 A 
ATOM     43  C   UNL     1      -7.732   6.650  -0.918  1.00  0.00     0.049 A 
ATOM     44  H   UNL     1      -5.805   7.196  -0.350  1.00  0.00     0.167 HD
ATOM     45  C   UNL     1      -1.781   8.210   1.035  1.00  0.00     0.037 A 
ATOM     46  C   UNL     1      -8.365   7.777  -1.294  1.00  0.00     0.037 A 
ATOM     47  C   UNL     1      -2.364   9.462   0.626  1.00  0.00     0.049 A 
ATOM     48  C   UNL     1      -7.643   9.092  -1.206  1.00  0.00     0.074 A 
ATOM     49  C   UNL     1      -1.785  10.719   0.605  1.00  0.00     0.029 A 
ATOM     50  N   UNL     1      -3.662   9.612   0.161  1.00  0.00    -0.354 N 
ATOM     51  N   UNL     1      -6.417   9.337  -0.816  1.00  0.00    -0.248 NA
ATOM     52  C   UNL     1      -8.399  10.290  -1.601  1.00  0.00     0.031 C 
ATOM     53  C   UNL     1      -2.744  11.636   0.158  1.00  0.00     0.029 A 
ATOM     54  C   UNL     1      -3.909  10.944  -0.133  1.00  0.00     0.049 A 
ATOM     55  H   UNL     1      -4.312   8.881   0.055  1.00  0.00     0.167 HD
ATOM     56  C   UNL     1      -6.246  10.709  -0.930  1.00  0.00     0.074 A 
ATOM     57  C   UNL     1      -7.492  11.244  -1.439  1.00  0.00     0.031 C 
ATOM     58  C   UNL     1      -5.155  11.458  -0.638  1.00  0.00     0.037 A 
BRANCH  45  59
ATOM     59  C   UNL     1      -0.378   8.221   1.560  1.00  0.00     0.064 A 
ATOM     60  C   UNL     1       0.697   7.735   0.803  1.00  0.00     0.173 A 
ATOM     61  C   UNL     1      -0.103   8.756   2.828  1.00  0.00     0.173 A 
ATOM     62  F   UNL     1       0.483   7.202  -0.409  1.00  0.00    -0.203 F 
ATOM     63  C   UNL     1       1.996   7.764   1.306  1.00  0.00     0.198 A 
ATOM     64  C   UNL     1       1.199   8.804   3.318  1.00  0.00     0.198 A 
ATOM     65  F   UNL     1      -1.098   9.237   3.590  1.00  0.00    -0.203 F 
ATOM     66  F   UNL     1       3.005   7.260   0.582  1.00  0.00    -0.200 F 
ATOM     67  C   UNL     1       2.246   8.304   2.559  1.00  0.00     0.200 A 
ATOM     68  F   UNL     1       1.440   9.333   4.526  1.00  0.00    -0.200 F 
ATOM     69  F   UNL     1       3.497   8.335   3.040  1.00  0.00    -0.200 F 
ENDBRANCH  45  59
BRANCH  46  70
ATOM     70  C   UNL     1      -9.769   7.707  -1.768  1.00  0.00     0.064 A 
ATOM     71  C   UNL     1     -10.085   7.907  -3.118  1.00  0.00     0.173 A 
ATOM     72  C   UNL     1     -10.821   7.429  -0.882  1.00  0.00     0.173 A 
ATOM     73  F   UNL     1      -9.114   8.201  -3.995  1.00  0.00    -0.203 F 
ATOM     74  C   UNL     1     -11.402   7.838  -3.564  1.00  0.00     0.198 A 
ATOM     75  C   UNL     1     -12.135   7.338  -1.334  1.00  0.00     0.198 A 
ATOM     76  F   UNL     1     -10.568   7.235   0.420  1.00  0.00    -0.203 F 
ATOM     77  F   UNL     1     -11.683   8.065  -4.855  1.00  0.00    -0.200 F 
ATOM     78  C   UNL     1     -12.425   7.546  -2.674  1.00  0.00     0.200 A 
ATOM     79  F   UNL     1     -13.119   7.048  -0.472  1.00  0.00    -0.200 F 
ATOM     80  F   UNL     1     -13.692   7.474  -3.105  1.00  0.00    -0.200 F 
ENDBRANCH  46  70
BRANCH  58  81
ATOM     81  C   UNL     1      -5.257  12.934  -0.881  1.00  0.00     0.064 A 
ATOM     82  C   UNL     1      -5.976  13.768  -0.014  1.00  0.00     0.173 A 
ATOM     83  C   UNL     1      -4.603  13.521  -1.973  1.00  0.00     0.173 A 
ATOM     84  F   UNL     1      -6.632  13.249   1.034  1.00  0.00    -0.203 F 
ATOM     85  C   UNL     1      -6.051  15.140  -0.243  1.00  0.00     0.198 A 
ATOM     86  C   UNL     1      -4.662  14.895  -2.187  1.00  0.00     0.198 A 
ATOM     87  F   UNL     1      -3.901  12.764  -2.829  1.00  0.00    -0.203 F 
ATOM     88  F   UNL     1      -6.774  15.915   0.577  1.00  0.00    -0.200 F 
ATOM     89  C   UNL     1      -5.390  15.702  -1.325  1.00  0.00     0.200 A 
ATOM     90  F   UNL     1      -4.018  15.439  -3.229  1.00  0.00    -0.200 F 
ATOM     91  F   UNL     1      -5.462  17.023  -1.542  1.00  0.00    -0.200 F 
ENDBRANCH  58  81
ENDBRANCH  32  33
ENDBRANCH  25  27
ENDBRANCH  24  25
ENDBRANCH  23  24
ENDBRANCH   1  23
TORSDOF 15
