REMARK SMILES O=C(OCCOC(=O)[C@@H]1CCC[N@@H+](Cc2ccc(F)cc2Cl)C1)c1ccc(-c2c3nc(c(-c4c(F)c(F)c(F)c(F)c4F)c4ccc([nH]4)c(-c4c(F)c(F)c(F)c(F)c4F)c4nc(c(-c5c(F)c(F)c(F)c(F)c5F)c5ccc2[nH]5)C=C4)C=C3)cc1
REMARK SMILES IDX 4 1 3 2 2 3 1 4 24 5 25 6 86 7 26 8 85 9 27 10 28 11 29 12
REMARK SMILES IDX 79 13 30 14 84 15 78 16 80 17 31 18 83 19 77 20 76 21 32 23
REMARK SMILES IDX 64 24 44 25 63 26 45 27 48 28 62 29 81 30 46 31 47 32 61 34
REMARK SMILES IDX 82 35 49 36 33 37 34 38 42 39 35 40 36 41 40 42 43 43 37 44
REMARK SMILES IDX 38 45 41 46 39 47 65 48 66 49 74 50 67 51 68 52 72 53 75 54
REMARK SMILES IDX 69 55 70 56 73 57 71 58 50 59 51 60 59 61 52 62 53 63 57 64
REMARK SMILES IDX 60 65 54 66 55 67 58 68 56 69 5 70 6 71 7 72 8 73 9 74 10 75
REMARK SMILES IDX 23 76 11 77 13 78 12 79 14 81 15 82 16 83 21 84 17 85 20 86
REMARK SMILES IDX 22 87 18 88 19 89
REMARK H PARENT 80 22 48 33 13 80
REMARK Flexibility Score: inf
ROOT
ATOM      1  C   UNL     1       3.919  -0.587  -1.756  1.00  0.00     0.275 C 
ENDROOT
BRANCH   1   2
ATOM      2  O   UNL     1       2.713  -1.187  -1.218  1.00  0.00    -0.458 OA
BRANCH   2   3
ATOM      3  C   UNL     1       2.355  -1.512   0.050  1.00  0.00     0.338 C 
ATOM      4  O   UNL     1       1.337  -2.174   0.245  1.00  0.00    -0.246 OA
BRANCH   3   5
ATOM      5  C   UNL     1       3.037  -1.014   1.268  1.00  0.00     0.060 A 
ATOM      6  C   UNL     1       4.778  -0.625   1.308  1.00  0.00     0.016 A 
ATOM      7  C   UNL     1       1.977  -0.695   2.736  1.00  0.00     0.016 A 
ATOM      8  C   UNL     1       5.513   0.090   2.773  1.00  0.00     0.010 A 
ATOM      9  C   UNL     1       2.671   0.165   4.185  1.00  0.00     0.010 A 
ATOM     10  C   UNL     1       4.459   0.514   4.210  1.00  0.00    -0.014 A 
BRANCH  10  11
ATOM     11  C   UNL     1       5.205   0.800   5.382  1.00  0.00     0.031 A 
ATOM     12  C   UNL     1       6.015  -0.357   5.727  1.00  0.00     0.074 A 
ATOM     13  C   UNL     1       5.145   1.899   6.123  1.00  0.00     0.049 A 
ATOM     14  N   UNL     1       6.333  -0.774   7.303  1.00  0.00    -0.248 NA
ATOM     15  C   UNL     1       6.278  -2.052   4.570  1.00  0.00     0.031 C 
ATOM     16  C   UNL     1       4.297   3.047   5.875  1.00  0.00     0.029 A 
ATOM     17  N   UNL     1       5.902   2.249   7.199  1.00  0.00    -0.354 N 
ATOM     18  C   UNL     1       6.797  -2.554   7.382  1.00  0.00     0.074 A 
ATOM     19  C   UNL     1       6.615  -3.273   5.616  1.00  0.00     0.031 C 
ATOM     20  C   UNL     1       4.722   4.064   6.634  1.00  0.00     0.029 A 
ATOM     21  C   UNL     1       5.755   3.567   7.534  1.00  0.00     0.049 A 
ATOM     22  H   UNL     1       6.489   1.624   7.683  1.00  0.00     0.167 HD
ATOM     23  C   UNL     1       7.532  -3.123   8.371  1.00  0.00     0.037 A 
ATOM     24  C   UNL     1       6.384   4.271   8.486  1.00  0.00     0.037 A 
ATOM     25  C   UNL     1       8.069  -2.336   9.458  1.00  0.00     0.049 A 
ATOM     26  C   UNL     1       7.304   3.514   9.399  1.00  0.00     0.074 A 
ATOM     27  C   UNL     1       8.861  -2.754  10.509  1.00  0.00     0.029 A 
ATOM     28  N   UNL     1       7.967  -0.940   9.563  1.00  0.00    -0.354 N 
ATOM     29  N   UNL     1       7.559   2.224   9.442  1.00  0.00    -0.248 NA
ATOM     30  C   UNL     1       7.984   4.304  10.424  1.00  0.00     0.031 C 
ATOM     31  C   UNL     1       9.244  -1.623  11.241  1.00  0.00     0.029 A 
ATOM     32  C   UNL     1       8.697  -0.486  10.655  1.00  0.00     0.049 A 
ATOM     33  H   UNL     1       7.452  -0.365   8.951  1.00  0.00     0.167 HD
ATOM     34  C   UNL     1       8.388   2.030  10.534  1.00  0.00     0.074 A 
ATOM     35  C   UNL     1       8.648   3.360  11.075  1.00  0.00     0.031 C 
ATOM     36  C   UNL     1       8.866   0.886  11.091  1.00  0.00     0.037 A 
BRANCH  23  37
ATOM     37  C   UNL     1       7.838  -4.574   8.236  1.00  0.00     0.064 A 
ATOM     38  C   UNL     1       8.751  -5.071   7.295  1.00  0.00     0.173 A 
ATOM     39  C   UNL     1       7.216  -5.500   9.087  1.00  0.00     0.173 A 
ATOM     40  F   UNL     1       9.395  -4.235   6.468  1.00  0.00    -0.203 F 
ATOM     41  C   UNL     1       8.982  -6.440   7.167  1.00  0.00     0.198 A 
ATOM     42  C   UNL     1       7.472  -6.866   8.980  1.00  0.00     0.198 A 
ATOM     43  F   UNL     1       6.358  -5.079  10.028  1.00  0.00    -0.203 F 
ATOM     44  F   UNL     1       9.809  -6.892   6.215  1.00  0.00    -0.200 F 
ATOM     45  C   UNL     1       8.343  -7.336   8.010  1.00  0.00     0.200 A 
ATOM     46  F   UNL     1       6.870  -7.728   9.811  1.00  0.00    -0.200 F 
ATOM     47  F   UNL     1       8.563  -8.652   7.883  1.00  0.00    -0.200 F 
ENDBRANCH  23  37
BRANCH  24  48
ATOM     48  C   UNL     1       6.143   5.733   8.565  1.00  0.00     0.064 A 
ATOM     49  C   UNL     1       7.131   6.645   8.167  1.00  0.00     0.173 A 
ATOM     50  C   UNL     1       4.872   6.246   8.872  1.00  0.00     0.173 A 
ATOM     51  F   UNL     1       8.363   6.209   7.867  1.00  0.00    -0.203 F 
ATOM     52  C   UNL     1       6.851   8.006   8.055  1.00  0.00     0.198 A 
ATOM     53  C   UNL     1       4.583   7.599   8.718  1.00  0.00     0.198 A 
ATOM     54  F   UNL     1       3.883   5.414   9.232  1.00  0.00    -0.203 F 
ATOM     55  F   UNL     1       7.814   8.857   7.674  1.00  0.00    -0.200 F 
ATOM     56  C   UNL     1       5.572   8.479   8.309  1.00  0.00     0.200 A 
ATOM     57  F   UNL     1       3.334   8.041   8.920  1.00  0.00    -0.200 F 
ATOM     58  F   UNL     1       5.289   9.778   8.146  1.00  0.00    -0.200 F 
ENDBRANCH  24  48
BRANCH  36  59
ATOM     59  C   UNL     1       9.657   1.095  12.351  1.00  0.00     0.064 A 
ATOM     60  C   UNL     1       9.005   1.343  13.570  1.00  0.00     0.173 A 
ATOM     61  C   UNL     1      11.057   1.060  12.339  1.00  0.00     0.173 A 
ATOM     62  F   UNL     1       7.666   1.413  13.617  1.00  0.00    -0.203 F 
ATOM     63  C   UNL     1       9.734   1.574  14.731  1.00  0.00     0.198 A 
ATOM     64  C   UNL     1      11.781   1.271  13.508  1.00  0.00     0.198 A 
ATOM     65  F   UNL     1      11.718   0.834  11.194  1.00  0.00    -0.203 F 
ATOM     66  F   UNL     1       9.096   1.859  15.874  1.00  0.00    -0.200 F 
ATOM     67  C   UNL     1      11.120   1.534  14.700  1.00  0.00     0.200 A 
ATOM     68  F   UNL     1      13.121   1.234  13.480  1.00  0.00    -0.200 F 
ATOM     69  F   UNL     1      11.822   1.764  15.818  1.00  0.00    -0.200 F 
ENDBRANCH  36  59
ENDBRANCH  10  11
ENDBRANCH   3   5
ENDBRANCH   2   3
ENDBRANCH   1   2
BRANCH   1  70
ATOM     70  C   UNL     1       3.890   0.936  -1.823  1.00  0.00     0.274 C 
BRANCH  70  71
ATOM     71  O   UNL     1       3.489   1.455  -0.562  1.00  0.00    -0.462 OA
BRANCH  71  72
ATOM     72  C   UNL     1       2.389   2.243  -0.527  1.00  0.00     0.314 C 
ATOM     73  O   UNL     1       1.774   2.651  -1.502  1.00  0.00    -0.252 OA
BRANCH  72  74
ATOM     74  C   UNL     1       2.053   2.627   0.894  1.00  0.00     0.154 C 
ATOM     75  C   UNL     1       2.874   3.798   1.354  1.00  0.00     0.027 C 
ATOM     76  C   UNL     1       2.088   1.421   1.858  1.00  0.00     0.277 C 
ATOM     77  C   UNL     1       4.282   3.326   1.583  1.00  0.00     0.062 C 
ATOM     78  N   UNL     1       3.533   0.715   2.366  1.00  0.00    -0.330 N 
ATOM     79  C   UNL     1       4.305   2.186   2.597  1.00  0.00     0.262 C 
ATOM     80  H   UNL     1       3.945  -0.076   1.871  1.00  0.00     0.348 HD
BRANCH  78  81
ATOM     81  C   UNL     1       3.924  -1.165   3.249  1.00  0.00     0.300 C 
BRANCH  81  82
ATOM     82  C   UNL     1       3.995  -1.842   5.015  1.00  0.00     0.025 A 
ATOM     83  C   UNL     1       2.689  -2.368   5.325  1.00  0.00     0.014 A 
ATOM     84  C   UNL     1       5.200  -1.946   6.193  1.00  0.00     0.052 A 
ATOM     85  C   UNL     1       2.282  -2.669   6.624  1.00  0.00     0.040 A 
ATOM     86  C   UNL     1       4.495  -2.208   7.529  1.00  0.00     0.060 A 
ATOM     87  Cl  UNL     1       7.686  -1.396   5.891  1.00  0.00    -0.084 Cl
ATOM     88  C   UNL     1       3.145  -2.527   7.691  1.00  0.00     0.124 A 
ATOM     89  F   UNL     1       2.668  -2.703   8.932  1.00  0.00    -0.207 F 
ENDBRANCH  81  82
ENDBRANCH  78  81
ENDBRANCH  72  74
ENDBRANCH  71  72
ENDBRANCH  70  71
ENDBRANCH   1  70
TORSDOF 13
