REMARK SMILES Cc1ccc(S(=O)(=O)Nc2ccc(Cl)c(C(=O)OCCOC(=O)c3ccc(-c4c5nc(c(-c6c(F)c(F)c(F)c(F)c6F)c6ccc([nH]6)c(-c6c(F)c(F)c(F)c(F)c6F)c6nc(c(-c7c(F)c(F)c(F)c(F)c7F)c7ccc4[nH]7)C=C6)C=C5)cc3)c2)cc1Cl
REMARK SMILES IDX 19 1 18 2 16 3 17 4 15 5 10 6 11 7 87 8 12 9 13 10 14 11
REMARK SMILES IDX 9 12 6 14 7 15 8 16 5 17 1 18 2 19 3 20 89 21 4 22 88 23
REMARK SMILES IDX 90 24 20 25 21 26 22 27 23 28 24 29 25 30 86 31 26 32 85 33
REMARK SMILES IDX 27 34 28 35 29 36 79 37 30 38 84 39 78 40 80 41 31 42 83 43
REMARK SMILES IDX 77 44 76 45 32 47 64 48 44 49 63 50 45 51 48 52 62 53 81 54
REMARK SMILES IDX 46 55 47 56 61 58 82 59 49 60 33 61 34 62 42 63 35 64 36 65
REMARK SMILES IDX 40 66 43 67 37 68 38 69 41 70 39 71 65 72 66 73 74 74 67 75
REMARK SMILES IDX 68 76 72 77 75 78 69 79 70 80 73 81 71 82 50 83 51 84 59 85
REMARK SMILES IDX 52 86 53 87 57 88 60 89 54 90 55 91 58 92 56 93
REMARK H PARENT 9 13 80 46 48 57
REMARK Flexibility Score: inf
ROOT
ATOM      1  C   UNL     1      -2.538   2.683  -3.460  1.00  0.00     0.275 C 
ENDROOT
BRANCH   1   2
ATOM      2  O   UNL     1      -3.279   1.762  -2.639  1.00  0.00    -0.458 OA
BRANCH   2   3
ATOM      3  C   UNL     1      -3.568   2.165  -1.373  1.00  0.00     0.339 C 
ATOM      4  O   UNL     1      -3.249   3.229  -0.884  1.00  0.00    -0.246 OA
BRANCH   3   5
ATOM      5  C   UNL     1      -4.357   1.105  -0.675  1.00  0.00     0.080 A 
ATOM      6  C   UNL     1      -4.792  -1.262  -0.393  1.00  0.00     0.050 A 
ATOM      7  C   UNL     1      -5.638  -1.009   0.683  1.00  0.00     0.028 A 
ATOM      8  C   UNL     1      -4.252  -0.215  -1.136  1.00  0.00     0.044 A 
ATOM      9  C   UNL     1      -5.806   0.306   1.116  1.00  0.00     0.023 A 
ATOM     10  C   UNL     1      -5.090   1.346   0.504  1.00  0.00     0.055 A 
ATOM     11  Cl  UNL     1      -5.084   2.847   1.364  1.00  0.00    -0.083 Cl
BRANCH   6  12
ATOM     12  N   UNL     1      -4.244  -2.564  -0.615  1.00  0.00    -0.280 N 
ATOM     13  H   UNL     1      -4.670  -3.203  -1.230  1.00  0.00     0.180 HD
BRANCH  12  14
ATOM     14  S   UNL     1      -2.799  -2.967   0.246  1.00  0.00     0.261 S 
ATOM     15  O   UNL     1      -2.147  -3.980  -0.557  1.00  0.00    -0.201 OA
ATOM     16  O   UNL     1      -3.202  -3.249   1.607  1.00  0.00    -0.201 OA
BRANCH  14  17
ATOM     17  C   UNL     1      -1.722  -1.542   0.305  1.00  0.00     0.089 A 
ATOM     18  C   UNL     1       0.685   2.043   0.170  1.00  0.00     0.046 C 
ATOM     19  C   UNL     1      -0.098   0.761   0.251  1.00  0.00    -0.032 A 
ATOM     20  C   UNL     1      -1.297   0.748   0.975  1.00  0.00     0.006 A 
ATOM     21  C   UNL     1       0.344  -0.443  -0.320  1.00  0.00     0.045 A 
ATOM     22  C   UNL     1      -2.071  -0.415   1.052  1.00  0.00     0.022 A 
ATOM     23  C   UNL     1      -0.477  -1.579  -0.327  1.00  0.00     0.043 A 
ATOM     24  Cl  UNL     1       1.918  -0.584  -1.016  1.00  0.00    -0.084 Cl
ENDBRANCH  14  17
ENDBRANCH  12  14
ENDBRANCH   6  12
ENDBRANCH   3   5
ENDBRANCH   2   3
ENDBRANCH   1   2
BRANCH   1  25
ATOM     25  C   UNL     1      -3.446   3.337  -4.506  1.00  0.00     0.275 C 
BRANCH  25  26
ATOM     26  O   UNL     1      -4.453   4.164  -3.888  1.00  0.00    -0.458 OA
BRANCH  26  27
ATOM     27  C   UNL     1      -5.662   3.574  -3.734  1.00  0.00     0.338 C 
ATOM     28  O   UNL     1      -5.995   2.460  -4.104  1.00  0.00    -0.246 OA
BRANCH  27  29
ATOM     29  C   UNL     1      -6.505   4.379  -2.836  1.00  0.00     0.060 A 
ATOM     30  C   UNL     1      -6.690   3.870  -1.555  1.00  0.00     0.016 A 
ATOM     31  C   UNL     1      -7.198   5.518  -3.234  1.00  0.00     0.016 A 
ATOM     32  C   UNL     1      -7.536   4.490  -0.648  1.00  0.00     0.010 A 
ATOM     33  C   UNL     1      -8.060   6.151  -2.319  1.00  0.00     0.010 A 
ATOM     34  C   UNL     1      -8.234   5.639  -1.018  1.00  0.00    -0.014 A 
BRANCH  34  35
ATOM     35  C   UNL     1      -9.204   6.212  -0.048  1.00  0.00     0.031 A 
ATOM     36  C   UNL     1     -10.678   6.063  -0.295  1.00  0.00     0.074 A 
ATOM     37  C   UNL     1      -8.771   6.763   1.103  1.00  0.00     0.049 A 
ATOM     38  N   UNL     1     -11.688   6.533   0.393  1.00  0.00    -0.248 NA
ATOM     39  C   UNL     1     -11.068   5.268  -1.469  1.00  0.00     0.031 C 
ATOM     40  C   UNL     1      -7.371   6.873   1.514  1.00  0.00     0.029 A 
ATOM     41  N   UNL     1      -9.469   7.322   2.147  1.00  0.00    -0.354 N 
ATOM     42  C   UNL     1     -12.829   6.122  -0.282  1.00  0.00     0.074 A 
ATOM     43  C   UNL     1     -12.389   5.369  -1.437  1.00  0.00     0.031 C 
ATOM     44  C   UNL     1      -7.313   7.457   2.722  1.00  0.00     0.029 A 
ATOM     45  C   UNL     1      -8.663   7.822   3.142  1.00  0.00     0.049 A 
ATOM     46  H   UNL     1     -10.452   7.360   2.180  1.00  0.00     0.167 HD
ATOM     47  C   UNL     1     -14.125   6.354   0.036  1.00  0.00     0.037 A 
ATOM     48  C   UNL     1      -8.974   8.531   4.245  1.00  0.00     0.037 A 
ATOM     49  C   UNL     1     -14.558   7.082   1.202  1.00  0.00     0.049 A 
ATOM     50  C   UNL     1     -10.419   8.851   4.525  1.00  0.00     0.074 A 
ATOM     51  C   UNL     1     -15.849   7.372   1.607  1.00  0.00     0.029 A 
ATOM     52  N   UNL     1     -13.710   7.635   2.150  1.00  0.00    -0.354 N 
ATOM     53  N   UNL     1     -11.493   8.492   3.864  1.00  0.00    -0.248 NA
ATOM     54  C   UNL     1     -10.695   9.683   5.705  1.00  0.00     0.031 C 
ATOM     55  C   UNL     1     -15.781   8.150   2.767  1.00  0.00     0.029 A 
ATOM     56  C   UNL     1     -14.449   8.289   3.124  1.00  0.00     0.049 A 
ATOM     57  H   UNL     1     -12.727   7.572   2.134  1.00  0.00     0.167 HD
ATOM     58  C   UNL     1     -12.568   9.033   4.557  1.00  0.00     0.074 A 
ATOM     59  C   UNL     1     -12.019   9.722   5.705  1.00  0.00     0.031 C 
ATOM     60  C   UNL     1     -13.891   8.968   4.266  1.00  0.00     0.037 A 
BRANCH  47  61
ATOM     61  C   UNL     1     -15.174   5.861  -0.919  1.00  0.00     0.064 A 
ATOM     62  C   UNL     1     -15.471   4.498  -1.066  1.00  0.00     0.173 A 
ATOM     63  C   UNL     1     -15.918   6.779  -1.677  1.00  0.00     0.173 A 
ATOM     64  F   UNL     1     -14.778   3.578  -0.377  1.00  0.00    -0.203 F 
ATOM     65  C   UNL     1     -16.457   4.072  -1.952  1.00  0.00     0.198 A 
ATOM     66  C   UNL     1     -16.924   6.352  -2.538  1.00  0.00     0.198 A 
ATOM     67  F   UNL     1     -15.676   8.095  -1.574  1.00  0.00    -0.203 F 
ATOM     68  F   UNL     1     -16.692   2.762  -2.112  1.00  0.00    -0.200 F 
ATOM     69  C   UNL     1     -17.188   4.999  -2.681  1.00  0.00     0.200 A 
ATOM     70  F   UNL     1     -17.638   7.250  -3.231  1.00  0.00    -0.200 F 
ATOM     71  F   UNL     1     -18.143   4.587  -3.527  1.00  0.00    -0.200 F 
ENDBRANCH  47  61
BRANCH  48  72
ATOM     72  C   UNL     1      -7.897   9.038   5.140  1.00  0.00     0.064 A 
ATOM     73  C   UNL     1      -7.788   8.604   6.468  1.00  0.00     0.173 A 
ATOM     74  C   UNL     1      -6.980  10.003   4.694  1.00  0.00     0.173 A 
ATOM     75  F   UNL     1      -8.659   7.707   6.954  1.00  0.00    -0.203 F 
ATOM     76  C   UNL     1      -6.821   9.133   7.322  1.00  0.00     0.198 A 
ATOM     77  C   UNL     1      -5.990  10.503   5.537  1.00  0.00     0.198 A 
ATOM     78  F   UNL     1      -7.044  10.460   3.435  1.00  0.00    -0.203 F 
ATOM     79  F   UNL     1      -6.780   8.748   8.605  1.00  0.00    -0.200 F 
ATOM     80  C   UNL     1      -5.919  10.077   6.854  1.00  0.00     0.200 A 
ATOM     81  F   UNL     1      -5.114  11.405   5.076  1.00  0.00    -0.200 F 
ATOM     82  F   UNL     1      -4.990  10.586   7.675  1.00  0.00    -0.200 F 
ENDBRANCH  48  72
BRANCH  60  83
ATOM     83  C   UNL     1     -14.839   9.627   5.228  1.00  0.00     0.064 A 
ATOM     84  C   UNL     1     -14.906  11.022   5.364  1.00  0.00     0.173 A 
ATOM     85  C   UNL     1     -15.707   8.852   6.013  1.00  0.00     0.173 A 
ATOM     86  F   UNL     1     -14.089  11.810   4.648  1.00  0.00    -0.203 F 
ATOM     87  C   UNL     1     -15.776  11.613   6.277  1.00  0.00     0.198 A 
ATOM     88  C   UNL     1     -16.602   9.447   6.897  1.00  0.00     0.198 A 
ATOM     89  F   UNL     1     -15.692   7.513   5.918  1.00  0.00    -0.203 F 
ATOM     90  F   UNL     1     -15.776  12.944   6.435  1.00  0.00    -0.200 F 
ATOM     91  C   UNL     1     -16.628  10.826   7.037  1.00  0.00     0.200 A 
ATOM     92  F   UNL     1     -17.436   8.685   7.619  1.00  0.00    -0.200 F 
ATOM     93  F   UNL     1     -17.467  11.396   7.913  1.00  0.00    -0.200 F 
ENDBRANCH  60  83
ENDBRANCH  34  35
ENDBRANCH  27  29
ENDBRANCH  26  27
ENDBRANCH  25  26
ENDBRANCH   1  25
TORSDOF 14
