REMARK SMILES C#CC[N@@H+](CC(=O)Nc1c(Cl)cccc1Cl)CC(=O)OCCOC(=O)c1ccc(-c2c3nc(c(-c4c(F)c(F)c(F)c(F)c4F)c4ccc([nH]4)c(-c4c(F)c(F)c(F)c(F)c4F)c4nc(c(-c5c(F)c(F)c(F)c(F)c5F)c5ccc2[nH]5)C=C4)C=C3)cc1
REMARK SMILES IDX 21 1 20 2 18 3 19 4 17 5 4 6 3 8 2 9 1 10 5 11 6 12 7 13
REMARK SMILES IDX 8 14 9 16 10 17 15 18 11 19 12 20 14 21 16 22 13 23 22 24
REMARK SMILES IDX 23 25 24 26 25 27 26 28 27 29 88 30 28 31 87 32 29 33 30 34
REMARK SMILES IDX 31 35 81 36 32 37 86 38 80 39 82 40 33 41 85 42 79 43 78 44
REMARK SMILES IDX 34 46 66 47 46 48 65 49 47 50 50 51 64 52 83 53 48 54 49 55
REMARK SMILES IDX 63 57 84 58 51 59 35 60 36 61 44 62 37 63 38 64 42 65 45 66
REMARK SMILES IDX 39 67 40 68 43 69 41 70 67 71 68 72 76 73 69 74 70 75 74 76
REMARK SMILES IDX 77 77 71 78 72 79 75 80 73 81 52 82 53 83 61 84 54 85 55 86
REMARK SMILES IDX 59 87 62 88 56 89 57 90 60 91 58 92
REMARK H PARENT 4 7 8 15 82 45 50 56
REMARK Flexibility Score: inf
ROOT
ATOM      1  C   UNL     1      -3.908   0.820  -4.580  1.00  0.00     0.274 C 
ENDROOT
BRANCH   1   2
ATOM      2  O   UNL     1      -3.643   0.188  -3.308  1.00  0.00    -0.458 OA
BRANCH   2   3
ATOM      3  C   UNL     1      -2.646  -0.717  -3.252  1.00  0.00     0.361 C 
ATOM      4  O   UNL     1      -1.911  -0.974  -4.204  1.00  0.00    -0.245 OA
BRANCH   3   5
ATOM      5  C   UNL     1      -2.600  -1.536  -1.969  1.00  0.00     0.387 C 
BRANCH   5   6
ATOM      6  N   UNL     1      -2.837  -0.933  -0.659  1.00  0.00    -0.308 N 
ATOM      7  H   UNL     1      -2.671  -1.819  -0.181  1.00  0.00     0.349 HD
BRANCH   6   8
ATOM      8  C   UNL     1      -1.876  -0.042  -0.074  1.00  0.00     0.354 C 
BRANCH   8   9
ATOM      9  C   UNL     1      -0.356  -0.042  -0.074  1.00  0.00    -0.047 C 
ATOM     10  C   UNL     1       0.948  -0.042  -0.074  1.00  0.00     0.010 C 
ENDBRANCH   8   9
ENDBRANCH   6   8
BRANCH   6  11
ATOM     11  C   UNL     1      -4.232  -0.473  -0.340  1.00  0.00     0.365 C 
BRANCH  11  12
ATOM     12  C   UNL     1      -4.643   0.981  -0.756  1.00  0.00     0.279 C 
ATOM     13  O   UNL     1      -5.448   1.160  -1.679  1.00  0.00    -0.268 OA
ATOM     14  N   UNL     1      -4.089   2.100  -0.175  1.00  0.00    -0.319 N 
ATOM     15  H   UNL     1      -3.980   2.861  -0.790  1.00  0.00     0.170 HD
BRANCH  14  16
ATOM     16  C   UNL     1      -3.648   2.357   1.149  1.00  0.00     0.079 A 
ATOM     17  C   UNL     1      -2.559   3.237   1.353  1.00  0.00     0.066 A 
ATOM     18  C   UNL     1      -4.266   1.828   2.293  1.00  0.00     0.066 A 
ATOM     19  Cl  UNL     1      -1.838   4.154   0.080  1.00  0.00    -0.082 Cl
ATOM     20  C   UNL     1      -1.995   3.417   2.621  1.00  0.00     0.023 A 
ATOM     21  C   UNL     1      -3.718   2.043   3.567  1.00  0.00     0.023 A 
ATOM     22  Cl  UNL     1      -5.823   1.073   2.248  1.00  0.00    -0.082 Cl
ATOM     23  C   UNL     1      -2.562   2.802   3.727  1.00  0.00     0.003 A 
ENDBRANCH  14  16
ENDBRANCH  11  12
ENDBRANCH   6  11
ENDBRANCH   5   6
ENDBRANCH   3   5
ENDBRANCH   2   3
ENDBRANCH   1   2
BRANCH   1  24
ATOM     24  C   UNL     1      -3.332   2.234  -4.667  1.00  0.00     0.275 C 
BRANCH  24  25
ATOM     25  O   UNL     1      -1.893   2.217  -4.590  1.00  0.00    -0.458 OA
BRANCH  25  26
ATOM     26  C   UNL     1      -1.423   2.377  -3.337  1.00  0.00     0.338 C 
ATOM     27  O   UNL     1      -2.092   2.566  -2.331  1.00  0.00    -0.246 OA
BRANCH  26  28
ATOM     28  C   UNL     1       0.036   2.243  -3.292  1.00  0.00     0.060 A 
ATOM     29  C   UNL     1       0.595   0.968  -3.243  1.00  0.00     0.016 A 
ATOM     30  C   UNL     1       0.841   3.373  -3.137  1.00  0.00     0.016 A 
ATOM     31  C   UNL     1       1.958   0.815  -3.010  1.00  0.00     0.010 A 
ATOM     32  C   UNL     1       2.220   3.218  -2.951  1.00  0.00     0.010 A 
ATOM     33  C   UNL     1       2.788   1.937  -2.872  1.00  0.00    -0.014 A 
BRANCH  33  34
ATOM     34  C   UNL     1       4.251   1.746  -2.717  1.00  0.00     0.031 A 
ATOM     35  C   UNL     1       4.965   2.117  -1.450  1.00  0.00     0.074 A 
ATOM     36  C   UNL     1       4.937   1.208  -3.743  1.00  0.00     0.049 A 
ATOM     37  N   UNL     1       6.251   2.105  -1.196  1.00  0.00    -0.248 NA
ATOM     38  C   UNL     1       4.135   2.547  -0.315  1.00  0.00     0.031 C 
ATOM     39  C   UNL     1       4.346   0.765  -5.007  1.00  0.00     0.029 A 
ATOM     40  N   UNL     1       6.274   0.940  -3.887  1.00  0.00    -0.354 N 
ATOM     41  C   UNL     1       6.387   2.541   0.114  1.00  0.00     0.074 A 
ATOM     42  C   UNL     1       5.052   2.811   0.608  1.00  0.00     0.031 C 
ATOM     43  C   UNL     1       5.311   0.270  -5.793  1.00  0.00     0.029 A 
ATOM     44  C   UNL     1       6.595   0.430  -5.119  1.00  0.00     0.049 A 
ATOM     45  H   UNL     1       6.938   1.098  -3.177  1.00  0.00     0.167 HD
ATOM     46  C   UNL     1       7.526   2.702   0.832  1.00  0.00     0.037 A 
ATOM     47  C   UNL     1       7.791   0.164  -5.672  1.00  0.00     0.037 A 
ATOM     48  C   UNL     1       8.852   2.424   0.338  1.00  0.00     0.049 A 
ATOM     49  C   UNL     1       9.038   0.423  -4.883  1.00  0.00     0.074 A 
ATOM     50  C   UNL     1      10.064   2.547   0.997  1.00  0.00     0.029 A 
ATOM     51  N   UNL     1       9.140   1.966  -0.940  1.00  0.00    -0.354 N 
ATOM     52  N   UNL     1       9.158   0.875  -3.660  1.00  0.00    -0.248 NA
ATOM     53  C   UNL     1      10.314   0.153  -5.558  1.00  0.00     0.031 C 
ATOM     54  C   UNL     1      11.087   2.200   0.106  1.00  0.00     0.029 A 
ATOM     55  C   UNL     1      10.511   1.825  -1.096  1.00  0.00     0.049 A 
ATOM     56  H   UNL     1       8.470   1.771  -1.634  1.00  0.00     0.167 HD
ATOM     57  C   UNL     1      10.520   0.948  -3.415  1.00  0.00     0.074 A 
ATOM     58  C   UNL     1      11.186   0.472  -4.611  1.00  0.00     0.031 C 
ATOM     59  C   UNL     1      11.159   1.375  -2.300  1.00  0.00     0.037 A 
BRANCH  46  60
ATOM     60  C   UNL     1       7.405   3.231   2.230  1.00  0.00     0.064 A 
ATOM     61  C   UNL     1       6.992   2.414   3.292  1.00  0.00     0.173 A 
ATOM     62  C   UNL     1       7.787   4.549   2.523  1.00  0.00     0.173 A 
ATOM     63  F   UNL     1       6.608   1.150   3.061  1.00  0.00    -0.203 F 
ATOM     64  C   UNL     1       6.960   2.900   4.597  1.00  0.00     0.198 A 
ATOM     65  C   UNL     1       7.771   5.026   3.831  1.00  0.00     0.198 A 
ATOM     66  F   UNL     1       8.196   5.367   1.542  1.00  0.00    -0.203 F 
ATOM     67  F   UNL     1       6.544   2.109   5.596  1.00  0.00    -0.200 F 
ATOM     68  C   UNL     1       7.357   4.202   4.867  1.00  0.00     0.200 A 
ATOM     69  F   UNL     1       8.164   6.281   4.090  1.00  0.00    -0.200 F 
ATOM     70  F   UNL     1       7.338   4.663   6.125  1.00  0.00    -0.200 F 
ENDBRANCH  46  60
BRANCH  47  71
ATOM     71  C   UNL     1       7.844  -0.327  -7.070  1.00  0.00     0.064 A 
ATOM     72  C   UNL     1       8.166  -1.658  -7.357  1.00  0.00     0.173 A 
ATOM     73  C   UNL     1       7.511   0.517  -8.141  1.00  0.00     0.173 A 
ATOM     74  F   UNL     1       8.511  -2.492  -6.365  1.00  0.00    -0.203 F 
ATOM     75  C   UNL     1       8.147  -2.131  -8.667  1.00  0.00     0.198 A 
ATOM     76  C   UNL     1       7.467   0.036  -9.446  1.00  0.00     0.198 A 
ATOM     77  F   UNL     1       7.192   1.799  -7.911  1.00  0.00    -0.203 F 
ATOM     78  F   UNL     1       8.476  -3.405  -8.921  1.00  0.00    -0.200 F 
ATOM     79  C   UNL     1       7.787  -1.287  -9.708  1.00  0.00     0.200 A 
ATOM     80  F   UNL     1       7.104   0.851 -10.446  1.00  0.00    -0.200 F 
ATOM     81  F   UNL     1       7.748  -1.750 -10.965  1.00  0.00    -0.200 F 
ENDBRANCH  47  71
BRANCH  59  82
ATOM     82  C   UNL     1      12.656   1.347  -2.331  1.00  0.00     0.064 A 
ATOM     83  C   UNL     1      13.386   2.312  -3.039  1.00  0.00     0.173 A 
ATOM     84  C   UNL     1      13.366   0.351  -1.645  1.00  0.00     0.173 A 
ATOM     85  F   UNL     1      12.747   3.271  -3.726  1.00  0.00    -0.203 F 
ATOM     86  C   UNL     1      14.776   2.267  -3.079  1.00  0.00     0.198 A 
ATOM     87  C   UNL     1      14.757   0.321  -1.671  1.00  0.00     0.198 A 
ATOM     88  F   UNL     1      12.710  -0.593  -0.954  1.00  0.00    -0.203 F 
ATOM     89  F   UNL     1      15.454   3.173  -3.798  1.00  0.00    -0.200 F 
ATOM     90  C   UNL     1      15.461   1.274  -2.393  1.00  0.00     0.200 A 
ATOM     91  F   UNL     1      15.418  -0.636  -1.005  1.00  0.00    -0.200 F 
ATOM     92  F   UNL     1      16.799   1.229  -2.437  1.00  0.00    -0.200 F 
ENDBRANCH  59  82
ENDBRANCH  33  34
ENDBRANCH  26  28
ENDBRANCH  25  26
ENDBRANCH  24  25
ENDBRANCH   1  24
TORSDOF 17
