REMARK SMILES COc1ccc(NC(=O)N2CC[C@@H](C(=O)OCCOC(=O)c3ccc(-c4c5nc(c(-c6c(F)c(F)c(F)c(F)c6F)c6ccc([nH]6)c(-c6c(F)c(F)c(F)c(F)c6F)c6nc(c(-c7c(F)c(F)c(F)c(F)c7F)c7ccc4[nH]7)C=C6)C=C5)cc3)[C@H]2C)cc1F
REMARK SMILES IDX 17 1 16 2 14 3 15 4 13 5 10 6 11 7 85 8 12 9 86 10 8 11 7 12
REMARK SMILES IDX 9 14 6 15 3 16 4 17 88 18 5 19 87 20 89 21 2 22 1 23 18 24
REMARK SMILES IDX 19 25 20 26 21 27 22 28 23 29 84 30 24 31 83 32 25 33 26 34
REMARK SMILES IDX 27 35 77 36 28 37 82 38 76 39 78 40 29 41 81 42 75 43 74 44
REMARK SMILES IDX 30 46 62 47 42 48 61 49 43 50 46 51 60 52 79 53 44 54 45 55
REMARK SMILES IDX 59 57 80 58 47 59 31 60 32 61 40 62 33 63 34 64 38 65 41 66
REMARK SMILES IDX 35 67 36 68 39 69 37 70 63 71 64 72 72 73 65 74 66 75 70 76
REMARK SMILES IDX 73 77 67 78 68 79 71 80 69 81 48 82 49 83 57 84 50 85 51 86
REMARK SMILES IDX 55 87 58 88 52 89 53 90 56 91 54 92
REMARK H PARENT 7 13 78 45 46 56
REMARK Flexibility Score: inf
ROOT
ATOM      1  C   UNL     1      -4.316  -1.435  -3.229  1.00  0.00     0.274 C 
ENDROOT
BRANCH   1   2
ATOM      2  O   UNL     1      -3.325  -1.608  -4.266  1.00  0.00    -0.462 OA
BRANCH   2   3
ATOM      3  C   UNL     1      -3.750  -1.388  -5.533  1.00  0.00     0.311 C 
ATOM      4  O   UNL     1      -4.927  -1.297  -5.867  1.00  0.00    -0.252 OA
BRANCH   3   5
ATOM      5  C   UNL     1      -2.632  -1.287  -6.547  1.00  0.00     0.123 C 
ATOM      6  N   UNL     1      -0.253  -1.416  -6.769  1.00  0.00    -0.321 N 
ATOM      7  C   UNL     1      -0.860  -2.389  -7.656  1.00  0.00     0.122 C 
ATOM      8  C   UNL     1      -1.313  -0.532  -6.236  1.00  0.00     0.098 C 
ATOM      9  C   UNL     1      -2.198  -2.672  -7.016  1.00  0.00     0.039 C 
ATOM     10  C   UNL     1      -1.119  -0.016  -4.819  1.00  0.00     0.032 C 
BRANCH   6  11
ATOM     11  C   UNL     1       0.992  -0.949  -7.122  1.00  0.00     0.322 C 
ATOM     12  N   UNL     1       1.884  -0.635  -6.143  1.00  0.00    -0.308 N 
ATOM     13  H   UNL     1       2.614  -0.041  -6.431  1.00  0.00     0.171 HD
ATOM     14  O   UNL     1       1.314  -0.780  -8.299  1.00  0.00    -0.248 OA
BRANCH  12  15
ATOM     15  C   UNL     1       1.942  -1.016  -4.793  1.00  0.00     0.046 A 
ATOM     16  C   UNL     1       1.813  -1.417  -2.024  1.00  0.00     0.154 A 
ATOM     17  C   UNL     1       1.186  -2.312  -2.888  1.00  0.00     0.052 A 
ATOM     18  C   UNL     1       2.620  -0.413  -2.559  1.00  0.00     0.167 A 
ATOM     19  C   UNL     1       1.253  -2.114  -4.271  1.00  0.00     0.030 A 
ATOM     20  C   UNL     1       2.701  -0.218  -3.936  1.00  0.00     0.069 A 
ATOM     21  F   UNL     1       3.309   0.417  -1.763  1.00  0.00    -0.203 F 
BRANCH  16  22
ATOM     22  O   UNL     1       1.570  -1.609  -0.691  1.00  0.00    -0.494 OA
ATOM     23  C   UNL     1       1.443  -0.395   0.051  1.00  0.00     0.278 C 
ENDBRANCH  16  22
ENDBRANCH  12  15
ENDBRANCH   6  11
ENDBRANCH   3   5
ENDBRANCH   2   3
ENDBRANCH   1   2
BRANCH   1  24
ATOM     24  C   UNL     1      -4.327   0.022  -2.761  1.00  0.00     0.275 C 
BRANCH  24  25
ATOM     25  O   UNL     1      -4.716   0.857  -3.865  1.00  0.00    -0.458 OA
BRANCH  25  26
ATOM     26  C   UNL     1      -4.217   2.113  -3.880  1.00  0.00     0.338 C 
ATOM     27  O   UNL     1      -3.534   2.648  -3.027  1.00  0.00    -0.246 OA
BRANCH  26  28
ATOM     28  C   UNL     1      -4.671   2.774  -5.119  1.00  0.00     0.060 A 
ATOM     29  C   UNL     1      -4.524   2.149  -6.362  1.00  0.00     0.016 A 
ATOM     30  C   UNL     1      -5.257   4.036  -5.034  1.00  0.00     0.016 A 
ATOM     31  C   UNL     1      -4.988   2.767  -7.522  1.00  0.00     0.010 A 
ATOM     32  C   UNL     1      -5.763   4.635  -6.189  1.00  0.00     0.010 A 
ATOM     33  C   UNL     1      -5.644   4.001  -7.438  1.00  0.00    -0.014 A 
BRANCH  33  34
ATOM     34  C   UNL     1      -6.248   4.631  -8.636  1.00  0.00     0.031 A 
ATOM     35  C   UNL     1      -5.692   5.918  -9.164  1.00  0.00     0.074 A 
ATOM     36  C   UNL     1      -7.334   4.075  -9.205  1.00  0.00     0.049 A 
ATOM     37  N   UNL     1      -6.206   6.745 -10.037  1.00  0.00    -0.248 NA
ATOM     38  C   UNL     1      -4.386   6.335  -8.631  1.00  0.00     0.031 C 
ATOM     39  C   UNL     1      -7.934   2.799  -8.813  1.00  0.00     0.029 A 
ATOM     40  N   UNL     1      -8.142   4.524 -10.221  1.00  0.00    -0.354 N 
ATOM     41  C   UNL     1      -5.304   7.794 -10.137  1.00  0.00     0.074 A 
ATOM     42  C   UNL     1      -4.212   7.504  -9.232  1.00  0.00     0.031 C 
ATOM     43  C   UNL     1      -9.014   2.569  -9.575  1.00  0.00     0.029 A 
ATOM     44  C   UNL     1      -9.225   3.713 -10.456  1.00  0.00     0.049 A 
ATOM     45  H   UNL     1      -7.962   5.347 -10.731  1.00  0.00     0.167 HD
ATOM     46  C   UNL     1      -5.389   8.897 -10.916  1.00  0.00     0.037 A 
ATOM     47  C   UNL     1     -10.296   3.896 -11.253  1.00  0.00     0.037 A 
ATOM     48  C   UNL     1      -6.472   9.160 -11.827  1.00  0.00     0.049 A 
ATOM     49  C   UNL     1     -10.412   5.169 -12.042  1.00  0.00     0.074 A 
ATOM     50  C   UNL     1      -6.638  10.236 -12.681  1.00  0.00     0.029 A 
ATOM     51  N   UNL     1      -7.573   8.334 -12.003  1.00  0.00    -0.354 N 
ATOM     52  N   UNL     1      -9.573   6.174 -12.112  1.00  0.00    -0.248 NA
ATOM     53  C   UNL     1     -11.632   5.349 -12.842  1.00  0.00     0.031 C 
ATOM     54  C   UNL     1      -7.860  10.084 -13.342  1.00  0.00     0.029 A 
ATOM     55  C   UNL     1      -8.437   8.892 -12.931  1.00  0.00     0.049 A 
ATOM     56  H   UNL     1      -7.719   7.479 -11.537  1.00  0.00     0.167 HD
ATOM     57  C   UNL     1     -10.156   7.101 -12.963  1.00  0.00     0.074 A 
ATOM     58  C   UNL     1     -11.416   6.534 -13.399  1.00  0.00     0.031 C 
ATOM     59  C   UNL     1      -9.690   8.314 -13.345  1.00  0.00     0.037 A 
BRANCH  46  60
ATOM     60  C   UNL     1      -4.298   9.918 -10.807  1.00  0.00     0.064 A 
ATOM     61  C   UNL     1      -4.548  11.158 -10.198  1.00  0.00     0.173 A 
ATOM     62  C   UNL     1      -3.030   9.703 -11.363  1.00  0.00     0.173 A 
ATOM     63  F   UNL     1      -5.748  11.414  -9.655  1.00  0.00    -0.203 F 
ATOM     64  C   UNL     1      -3.571  12.148 -10.160  1.00  0.00     0.198 A 
ATOM     65  C   UNL     1      -2.046  10.687 -11.303  1.00  0.00     0.198 A 
ATOM     66  F   UNL     1      -2.738   8.530 -11.945  1.00  0.00    -0.203 F 
ATOM     67  F   UNL     1      -3.841  13.333  -9.596  1.00  0.00    -0.200 F 
ATOM     68  C   UNL     1      -2.320  11.911 -10.710  1.00  0.00     0.200 A 
ATOM     69  F   UNL     1      -0.831  10.450 -11.816  1.00  0.00    -0.200 F 
ATOM     70  F   UNL     1      -1.377  12.862 -10.666  1.00  0.00    -0.200 F 
ENDBRANCH  46  60
BRANCH  47  71
ATOM     71  C   UNL     1     -11.356   2.856 -11.304  1.00  0.00     0.064 A 
ATOM     72  C   UNL     1     -12.192   2.610 -10.204  1.00  0.00     0.173 A 
ATOM     73  C   UNL     1     -11.523   2.058 -12.443  1.00  0.00     0.173 A 
ATOM     74  F   UNL     1     -12.073   3.349  -9.091  1.00  0.00    -0.203 F 
ATOM     75  C   UNL     1     -13.133   1.583 -10.230  1.00  0.00     0.198 A 
ATOM     76  C   UNL     1     -12.483   1.047 -12.477  1.00  0.00     0.198 A 
ATOM     77  F   UNL     1     -10.766   2.273 -13.528  1.00  0.00    -0.203 F 
ATOM     78  F   UNL     1     -13.891   1.343  -9.152  1.00  0.00    -0.200 F 
ATOM     79  C   UNL     1     -13.279   0.804 -11.367  1.00  0.00     0.200 A 
ATOM     80  F   UNL     1     -12.637   0.311 -13.586  1.00  0.00    -0.200 F 
ATOM     81  F   UNL     1     -14.187  -0.181 -11.395  1.00  0.00    -0.200 F 
ENDBRANCH  47  71
BRANCH  59  82
ATOM     82  C   UNL     1     -10.537   9.118 -14.283  1.00  0.00     0.064 A 
ATOM     83  C   UNL     1     -10.162   9.276 -15.625  1.00  0.00     0.173 A 
ATOM     84  C   UNL     1     -11.668   9.809 -13.826  1.00  0.00     0.173 A 
ATOM     85  F   UNL     1      -9.083   8.639 -16.104  1.00  0.00    -0.203 F 
ATOM     86  C   UNL     1     -10.877  10.117 -16.472  1.00  0.00     0.198 A 
ATOM     87  C   UNL     1     -12.394  10.632 -14.683  1.00  0.00     0.198 A 
ATOM     88  F   UNL     1     -12.072   9.677 -12.554  1.00  0.00    -0.203 F 
ATOM     89  F   UNL     1     -10.480  10.282 -17.742  1.00  0.00    -0.200 F 
ATOM     90  C   UNL     1     -11.992  10.793 -16.001  1.00  0.00     0.200 A 
ATOM     91  F   UNL     1     -13.483  11.271 -14.232  1.00  0.00    -0.200 F 
ATOM     92  F   UNL     1     -12.680  11.603 -16.818  1.00  0.00    -0.200 F 
ENDBRANCH  59  82
ENDBRANCH  33  34
ENDBRANCH  26  28
ENDBRANCH  25  26
ENDBRANCH  24  25
ENDBRANCH   1  24
TORSDOF 14
