REMARK SMILES COc1ccc2cc([C@H](C)C(=O)OCCOC(=O)c3ccc(-c4c5nc(c(-c6c(F)c(F)c(F)c(F)c6F)c6ccc([nH]6)c(-c6c(F)c(F)c(F)c(F)c6F)c6nc(c(-c7c(F)c(F)c(F)c(F)c7F)c7ccc4[nH]7)C=C6)C=C5)cc3)ccc2c1
REMARK SMILES IDX 14 1 13 2 11 3 12 4 9 5 10 6 8 7 3 8 4 9 85 10 5 11 84 12
REMARK SMILES IDX 6 13 83 14 7 15 82 16 2 17 1 18 15 19 16 20 17 21 18 22
REMARK SMILES IDX 19 23 20 24 81 25 21 26 80 27 22 28 23 29 24 30 74 31 25 32
REMARK SMILES IDX 79 33 73 34 75 35 26 36 78 37 72 38 71 39 27 41 59 42 39 43
REMARK SMILES IDX 58 44 40 45 43 46 57 47 76 48 41 49 42 50 56 52 77 53 44 54
REMARK SMILES IDX 28 55 29 56 37 57 30 58 31 59 35 60 38 61 32 62 33 63 36 64
REMARK SMILES IDX 34 65 60 66 61 67 69 68 62 69 63 70 67 71 70 72 64 73 65 74
REMARK SMILES IDX 68 75 66 76 45 77 46 78 54 79 47 80 48 81 52 82 55 83 49 84
REMARK SMILES IDX 50 85 53 86 51 87
REMARK H PARENT 75 40 43 51
REMARK Flexibility Score: inf
ROOT
ATOM      1  C   UNL     1       4.356   6.307  -6.587  1.00  0.00     0.274 C 
ENDROOT
BRANCH   1   2
ATOM      2  O   UNL     1       3.436   6.340  -5.480  1.00  0.00    -0.462 OA
BRANCH   2   3
ATOM      3  C   UNL     1       2.586   7.402  -5.436  1.00  0.00     0.313 C 
ATOM      4  O   UNL     1       2.579   8.317  -6.253  1.00  0.00    -0.252 OA
BRANCH   3   5
ATOM      5  C   UNL     1       1.636   7.354  -4.240  1.00  0.00     0.126 C 
ATOM      6  C   UNL     1       1.474   5.975  -3.606  1.00  0.00     0.025 C 
BRANCH   5   7
ATOM      7  C   UNL     1       1.968   8.414  -3.207  1.00  0.00    -0.033 A 
ATOM      8  C   UNL     1       1.831  12.275   0.087  1.00  0.00     0.119 A 
ATOM      9  C   UNL     1       0.519  12.100  -0.347  1.00  0.00     0.047 A 
ATOM     10  C   UNL     1       2.847  11.464  -0.419  1.00  0.00     0.055 A 
ATOM     11  C   UNL     1       0.221  11.092  -1.270  1.00  0.00     0.012 A 
ATOM     12  C   UNL     1       2.560  10.440  -1.334  1.00  0.00    -0.015 A 
ATOM     13  C   UNL     1       1.230  10.254  -1.770  1.00  0.00    -0.018 A 
ATOM     14  C   UNL     1       3.569   9.597  -1.822  1.00  0.00     0.009 A 
ATOM     15  C   UNL     1       0.951   9.242  -2.703  1.00  0.00     0.013 A 
ATOM     16  C   UNL     1       3.275   8.589  -2.740  1.00  0.00     0.005 A 
BRANCH   8  17
ATOM     17  O   UNL     1       2.226  13.249   0.963  1.00  0.00    -0.497 OA
ATOM     18  C   UNL     1       1.347  13.419   2.071  1.00  0.00     0.278 C 
ENDBRANCH   8  17
ENDBRANCH   5   7
ENDBRANCH   3   5
ENDBRANCH   2   3
ENDBRANCH   1   2
BRANCH   1  19
ATOM     19  C   UNL     1       3.848   5.420  -7.728  1.00  0.00     0.275 C 
BRANCH  19  20
ATOM     20  O   UNL     1       2.705   5.993  -8.392  1.00  0.00    -0.458 OA
BRANCH  20  21
ATOM     21  C   UNL     1       1.504   5.607  -7.903  1.00  0.00     0.338 C 
ATOM     22  O   UNL     1       1.288   4.816  -7.001  1.00  0.00    -0.246 OA
BRANCH  21  23
ATOM     23  C   UNL     1       0.435   6.392  -8.536  1.00  0.00     0.060 A 
ATOM     24  C   UNL     1      -0.303   7.260  -7.728  1.00  0.00     0.016 A 
ATOM     25  C   UNL     1       0.101   6.214  -9.878  1.00  0.00     0.016 A 
ATOM     26  C   UNL     1      -1.385   7.956  -8.253  1.00  0.00     0.010 A 
ATOM     27  C   UNL     1      -0.987   6.916 -10.408  1.00  0.00     0.010 A 
ATOM     28  C   UNL     1      -1.740   7.783  -9.595  1.00  0.00    -0.014 A 
BRANCH  28  29
ATOM     29  C   UNL     1      -2.929   8.482 -10.132  1.00  0.00     0.031 A 
ATOM     30  C   UNL     1      -4.196   7.720 -10.374  1.00  0.00     0.074 A 
ATOM     31  C   UNL     1      -2.872   9.804 -10.374  1.00  0.00     0.049 A 
ATOM     32  N   UNL     1      -5.311   8.120 -10.930  1.00  0.00    -0.248 NA
ATOM     33  C   UNL     1      -4.213   6.318  -9.928  1.00  0.00     0.031 C 
ATOM     34  C   UNL     1      -1.712  10.658 -10.118  1.00  0.00     0.029 A 
ATOM     35  N   UNL     1      -3.811  10.658 -10.893  1.00  0.00    -0.354 N 
ATOM     36  C   UNL     1      -6.153   7.018 -10.923  1.00  0.00     0.074 A 
ATOM     37  C   UNL     1      -5.420   5.927 -10.314  1.00  0.00     0.031 C 
ATOM     38  C   UNL     1      -2.008  11.916 -10.483  1.00  0.00     0.029 A 
ATOM     39  C   UNL     1      -3.356  11.943 -11.044  1.00  0.00     0.049 A 
ATOM     40  H   UNL     1      -4.723  10.375 -11.133  1.00  0.00     0.167 HD
ATOM     41  C   UNL     1      -7.423   6.929 -11.383  1.00  0.00     0.037 A 
ATOM     42  C   UNL     1      -3.950  13.013 -11.606  1.00  0.00     0.037 A 
ATOM     43  C   UNL     1      -8.150   8.022 -11.973  1.00  0.00     0.049 A 
ATOM     44  C   UNL     1      -5.335  12.869 -12.173  1.00  0.00     0.074 A 
ATOM     45  C   UNL     1      -9.444   8.037 -12.463  1.00  0.00     0.029 A 
ATOM     46  N   UNL     1      -7.641   9.301 -12.151  1.00  0.00    -0.354 N 
ATOM     47  N   UNL     1      -6.119  11.818 -12.185  1.00  0.00    -0.248 NA
ATOM     48  C   UNL     1      -5.913  14.056 -12.818  1.00  0.00     0.031 C 
ATOM     49  C   UNL     1      -9.706   9.314 -12.970  1.00  0.00     0.029 A 
ATOM     50  C   UNL     1      -8.588  10.106 -12.762  1.00  0.00     0.049 A 
ATOM     51  H   UNL     1      -6.740   9.592 -11.883  1.00  0.00     0.167 HD
ATOM     52  C   UNL     1      -7.284  12.217 -12.824  1.00  0.00     0.074 A 
ATOM     53  C   UNL     1      -7.112  13.613 -13.171  1.00  0.00     0.031 C 
ATOM     54  C   UNL     1      -8.395  11.493 -13.101  1.00  0.00     0.037 A 
BRANCH  41  55
ATOM     55  C   UNL     1      -8.097   5.593 -11.299  1.00  0.00     0.064 A 
ATOM     56  C   UNL     1      -8.565   5.079 -10.081  1.00  0.00     0.173 A 
ATOM     57  C   UNL     1      -8.304   4.831 -12.458  1.00  0.00     0.173 A 
ATOM     58  F   UNL     1      -8.377   5.763  -8.943  1.00  0.00    -0.203 F 
ATOM     59  C   UNL     1      -9.200   3.841 -10.025  1.00  0.00     0.198 A 
ATOM     60  C   UNL     1      -8.959   3.604 -12.402  1.00  0.00     0.198 A 
ATOM     61  F   UNL     1      -7.875   5.280 -13.648  1.00  0.00    -0.203 F 
ATOM     62  F   UNL     1      -9.607   3.351  -8.846  1.00  0.00    -0.200 F 
ATOM     63  C   UNL     1      -9.402   3.107 -11.185  1.00  0.00     0.200 A 
ATOM     64  F   UNL     1      -9.159   2.900 -13.525  1.00  0.00    -0.200 F 
ATOM     65  F   UNL     1     -10.017   1.918 -11.130  1.00  0.00    -0.200 F 
ENDBRANCH  41  55
BRANCH  42  66
ATOM     66  C   UNL     1      -3.221  14.303 -11.687  1.00  0.00     0.064 A 
ATOM     67  C   UNL     1      -3.613  15.403 -10.914  1.00  0.00     0.173 A 
ATOM     68  C   UNL     1      -2.116  14.460 -12.537  1.00  0.00     0.173 A 
ATOM     69  F   UNL     1      -4.680  15.309 -10.107  1.00  0.00    -0.203 F 
ATOM     70  C   UNL     1      -2.932  16.616 -10.994  1.00  0.00     0.198 A 
ATOM     71  C   UNL     1      -1.420  15.665 -12.597  1.00  0.00     0.198 A 
ATOM     72  F   UNL     1      -1.705  13.437 -13.301  1.00  0.00    -0.203 F 
ATOM     73  F   UNL     1      -3.349  17.665 -10.272  1.00  0.00    -0.200 F 
ATOM     74  C   UNL     1      -1.832  16.744 -11.829  1.00  0.00     0.200 A 
ATOM     75  F   UNL     1      -0.354  15.781 -13.400  1.00  0.00    -0.200 F 
ATOM     76  F   UNL     1      -1.175  17.909 -11.902  1.00  0.00    -0.200 F 
ENDBRANCH  42  66
BRANCH  54  77
ATOM     77  C   UNL     1      -9.515  12.203 -13.799  1.00  0.00     0.064 A 
ATOM     78  C   UNL     1      -9.447  12.509 -15.165  1.00  0.00     0.173 A 
ATOM     79  C   UNL     1     -10.683  12.547 -13.102  1.00  0.00     0.173 A 
ATOM     80  F   UNL     1      -8.343  12.213 -15.869  1.00  0.00    -0.203 F 
ATOM     81  C   UNL     1     -10.502  13.152 -15.806  1.00  0.00     0.198 A 
ATOM     82  C   UNL     1     -11.745  13.170 -13.751  1.00  0.00     0.198 A 
ATOM     83  F   UNL     1     -10.796  12.271 -11.794  1.00  0.00    -0.203 F 
ATOM     84  F   UNL     1     -10.401  13.470 -17.104  1.00  0.00    -0.200 F 
ATOM     85  C   UNL     1     -11.652  13.476 -15.101  1.00  0.00     0.200 A 
ATOM     86  F   UNL     1     -12.858  13.474 -13.071  1.00  0.00    -0.200 F 
ATOM     87  F   UNL     1     -12.668  14.091 -15.721  1.00  0.00    -0.200 F 
ENDBRANCH  54  77
ENDBRANCH  28  29
ENDBRANCH  21  23
ENDBRANCH  20  21
ENDBRANCH  19  20
ENDBRANCH   1  19
TORSDOF 13
