REMARK SMILES CCc1ccc(N2C(=O)C[C@@H](SC[C@@H](NC(C)=O)C(=O)OCCOC(=O)c3ccc(-c4c5nc(c(-c6c(F)c(F)c(F)c(F)c6F)c6ccc([nH]6)c(-c6c(F)c(F)c(F)c(F)c6F)c6nc(c(-c7c(F)c(F)c(F)c(F)c7F)c7ccc4[nH]7)C=C6)C=C5)cc3)C2=O)cc1
REMARK SMILES IDX 21 1 19 2 20 3 14 4 13 5 12 6 11 7 7 8 8 9 90 10 9 11 10 12
REMARK SMILES IDX 91 13 6 14 3 15 4 16 93 17 5 18 92 19 2 20 1 21 15 22 16 23
REMARK SMILES IDX 17 25 18 26 22 27 23 28 24 29 25 30 26 31 27 32 28 33 89 34
REMARK SMILES IDX 29 35 88 36 30 37 31 38 32 39 82 40 33 41 87 42 81 43 83 44
REMARK SMILES IDX 34 45 86 46 80 47 79 48 35 50 67 51 47 52 66 53 48 54 51 55
REMARK SMILES IDX 65 56 84 57 49 58 50 59 64 61 85 62 52 63 36 64 37 65 45 66
REMARK SMILES IDX 38 67 39 68 43 69 46 70 40 71 41 72 44 73 42 74 68 75 69 76
REMARK SMILES IDX 77 77 70 78 71 79 75 80 78 81 72 82 73 83 76 84 74 85 53 86
REMARK SMILES IDX 54 87 62 88 55 89 56 90 60 91 63 92 57 93 58 94 61 95 59 96
REMARK H PARENT 15 24 83 49 51 60
REMARK Flexibility Score: inf
ROOT
ATOM      1  O   UNL     1      -0.443 -10.614   6.573  1.00  0.00    -0.461 OA
ENDROOT
BRANCH   1   2
ATOM      2  C   UNL     1       0.883 -10.636   6.875  1.00  0.00     0.329 C 
ATOM      3  O   UNL     1       1.377 -11.184   7.855  1.00  0.00    -0.250 OA
BRANCH   2   4
ATOM      4  C   UNL     1       1.718  -9.832   5.856  1.00  0.00     0.202 C 
BRANCH   4   5
ATOM      5  C   UNL     1       0.944  -9.552   4.556  1.00  0.00     0.107 C 
BRANCH   5   6
ATOM      6  S   UNL     1       1.929  -9.056   3.087  1.00  0.00    -0.145 SA
BRANCH   6   7
ATOM      7  C   UNL     1       2.448  -7.339   3.434  1.00  0.00     0.146 C 
ATOM      8  N   UNL     1       1.688  -5.353   2.433  1.00  0.00    -0.250 N 
ATOM      9  C   UNL     1       1.169  -5.344   3.699  1.00  0.00     0.235 C 
ATOM     10  C   UNL     1       2.402  -6.499   2.164  1.00  0.00     0.247 C 
ATOM     11  O   UNL     1       0.412  -4.537   4.222  1.00  0.00    -0.274 OA
ATOM     12  C   UNL     1       1.647  -6.537   4.429  1.00  0.00     0.125 C 
ATOM     13  O   UNL     1       2.994  -6.785   1.130  1.00  0.00    -0.273 OA
BRANCH   8  14
ATOM     14  C   UNL     1       1.495  -4.274   1.545  1.00  0.00     0.052 A 
ATOM     15  C   UNL     1       0.941  -2.059  -0.116  1.00  0.00    -0.048 A 
ATOM     16  C   UNL     1       1.023  -3.359  -0.645  1.00  0.00     0.006 A 
ATOM     17  C   UNL     1       1.163  -1.883   1.249  1.00  0.00     0.006 A 
ATOM     18  C   UNL     1       1.325  -4.457   0.173  1.00  0.00     0.027 A 
ATOM     19  C   UNL     1       1.433  -2.974   2.064  1.00  0.00     0.027 A 
BRANCH  15  20
ATOM     20  C   UNL     1       0.543  -0.911  -1.012  1.00  0.00     0.032 C 
ATOM     21  C   UNL     1       0.953   0.475  -0.523  1.00  0.00     0.009 C 
ENDBRANCH  15  20
ENDBRANCH   8  14
ENDBRANCH   6   7
ENDBRANCH   5   6
ENDBRANCH   4   5
BRANCH   4  22
ATOM     22  N   UNL     1       2.368  -8.708   6.532  1.00  0.00    -0.342 N 
ATOM     23  C   UNL     1       1.656  -7.793   7.274  1.00  0.00     0.217 C 
ATOM     24  H   UNL     1       3.344  -8.604   6.455  1.00  0.00     0.164 HD
ATOM     25  C   UNL     1       2.504  -6.752   7.954  1.00  0.00     0.114 C 
ATOM     26  O   UNL     1       0.436  -7.819   7.374  1.00  0.00    -0.275 OA
ENDBRANCH   4  22
ENDBRANCH   2   4
ENDBRANCH   1   2
BRANCH   1  27
ATOM     27  C   UNL     1      -1.340 -11.261   7.489  1.00  0.00     0.274 C 
BRANCH  27  28
ATOM     28  C   UNL     1      -1.815 -12.602   6.926  1.00  0.00     0.275 C 
BRANCH  28  29
ATOM     29  O   UNL     1      -0.722 -13.527   6.780  1.00  0.00    -0.458 OA
BRANCH  29  30
ATOM     30  C   UNL     1      -0.105 -13.498   5.575  1.00  0.00     0.338 C 
ATOM     31  O   UNL     1      -0.412 -12.837   4.599  1.00  0.00    -0.246 OA
BRANCH  30  32
ATOM     32  C   UNL     1       1.155 -14.251   5.656  1.00  0.00     0.060 A 
ATOM     33  C   UNL     1       2.339 -13.565   5.368  1.00  0.00     0.016 A 
ATOM     34  C   UNL     1       1.178 -15.611   5.957  1.00  0.00     0.016 A 
ATOM     35  C   UNL     1       3.561 -14.222   5.413  1.00  0.00     0.010 A 
ATOM     36  C   UNL     1       2.404 -16.281   5.976  1.00  0.00     0.010 A 
ATOM     37  C   UNL     1       3.598 -15.588   5.706  1.00  0.00    -0.014 A 
BRANCH  37  38
ATOM     38  C   UNL     1       4.886 -16.310   5.645  1.00  0.00     0.031 A 
ATOM     39  C   UNL     1       5.202 -17.141   4.440  1.00  0.00     0.074 A 
ATOM     40  C   UNL     1       5.771 -16.194   6.649  1.00  0.00     0.049 A 
ATOM     41  N   UNL     1       6.213 -17.942   4.226  1.00  0.00    -0.248 NA
ATOM     42  C   UNL     1       4.249 -17.054   3.324  1.00  0.00     0.031 C 
ATOM     43  C   UNL     1       5.603 -15.342   7.826  1.00  0.00     0.029 A 
ATOM     44  N   UNL     1       6.987 -16.796   6.838  1.00  0.00    -0.354 N 
ATOM     45  C   UNL     1       6.007 -18.474   2.961  1.00  0.00     0.074 A 
ATOM     46  C   UNL     1       4.769 -17.913   2.460  1.00  0.00     0.031 C 
ATOM     47  C   UNL     1       6.680 -15.477   8.617  1.00  0.00     0.029 A 
ATOM     48  C   UNL     1       7.582 -16.464   8.029  1.00  0.00     0.049 A 
ATOM     49  H   UNL     1       7.395 -17.407   6.183  1.00  0.00     0.167 HD
ATOM     50  C   UNL     1       6.784 -19.352   2.283  1.00  0.00     0.037 A 
ATOM     51  C   UNL     1       8.711 -16.934   8.592  1.00  0.00     0.037 A 
ATOM     52  C   UNL     1       8.013 -19.899   2.795  1.00  0.00     0.049 A 
ATOM     53  C   UNL     1       9.499 -17.992   7.869  1.00  0.00     0.074 A 
ATOM     54  C   UNL     1       8.876 -20.800   2.197  1.00  0.00     0.029 A 
ATOM     55  N   UNL     1       8.550 -19.596   4.039  1.00  0.00    -0.354 N 
ATOM     56  N   UNL     1       9.289 -18.519   6.687  1.00  0.00    -0.248 NA
ATOM     57  C   UNL     1      10.672 -18.534   8.567  1.00  0.00     0.031 C 
ATOM     58  C   UNL     1       9.911 -21.077   3.098  1.00  0.00     0.029 A 
ATOM     59  C   UNL     1       9.720 -20.312   4.238  1.00  0.00     0.049 A 
ATOM     60  H   UNL     1       8.158 -18.965   4.684  1.00  0.00     0.167 HD
ATOM     61  C   UNL     1      10.311 -19.436   6.488  1.00  0.00     0.074 A 
ATOM     62  C   UNL     1      11.149 -19.386   7.670  1.00  0.00     0.031 C 
ATOM     63  C   UNL     1      10.538 -20.245   5.424  1.00  0.00     0.037 A 
BRANCH  50  64
ATOM     64  C   UNL     1       6.290 -19.806   0.941  1.00  0.00     0.064 A 
ATOM     65  C   UNL     1       6.274 -18.952  -0.172  1.00  0.00     0.173 A 
ATOM     66  C   UNL     1       5.809 -21.113   0.771  1.00  0.00     0.173 A 
ATOM     67  F   UNL     1       6.705 -17.687  -0.058  1.00  0.00    -0.203 F 
ATOM     68  C   UNL     1       5.759 -19.378  -1.394  1.00  0.00     0.198 A 
ATOM     69  C   UNL     1       5.323 -21.545  -0.460  1.00  0.00     0.198 A 
ATOM     70  F   UNL     1       5.804 -21.971   1.803  1.00  0.00    -0.203 F 
ATOM     71  F   UNL     1       5.696 -18.526  -2.426  1.00  0.00    -0.200 F 
ATOM     72  C   UNL     1       5.287 -20.674  -1.538  1.00  0.00     0.200 A 
ATOM     73  F   UNL     1       4.875 -22.801  -0.598  1.00  0.00    -0.200 F 
ATOM     74  F   UNL     1       4.786 -21.080  -2.712  1.00  0.00    -0.200 F 
ENDBRANCH  50  64
BRANCH  51  75
ATOM     75  C   UNL     1       9.147 -16.420   9.914  1.00  0.00     0.064 A 
ATOM     76  C   UNL     1      10.290 -15.618  10.029  1.00  0.00     0.173 A 
ATOM     77  C   UNL     1       8.427 -16.703  11.084  1.00  0.00     0.173 A 
ATOM     78  F   UNL     1      11.025 -15.341   8.942  1.00  0.00    -0.203 F 
ATOM     79  C   UNL     1      10.699 -15.121  11.265  1.00  0.00     0.198 A 
ATOM     80  C   UNL     1       8.822 -16.185  12.316  1.00  0.00     0.198 A 
ATOM     81  F   UNL     1       7.328 -17.470  11.028  1.00  0.00    -0.203 F 
ATOM     82  F   UNL     1      11.812 -14.381  11.352  1.00  0.00    -0.200 F 
ATOM     83  C   UNL     1       9.960 -15.398  12.406  1.00  0.00     0.200 A 
ATOM     84  F   UNL     1       8.099 -16.446  13.413  1.00  0.00    -0.200 F 
ATOM     85  F   UNL     1      10.347 -14.910  13.592  1.00  0.00    -0.200 F 
ENDBRANCH  51  75
BRANCH  63  86
ATOM     86  C   UNL     1      11.757 -21.118   5.477  1.00  0.00     0.064 A 
ATOM     87  C   UNL     1      11.815 -22.250   6.302  1.00  0.00     0.173 A 
ATOM     88  C   UNL     1      12.865 -20.838   4.663  1.00  0.00     0.173 A 
ATOM     89  F   UNL     1      10.788 -22.549   7.112  1.00  0.00    -0.203 F 
ATOM     90  C   UNL     1      12.948 -23.060   6.325  1.00  0.00     0.198 A 
ATOM     91  C   UNL     1      13.985 -21.665   4.668  1.00  0.00     0.198 A 
ATOM     92  F   UNL     1      12.857 -19.769   3.853  1.00  0.00    -0.203 F 
ATOM     93  F   UNL     1      13.000 -24.113   7.153  1.00  0.00    -0.200 F 
ATOM     94  C   UNL     1      14.028 -22.771   5.503  1.00  0.00     0.200 A 
ATOM     95  F   UNL     1      15.023 -21.391   3.866  1.00  0.00    -0.200 F 
ATOM     96  F   UNL     1      15.114 -23.556   5.522  1.00  0.00    -0.200 F 
ENDBRANCH  63  86
ENDBRANCH  37  38
ENDBRANCH  30  32
ENDBRANCH  29  30
ENDBRANCH  28  29
ENDBRANCH  27  28
ENDBRANCH   1  27
TORSDOF 17
