REMARK SMILES CCOC(=O)c1c(NC(=O)/C=C/C(=O)OCCOC(=O)c2ccc(-c3c4nc(c(-c5c(F)c(F)c(F)c(F)c5F)c5ccc([nH]5)c(-c5c(F)c(F)c(F)c(F)c5F)c5nc(c(-c6c(F)c(F)c(F)c(F)c6F)c6ccc3[nH]6)C=C5)C=C4)cc2)sc(C)c1-c1ccc(C)c(C)c1
REMARK SMILES IDX 15 1 13 2 14 3 12 4 11 5 9 6 8 7 10 9 7 10 6 11 87 12 84 13
REMARK SMILES IDX 85 14 86 15 4 16 5 17 3 18 2 19 1 20 88 21 89 22 95 23 90 24
REMARK SMILES IDX 93 25 91 26 94 27 92 28 16 29 17 30 18 31 19 32 20 33 21 34
REMARK SMILES IDX 22 35 83 36 23 37 82 38 24 39 25 40 26 41 76 42 27 43 81 44
REMARK SMILES IDX 75 45 77 46 28 47 80 48 74 49 73 50 29 52 61 53 41 54 60 55
REMARK SMILES IDX 42 56 45 57 59 58 78 59 43 60 44 61 58 63 79 64 46 65 30 66
REMARK SMILES IDX 31 67 39 68 32 69 33 70 37 71 40 72 34 73 35 74 38 75 36 76
REMARK SMILES IDX 62 77 63 78 71 79 64 80 65 81 69 82 72 83 66 84 67 85 70 86
REMARK SMILES IDX 68 87 47 88 48 89 56 90 49 91 50 92 54 93 57 94 51 95 52 96
REMARK SMILES IDX 55 97 53 98
REMARK H PARENT 8 8 77 51 45 62
REMARK Flexibility Score: inf
ROOT
ATOM      1  O   UNL     1       7.401   6.362  -4.386  1.00  0.00    -0.459 OA
ENDROOT
BRANCH   1   2
ATOM      2  C   UNL     1       7.440   6.195  -3.043  1.00  0.00     0.331 C 
ATOM      3  O   UNL     1       7.615   7.080  -2.215  1.00  0.00    -0.247 OA
BRANCH   2   4
ATOM      4  C   UNL     1       7.258   4.794  -2.606  1.00  0.00     0.099 C 
ATOM      5  C   UNL     1       6.545   3.872  -3.270  1.00  0.00     0.079 C 
BRANCH   5   6
ATOM      6  C   UNL     1       6.140   2.615  -2.584  1.00  0.00     0.249 C 
ATOM      7  N   UNL     1       5.089   2.548  -1.696  1.00  0.00    -0.313 N 
ATOM      8  H   UNL     1       4.883   1.632  -1.399  1.00  0.00     0.171 HD
ATOM      9  O   UNL     1       6.733   1.579  -2.892  1.00  0.00    -0.270 OA
BRANCH   7  10
ATOM     10  C   UNL     1       4.259   3.512  -1.133  1.00  0.00     0.111 A 
ATOM     11  C   UNL     1       3.138   3.352  -0.319  1.00  0.00     0.102 A 
ATOM     12  C   UNL     1       2.599   4.645   0.088  1.00  0.00     0.012 A 
ATOM     13  S   UNL     1       4.562   5.146  -1.389  1.00  0.00    -0.122 S 
ATOM     14  C   UNL     1       3.495   5.655  -0.198  1.00  0.00     0.012 A 
ATOM     15  C   UNL     1       3.640   7.048   0.288  1.00  0.00     0.057 C 
BRANCH  11  16
ATOM     16  C   UNL     1       2.617   2.061   0.101  1.00  0.00     0.341 C 
ATOM     17  O   UNL     1       3.362   1.109   0.370  1.00  0.00    -0.246 OA
BRANCH  16  18
ATOM     18  O   UNL     1       1.265   2.030   0.177  1.00  0.00    -0.462 OA
BRANCH  18  19
ATOM     19  C   UNL     1       0.658   0.900   0.820  1.00  0.00     0.230 C 
ATOM     20  C   UNL     1       0.739  -0.362  -0.019  1.00  0.00     0.049 C 
ENDBRANCH  18  19
ENDBRANCH  16  18
ENDBRANCH  11  16
BRANCH  12  21
ATOM     21  C   UNL     1       1.374   4.936   0.813  1.00  0.00    -0.016 A 
ATOM     22  C   UNL     1       1.343   5.012   2.202  1.00  0.00     0.009 A 
ATOM     23  C   UNL     1       0.208   5.189   0.078  1.00  0.00     0.012 A 
ATOM     24  C   UNL     1       0.155   5.365   2.847  1.00  0.00     0.004 A 
ATOM     25  C   UNL     1      -0.990   5.542   0.716  1.00  0.00    -0.048 A 
ATOM     26  C   UNL     1      -1.012   5.653   2.118  1.00  0.00    -0.048 A 
ATOM     27  C   UNL     1      -2.217   5.784  -0.117  1.00  0.00     0.044 C 
ATOM     28  C   UNL     1      -2.269   6.004   2.869  1.00  0.00     0.044 C 
ENDBRANCH  12  21
ENDBRANCH   7  10
ENDBRANCH   5   6
ENDBRANCH   2   4
ENDBRANCH   1   2
BRANCH   1  29
ATOM     29  C   UNL     1       7.795   7.673  -4.851  1.00  0.00     0.275 C 
BRANCH  29  30
ATOM     30  C   UNL     1       6.756   8.295  -5.787  1.00  0.00     0.275 C 
BRANCH  30  31
ATOM     31  O   UNL     1       5.577   8.712  -5.065  1.00  0.00    -0.458 OA
BRANCH  31  32
ATOM     32  C   UNL     1       4.457   7.994  -5.318  1.00  0.00     0.338 C 
ATOM     33  O   UNL     1       4.346   7.052  -6.086  1.00  0.00    -0.246 OA
BRANCH  32  34
ATOM     34  C   UNL     1       3.371   8.393  -4.400  1.00  0.00     0.060 A 
ATOM     35  C   UNL     1       2.839   7.383  -3.603  1.00  0.00     0.016 A 
ATOM     36  C   UNL     1       2.827   9.681  -4.342  1.00  0.00     0.016 A 
ATOM     37  C   UNL     1       1.812   7.662  -2.705  1.00  0.00     0.010 A 
ATOM     38  C   UNL     1       1.764   9.954  -3.456  1.00  0.00     0.010 A 
ATOM     39  C   UNL     1       1.261   8.947  -2.615  1.00  0.00    -0.014 A 
BRANCH  39  40
ATOM     40  C   UNL     1       0.116   9.145  -1.682  1.00  0.00     0.031 A 
ATOM     41  C   UNL     1      -1.272   8.792  -2.132  1.00  0.00     0.074 A 
ATOM     42  C   UNL     1       0.324   9.447  -0.385  1.00  0.00     0.049 A 
ATOM     43  N   UNL     1      -2.400   8.851  -1.468  1.00  0.00    -0.248 NA
ATOM     44  C   UNL     1      -1.406   8.282  -3.504  1.00  0.00     0.031 C 
ATOM     45  C   UNL     1       1.627   9.720   0.211  1.00  0.00     0.029 A 
ATOM     46  N   UNL     1      -0.549   9.524   0.677  1.00  0.00    -0.354 N 
ATOM     47  C   UNL     1      -3.368   8.347  -2.323  1.00  0.00     0.074 A 
ATOM     48  C   UNL     1      -2.708   8.041  -3.575  1.00  0.00     0.031 C 
ATOM     49  C   UNL     1       1.480   9.873   1.538  1.00  0.00     0.029 A 
ATOM     50  C   UNL     1       0.062   9.794   1.880  1.00  0.00     0.049 A 
ATOM     51  H   UNL     1      -1.521   9.396   0.585  1.00  0.00     0.167 HD
ATOM     52  C   UNL     1      -4.677   8.109  -2.069  1.00  0.00     0.037 A 
ATOM     53  C   UNL     1      -0.460   9.993   3.109  1.00  0.00     0.037 A 
ATOM     54  C   UNL     1      -5.339   8.356  -0.815  1.00  0.00     0.049 A 
ATOM     55  C   UNL     1      -1.957   9.926   3.298  1.00  0.00     0.074 A 
ATOM     56  C   UNL     1      -6.672   8.159  -0.494  1.00  0.00     0.029 A 
ATOM     57  N   UNL     1      -4.723   8.838   0.329  1.00  0.00    -0.354 N 
ATOM     58  N   UNL     1      -2.885   9.546   2.455  1.00  0.00    -0.248 NA
ATOM     59  C   UNL     1      -2.483  10.345   4.608  1.00  0.00     0.031 C 
ATOM     60  C   UNL     1      -6.868   8.544   0.836  1.00  0.00     0.029 A 
ATOM     61  C   UNL     1      -5.649   8.942   1.357  1.00  0.00     0.049 A 
ATOM     62  H   UNL     1      -3.769   9.072   0.402  1.00  0.00     0.167 HD
ATOM     63  C   UNL     1      -4.092   9.659   3.135  1.00  0.00     0.074 A 
ATOM     64  C   UNL     1      -3.781  10.121   4.470  1.00  0.00     0.031 C 
ATOM     65  C   UNL     1      -5.345   9.404   2.688  1.00  0.00     0.037 A 
BRANCH  52  66
ATOM     66  C   UNL     1      -5.494   7.538  -3.185  1.00  0.00     0.064 A 
ATOM     67  C   UNL     1      -5.400   6.186  -3.543  1.00  0.00     0.173 A 
ATOM     68  C   UNL     1      -6.415   8.344  -3.869  1.00  0.00     0.173 A 
ATOM     69  F   UNL     1      -4.525   5.382  -2.921  1.00  0.00    -0.203 F 
ATOM     70  C   UNL     1      -6.189   5.665  -4.565  1.00  0.00     0.198 A 
ATOM     71  C   UNL     1      -7.217   7.814  -4.874  1.00  0.00     0.198 A 
ATOM     72  F   UNL     1      -6.544   9.641  -3.551  1.00  0.00    -0.203 F 
ATOM     73  F   UNL     1      -6.061   4.378  -4.918  1.00  0.00    -0.200 F 
ATOM     74  C   UNL     1      -7.100   6.477  -5.225  1.00  0.00     0.200 A 
ATOM     75  F   UNL     1      -8.106   8.597  -5.501  1.00  0.00    -0.200 F 
ATOM     76  F   UNL     1      -7.863   5.972  -6.203  1.00  0.00    -0.200 F 
ENDBRANCH  52  66
BRANCH  53  77
ATOM     77  C   UNL     1       0.412  10.374   4.259  1.00  0.00     0.064 A 
ATOM     78  C   UNL     1       0.469   9.599   5.428  1.00  0.00     0.173 A 
ATOM     79  C   UNL     1       1.126  11.583   4.251  1.00  0.00     0.173 A 
ATOM     80  F   UNL     1      -0.224   8.453   5.508  1.00  0.00    -0.203 F 
ATOM     81  C   UNL     1       1.176  10.036   6.550  1.00  0.00     0.198 A 
ATOM     82  C   UNL     1       1.866  11.997   5.357  1.00  0.00     0.198 A 
ATOM     83  F   UNL     1       1.093  12.377   3.171  1.00  0.00    -0.203 F 
ATOM     84  F   UNL     1       1.143   9.317   7.681  1.00  0.00    -0.200 F 
ATOM     85  C   UNL     1       1.877  11.232   6.511  1.00  0.00     0.200 A 
ATOM     86  F   UNL     1       2.547  13.150   5.309  1.00  0.00    -0.200 F 
ATOM     87  F   UNL     1       2.542  11.658   7.593  1.00  0.00    -0.200 F 
ENDBRANCH  53  77
BRANCH  65  88
ATOM     88  C   UNL     1      -6.483   9.588   3.653  1.00  0.00     0.064 A 
ATOM     89  C   UNL     1      -6.897  10.863   4.068  1.00  0.00     0.173 A 
ATOM     90  C   UNL     1      -7.196   8.480   4.138  1.00  0.00     0.173 A 
ATOM     91  F   UNL     1      -6.237  11.954   3.653  1.00  0.00    -0.203 F 
ATOM     92  C   UNL     1      -7.969  11.020   4.945  1.00  0.00     0.198 A 
ATOM     93  C   UNL     1      -8.287   8.642   4.988  1.00  0.00     0.198 A 
ATOM     94  F   UNL     1      -6.843   7.237   3.774  1.00  0.00    -0.203 F 
ATOM     95  F   UNL     1      -8.316  12.245   5.362  1.00  0.00    -0.200 F 
ATOM     96  C   UNL     1      -8.669   9.911   5.395  1.00  0.00     0.200 A 
ATOM     97  F   UNL     1      -8.971   7.569   5.411  1.00  0.00    -0.200 F 
ATOM     98  F   UNL     1      -9.708  10.065   6.228  1.00  0.00    -0.200 F 
ENDBRANCH  65  88
ENDBRANCH  39  40
ENDBRANCH  32  34
ENDBRANCH  31  32
ENDBRANCH  30  31
ENDBRANCH  29  30
ENDBRANCH   1  29
TORSDOF 17
