REMARK SMILES O=C(OCCOC(=O)c1ccc2c(=O)[nH]c(N3CC[NH2+]CC3)nc2c1)c1ccc(-c2c3nc(c(-c4c(F)c(F)c(F)c(F)c4F)c4ccc([nH]4)c(-c4c(F)c(F)c(F)c(F)c4F)c4nc(c(-c5c(F)c(F)c(F)c(F)c5F)c5ccc2[nH]5)C=C4)C=C3)cc1
REMARK SMILES IDX 4 1 3 2 2 3 1 4 26 5 27 6 88 7 28 8 87 9 29 10 30 11 31 12
REMARK SMILES IDX 81 13 32 14 86 15 80 16 82 17 33 18 85 19 79 20 78 21 34 23
REMARK SMILES IDX 66 24 46 25 65 26 47 27 50 28 64 29 83 30 48 31 49 32 63 34
REMARK SMILES IDX 84 35 51 36 35 37 36 38 44 39 37 40 38 41 42 42 45 43 39 44
REMARK SMILES IDX 40 45 43 46 41 47 67 48 68 49 76 50 69 51 70 52 74 53 77 54
REMARK SMILES IDX 71 55 72 56 75 57 73 58 52 59 53 60 61 61 54 62 55 63 59 64
REMARK SMILES IDX 62 65 56 66 57 67 60 68 58 69 5 70 6 71 7 72 8 73 9 74 10 75
REMARK SMILES IDX 25 76 11 77 24 78 12 79 23 80 13 81 16 82 14 83 15 84 17 86
REMARK SMILES IDX 18 87 22 88 19 89 21 90 20 91
REMARK H PARENT 82 22 50 33 15 85 20 92 20 93
REMARK Flexibility Score: inf
ROOT
ATOM      1  C   UNL     1       4.149  -1.281   0.752  1.00  0.00     0.275 C 
ENDROOT
BRANCH   1   2
ATOM      2  O   UNL     1       3.084  -0.362   1.047  1.00  0.00    -0.458 OA
BRANCH   2   3
ATOM      3  C   UNL     1       2.822   0.867   0.547  1.00  0.00     0.338 C 
ATOM      4  O   UNL     1       1.942   1.542   1.082  1.00  0.00    -0.246 OA
BRANCH   3   5
ATOM      5  C   UNL     1       3.458   1.426  -0.691  1.00  0.00     0.060 A 
ATOM      6  C   UNL     1       4.694   1.058  -1.231  1.00  0.00     0.016 A 
ATOM      7  C   UNL     1       2.717   2.409  -1.373  1.00  0.00     0.016 A 
ATOM      8  C   UNL     1       5.152   1.591  -2.439  1.00  0.00     0.010 A 
ATOM      9  C   UNL     1       3.165   2.948  -2.581  1.00  0.00     0.010 A 
ATOM     10  C   UNL     1       4.394   2.542  -3.114  1.00  0.00    -0.014 A 
BRANCH  10  11
ATOM     11  C   UNL     1       4.980   3.285  -4.247  1.00  0.00     0.031 A 
ATOM     12  C   UNL     1       5.506   4.656  -3.967  1.00  0.00     0.074 A 
ATOM     13  C   UNL     1       5.048   2.758  -5.480  1.00  0.00     0.049 A 
ATOM     14  N   UNL     1       5.976   5.549  -4.794  1.00  0.00    -0.248 NA
ATOM     15  C   UNL     1       5.529   5.064  -2.552  1.00  0.00     0.031 C 
ATOM     16  C   UNL     1       4.697   1.388  -5.830  1.00  0.00     0.029 A 
ATOM     17  N   UNL     1       5.391   3.329  -6.678  1.00  0.00    -0.354 N 
ATOM     18  C   UNL     1       6.372   6.612  -3.998  1.00  0.00     0.074 A 
ATOM     19  C   UNL     1       6.025   6.286  -2.634  1.00  0.00     0.031 C 
ATOM     20  C   UNL     1       4.712   1.255  -7.167  1.00  0.00     0.029 A 
ATOM     21  C   UNL     1       5.095   2.532  -7.758  1.00  0.00     0.049 A 
ATOM     22  H   UNL     1       5.807   4.218  -6.757  1.00  0.00     0.167 HD
ATOM     23  C   UNL     1       6.998   7.747  -4.380  1.00  0.00     0.037 A 
ATOM     24  C   UNL     1       5.104   2.822  -9.072  1.00  0.00     0.037 A 
ATOM     25  C   UNL     1       7.293   8.057  -5.751  1.00  0.00     0.049 A 
ATOM     26  C   UNL     1       5.630   4.161  -9.498  1.00  0.00     0.074 A 
ATOM     27  C   UNL     1       7.920   9.172  -6.271  1.00  0.00     0.029 A 
ATOM     28  N   UNL     1       6.947   7.247  -6.827  1.00  0.00    -0.354 N 
ATOM     29  N   UNL     1       6.042   5.156  -8.748  1.00  0.00    -0.248 NA
ATOM     30  C   UNL     1       5.745   4.404 -10.940  1.00  0.00     0.031 C 
ATOM     31  C   UNL     1       7.888   9.071  -7.666  1.00  0.00     0.029 A 
ATOM     32  C   UNL     1       7.309   7.858  -8.014  1.00  0.00     0.049 A 
ATOM     33  H   UNL     1       6.509   6.368  -6.755  1.00  0.00     0.167 HD
ATOM     34  C   UNL     1       6.522   6.119  -9.621  1.00  0.00     0.074 A 
ATOM     35  C   UNL     1       6.323   5.599 -10.960  1.00  0.00     0.031 C 
ATOM     36  C   UNL     1       7.105   7.309  -9.334  1.00  0.00     0.037 A 
BRANCH  23  37
ATOM     37  C   UNL     1       7.334   8.725  -3.295  1.00  0.00     0.064 A 
ATOM     38  C   UNL     1       8.280   8.431  -2.298  1.00  0.00     0.173 A 
ATOM     39  C   UNL     1       6.644   9.942  -3.203  1.00  0.00     0.173 A 
ATOM     40  F   UNL     1       8.951   7.268  -2.325  1.00  0.00    -0.203 F 
ATOM     41  C   UNL     1       8.477   9.291  -1.221  1.00  0.00     0.198 A 
ATOM     42  C   UNL     1       6.870  10.816  -2.144  1.00  0.00     0.198 A 
ATOM     43  F   UNL     1       5.727  10.271  -4.126  1.00  0.00    -0.203 F 
ATOM     44  F   UNL     1       9.317   8.945  -0.235  1.00  0.00    -0.200 F 
ATOM     45  C   UNL     1       7.772  10.482  -1.145  1.00  0.00     0.200 A 
ATOM     46  F   UNL     1       6.193  11.970  -2.074  1.00  0.00    -0.200 F 
ATOM     47  F   UNL     1       7.947  11.299  -0.097  1.00  0.00    -0.200 F 
ENDBRANCH  23  37
BRANCH  24  48
ATOM     48  C   UNL     1       4.609   1.824 -10.053  1.00  0.00     0.064 A 
ATOM     49  C   UNL     1       5.488   1.049 -10.818  1.00  0.00     0.173 A 
ATOM     50  C   UNL     1       3.233   1.605 -10.218  1.00  0.00     0.173 A 
ATOM     51  F   UNL     1       6.810   1.250 -10.726  1.00  0.00    -0.203 F 
ATOM     52  C   UNL     1       5.010   0.081 -11.701  1.00  0.00     0.198 A 
ATOM     53  C   UNL     1       2.756   0.616 -11.077  1.00  0.00     0.198 A 
ATOM     54  F   UNL     1       2.353   2.368  -9.558  1.00  0.00    -0.203 F 
ATOM     55  F   UNL     1       5.870  -0.629 -12.443  1.00  0.00    -0.200 F 
ATOM     56  C   UNL     1       3.646  -0.145 -11.818  1.00  0.00     0.200 A 
ATOM     57  F   UNL     1       1.437   0.405 -11.195  1.00  0.00    -0.200 F 
ATOM     58  F   UNL     1       3.190  -1.088 -12.655  1.00  0.00    -0.200 F 
ENDBRANCH  24  48
BRANCH  36  59
ATOM     59  C   UNL     1       7.632   8.112 -10.484  1.00  0.00     0.064 A 
ATOM     60  C   UNL     1       6.782   8.808 -11.352  1.00  0.00     0.173 A 
ATOM     61  C   UNL     1       9.018   8.267 -10.646  1.00  0.00     0.173 A 
ATOM     62  F   UNL     1       5.451   8.677 -11.245  1.00  0.00    -0.203 F 
ATOM     63  C   UNL     1       7.301   9.633 -12.345  1.00  0.00     0.198 A 
ATOM     64  C   UNL     1       9.532   9.117 -11.618  1.00  0.00     0.198 A 
ATOM     65  F   UNL     1       9.870   7.622  -9.835  1.00  0.00    -0.203 F 
ATOM     66  F   UNL     1       6.473  10.272 -13.182  1.00  0.00    -0.200 F 
ATOM     67  C   UNL     1       8.674   9.798 -12.467  1.00  0.00     0.200 A 
ATOM     68  F   UNL     1      10.857   9.290 -11.721  1.00  0.00    -0.200 F 
ATOM     69  F   UNL     1       9.170  10.617 -13.404  1.00  0.00    -0.200 F 
ENDBRANCH  36  59
ENDBRANCH  10  11
ENDBRANCH   3   5
ENDBRANCH   2   3
ENDBRANCH   1   2
BRANCH   1  70
ATOM     70  C   UNL     1       3.890  -2.202  -0.445  1.00  0.00     0.275 C 
BRANCH  70  71
ATOM     71  O   UNL     1       3.355  -1.535  -1.600  1.00  0.00    -0.458 OA
BRANCH  71  72
ATOM     72  C   UNL     1       1.994  -1.502  -1.681  1.00  0.00     0.338 C 
ATOM     73  O   UNL     1       1.206  -1.987  -0.898  1.00  0.00    -0.246 OA
BRANCH  72  74
ATOM     74  C   UNL     1       1.598  -0.683  -2.850  1.00  0.00     0.062 A 
ATOM     75  C   UNL     1       2.191  -0.908  -4.095  1.00  0.00     0.016 A 
ATOM     76  C   UNL     1       0.630   0.326  -2.690  1.00  0.00     0.045 A 
ATOM     77  C   UNL     1       1.821  -0.115  -5.177  1.00  0.00     0.017 A 
ATOM     78  C   UNL     1       0.305   1.174  -3.756  1.00  0.00     0.081 A 
ATOM     79  C   UNL     1       0.912   0.930  -4.989  1.00  0.00     0.066 A 
ATOM     80  N   UNL     1      -0.607   2.236  -3.563  1.00  0.00    -0.214 NA
ATOM     81  C   UNL     1       0.571   1.820  -6.102  1.00  0.00     0.260 A 
ATOM     82  C   UNL     1      -0.928   2.967  -4.587  1.00  0.00     0.206 A 
ATOM     83  O   UNL     1       1.076   1.692  -7.210  1.00  0.00    -0.269 OA
ATOM     84  N   UNL     1      -0.353   2.782  -5.814  1.00  0.00    -0.292 N 
ATOM     85  H   UNL     1      -0.625   3.387  -6.542  1.00  0.00     0.173 HD
BRANCH  82  86
ATOM     86  N   UNL     1      -1.849   3.979  -4.565  1.00  0.00    -0.331 N 
ATOM     87  C   UNL     1      -1.867   5.007  -3.522  1.00  0.00     0.181 C 
ATOM     88  C   UNL     1      -3.118   3.842  -5.292  1.00  0.00     0.181 C 
ATOM     89  C   UNL     1      -2.329   6.352  -4.140  1.00  0.00     0.282 C 
ATOM     90  C   UNL     1      -3.556   5.203  -5.868  1.00  0.00     0.282 C 
ATOM     91  N   UNL     1      -3.623   6.275  -4.855  1.00  0.00    -0.343 N 
ATOM     92  H   UNL     1      -3.813   7.166  -5.314  1.00  0.00     0.346 HD
ATOM     93  H   UNL     1      -4.370   6.073  -4.191  1.00  0.00     0.346 HD
ENDBRANCH  82  86
ENDBRANCH  72  74
ENDBRANCH  71  72
ENDBRANCH  70  71
ENDBRANCH   1  70
TORSDOF 12
