REMARK SMILES Nc1ccc(-c2cc(O)ccc2Cl)c(C(=O)OCCOC(=O)c2ccc(-c3c4nc(c(-c5c(F)c(F)c(F)c(F)c5F)c5ccc([nH]5)c(-c5c(F)c(F)c(F)c(F)c5F)c5nc(c(-c6c(F)c(F)c(F)c(F)c6F)c6ccc3[nH]6)C=C5)C=C4)cc2)n1
REMARK SMILES IDX 18 1 17 2 15 3 16 4 14 5 2 6 3 7 86 8 4 9 5 10 1 11 6 14
REMARK SMILES IDX 7 15 12 16 8 17 11 18 13 19 10 20 9 21 19 23 20 24 21 25
REMARK SMILES IDX 22 26 23 27 24 28 85 29 25 30 84 31 26 32 27 33 28 34 78 35
REMARK SMILES IDX 29 36 83 37 77 38 79 39 30 40 82 41 76 42 75 43 31 45 63 46
REMARK SMILES IDX 43 47 62 48 44 49 47 50 61 51 80 52 45 53 46 54 60 56 81 57
REMARK SMILES IDX 48 58 32 59 33 60 41 61 34 62 35 63 39 64 42 65 36 66 37 67
REMARK SMILES IDX 40 68 38 69 64 70 65 71 73 72 66 73 67 74 71 75 74 76 68 77
REMARK SMILES IDX 69 78 72 79 70 80 49 81 50 82 58 83 51 84 52 85 56 86 59 87
REMARK SMILES IDX 53 88 54 89 57 90 55 91
REMARK H PARENT 1 12 1 13 9 22 79 44 47 55
REMARK Flexibility Score: inf
ROOT
ATOM      1  C   UNL     1      -3.334   3.893   0.150  1.00  0.00     0.275 C 
ENDROOT
BRANCH   1   2
ATOM      2  O   UNL     1      -2.831   2.543   0.147  1.00  0.00    -0.457 OA
BRANCH   2   3
ATOM      3  C   UNL     1      -1.770   2.288  -0.665  1.00  0.00     0.357 C 
ATOM      4  O   UNL     1      -1.190   3.115  -1.352  1.00  0.00    -0.244 OA
BRANCH   3   5
ATOM      5  C   UNL     1      -1.325   0.859  -0.525  1.00  0.00     0.158 A 
ATOM      6  C   UNL     1       0.566  -0.483  -0.320  1.00  0.00     0.124 A 
ATOM      7  C   UNL     1      -0.218  -1.601  -0.114  1.00  0.00     0.047 A 
ATOM      8  N   UNL     1       0.036   0.725  -0.534  1.00  0.00    -0.224 NA
ATOM      9  C   UNL     1      -1.606  -1.472  -0.161  1.00  0.00     0.015 A 
ATOM     10  C   UNL     1      -2.205  -0.220  -0.373  1.00  0.00     0.017 A 
BRANCH   6  11
ATOM     11  N   UNL     1       1.939  -0.541  -0.215  1.00  0.00    -0.384 N 
ATOM     12  H   UNL     1       2.384  -1.405  -0.057  1.00  0.00     0.158 HD
ATOM     13  H   UNL     1       2.474   0.281  -0.297  1.00  0.00     0.158 HD
ENDBRANCH   6  11
BRANCH  10  14
ATOM     14  C   UNL     1      -3.674  -0.113  -0.414  1.00  0.00     0.006 A 
ATOM     15  C   UNL     1      -4.410  -0.412   0.751  1.00  0.00     0.056 A 
ATOM     16  C   UNL     1      -4.388   0.293  -1.561  1.00  0.00     0.049 A 
ATOM     17  C   UNL     1      -5.796  -0.284   0.764  1.00  0.00     0.116 A 
ATOM     18  C   UNL     1      -5.779   0.434  -1.528  1.00  0.00     0.025 A 
ATOM     19  Cl  UNL     1      -3.596   0.618  -3.065  1.00  0.00    -0.084 Cl
ATOM     20  C   UNL     1      -6.483   0.147  -0.361  1.00  0.00     0.048 A 
BRANCH  17  21
ATOM     21  O   UNL     1      -6.524  -0.573   1.879  1.00  0.00    -0.508 OA
ATOM     22  H   UNL     1      -6.093  -0.867   2.658  1.00  0.00     0.293 HD
ENDBRANCH  17  21
ENDBRANCH  10  14
ENDBRANCH   3   5
ENDBRANCH   2   3
ENDBRANCH   1   2
BRANCH   1  23
ATOM     23  C   UNL     1      -3.006   4.603   1.466  1.00  0.00     0.275 C 
BRANCH  23  24
ATOM     24  O   UNL     1      -1.595   4.872   1.571  1.00  0.00    -0.458 OA
BRANCH  24  25
ATOM     25  C   UNL     1      -0.883   3.946   2.247  1.00  0.00     0.338 C 
ATOM     26  O   UNL     1      -1.309   2.963   2.841  1.00  0.00    -0.246 OA
BRANCH  25  27
ATOM     27  C   UNL     1       0.550   4.204   2.058  1.00  0.00     0.060 A 
ATOM     28  C   UNL     1       1.262   3.304   1.269  1.00  0.00     0.016 A 
ATOM     29  C   UNL     1       1.208   5.256   2.695  1.00  0.00     0.016 A 
ATOM     30  C   UNL     1       2.636   3.427   1.118  1.00  0.00     0.010 A 
ATOM     31  C   UNL     1       2.594   5.389   2.537  1.00  0.00     0.010 A 
ATOM     32  C   UNL     1       3.317   4.466   1.758  1.00  0.00    -0.014 A 
BRANCH  32  33
ATOM     33  C   UNL     1       4.795   4.521   1.661  1.00  0.00     0.031 A 
ATOM     34  C   UNL     1       5.631   4.143   2.848  1.00  0.00     0.074 A 
ATOM     35  C   UNL     1       5.383   4.841   0.494  1.00  0.00     0.049 A 
ATOM     36  N   UNL     1       6.931   4.189   2.996  1.00  0.00    -0.248 NA
ATOM     37  C   UNL     1       4.908   3.641   4.027  1.00  0.00     0.031 C 
ATOM     38  C   UNL     1       4.677   5.151  -0.749  1.00  0.00     0.029 A 
ATOM     39  N   UNL     1       6.710   4.943   0.161  1.00  0.00    -0.354 N 
ATOM     40  C   UNL     1       7.178   3.760   4.293  1.00  0.00     0.074 A 
ATOM     41  C   UNL     1       5.895   3.458   4.892  1.00  0.00     0.031 C 
ATOM     42  C   UNL     1       5.578   5.393  -1.714  1.00  0.00     0.029 A 
ATOM     43  C   UNL     1       6.921   5.308  -1.145  1.00  0.00     0.049 A 
ATOM     44  H   UNL     1       7.441   4.771   0.798  1.00  0.00     0.167 HD
ATOM     45  C   UNL     1       8.369   3.634   4.924  1.00  0.00     0.037 A 
ATOM     46  C   UNL     1       8.068   5.569  -1.801  1.00  0.00     0.037 A 
ATOM     47  C   UNL     1       9.644   3.900   4.313  1.00  0.00     0.049 A 
ATOM     48  C   UNL     1       9.374   5.470  -1.062  1.00  0.00     0.074 A 
ATOM     49  C   UNL     1      10.908   3.793   4.866  1.00  0.00     0.029 A 
ATOM     50  N   UNL     1       9.815   4.321   3.002  1.00  0.00    -0.354 N 
ATOM     51  N   UNL     1       9.598   5.103   0.176  1.00  0.00    -0.248 NA
ATOM     52  C   UNL     1      10.586   5.837  -1.808  1.00  0.00     0.031 C 
ATOM     53  C   UNL     1      11.843   4.182   3.899  1.00  0.00     0.029 A 
ATOM     54  C   UNL     1      11.163   4.495   2.733  1.00  0.00     0.049 A 
ATOM     55  H   UNL     1       9.086   4.474   2.358  1.00  0.00     0.167 HD
ATOM     56  C   UNL     1      10.971   5.184   0.356  1.00  0.00     0.074 A 
ATOM     57  C   UNL     1      11.533   5.617  -0.907  1.00  0.00     0.031 C 
ATOM     58  C   UNL     1      11.701   4.927   1.469  1.00  0.00     0.037 A 
BRANCH  45  59
ATOM     59  C   UNL     1       8.343   3.228   6.367  1.00  0.00     0.064 A 
ATOM     60  C   UNL     1       8.061   1.914   6.764  1.00  0.00     0.173 A 
ATOM     61  C   UNL     1       8.623   4.172   7.367  1.00  0.00     0.173 A 
ATOM     62  F   UNL     1       7.771   0.980   5.846  1.00  0.00    -0.203 F 
ATOM     63  C   UNL     1       8.036   1.564   8.112  1.00  0.00     0.198 A 
ATOM     64  C   UNL     1       8.621   3.813   8.712  1.00  0.00     0.198 A 
ATOM     65  F   UNL     1       8.902   5.443   7.039  1.00  0.00    -0.203 F 
ATOM     66  F   UNL     1       7.722   0.312   8.472  1.00  0.00    -0.200 F 
ATOM     67  C   UNL     1       8.321   2.512   9.084  1.00  0.00     0.200 A 
ATOM     68  F   UNL     1       8.905   4.729   9.649  1.00  0.00    -0.200 F 
ATOM     69  F   UNL     1       8.299   2.173  10.380  1.00  0.00    -0.200 F 
ENDBRANCH  45  59
BRANCH  46  70
ATOM     70  C   UNL     1       8.026   5.974  -3.229  1.00  0.00     0.064 A 
ATOM     71  C   UNL     1       8.501   5.122  -4.234  1.00  0.00     0.173 A 
ATOM     72  C   UNL     1       7.508   7.219  -3.616  1.00  0.00     0.173 A 
ATOM     73  F   UNL     1       9.032   3.934  -3.910  1.00  0.00    -0.203 F 
ATOM     74  C   UNL     1       8.464   5.502  -5.574  1.00  0.00     0.198 A 
ATOM     75  C   UNL     1       7.449   7.587  -4.958  1.00  0.00     0.198 A 
ATOM     76  F   UNL     1       7.048   8.073  -2.690  1.00  0.00    -0.203 F 
ATOM     77  F   UNL     1       8.958   4.684  -6.514  1.00  0.00    -0.200 F 
ATOM     78  C   UNL     1       7.931   6.731  -5.936  1.00  0.00     0.200 A 
ATOM     79  F   UNL     1       6.926   8.772  -5.303  1.00  0.00    -0.200 F 
ATOM     80  F   UNL     1       7.891   7.093  -7.225  1.00  0.00    -0.200 F 
ENDBRANCH  46  70
BRANCH  58  81
ATOM     81  C   UNL     1      13.188   5.089   1.362  1.00  0.00     0.064 A 
ATOM     82  C   UNL     1      13.784   6.357   1.337  1.00  0.00     0.173 A 
ATOM     83  C   UNL     1      14.025   3.964   1.322  1.00  0.00     0.173 A 
ATOM     84  F   UNL     1      13.023   7.462   1.357  1.00  0.00    -0.203 F 
ATOM     85  C   UNL     1      15.167   6.494   1.257  1.00  0.00     0.198 A 
ATOM     86  C   UNL     1      15.408   4.105   1.264  1.00  0.00     0.198 A 
ATOM     87  F   UNL     1      13.501   2.730   1.347  1.00  0.00    -0.203 F 
ATOM     88  F   UNL     1      15.716   7.716   1.195  1.00  0.00    -0.200 F 
ATOM     89  C   UNL     1      15.978   5.369   1.226  1.00  0.00     0.200 A 
ATOM     90  F   UNL     1      16.191   3.017   1.244  1.00  0.00    -0.200 F 
ATOM     91  F   UNL     1      17.309   5.503   1.153  1.00  0.00    -0.200 F 
ENDBRANCH  58  81
ENDBRANCH  32  33
ENDBRANCH  25  27
ENDBRANCH  24  25
ENDBRANCH  23  24
ENDBRANCH   1  23
TORSDOF 14
