REMARK SMILES Cc1ccc(-c2nc(NC(=O)[C@H]3[C@@H](C(=O)OCCOC(=O)c4ccc(-c5c6nc(c(-c7c(F)c(F)c(F)c(F)c7F)c7ccc([nH]7)c(-c7c(F)c(F)c(F)c(F)c7F)c7nc(c(-c8c(F)c(F)c(F)c(F)c8F)c8ccc5[nH]8)C=C7)C=C6)cc4)[C@@H]4CC[C@H]3O4)sc2C)cc1
REMARK SMILES IDX 17 1 16 2 14 3 15 4 13 5 12 6 88 7 85 8 87 9 89 10 86 11
REMARK SMILES IDX 10 12 9 13 11 15 8 16 6 17 7 18 91 19 90 20 92 21 5 22 1 23
REMARK SMILES IDX 2 24 3 25 94 26 4 27 93 28 18 29 19 30 20 31 21 32 22 33
REMARK SMILES IDX 23 34 84 35 24 36 83 37 25 38 26 39 27 40 77 41 28 42 82 43
REMARK SMILES IDX 76 44 78 45 29 46 81 47 75 48 74 49 30 51 62 52 42 53 61 54
REMARK SMILES IDX 43 55 46 56 60 57 79 58 44 59 45 60 59 62 80 63 47 64 31 65
REMARK SMILES IDX 32 66 40 67 33 68 34 69 38 70 41 71 35 72 36 73 39 74 37 75
REMARK SMILES IDX 63 76 64 77 72 78 65 79 66 80 70 81 73 82 67 83 68 84 71 85
REMARK SMILES IDX 69 86 48 87 49 88 57 89 50 90 51 91 55 92 58 93 52 94 53 95
REMARK SMILES IDX 56 96 54 97
REMARK H PARENT 9 14 78 50 46 61
REMARK Flexibility Score: inf
ROOT
ATOM      1  C   UNL     1      -4.826   1.038  -1.688  1.00  0.00     0.274 C 
ENDROOT
BRANCH   1   2
ATOM      2  O   UNL     1      -5.189  -0.176  -0.657  1.00  0.00    -0.462 OA
BRANCH   2   3
ATOM      3  C   UNL     1      -5.988  -0.155   0.561  1.00  0.00     0.312 C 
ATOM      4  O   UNL     1      -5.787   0.587   1.514  1.00  0.00    -0.252 OA
BRANCH   3   5
ATOM      5  C   UNL     1      -7.243  -1.180   0.489  1.00  0.00     0.143 C 
ATOM      6  C   UNL     1      -7.383  -1.348  -0.979  1.00  0.00     0.124 C 
ATOM      7  C   UNL     1      -8.822  -1.751  -1.258  1.00  0.00     0.132 C 
ATOM      8  C   UNL     1      -8.819  -1.011   0.791  1.00  0.00     0.133 C 
ATOM      9  C   UNL     1      -9.299  -2.961  -0.468  1.00  0.00     0.035 C 
ATOM     10  O   UNL     1      -9.419  -0.674  -0.513  1.00  0.00    -0.373 OA
ATOM     11  C   UNL     1      -9.636  -2.307   0.871  1.00  0.00     0.036 C 
BRANCH   6  12
ATOM     12  C   UNL     1      -7.252  -0.026  -1.733  1.00  0.00     0.232 C 
ATOM     13  N   UNL     1      -6.973   1.347  -1.035  1.00  0.00    -0.302 N 
ATOM     14  H   UNL     1      -6.981   1.073  -0.090  1.00  0.00     0.172 HD
ATOM     15  O   UNL     1      -7.306  -0.290  -2.945  1.00  0.00    -0.274 OA
BRANCH  13  16
ATOM     16  C   UNL     1      -6.690   2.882  -0.885  1.00  0.00     0.190 A 
ATOM     17  C   UNL     1      -6.798   4.980  -0.113  1.00  0.00     0.086 A 
ATOM     18  N   UNL     1      -6.252   3.666   0.112  1.00  0.00    -0.220 NA
ATOM     19  C   UNL     1      -7.906   4.871  -0.944  1.00  0.00     0.031 A 
ATOM     20  S   UNL     1      -7.124   4.040  -2.184  1.00  0.00    -0.101 S 
ATOM     21  C   UNL     1      -9.216   5.493  -1.163  1.00  0.00     0.059 C 
BRANCH  17  22
ATOM     22  C   UNL     1      -6.377   6.316   0.338  1.00  0.00     0.001 A 
ATOM     23  C   UNL     1      -6.374  10.404   1.742  1.00  0.00     0.044 C 
ATOM     24  C   UNL     1      -6.199   9.008   1.216  1.00  0.00    -0.051 A 
ATOM     25  C   UNL     1      -6.601   8.735  -0.083  1.00  0.00     0.004 A 
ATOM     26  C   UNL     1      -5.735   7.946   2.012  1.00  0.00     0.004 A 
ATOM     27  C   UNL     1      -6.662   7.413  -0.516  1.00  0.00     0.010 A 
ATOM     28  C   UNL     1      -5.821   6.601   1.576  1.00  0.00     0.010 A 
ENDBRANCH  17  22
ENDBRANCH  13  16
ENDBRANCH   6  12
ENDBRANCH   3   5
ENDBRANCH   2   3
ENDBRANCH   1   2
BRANCH   1  29
ATOM     29  C   UNL     1      -5.909   1.578  -3.129  1.00  0.00     0.275 C 
BRANCH  29  30
ATOM     30  O   UNL     1      -7.757   1.821  -3.159  1.00  0.00    -0.458 OA
BRANCH  30  31
ATOM     31  C   UNL     1      -9.213   1.923  -2.508  1.00  0.00     0.338 C 
ATOM     32  O   UNL     1     -10.146   1.972  -3.324  1.00  0.00    -0.246 OA
BRANCH  31  33
ATOM     33  C   UNL     1      -9.707   2.165  -0.885  1.00  0.00     0.060 A 
ATOM     34  C   UNL     1     -10.915   2.690  -0.388  1.00  0.00     0.016 A 
ATOM     35  C   UNL     1      -8.930   1.894   0.214  1.00  0.00     0.016 A 
ATOM     36  C   UNL     1     -11.052   3.167   1.006  1.00  0.00     0.010 A 
ATOM     37  C   UNL     1      -8.854   2.571   1.393  1.00  0.00     0.010 A 
ATOM     38  C   UNL     1      -9.942   3.209   1.861  1.00  0.00    -0.014 A 
BRANCH  38  39
ATOM     39  C   UNL     1      -9.530   3.899   3.094  1.00  0.00     0.031 A 
ATOM     40  C   UNL     1      -8.871   3.150   4.229  1.00  0.00     0.074 A 
ATOM     41  C   UNL     1      -9.136   5.175   2.851  1.00  0.00     0.049 A 
ATOM     42  N   UNL     1      -8.489   3.699   5.327  1.00  0.00    -0.248 NA
ATOM     43  C   UNL     1      -8.483   1.735   4.202  1.00  0.00     0.031 C 
ATOM     44  C   UNL     1      -8.259   6.093   3.569  1.00  0.00     0.029 A 
ATOM     45  N   UNL     1      -9.541   5.962   1.765  1.00  0.00    -0.354 N 
ATOM     46  C   UNL     1      -7.545   2.890   5.943  1.00  0.00     0.074 A 
ATOM     47  C   UNL     1      -7.673   1.629   5.263  1.00  0.00     0.031 C 
ATOM     48  C   UNL     1      -8.550   7.356   3.177  1.00  0.00     0.029 A 
ATOM     49  C   UNL     1      -9.627   7.291   2.196  1.00  0.00     0.049 A 
ATOM     50  H   UNL     1      -9.731   5.636   0.856  1.00  0.00     0.167 HD
ATOM     51  C   UNL     1      -6.699   3.462   6.862  1.00  0.00     0.037 A 
ATOM     52  C   UNL     1     -10.895   7.770   2.338  1.00  0.00     0.037 A 
ATOM     53  C   UNL     1      -7.028   4.911   6.991  1.00  0.00     0.049 A 
ATOM     54  C   UNL     1     -11.287   7.621   3.801  1.00  0.00     0.074 A 
ATOM     55  C   UNL     1      -6.403   6.116   6.714  1.00  0.00     0.029 A 
ATOM     56  N   UNL     1      -8.365   5.254   7.174  1.00  0.00    -0.354 N 
ATOM     57  N   UNL     1     -10.483   7.063   4.675  1.00  0.00    -0.248 NA
ATOM     58  C   UNL     1     -12.486   8.114   4.454  1.00  0.00     0.031 C 
ATOM     59  C   UNL     1      -7.419   7.145   6.647  1.00  0.00     0.029 A 
ATOM     60  C   UNL     1      -8.663   6.571   6.885  1.00  0.00     0.049 A 
ATOM     61  H   UNL     1      -9.043   4.611   7.484  1.00  0.00     0.167 HD
ATOM     62  C   UNL     1     -10.882   7.258   5.944  1.00  0.00     0.074 A 
ATOM     63  C   UNL     1     -12.223   7.815   5.747  1.00  0.00     0.031 C 
ATOM     64  C   UNL     1     -10.066   7.009   7.024  1.00  0.00     0.037 A 
BRANCH  51  65
ATOM     65  C   UNL     1      -5.485   2.800   7.547  1.00  0.00     0.064 A 
ATOM     66  C   UNL     1      -4.602   3.566   8.348  1.00  0.00     0.173 A 
ATOM     67  C   UNL     1      -5.127   1.430   7.491  1.00  0.00     0.173 A 
ATOM     68  F   UNL     1      -4.815   4.870   8.565  1.00  0.00    -0.203 F 
ATOM     69  C   UNL     1      -3.468   3.028   8.986  1.00  0.00     0.198 A 
ATOM     70  C   UNL     1      -3.985   0.894   8.115  1.00  0.00     0.198 A 
ATOM     71  F   UNL     1      -5.881   0.520   6.876  1.00  0.00    -0.203 F 
ATOM     72  F   UNL     1      -2.684   3.821   9.731  1.00  0.00    -0.200 F 
ATOM     73  C   UNL     1      -3.154   1.693   8.863  1.00  0.00     0.200 A 
ATOM     74  F   UNL     1      -3.715  -0.415   7.995  1.00  0.00    -0.200 F 
ATOM     75  F   UNL     1      -2.080   1.177   9.477  1.00  0.00    -0.200 F 
ENDBRANCH  51  65
BRANCH  52  76
ATOM     76  C   UNL     1     -11.625   7.676   1.019  1.00  0.00     0.064 A 
ATOM     77  C   UNL     1     -11.062   8.415  -0.061  1.00  0.00     0.173 A 
ATOM     78  C   UNL     1     -12.500   6.642   0.646  1.00  0.00     0.173 A 
ATOM     79  F   UNL     1     -10.165   9.382   0.194  1.00  0.00    -0.203 F 
ATOM     80  C   UNL     1     -11.266   8.076  -1.406  1.00  0.00     0.198 A 
ATOM     81  C   UNL     1     -12.707   6.305  -0.712  1.00  0.00     0.198 A 
ATOM     82  F   UNL     1     -13.074   5.873   1.581  1.00  0.00    -0.203 F 
ATOM     83  F   UNL     1     -10.546   8.680  -2.365  1.00  0.00    -0.200 F 
ATOM     84  C   UNL     1     -12.068   6.999  -1.730  1.00  0.00     0.200 A 
ATOM     85  F   UNL     1     -13.444   5.229  -1.030  1.00  0.00    -0.200 F 
ATOM     86  F   UNL     1     -12.128   6.566  -2.999  1.00  0.00    -0.200 F 
ENDBRANCH  52  76
BRANCH  64  87
ATOM     87  C   UNL     1     -10.607   7.128   8.409  1.00  0.00     0.064 A 
ATOM     88  C   UNL     1     -11.423   8.193   8.789  1.00  0.00     0.173 A 
ATOM     89  C   UNL     1     -10.324   6.164   9.402  1.00  0.00     0.173 A 
ATOM     90  F   UNL     1     -11.604   9.246   7.978  1.00  0.00    -0.203 F 
ATOM     91  C   UNL     1     -12.085   8.185  10.010  1.00  0.00     0.198 A 
ATOM     92  C   UNL     1     -10.907   6.212  10.655  1.00  0.00     0.198 A 
ATOM     93  F   UNL     1      -9.519   5.115   9.192  1.00  0.00    -0.203 F 
ATOM     94  F   UNL     1     -12.991   9.134  10.273  1.00  0.00    -0.200 F 
ATOM     95  C   UNL     1     -11.833   7.189  10.938  1.00  0.00     0.200 A 
ATOM     96  F   UNL     1     -10.595   5.276  11.563  1.00  0.00    -0.200 F 
ATOM     97  F   UNL     1     -12.489   7.167  12.104  1.00  0.00    -0.200 F 
ENDBRANCH  64  87
ENDBRANCH  38  39
ENDBRANCH  31  33
ENDBRANCH  30  31
ENDBRANCH  29  30
ENDBRANCH   1  29
TORSDOF 14
