REMARK SMILES CN(CC1CCC1)C(=O)N(CC(=O)OCCOC(=O)c1ccc(-c2c3nc(c(-c4c(F)c(F)c(F)c(F)c4F)c4ccc([nH]4)c(-c4c(F)c(F)c(F)c(F)c4F)c4nc(c(-c5c(F)c(F)c(F)c(F)c5F)c5ccc2[nH]5)C=C4)C=C3)cc1)C(C)(C)C
REMARK SMILES IDX 14 1 12 2 13 3 11 4 10 5 8 6 9 7 2 8 1 9 3 10 4 11 5 12 7 13
REMARK SMILES IDX 6 14 83 15 84 16 85 17 86 18 15 19 16 20 17 21 18 22 19 23
REMARK SMILES IDX 20 24 21 25 82 26 22 27 81 28 23 29 24 30 25 31 75 32 26 33
REMARK SMILES IDX 80 34 74 35 76 36 27 37 79 38 73 39 72 40 28 42 60 43 40 44
REMARK SMILES IDX 59 45 41 46 44 47 58 48 77 49 42 50 43 51 57 53 78 54 45 55
REMARK SMILES IDX 29 56 30 57 38 58 31 59 32 60 36 61 39 62 33 63 34 64 37 65
REMARK SMILES IDX 35 66 61 67 62 68 70 69 63 70 64 71 68 72 71 73 65 74 66 75
REMARK SMILES IDX 69 76 67 77 46 78 47 79 55 80 48 81 49 82 53 83 56 84 50 85
REMARK SMILES IDX 51 86 54 87 52 88
REMARK H PARENT 76 41 44 52
REMARK Flexibility Score: inf
ROOT
ATOM      1  O   UNL     1      -2.017   4.255   1.861  1.00  0.00    -0.461 OA
ENDROOT
BRANCH   1   2
ATOM      2  C   UNL     1      -1.509   4.469   0.612  1.00  0.00     0.325 C 
ATOM      3  O   UNL     1      -2.162   4.911  -0.330  1.00  0.00    -0.250 OA
BRANCH   2   4
ATOM      4  C   UNL     1       0.006   4.239   0.505  1.00  0.00     0.244 C 
BRANCH   4   5
ATOM      5  N   UNL     1       0.620   3.354   1.497  1.00  0.00    -0.309 N 
BRANCH   5   6
ATOM      6  C   UNL     1       0.770   1.977   1.345  1.00  0.00     0.320 C 
ATOM      7  O   UNL     1       1.297   1.320   2.253  1.00  0.00    -0.248 OA
BRANCH   6   8
ATOM      8  N   UNL     1       0.457   1.290   0.181  1.00  0.00    -0.327 N 
ATOM      9  C   UNL     1       1.171   0.011   0.067  1.00  0.00     0.148 C 
BRANCH   8  10
ATOM     10  C   UNL     1      -0.565   1.481  -0.855  1.00  0.00     0.124 C 
BRANCH  10  11
ATOM     11  C   UNL     1      -1.837   0.689  -0.544  1.00  0.00     0.008 C 
ATOM     12  C   UNL     1      -2.025  -0.355   0.604  1.00  0.00     0.005 C 
ATOM     13  C   UNL     1      -2.902   1.520   0.202  1.00  0.00     0.005 C 
ATOM     14  C   UNL     1      -3.449   0.216   0.787  1.00  0.00     0.001 C 
ENDBRANCH  10  11
ENDBRANCH   8  10
ENDBRANCH   6   8
ENDBRANCH   5   6
BRANCH   5  15
ATOM     15  C   UNL     1       1.246   3.995   2.735  1.00  0.00     0.037 C 
ATOM     16  C   UNL     1       0.599   3.464   4.034  1.00  0.00     0.034 C 
ATOM     17  C   UNL     1       2.777   3.747   2.751  1.00  0.00     0.034 C 
ATOM     18  C   UNL     1       1.102   5.538   2.808  1.00  0.00     0.034 C 
ENDBRANCH   5  15
ENDBRANCH   4   5
ENDBRANCH   2   4
ENDBRANCH   1   2
BRANCH   1  19
ATOM     19  C   UNL     1      -3.460   4.333   2.008  1.00  0.00     0.274 C 
BRANCH  19  20
ATOM     20  C   UNL     1      -3.865   5.362   3.055  1.00  0.00     0.275 C 
BRANCH  20  21
ATOM     21  O   UNL     1      -3.359   6.632   2.636  1.00  0.00    -0.458 OA
BRANCH  21  22
ATOM     22  C   UNL     1      -2.437   7.182   3.454  1.00  0.00     0.338 C 
ATOM     23  O   UNL     1      -2.150   6.866   4.593  1.00  0.00    -0.246 OA
BRANCH  22  24
ATOM     24  C   UNL     1      -1.731   8.226   2.699  1.00  0.00     0.060 A 
ATOM     25  C   UNL     1      -1.204   7.928   1.438  1.00  0.00     0.016 A 
ATOM     26  C   UNL     1      -1.494   9.458   3.296  1.00  0.00     0.016 A 
ATOM     27  C   UNL     1      -0.374   8.832   0.795  1.00  0.00     0.010 A 
ATOM     28  C   UNL     1      -0.742  10.404   2.606  1.00  0.00     0.010 A 
ATOM     29  C   UNL     1      -0.159  10.088   1.363  1.00  0.00    -0.014 A 
BRANCH  29  30
ATOM     30  C   UNL     1       0.695  11.092   0.695  1.00  0.00     0.031 A 
ATOM     31  C   UNL     1       1.909  11.596   1.409  1.00  0.00     0.074 A 
ATOM     32  C   UNL     1       0.342  11.591  -0.503  1.00  0.00     0.049 A 
ATOM     33  N   UNL     1       2.580  12.700   1.226  1.00  0.00    -0.248 NA
ATOM     34  C   UNL     1       2.420  10.748   2.499  1.00  0.00     0.031 C 
ATOM     35  C   UNL     1      -0.767  11.115  -1.332  1.00  0.00     0.029 A 
ATOM     36  N   UNL     1       0.867  12.637  -1.216  1.00  0.00    -0.354 N 
ATOM     37  C   UNL     1       3.547  12.717   2.222  1.00  0.00     0.074 A 
ATOM     38  C   UNL     1       3.390  11.503   2.994  1.00  0.00     0.031 C 
ATOM     39  C   UNL     1      -0.848  11.874  -2.435  1.00  0.00     0.029 A 
ATOM     40  C   UNL     1       0.136  12.944  -2.338  1.00  0.00     0.049 A 
ATOM     41  H   UNL     1       1.683  13.120  -0.952  1.00  0.00     0.167 HD
ATOM     42  C   UNL     1       4.462  13.683   2.471  1.00  0.00     0.037 A 
ATOM     43  C   UNL     1       0.203  14.015  -3.150  1.00  0.00     0.037 A 
ATOM     44  C   UNL     1       4.612  14.862   1.659  1.00  0.00     0.049 A 
ATOM     45  C   UNL     1       1.199  15.094  -2.834  1.00  0.00     0.074 A 
ATOM     46  C   UNL     1       5.490  15.918   1.815  1.00  0.00     0.029 A 
ATOM     47  N   UNL     1       3.862  15.126   0.520  1.00  0.00    -0.354 N 
ATOM     48  N   UNL     1       2.054  15.164  -1.842  1.00  0.00    -0.248 NA
ATOM     49  C   UNL     1       1.224  16.253  -3.734  1.00  0.00     0.031 C 
ATOM     50  C   UNL     1       5.254  16.834   0.783  1.00  0.00     0.029 A 
ATOM     51  C   UNL     1       4.257  16.329  -0.038  1.00  0.00     0.049 A 
ATOM     52  H   UNL     1       3.154  14.544   0.162  1.00  0.00     0.167 HD
ATOM     53  C   UNL     1       2.732  16.362  -2.006  1.00  0.00     0.074 A 
ATOM     54  C   UNL     1       2.195  16.982  -3.201  1.00  0.00     0.031 C 
ATOM     55  C   UNL     1       3.709  16.905  -1.239  1.00  0.00     0.037 A 
BRANCH  42  56
ATOM     56  C   UNL     1       5.321  13.527   3.689  1.00  0.00     0.064 A 
ATOM     57  C   UNL     1       6.350  12.577   3.758  1.00  0.00     0.173 A 
ATOM     58  C   UNL     1       5.114  14.351   4.806  1.00  0.00     0.173 A 
ATOM     59  F   UNL     1       6.575  11.750   2.726  1.00  0.00    -0.203 F 
ATOM     60  C   UNL     1       7.125  12.443   4.909  1.00  0.00     0.198 A 
ATOM     61  C   UNL     1       5.906  14.232   5.944  1.00  0.00     0.198 A 
ATOM     62  F   UNL     1       4.141  15.275   4.793  1.00  0.00    -0.203 F 
ATOM     63  F   UNL     1       8.072  11.496   4.970  1.00  0.00    -0.200 F 
ATOM     64  C   UNL     1       6.906  13.273   5.998  1.00  0.00     0.200 A 
ATOM     65  F   UNL     1       5.697  15.041   6.993  1.00  0.00    -0.200 F 
ATOM     66  F   UNL     1       7.653  13.144   7.103  1.00  0.00    -0.200 F 
ENDBRANCH  42  56
BRANCH  43  67
ATOM     67  C   UNL     1      -0.738  14.135  -4.293  1.00  0.00     0.064 A 
ATOM     68  C   UNL     1      -0.281  14.021  -5.612  1.00  0.00     0.173 A 
ATOM     69  C   UNL     1      -2.112  14.340  -4.092  1.00  0.00     0.173 A 
ATOM     70  F   UNL     1       1.026  13.846  -5.854  1.00  0.00    -0.203 F 
ATOM     71  C   UNL     1      -1.161  14.114  -6.688  1.00  0.00     0.198 A 
ATOM     72  C   UNL     1      -2.995  14.404  -5.167  1.00  0.00     0.198 A 
ATOM     73  F   UNL     1      -2.600  14.452  -2.848  1.00  0.00    -0.203 F 
ATOM     74  F   UNL     1      -0.694  14.035  -7.941  1.00  0.00    -0.200 F 
ATOM     75  C   UNL     1      -2.518  14.297  -6.465  1.00  0.00     0.200 A 
ATOM     76  F   UNL     1      -4.307  14.563  -4.946  1.00  0.00    -0.200 F 
ATOM     77  F   UNL     1      -3.365  14.373  -7.500  1.00  0.00    -0.200 F 
ENDBRANCH  43  67
BRANCH  55  78
ATOM     78  C   UNL     1       4.289  18.205  -1.704  1.00  0.00     0.064 A 
ATOM     79  C   UNL     1       3.599  19.415  -1.547  1.00  0.00     0.173 A 
ATOM     80  C   UNL     1       5.569  18.240  -2.275  1.00  0.00     0.173 A 
ATOM     81  F   UNL     1       2.364  19.425  -1.023  1.00  0.00    -0.203 F 
ATOM     82  C   UNL     1       4.165  20.615  -1.964  1.00  0.00     0.198 A 
ATOM     83  C   UNL     1       6.142  19.445  -2.668  1.00  0.00     0.198 A 
ATOM     84  F   UNL     1       6.267  17.106  -2.440  1.00  0.00    -0.203 F 
ATOM     85  F   UNL     1       3.475  21.758  -1.843  1.00  0.00    -0.200 F 
ATOM     86  C   UNL     1       5.438  20.630  -2.517  1.00  0.00     0.200 A 
ATOM     87  F   UNL     1       7.375  19.459  -3.194  1.00  0.00    -0.200 F 
ATOM     88  F   UNL     1       5.984  21.788  -2.913  1.00  0.00    -0.200 F 
ENDBRANCH  55  78
ENDBRANCH  29  30
ENDBRANCH  22  24
ENDBRANCH  21  22
ENDBRANCH  20  21
ENDBRANCH  19  20
ENDBRANCH   1  19
TORSDOF 17
