REMARK SMILES [NH3+][C@H]1COC[C@H]1C(=O)N[C@@H]1C=C[C@@H](C(=O)OCCOC(=O)c2ccc(-c3c4nc(c(-c5c(F)c(F)c(F)c(F)c5F)c5ccc([nH]5)c(-c5c(F)c(F)c(F)c(F)c5F)c5nc(c(-c6c(F)c(F)c(F)c(F)c6F)c6ccc3[nH]6)C=C5)C=C4)cc2)C1
REMARK SMILES IDX 17 1 16 2 14 3 15 4 13 5 10 6 11 7 85 8 12 9 9 10 7 11 8 12
REMARK SMILES IDX 6 14 2 15 3 16 4 17 5 18 1 19 18 23 19 24 20 25 21 26 22 27
REMARK SMILES IDX 23 28 84 29 24 30 83 31 25 32 26 33 27 34 77 35 28 36 82 37
REMARK SMILES IDX 76 38 78 39 29 40 81 41 75 42 74 43 30 45 62 46 42 47 61 48
REMARK SMILES IDX 43 49 46 50 60 51 79 52 44 53 45 54 59 56 80 57 47 58 31 59
REMARK SMILES IDX 32 60 40 61 33 62 34 63 38 64 41 65 35 66 36 67 39 68 37 69
REMARK SMILES IDX 63 70 64 71 72 72 65 73 66 74 70 75 73 76 67 77 68 78 71 79
REMARK SMILES IDX 69 80 48 81 49 82 57 83 50 84 51 85 55 86 58 87 52 88 53 89
REMARK SMILES IDX 56 90 54 91
REMARK H PARENT 9 13 1 20 1 21 1 22 78 44 46 55
REMARK Flexibility Score: inf
ROOT
ATOM      1  C   UNL     1       2.907  -0.956   2.370  1.00  0.00     0.274 C 
ENDROOT
BRANCH   1   2
ATOM      2  O   UNL     1       1.688  -1.394   1.742  1.00  0.00    -0.462 OA
BRANCH   2   3
ATOM      3  C   UNL     1       0.934  -2.257   2.466  1.00  0.00     0.312 C 
ATOM      4  O   UNL     1       1.281  -2.761   3.530  1.00  0.00    -0.252 OA
BRANCH   3   5
ATOM      5  C   UNL     1      -0.403  -2.590   1.829  1.00  0.00     0.124 C 
ATOM      6  C   UNL     1      -1.772  -2.427  -0.170  1.00  0.00     0.106 C 
ATOM      7  C   UNL     1      -1.137  -3.765  -0.062  1.00  0.00    -0.006 C 
ATOM      8  C   UNL     1      -1.052  -1.581   0.879  1.00  0.00     0.048 C 
ATOM      9  C   UNL     1      -0.353  -3.851   1.018  1.00  0.00    -0.014 C 
BRANCH   6  10
ATOM     10  N   UNL     1      -3.224  -2.518  -0.155  1.00  0.00    -0.349 N 
ATOM     11  C   UNL     1      -4.276  -2.876   0.598  1.00  0.00     0.232 C 
ATOM     12  O   UNL     1      -5.355  -2.794  -0.016  1.00  0.00    -0.274 OA
ATOM     13  H   UNL     1      -3.562  -2.197  -1.023  1.00  0.00     0.164 HD
BRANCH  11  14
ATOM     14  C   UNL     1      -4.349  -3.338   2.044  1.00  0.00     0.164 C 
ATOM     15  C   UNL     1      -3.889  -4.713   2.495  1.00  0.00     0.221 C 
ATOM     16  C   UNL     1      -2.933  -4.444   3.655  1.00  0.00     0.225 C 
ATOM     17  O   UNL     1      -3.049  -3.067   4.035  1.00  0.00    -0.374 OA
ATOM     18  C   UNL     1      -3.836  -2.364   3.071  1.00  0.00     0.180 C 
BRANCH  15  19
ATOM     19  N   UNL     1      -3.393  -5.662   1.506  1.00  0.00    -0.352 N 
ATOM     20  H   UNL     1      -3.127  -6.530   1.971  1.00  0.00     0.344 HD
ATOM     21  H   UNL     1      -2.580  -5.267   1.033  1.00  0.00     0.344 HD
ATOM     22  H   UNL     1      -4.125  -5.854   0.822  1.00  0.00     0.344 HD
ENDBRANCH  15  19
ENDBRANCH  11  14
ENDBRANCH   6  10
ENDBRANCH   3   5
ENDBRANCH   2   3
ENDBRANCH   1   2
BRANCH   1  23
ATOM     23  C   UNL     1       2.777   0.482   2.880  1.00  0.00     0.275 C 
BRANCH  23  24
ATOM     24  O   UNL     1       1.800   0.608   3.933  1.00  0.00    -0.458 OA
BRANCH  24  25
ATOM     25  C   UNL     1       0.545   0.886   3.518  1.00  0.00     0.338 C 
ATOM     26  O   UNL     1       0.157   1.017   2.364  1.00  0.00    -0.246 OA
BRANCH  25  27
ATOM     27  C   UNL     1      -0.384   0.929   4.656  1.00  0.00     0.060 A 
ATOM     28  C   UNL     1      -1.419  -0.005   4.689  1.00  0.00     0.016 A 
ATOM     29  C   UNL     1      -0.329   1.955   5.600  1.00  0.00     0.016 A 
ATOM     30  C   UNL     1      -2.432   0.103   5.640  1.00  0.00     0.010 A 
ATOM     31  C   UNL     1      -1.337   2.051   6.569  1.00  0.00     0.010 A 
ATOM     32  C   UNL     1      -2.409   1.141   6.581  1.00  0.00    -0.014 A 
BRANCH  32  33
ATOM     33  C   UNL     1      -3.534   1.296   7.540  1.00  0.00     0.031 A 
ATOM     34  C   UNL     1      -4.502   2.438   7.391  1.00  0.00     0.074 A 
ATOM     35  C   UNL     1      -3.716   0.395   8.523  1.00  0.00     0.049 A 
ATOM     36  N   UNL     1      -5.481   2.806   8.180  1.00  0.00    -0.248 NA
ATOM     37  C   UNL     1      -4.351   3.276   6.191  1.00  0.00     0.031 C 
ATOM     38  C   UNL     1      -2.893  -0.793   8.743  1.00  0.00     0.029 A 
ATOM     39  N   UNL     1      -4.659   0.340   9.520  1.00  0.00    -0.354 N 
ATOM     40  C   UNL     1      -6.050   3.923   7.584  1.00  0.00     0.074 A 
ATOM     41  C   UNL     1      -5.301   4.184   6.373  1.00  0.00     0.031 C 
ATOM     42  C   UNL     1      -3.369  -1.464   9.805  1.00  0.00     0.029 A 
ATOM     43  C   UNL     1      -4.498  -0.728  10.368  1.00  0.00     0.049 A 
ATOM     44  H   UNL     1      -5.381   1.002   9.618  1.00  0.00     0.167 HD
ATOM     45  C   UNL     1      -7.106   4.660   8.006  1.00  0.00     0.037 A 
ATOM     46  C   UNL     1      -5.166  -1.061  11.489  1.00  0.00     0.037 A 
ATOM     47  C   UNL     1      -7.865   4.396   9.200  1.00  0.00     0.049 A 
ATOM     48  C   UNL     1      -6.294  -0.189  11.968  1.00  0.00     0.074 A 
ATOM     49  C   UNL     1      -8.928   5.113   9.726  1.00  0.00     0.029 A 
ATOM     50  N   UNL     1      -7.652   3.321  10.048  1.00  0.00    -0.354 N 
ATOM     51  N   UNL     1      -6.789   0.897  11.427  1.00  0.00    -0.248 NA
ATOM     52  C   UNL     1      -6.951  -0.587  13.223  1.00  0.00     0.031 C 
ATOM     53  C   UNL     1      -9.344   4.482  10.904  1.00  0.00     0.029 A 
ATOM     54  C   UNL     1      -8.561   3.356  11.094  1.00  0.00     0.049 A 
ATOM     55  H   UNL     1      -6.957   2.634   9.925  1.00  0.00     0.167 HD
ATOM     56  C   UNL     1      -7.821   1.301  12.262  1.00  0.00     0.074 A 
ATOM     57  C   UNL     1      -7.895   0.336  13.338  1.00  0.00     0.031 C 
ATOM     58  C   UNL     1      -8.631   2.381  12.150  1.00  0.00     0.037 A 
BRANCH  45  59
ATOM     59  C   UNL     1      -7.499   5.844   7.175  1.00  0.00     0.064 A 
ATOM     60  C   UNL     1      -8.201   5.692   5.972  1.00  0.00     0.173 A 
ATOM     61  C   UNL     1      -7.221   7.146   7.617  1.00  0.00     0.173 A 
ATOM     62  F   UNL     1      -8.479   4.467   5.503  1.00  0.00    -0.203 F 
ATOM     63  C   UNL     1      -8.601   6.803   5.233  1.00  0.00     0.198 A 
ATOM     64  C   UNL     1      -7.639   8.255   6.886  1.00  0.00     0.198 A 
ATOM     65  F   UNL     1      -6.555   7.343   8.765  1.00  0.00    -0.203 F 
ATOM     66  F   UNL     1      -9.246   6.636   4.070  1.00  0.00    -0.200 F 
ATOM     67  C   UNL     1      -8.326   8.082   5.694  1.00  0.00     0.200 A 
ATOM     68  F   UNL     1      -7.381   9.490   7.338  1.00  0.00    -0.200 F 
ATOM     69  F   UNL     1      -8.719   9.150   4.986  1.00  0.00    -0.200 F 
ENDBRANCH  45  59
BRANCH  46  70
ATOM     70  C   UNL     1      -4.767  -2.265  12.260  1.00  0.00     0.064 A 
ATOM     71  C   UNL     1      -5.596  -3.393  12.318  1.00  0.00     0.173 A 
ATOM     72  C   UNL     1      -3.562  -2.300  12.977  1.00  0.00     0.173 A 
ATOM     73  F   UNL     1      -6.772  -3.393  11.673  1.00  0.00    -0.203 F 
ATOM     74  C   UNL     1      -5.243  -4.505  13.079  1.00  0.00     0.198 A 
ATOM     75  C   UNL     1      -3.198  -3.422  13.716  1.00  0.00     0.198 A 
ATOM     76  F   UNL     1      -2.738  -1.242  12.958  1.00  0.00    -0.203 F 
ATOM     77  F   UNL     1      -6.076  -5.552  13.158  1.00  0.00    -0.200 F 
ATOM     78  C   UNL     1      -4.042  -4.521  13.774  1.00  0.00     0.200 A 
ATOM     79  F   UNL     1      -2.035  -3.436  14.381  1.00  0.00    -0.200 F 
ATOM     80  F   UNL     1      -3.705  -5.589  14.509  1.00  0.00    -0.200 F 
ENDBRANCH  46  70
BRANCH  58  81
ATOM     81  C   UNL     1      -9.687   2.557  13.199  1.00  0.00     0.064 A 
ATOM     82  C   UNL     1      -9.370   3.012  14.487  1.00  0.00     0.173 A 
ATOM     83  C   UNL     1     -11.033   2.294  12.904  1.00  0.00     0.173 A 
ATOM     84  F   UNL     1      -8.094   3.262  14.819  1.00  0.00    -0.203 F 
ATOM     85  C   UNL     1     -10.361   3.177  15.450  1.00  0.00     0.198 A 
ATOM     86  C   UNL     1     -12.024   2.480  13.864  1.00  0.00     0.198 A 
ATOM     87  F   UNL     1     -11.386   1.860  11.685  1.00  0.00    -0.203 F 
ATOM     88  F   UNL     1     -10.032   3.575  16.687  1.00  0.00    -0.200 F 
ATOM     89  C   UNL     1     -11.687   2.916  15.137  1.00  0.00     0.200 A 
ATOM     90  F   UNL     1     -13.306   2.233  13.558  1.00  0.00    -0.200 F 
ATOM     91  F   UNL     1     -12.640   3.076  16.065  1.00  0.00    -0.200 F 
ENDBRANCH  58  81
ENDBRANCH  32  33
ENDBRANCH  25  27
ENDBRANCH  24  25
ENDBRANCH  23  24
ENDBRANCH   1  23
TORSDOF 14
