REMARK SMILES CC(C)(C[S@@](=O)c1ccc(C(C)(C)C)cc1)C(=O)OCCOC(=O)c1ccc(-c2c3nc(c(-c4c(F)c(F)c(F)c(F)c4F)c4ccc([nH]4)c(-c4c(F)c(F)c(F)c(F)c4F)c4nc(c(-c5c(F)c(F)c(F)c(F)c5F)c5ccc2[nH]5)C=C4)C=C3)cc1
REMARK SMILES IDX 20 1 19 2 17 3 18 4 2 5 1 6 3 7 4 8 5 9 6 10 7 11 8 12 16 13
REMARK SMILES IDX 9 14 15 15 10 16 11 17 12 18 13 19 14 20 21 21 22 22 23 23
REMARK SMILES IDX 24 24 25 25 26 26 87 27 27 28 86 29 28 30 29 31 30 32 80 33
REMARK SMILES IDX 31 34 85 35 79 36 81 37 32 38 84 39 78 40 77 41 33 43 65 44
REMARK SMILES IDX 45 45 64 46 46 47 49 48 63 49 82 50 47 51 48 52 62 54 83 55
REMARK SMILES IDX 50 56 34 57 35 58 43 59 36 60 37 61 41 62 44 63 38 64 39 65
REMARK SMILES IDX 42 66 40 67 66 68 67 69 75 70 68 71 69 72 73 73 76 74 70 75
REMARK SMILES IDX 71 76 74 77 72 78 51 79 52 80 60 81 53 82 54 83 58 84 61 85
REMARK SMILES IDX 55 86 56 87 59 88 57 89
REMARK H PARENT 81 42 49 53
REMARK Flexibility Score: inf
ROOT
ATOM      1  C   UNL     1       1.202   4.240  -1.721  1.00  0.00     0.274 C 
ENDROOT
BRANCH   1   2
ATOM      2  O   UNL     1       0.471   2.997  -1.800  1.00  0.00    -0.462 OA
BRANCH   2   3
ATOM      3  C   UNL     1       1.143   1.891  -1.385  1.00  0.00     0.312 C 
ATOM      4  O   UNL     1       2.263   1.909  -0.887  1.00  0.00    -0.252 OA
BRANCH   3   5
ATOM      5  C   UNL     1       0.411   0.594  -1.727  1.00  0.00     0.074 C 
ATOM      6  C   UNL     1       0.909  -0.525  -0.795  1.00  0.00     0.024 C 
ATOM      7  C   UNL     1       0.876   0.228  -3.155  1.00  0.00     0.024 C 
BRANCH   5   8
ATOM      8  C   UNL     1      -1.126   0.684  -1.748  1.00  0.00     0.128 C 
BRANCH   8   9
ATOM      9  S   UNL     1      -1.976   1.492  -0.362  1.00  0.00     0.054 S 
ATOM     10  O   UNL     1      -3.436   1.495  -0.707  1.00  0.00    -0.254 OA
BRANCH   9  11
ATOM     11  C   UNL     1      -1.841   0.300   0.979  1.00  0.00     0.039 A 
ATOM     12  C   UNL     1      -1.940  -1.080   0.811  1.00  0.00     0.018 A 
ATOM     13  C   UNL     1      -1.640   0.803   2.264  1.00  0.00     0.018 A 
ATOM     14  C   UNL     1      -1.708  -1.942   1.891  1.00  0.00     0.005 A 
ATOM     15  C   UNL     1      -1.431  -0.058   3.346  1.00  0.00     0.005 A 
ATOM     16  C   UNL     1      -1.418  -1.452   3.177  1.00  0.00    -0.043 A 
BRANCH  16  17
ATOM     17  C   UNL     1      -1.083  -2.422   4.323  1.00  0.00    -0.013 C 
ATOM     18  C   UNL     1      -2.235  -3.417   4.553  1.00  0.00     0.016 C 
ATOM     19  C   UNL     1       0.211  -3.194   3.982  1.00  0.00     0.016 C 
ATOM     20  C   UNL     1      -0.830  -1.709   5.659  1.00  0.00     0.016 C 
ENDBRANCH  16  17
ENDBRANCH   9  11
ENDBRANCH   8   9
ENDBRANCH   5   8
ENDBRANCH   3   5
ENDBRANCH   2   3
ENDBRANCH   1   2
BRANCH   1  21
ATOM     21  C   UNL     1       0.970   4.958  -0.393  1.00  0.00     0.275 C 
BRANCH  21  22
ATOM     22  O   UNL     1       1.557   4.209   0.686  1.00  0.00    -0.458 OA
BRANCH  22  23
ATOM     23  C   UNL     1       0.790   4.057   1.785  1.00  0.00     0.338 C 
ATOM     24  O   UNL     1      -0.324   4.515   1.988  1.00  0.00    -0.246 OA
BRANCH  23  25
ATOM     25  C   UNL     1       1.469   3.187   2.757  1.00  0.00     0.060 A 
ATOM     26  C   UNL     1       1.571   1.826   2.486  1.00  0.00     0.016 A 
ATOM     27  C   UNL     1       1.850   3.685   4.004  1.00  0.00     0.016 A 
ATOM     28  C   UNL     1       1.974   0.948   3.490  1.00  0.00     0.010 A 
ATOM     29  C   UNL     1       2.328   2.808   4.989  1.00  0.00     0.010 A 
ATOM     30  C   UNL     1       2.350   1.423   4.760  1.00  0.00    -0.014 A 
BRANCH  30  31
ATOM     31  C   UNL     1       2.715   0.433   5.814  1.00  0.00     0.031 A 
ATOM     32  C   UNL     1       1.825   0.203   7.011  1.00  0.00     0.074 A 
ATOM     33  C   UNL     1       3.767  -0.385   5.613  1.00  0.00     0.049 A 
ATOM     34  N   UNL     1       1.825  -0.806   7.850  1.00  0.00    -0.248 NA
ATOM     35  C   UNL     1       0.764   1.189   7.271  1.00  0.00     0.031 C 
ATOM     36  C   UNL     1       4.712  -0.284   4.500  1.00  0.00     0.029 A 
ATOM     37  N   UNL     1       4.197  -1.484   6.317  1.00  0.00    -0.354 N 
ATOM     38  C   UNL     1       0.706  -0.633   8.654  1.00  0.00     0.074 A 
ATOM     39  C   UNL     1       0.117   0.637   8.290  1.00  0.00     0.031 C 
ATOM     40  C   UNL     1       5.591  -1.296   4.578  1.00  0.00     0.029 A 
ATOM     41  C   UNL     1       5.290  -2.100   5.758  1.00  0.00     0.049 A 
ATOM     42  H   UNL     1       3.764  -1.799   7.143  1.00  0.00     0.167 HD
ATOM     43  C   UNL     1       0.165  -1.499   9.544  1.00  0.00     0.037 A 
ATOM     44  C   UNL     1       5.979  -3.190   6.151  1.00  0.00     0.037 A 
ATOM     45  C   UNL     1       0.753  -2.751   9.937  1.00  0.00     0.049 A 
ATOM     46  C   UNL     1       5.520  -3.963   7.354  1.00  0.00     0.074 A 
ATOM     47  C   UNL     1       0.253  -3.708  10.804  1.00  0.00     0.029 A 
ATOM     48  N   UNL     1       1.990  -3.204   9.512  1.00  0.00    -0.354 N 
ATOM     49  N   UNL     1       4.414  -3.836   8.043  1.00  0.00    -0.248 NA
ATOM     50  C   UNL     1       6.410  -5.029   7.836  1.00  0.00     0.031 C 
ATOM     51  C   UNL     1       1.212  -4.720  10.939  1.00  0.00     0.029 A 
ATOM     52  C   UNL     1       2.299  -4.399  10.143  1.00  0.00     0.049 A 
ATOM     53  H   UNL     1       2.566  -2.745   8.858  1.00  0.00     0.167 HD
ATOM     54  C   UNL     1       4.461  -4.817   9.023  1.00  0.00     0.074 A 
ATOM     55  C   UNL     1       5.704  -5.536   8.838  1.00  0.00     0.031 C 
ATOM     56  C   UNL     1       3.546  -5.098   9.982  1.00  0.00     0.037 A 
BRANCH  43  57
ATOM     57  C   UNL     1      -1.181  -1.160  10.104  1.00  0.00     0.064 A 
ATOM     58  C   UNL     1      -2.346  -1.531   9.414  1.00  0.00     0.173 A 
ATOM     59  C   UNL     1      -1.322  -0.539  11.350  1.00  0.00     0.173 A 
ATOM     60  F   UNL     1      -2.262  -2.156   8.232  1.00  0.00    -0.203 F 
ATOM     61  C   UNL     1      -3.607  -1.274   9.943  1.00  0.00     0.198 A 
ATOM     62  C   UNL     1      -2.586  -0.293  11.883  1.00  0.00     0.198 A 
ATOM     63  F   UNL     1      -0.237  -0.178  12.050  1.00  0.00    -0.203 F 
ATOM     64  F   UNL     1      -4.704  -1.629   9.260  1.00  0.00    -0.200 F 
ATOM     65  C   UNL     1      -3.726  -0.658  11.179  1.00  0.00     0.200 A 
ATOM     66  F   UNL     1      -2.704   0.293  13.082  1.00  0.00    -0.200 F 
ATOM     67  F   UNL     1      -4.940  -0.420  11.693  1.00  0.00    -0.200 F 
ENDBRANCH  43  57
BRANCH  44  68
ATOM     68  C   UNL     1       7.198  -3.599   5.409  1.00  0.00     0.064 A 
ATOM     69  C   UNL     1       7.243  -4.793   4.678  1.00  0.00     0.173 A 
ATOM     70  C   UNL     1       8.353  -2.803   5.435  1.00  0.00     0.173 A 
ATOM     71  F   UNL     1       6.173  -5.602   4.649  1.00  0.00    -0.203 F 
ATOM     72  C   UNL     1       8.400  -5.178   4.004  1.00  0.00     0.198 A 
ATOM     73  C   UNL     1       9.500  -3.176   4.741  1.00  0.00     0.198 A 
ATOM     74  F   UNL     1       8.363  -1.658   6.132  1.00  0.00    -0.203 F 
ATOM     75  F   UNL     1       8.432  -6.342   3.342  1.00  0.00    -0.200 F 
ATOM     76  C   UNL     1       9.525  -4.366   4.031  1.00  0.00     0.200 A 
ATOM     77  F   UNL     1      10.582  -2.385   4.766  1.00  0.00    -0.200 F 
ATOM     78  F   UNL     1      10.637  -4.735   3.380  1.00  0.00    -0.200 F 
ENDBRANCH  44  68
BRANCH  56  79
ATOM     79  C   UNL     1       3.859  -6.226  10.917  1.00  0.00     0.064 A 
ATOM     80  C   UNL     1       4.814  -6.080  11.933  1.00  0.00     0.173 A 
ATOM     81  C   UNL     1       3.195  -7.457  10.809  1.00  0.00     0.173 A 
ATOM     82  F   UNL     1       5.490  -4.929  12.062  1.00  0.00    -0.203 F 
ATOM     83  C   UNL     1       5.109  -7.134  12.795  1.00  0.00     0.198 A 
ATOM     84  C   UNL     1       3.475  -8.501  11.688  1.00  0.00     0.198 A 
ATOM     85  F   UNL     1       2.272  -7.647   9.854  1.00  0.00    -0.203 F 
ATOM     86  F   UNL     1       6.057  -6.986  13.730  1.00  0.00    -0.200 F 
ATOM     87  C   UNL     1       4.436  -8.340  12.675  1.00  0.00     0.200 A 
ATOM     88  F   UNL     1       2.819  -9.664  11.575  1.00  0.00    -0.200 F 
ATOM     89  F   UNL     1       4.721  -9.353  13.505  1.00  0.00    -0.200 F 
ENDBRANCH  56  79
ENDBRANCH  30  31
ENDBRANCH  23  25
ENDBRANCH  22  23
ENDBRANCH  21  22
ENDBRANCH   1  21
TORSDOF 15
