REMARK SMILES O=C(OCCOC(=O)[C@@]1(Cl)C[C@@H]2CC[C@H]1C2)c1ccc(-c2c3nc(c(-c4c(F)c(F)c(F)c(F)c4F)c4ccc([nH]4)c(-c4c(F)c(F)c(F)c(F)c4F)c4nc(c(-c5c(F)c(F)c(F)c(F)c5F)c5ccc2[nH]5)C=C4)C=C3)cc1
REMARK SMILES IDX 4 1 3 2 2 3 1 4 17 5 18 6 79 7 19 8 78 9 20 10 21 11 22 12
REMARK SMILES IDX 72 13 23 14 77 15 71 16 73 17 24 18 76 19 70 20 69 21 25 23
REMARK SMILES IDX 57 24 37 25 56 26 38 27 41 28 55 29 74 30 39 31 40 32 54 34
REMARK SMILES IDX 75 35 42 36 26 37 27 38 35 39 28 40 29 41 33 42 36 43 30 44
REMARK SMILES IDX 31 45 34 46 32 47 58 48 59 49 67 50 60 51 61 52 65 53 68 54
REMARK SMILES IDX 62 55 63 56 66 57 64 58 43 59 44 60 52 61 45 62 46 63 50 64
REMARK SMILES IDX 53 65 47 66 48 67 51 68 49 69 5 70 6 71 7 72 8 73 9 74 11 75
REMARK SMILES IDX 15 76 10 77 12 78 14 79 16 80 13 81
REMARK H PARENT 73 22 41 33
REMARK Flexibility Score: inf
ROOT
ATOM      1  C   UNL     1       5.078  -0.002   6.064  1.00  0.00     0.275 C 
ENDROOT
BRANCH   1   2
ATOM      2  O   UNL     1       5.869  -0.164   4.874  1.00  0.00    -0.458 OA
BRANCH   2   3
ATOM      3  C   UNL     1       5.954  -1.214   4.017  1.00  0.00     0.338 C 
ATOM      4  O   UNL     1       6.816  -1.212   3.155  1.00  0.00    -0.246 OA
BRANCH   3   5
ATOM      5  C   UNL     1       4.935  -2.309   3.974  1.00  0.00     0.060 A 
ATOM      6  C   UNL     1       4.277  -2.868   5.072  1.00  0.00     0.016 A 
ATOM      7  C   UNL     1       4.617  -2.799   2.695  1.00  0.00     0.016 A 
ATOM      8  C   UNL     1       3.236  -3.792   4.895  1.00  0.00     0.010 A 
ATOM      9  C   UNL     1       3.558  -3.697   2.513  1.00  0.00     0.010 A 
ATOM     10  C   UNL     1       2.842  -4.189   3.614  1.00  0.00    -0.014 A 
BRANCH  10  11
ATOM     11  C   UNL     1       1.747  -5.175   3.418  1.00  0.00     0.031 A 
ATOM     12  C   UNL     1       2.086  -6.534   2.880  1.00  0.00     0.074 A 
ATOM     13  C   UNL     1       0.462  -4.863   3.685  1.00  0.00     0.049 A 
ATOM     14  N   UNL     1       1.299  -7.559   2.677  1.00  0.00    -0.248 NA
ATOM     15  C   UNL     1       3.497  -6.782   2.540  1.00  0.00     0.031 C 
ATOM     16  C   UNL     1      -0.012  -3.589   4.221  1.00  0.00     0.029 A 
ATOM     17  N   UNL     1      -0.695  -5.580   3.492  1.00  0.00    -0.354 N 
ATOM     18  C   UNL     1       2.135  -8.590   2.282  1.00  0.00     0.074 A 
ATOM     19  C   UNL     1       3.457  -8.032   2.111  1.00  0.00     0.031 C 
ATOM     20  C   UNL     1      -1.356  -3.567   4.204  1.00  0.00     0.029 A 
ATOM     21  C   UNL     1      -1.841  -4.851   3.713  1.00  0.00     0.049 A 
ATOM     22  H   UNL     1      -0.703  -6.527   3.220  1.00  0.00     0.167 HD
ATOM     23  C   UNL     1       1.851  -9.908   2.173  1.00  0.00     0.037 A 
ATOM     24  C   UNL     1      -3.134  -5.189   3.546  1.00  0.00     0.037 A 
ATOM     25  C   UNL     1       0.531 -10.456   2.299  1.00  0.00     0.049 A 
ATOM     26  C   UNL     1      -3.462  -6.625   3.235  1.00  0.00     0.074 A 
ATOM     27  C   UNL     1       0.124 -11.774   2.217  1.00  0.00     0.029 A 
ATOM     28  N   UNL     1      -0.610  -9.694   2.513  1.00  0.00    -0.354 N 
ATOM     29  N   UNL     1      -2.647  -7.627   3.010  1.00  0.00    -0.248 NA
ATOM     30  C   UNL     1      -4.883  -6.997   3.234  1.00  0.00     0.031 C 
ATOM     31  C   UNL     1      -1.270 -11.805   2.344  1.00  0.00     0.029 A 
ATOM     32  C   UNL     1      -1.726 -10.511   2.546  1.00  0.00     0.049 A 
ATOM     33  H   UNL     1      -0.623  -8.716   2.626  1.00  0.00     0.167 HD
ATOM     34  C   UNL     1      -3.446  -8.758   2.923  1.00  0.00     0.074 A 
ATOM     35  C   UNL     1      -4.814  -8.314   3.098  1.00  0.00     0.031 C 
ATOM     36  C   UNL     1      -3.077 -10.051   2.744  1.00  0.00     0.037 A 
BRANCH  23  37
ATOM     37  C   UNL     1       3.023 -10.820   1.974  1.00  0.00     0.064 A 
ATOM     38  C   UNL     1       3.959 -11.008   3.007  1.00  0.00     0.173 A 
ATOM     39  C   UNL     1       3.254 -11.461   0.752  1.00  0.00     0.173 A 
ATOM     40  F   UNL     1       3.792 -10.396   4.190  1.00  0.00    -0.203 F 
ATOM     41  C   UNL     1       5.106 -11.768   2.806  1.00  0.00     0.198 A 
ATOM     42  C   UNL     1       4.391 -12.244   0.563  1.00  0.00     0.198 A 
ATOM     43  F   UNL     1       2.394 -11.309  -0.265  1.00  0.00    -0.203 F 
ATOM     44  F   UNL     1       6.019 -11.872   3.782  1.00  0.00    -0.200 F 
ATOM     45  C   UNL     1       5.322 -12.386   1.584  1.00  0.00     0.200 A 
ATOM     46  F   UNL     1       4.601 -12.843  -0.617  1.00  0.00    -0.200 F 
ATOM     47  F   UNL     1       6.435 -13.104   1.384  1.00  0.00    -0.200 F 
ENDBRANCH  23  37
BRANCH  24  48
ATOM     48  C   UNL     1      -4.216  -4.184   3.728  1.00  0.00     0.064 A 
ATOM     49  C   UNL     1      -5.075  -4.224   4.835  1.00  0.00     0.173 A 
ATOM     50  C   UNL     1      -4.451  -3.195   2.760  1.00  0.00     0.173 A 
ATOM     51  F   UNL     1      -4.903  -5.161   5.780  1.00  0.00    -0.203 F 
ATOM     52  C   UNL     1      -6.149  -3.343   4.949  1.00  0.00     0.198 A 
ATOM     53  C   UNL     1      -5.514  -2.301   2.885  1.00  0.00     0.198 A 
ATOM     54  F   UNL     1      -3.656  -3.107   1.683  1.00  0.00    -0.203 F 
ATOM     55  F   UNL     1      -6.988  -3.443   5.990  1.00  0.00    -0.200 F 
ATOM     56  C   UNL     1      -6.370  -2.383   3.973  1.00  0.00     0.200 A 
ATOM     57  F   UNL     1      -5.720  -1.370   1.942  1.00  0.00    -0.200 F 
ATOM     58  F   UNL     1      -7.412  -1.547   4.075  1.00  0.00    -0.200 F 
ENDBRANCH  24  48
BRANCH  36  59
ATOM     59  C   UNL     1      -4.162 -11.085   2.801  1.00  0.00     0.064 A 
ATOM     60  C   UNL     1      -5.112 -11.219   1.779  1.00  0.00     0.173 A 
ATOM     61  C   UNL     1      -4.229 -11.973   3.885  1.00  0.00     0.173 A 
ATOM     62  F   UNL     1      -5.101 -10.380   0.733  1.00  0.00    -0.203 F 
ATOM     63  C   UNL     1      -6.107 -12.189   1.854  1.00  0.00     0.198 A 
ATOM     64  C   UNL     1      -5.205 -12.963   3.940  1.00  0.00     0.198 A 
ATOM     65  F   UNL     1      -3.341 -11.887   4.888  1.00  0.00    -0.203 F 
ATOM     66  F   UNL     1      -7.038 -12.264   0.893  1.00  0.00    -0.200 F 
ATOM     67  C   UNL     1      -6.148 -13.065   2.929  1.00  0.00     0.200 A 
ATOM     68  F   UNL     1      -5.234 -13.817   4.973  1.00  0.00    -0.200 F 
ATOM     69  F   UNL     1      -7.103 -14.003   2.994  1.00  0.00    -0.200 F 
ENDBRANCH  36  59
ENDBRANCH  10  11
ENDBRANCH   3   5
ENDBRANCH   2   3
ENDBRANCH   1   2
BRANCH   1  70
ATOM     70  C   UNL     1       3.666   0.542   5.840  1.00  0.00     0.274 C 
BRANCH  70  71
ATOM     71  O   UNL     1       3.149   0.229   4.538  1.00  0.00    -0.461 OA
BRANCH  71  72
ATOM     72  C   UNL     1       2.620   1.265   3.821  1.00  0.00     0.327 C 
ATOM     73  O   UNL     1       2.530   2.409   4.253  1.00  0.00    -0.250 OA
BRANCH  72  74
ATOM     74  C   UNL     1       2.088   0.837   2.432  1.00  0.00     0.145 C 
ATOM     75  C   UNL     1       2.273  -0.643   2.062  1.00  0.00     0.039 C 
ATOM     76  C   UNL     1       0.538   0.970   2.396  1.00  0.00     0.022 C 
ATOM     77  Cl  UNL     1       2.918   1.886   1.242  1.00  0.00    -0.106 Cl
ATOM     78  C   UNL     1       0.843  -1.183   1.931  1.00  0.00    -0.008 C 
ATOM     79  C   UNL     1      -0.036   0.815   0.970  1.00  0.00     0.006 C 
ATOM     80  C   UNL     1       0.111  -0.375   3.000  1.00  0.00     0.009 C 
ATOM     81  C   UNL     1       0.222  -0.659   0.638  1.00  0.00     0.004 C 
ENDBRANCH  72  74
ENDBRANCH  71  72
ENDBRANCH  70  71
ENDBRANCH   1  70
TORSDOF 11
