REMARK SMILES Cc1c(C#N)c2ccccc2n1CC(=O)N1CC[C@H](O)C[C@@H]1C(=O)OCCOC(=O)c1ccc(-c2c3nc(c(-c4c(F)c(F)c(F)c(F)c4F)c4ccc([nH]4)c(-c4c(F)c(F)c(F)c(F)c4F)c4nc(c(-c5c(F)c(F)c(F)c(F)c5F)c5ccc2[nH]5)C=C4)C=C3)cc1
REMARK SMILES IDX 26 1 25 2 23 3 24 4 22 5 16 6 17 7 18 8 21 9 19 10 14 11
REMARK SMILES IDX 15 12 13 13 12 14 1 15 2 16 3 17 6 18 11 19 7 20 10 21 8 22
REMARK SMILES IDX 9 23 4 24 5 25 20 26 27 28 28 29 29 30 30 31 31 32 32 33
REMARK SMILES IDX 93 34 33 35 92 36 34 37 35 38 36 39 86 40 37 41 91 42 85 43
REMARK SMILES IDX 87 44 38 45 90 46 84 47 83 48 39 50 71 51 51 52 70 53 52 54
REMARK SMILES IDX 55 55 69 56 88 57 53 58 54 59 68 61 89 62 56 63 40 64 41 65
REMARK SMILES IDX 49 66 42 67 43 68 47 69 50 70 44 71 45 72 48 73 46 74 72 75
REMARK SMILES IDX 73 76 81 77 74 78 75 79 79 80 82 81 76 82 77 83 80 84 78 85
REMARK SMILES IDX 57 86 58 87 66 88 59 89 60 90 64 91 67 92 61 93 62 94 65 95
REMARK SMILES IDX 63 96
REMARK H PARENT 20 27 87 49 55 60
REMARK Flexibility Score: inf
ROOT
ATOM      1  C   UNL     1      -3.696  -2.312   6.542  1.00  0.00     0.274 C 
ENDROOT
BRANCH   1   2
ATOM      2  O   UNL     1      -3.453  -1.333   5.495  1.00  0.00    -0.461 OA
BRANCH   2   3
ATOM      3  C   UNL     1      -2.206  -0.794   5.472  1.00  0.00     0.329 C 
ATOM      4  O   UNL     1      -1.281  -1.240   6.138  1.00  0.00    -0.250 OA
BRANCH   3   5
ATOM      5  C   UNL     1      -2.070   0.423   4.522  1.00  0.00     0.197 C 
ATOM      6  N   UNL     1      -1.448   0.105   3.212  1.00  0.00    -0.327 N 
ATOM      7  C   UNL     1      -0.013  -0.073   3.164  1.00  0.00     0.123 C 
ATOM      8  C   UNL     1       0.787   0.958   3.935  1.00  0.00     0.053 C 
ATOM      9  C   UNL     1      -1.323   1.585   5.196  1.00  0.00     0.069 C 
ATOM     10  C   UNL     1       0.178   1.377   5.248  1.00  0.00     0.118 C 
BRANCH   6  11
ATOM     11  C   UNL     1      -2.225   0.193   2.078  1.00  0.00     0.243 C 
ATOM     12  O   UNL     1      -3.200   0.958   2.082  1.00  0.00    -0.273 OA
BRANCH  11  13
ATOM     13  C   UNL     1      -2.030  -0.675   0.840  1.00  0.00     0.222 C 
BRANCH  13  14
ATOM     14  N   UNL     1      -0.855  -1.531   0.647  1.00  0.00    -0.334 N 
ATOM     15  C   UNL     1       0.641   0.256  -0.394  1.00  0.00     0.066 C 
ATOM     16  C   UNL     1       0.325  -1.145   0.021  1.00  0.00     0.034 A 
ATOM     17  C   UNL     1       1.107  -2.280  -0.126  1.00  0.00     0.080 A 
ATOM     18  C   UNL     1       0.352  -3.401   0.307  1.00  0.00     0.018 A 
ATOM     19  C   UNL     1      -0.867  -2.915   0.793  1.00  0.00     0.050 A 
ATOM     20  C   UNL     1       0.591  -4.793   0.302  1.00  0.00     0.012 A 
ATOM     21  C   UNL     1      -1.853  -3.792   1.279  1.00  0.00     0.027 A 
ATOM     22  C   UNL     1      -0.396  -5.667   0.760  1.00  0.00     0.001 A 
ATOM     23  C   UNL     1      -1.600  -5.169   1.242  1.00  0.00     0.002 A 
BRANCH  17  24
ATOM     24  C   UNL     1       2.420  -2.317  -0.674  1.00  0.00     0.102 C 
ATOM     25  N   UNL     1       3.511  -2.331  -1.108  1.00  0.00    -0.192 NA
ENDBRANCH  17  24
ENDBRANCH  13  14
ENDBRANCH  11  13
ENDBRANCH   6  11
BRANCH  10  26
ATOM     26  O   UNL     1       0.510   0.427   6.219  1.00  0.00    -0.393 OA
ATOM     27  H   UNL     1       0.132  -0.432   5.974  1.00  0.00     0.210 HD
ENDBRANCH  10  26
ENDBRANCH   3   5
ENDBRANCH   2   3
ENDBRANCH   1   2
BRANCH   1  28
ATOM     28  C   UNL     1      -3.238  -3.737   6.187  1.00  0.00     0.275 C 
BRANCH  28  29
ATOM     29  O   UNL     1      -1.876  -3.936   6.618  1.00  0.00    -0.458 OA
BRANCH  29  30
ATOM     30  C   UNL     1      -0.990  -4.319   5.664  1.00  0.00     0.338 C 
ATOM     31  O   UNL     1      -1.266  -4.750   4.557  1.00  0.00    -0.246 OA
BRANCH  30  32
ATOM     32  C   UNL     1       0.342  -3.786   6.043  1.00  0.00     0.060 A 
ATOM     33  C   UNL     1       0.840  -3.754   7.352  1.00  0.00     0.016 A 
ATOM     34  C   UNL     1       0.988  -3.065   5.053  1.00  0.00     0.016 A 
ATOM     35  C   UNL     1       1.828  -2.812   7.712  1.00  0.00     0.010 A 
ATOM     36  C   UNL     1       1.952  -2.135   5.422  1.00  0.00     0.010 A 
ATOM     37  C   UNL     1       2.297  -1.896   6.769  1.00  0.00    -0.014 A 
BRANCH  37  38
ATOM     38  C   UNL     1       3.198  -0.739   7.065  1.00  0.00     0.031 A 
ATOM     39  C   UNL     1       4.424  -0.765   6.222  1.00  0.00     0.074 A 
ATOM     40  C   UNL     1       2.974   0.410   7.768  1.00  0.00     0.049 A 
ATOM     41  N   UNL     1       5.466  -1.504   6.427  1.00  0.00    -0.248 NA
ATOM     42  C   UNL     1       4.425  -0.113   4.900  1.00  0.00     0.031 C 
ATOM     43  C   UNL     1       1.754   0.883   8.437  1.00  0.00     0.029 A 
ATOM     44  N   UNL     1       3.812   1.497   7.929  1.00  0.00    -0.354 N 
ATOM     45  C   UNL     1       6.321  -1.184   5.385  1.00  0.00     0.074 A 
ATOM     46  C   UNL     1       5.482  -0.698   4.330  1.00  0.00     0.031 C 
ATOM     47  C   UNL     1       1.841   2.216   8.690  1.00  0.00     0.029 A 
ATOM     48  C   UNL     1       3.203   2.651   8.441  1.00  0.00     0.049 A 
ATOM     49  H   UNL     1       4.769   1.463   7.700  1.00  0.00     0.167 HD
ATOM     50  C   UNL     1       7.628  -0.869   5.614  1.00  0.00     0.037 A 
ATOM     51  C   UNL     1       3.796   3.846   8.715  1.00  0.00     0.037 A 
ATOM     52  C   UNL     1       7.937  -1.032   7.015  1.00  0.00     0.049 A 
ATOM     53  C   UNL     1       5.216   3.535   8.986  1.00  0.00     0.074 A 
ATOM     54  C   UNL     1       7.953  -2.082   7.908  1.00  0.00     0.029 A 
ATOM     55  N   UNL     1       7.846   0.124   7.749  1.00  0.00    -0.354 N 
ATOM     56  N   UNL     1       5.614   2.845  10.017  1.00  0.00    -0.248 NA
ATOM     57  C   UNL     1       6.218   3.761   7.953  1.00  0.00     0.031 C 
ATOM     58  C   UNL     1       7.628  -1.524   9.178  1.00  0.00     0.029 A 
ATOM     59  C   UNL     1       7.495  -0.143   9.046  1.00  0.00     0.049 A 
ATOM     60  H   UNL     1       8.010   1.026   7.390  1.00  0.00     0.167 HD
ATOM     61  C   UNL     1       6.705   2.156   9.540  1.00  0.00     0.074 A 
ATOM     62  C   UNL     1       7.155   2.909   8.377  1.00  0.00     0.031 C 
ATOM     63  C   UNL     1       6.901   0.859   9.907  1.00  0.00     0.037 A 
BRANCH  50  64
ATOM     64  C   UNL     1       8.502   0.001   4.735  1.00  0.00     0.064 A 
ATOM     65  C   UNL     1       9.894  -0.023   4.950  1.00  0.00     0.173 A 
ATOM     66  C   UNL     1       8.047   1.011   3.858  1.00  0.00     0.173 A 
ATOM     67  F   UNL     1      10.434  -0.901   5.809  1.00  0.00    -0.203 F 
ATOM     68  C   UNL     1      10.755   0.898   4.347  1.00  0.00     0.198 A 
ATOM     69  C   UNL     1       8.915   1.883   3.204  1.00  0.00     0.198 A 
ATOM     70  F   UNL     1       6.750   1.285   3.684  1.00  0.00    -0.203 F 
ATOM     71  F   UNL     1      12.056   0.900   4.667  1.00  0.00    -0.200 F 
ATOM     72  C   UNL     1      10.267   1.842   3.464  1.00  0.00     0.200 A 
ATOM     73  F   UNL     1       8.414   2.816   2.381  1.00  0.00    -0.200 F 
ATOM     74  F   UNL     1      11.084   2.746   2.908  1.00  0.00    -0.200 F 
ENDBRANCH  50  64
BRANCH  51  75
ATOM     75  C   UNL     1       3.339   5.263   8.791  1.00  0.00     0.064 A 
ATOM     76  C   UNL     1       4.094   6.232   9.488  1.00  0.00     0.173 A 
ATOM     77  C   UNL     1       2.374   5.761   7.900  1.00  0.00     0.173 A 
ATOM     78  F   UNL     1       5.051   5.857  10.350  1.00  0.00    -0.203 F 
ATOM     79  C   UNL     1       3.950   7.604   9.251  1.00  0.00     0.198 A 
ATOM     80  C   UNL     1       2.227   7.136   7.667  1.00  0.00     0.198 A 
ATOM     81  F   UNL     1       1.635   4.919   7.162  1.00  0.00    -0.203 F 
ATOM     82  F   UNL     1       4.758   8.479   9.867  1.00  0.00    -0.200 F 
ATOM     83  C   UNL     1       3.031   8.054   8.323  1.00  0.00     0.200 A 
ATOM     84  F   UNL     1       1.354   7.567   6.744  1.00  0.00    -0.200 F 
ATOM     85  F   UNL     1       2.952   9.360   8.028  1.00  0.00    -0.200 F 
ENDBRANCH  51  75
BRANCH  63  86
ATOM     86  C   UNL     1       6.299   0.390  11.204  1.00  0.00     0.064 A 
ATOM     87  C   UNL     1       4.924   0.289  11.474  1.00  0.00     0.173 A 
ATOM     88  C   UNL     1       7.178  -0.115  12.172  1.00  0.00     0.173 A 
ATOM     89  F   UNL     1       4.009   0.708  10.596  1.00  0.00    -0.203 F 
ATOM     90  C   UNL     1       4.456  -0.300  12.648  1.00  0.00     0.198 A 
ATOM     91  C   UNL     1       6.709  -0.735  13.326  1.00  0.00     0.198 A 
ATOM     92  F   UNL     1       8.503  -0.059  11.967  1.00  0.00    -0.203 F 
ATOM     93  F   UNL     1       3.136  -0.391  12.874  1.00  0.00    -0.200 F 
ATOM     94  C   UNL     1       5.348  -0.828  13.564  1.00  0.00     0.200 A 
ATOM     95  F   UNL     1       7.579  -1.274  14.191  1.00  0.00    -0.200 F 
ATOM     96  F   UNL     1       4.898  -1.448  14.663  1.00  0.00    -0.200 F 
ENDBRANCH  63  86
ENDBRANCH  37  38
ENDBRANCH  30  32
ENDBRANCH  29  30
ENDBRANCH  28  29
ENDBRANCH   1  28
TORSDOF 16
