REMARK SMILES O=C(OCCOC(=O)c1cc(NC(=S)NC(=O)c2ccccc2Cl)c(Cl)cc1Cl)c1ccc(-c2c3nc(c(-c4c(F)c(F)c(F)c(F)c4F)c4ccc([nH]4)c(-c4c(F)c(F)c(F)c(F)c4F)c4nc(c(-c5c(F)c(F)c(F)c(F)c5F)c5ccc2[nH]5)C=C4)C=C3)cc1
REMARK SMILES IDX 5 1 4 2 3 3 2 4 1 5 30 6 31 7 92 8 32 9 91 10 33 11 34 12
REMARK SMILES IDX 35 13 85 14 36 15 90 16 84 17 86 18 37 19 89 20 83 21 82 22
REMARK SMILES IDX 38 24 70 25 50 26 69 27 51 28 54 29 68 30 87 31 52 32 53 33
REMARK SMILES IDX 67 35 88 36 55 37 39 38 40 39 48 40 41 41 42 42 46 43 49 44
REMARK SMILES IDX 43 45 44 46 47 47 45 48 71 49 72 50 80 51 73 52 74 53 78 54
REMARK SMILES IDX 81 55 75 56 76 57 79 58 77 59 56 60 57 61 65 62 58 63 59 64
REMARK SMILES IDX 63 65 66 66 60 67 61 68 64 69 62 70 6 71 7 72 8 73 9 74
REMARK SMILES IDX 10 75 28 76 11 77 27 78 29 79 25 80 26 81 12 82 13 84 14 85
REMARK SMILES IDX 15 86 16 87 17 89 18 90 19 91 23 92 20 93 22 94 24 95 21 96
REMARK H PARENT 86 23 54 34 12 83 15 88
REMARK Flexibility Score: inf
ROOT
ATOM      1  C   UNL     1       2.839   0.273   1.442  1.00  0.00     0.275 C 
ENDROOT
BRANCH   1   2
ATOM      2  C   UNL     1       4.070   1.129   1.102  1.00  0.00     0.275 C 
BRANCH   2   3
ATOM      3  O   UNL     1       4.212   1.708  -0.205  1.00  0.00    -0.458 OA
BRANCH   3   4
ATOM      4  C   UNL     1       3.881   1.031  -1.323  1.00  0.00     0.338 C 
ATOM      5  O   UNL     1       2.955   1.400  -2.037  1.00  0.00    -0.246 OA
BRANCH   4   6
ATOM      6  C   UNL     1       4.765  -0.109  -1.738  1.00  0.00     0.060 A 
ATOM      7  C   UNL     1       5.862  -0.618  -1.026  1.00  0.00     0.016 A 
ATOM      8  C   UNL     1       4.399  -0.761  -2.915  1.00  0.00     0.016 A 
ATOM      9  C   UNL     1       6.458  -1.858  -1.380  1.00  0.00     0.010 A 
ATOM     10  C   UNL     1       4.985  -1.984  -3.258  1.00  0.00     0.010 A 
ATOM     11  C   UNL     1       5.976  -2.603  -2.461  1.00  0.00    -0.014 A 
BRANCH  11  12
ATOM     12  C   UNL     1       6.435  -3.990  -2.844  1.00  0.00     0.031 A 
ATOM     13  C   UNL     1       6.892  -4.202  -4.269  1.00  0.00     0.074 A 
ATOM     14  C   UNL     1       6.326  -5.096  -2.061  1.00  0.00     0.049 A 
ATOM     15  N   UNL     1       7.191  -5.316  -4.888  1.00  0.00    -0.248 NA
ATOM     16  C   UNL     1       6.992  -3.002  -5.119  1.00  0.00     0.031 C 
ATOM     17  C   UNL     1       5.947  -5.146  -0.651  1.00  0.00     0.029 A 
ATOM     18  N   UNL     1       6.488  -6.438  -2.376  1.00  0.00    -0.354 N 
ATOM     19  C   UNL     1       7.555  -4.929  -6.166  1.00  0.00     0.074 A 
ATOM     20  C   UNL     1       7.218  -3.533  -6.306  1.00  0.00     0.031 C 
ATOM     21  C   UNL     1       5.801  -6.429  -0.260  1.00  0.00     0.029 A 
ATOM     22  C   UNL     1       6.111  -7.313  -1.374  1.00  0.00     0.049 A 
ATOM     23  H   UNL     1       6.843  -6.742  -3.242  1.00  0.00     0.167 HD
ATOM     24  C   UNL     1       8.256  -5.614  -7.096  1.00  0.00     0.037 A 
ATOM     25  C   UNL     1       6.047  -8.664  -1.345  1.00  0.00     0.037 A 
ATOM     26  C   UNL     1       8.669  -6.977  -6.967  1.00  0.00     0.049 A 
ATOM     27  C   UNL     1       6.666  -9.455  -2.471  1.00  0.00     0.074 A 
ATOM     28  C   UNL     1       9.499  -7.710  -7.794  1.00  0.00     0.029 A 
ATOM     29  N   UNL     1       8.268  -7.818  -5.946  1.00  0.00    -0.354 N 
ATOM     30  N   UNL     1       7.209  -9.028  -3.580  1.00  0.00    -0.248 NA
ATOM     31  C   UNL     1       6.757 -10.915  -2.283  1.00  0.00     0.031 C 
ATOM     32  C   UNL     1       9.552  -9.019  -7.305  1.00  0.00     0.029 A 
ATOM     33  C   UNL     1       8.787  -9.084  -6.153  1.00  0.00     0.049 A 
ATOM     34  H   UNL     1       7.698  -7.557  -5.187  1.00  0.00     0.167 HD
ATOM     35  C   UNL     1       7.786 -10.146  -4.170  1.00  0.00     0.074 A 
ATOM     36  C   UNL     1       7.500 -11.276  -3.317  1.00  0.00     0.031 C 
ATOM     37  C   UNL     1       8.524 -10.211  -5.302  1.00  0.00     0.037 A 
BRANCH  24  38
ATOM     38  C   UNL     1       8.712  -4.827  -8.282  1.00  0.00     0.064 A 
ATOM     39  C   UNL     1       9.690  -3.826  -8.140  1.00  0.00     0.173 A 
ATOM     40  C   UNL     1       8.147  -5.030  -9.544  1.00  0.00     0.173 A 
ATOM     41  F   UNL     1      10.236  -3.581  -6.938  1.00  0.00    -0.203 F 
ATOM     42  C   UNL     1      10.046  -3.021  -9.213  1.00  0.00     0.198 A 
ATOM     43  C   UNL     1       8.532  -4.243 -10.625  1.00  0.00     0.198 A 
ATOM     44  F   UNL     1       7.207  -5.970  -9.722  1.00  0.00    -0.203 F 
ATOM     45  F   UNL     1      10.918  -2.019  -9.035  1.00  0.00    -0.200 F 
ATOM     46  C   UNL     1       9.470  -3.232 -10.456  1.00  0.00     0.200 A 
ATOM     47  F   UNL     1       7.978  -4.445 -11.827  1.00  0.00    -0.200 F 
ATOM     48  F   UNL     1       9.805  -2.448 -11.489  1.00  0.00    -0.200 F 
ENDBRANCH  24  38
BRANCH  25  49
ATOM     49  C   UNL     1       5.469  -9.448  -0.213  1.00  0.00     0.064 A 
ATOM     50  C   UNL     1       6.287 -10.007   0.781  1.00  0.00     0.173 A 
ATOM     51  C   UNL     1       4.130  -9.868  -0.259  1.00  0.00     0.173 A 
ATOM     52  F   UNL     1       7.594  -9.707   0.811  1.00  0.00    -0.203 F 
ATOM     53  C   UNL     1       5.794 -10.961   1.675  1.00  0.00     0.198 A 
ATOM     54  C   UNL     1       3.639 -10.826   0.633  1.00  0.00     0.198 A 
ATOM     55  F   UNL     1       3.302  -9.372  -1.191  1.00  0.00    -0.203 F 
ATOM     56  F   UNL     1       6.616 -11.522   2.573  1.00  0.00    -0.200 F 
ATOM     57  C   UNL     1       4.472 -11.374   1.598  1.00  0.00     0.200 A 
ATOM     58  F   UNL     1       2.353 -11.200   0.568  1.00  0.00    -0.200 F 
ATOM     59  F   UNL     1       4.002 -12.296   2.450  1.00  0.00    -0.200 F 
ENDBRANCH  25  49
BRANCH  37  60
ATOM     60  C   UNL     1       9.129 -11.530  -5.669  1.00  0.00     0.064 A 
ATOM     61  C   UNL     1       8.347 -12.603  -6.117  1.00  0.00     0.173 A 
ATOM     62  C   UNL     1      10.521 -11.705  -5.617  1.00  0.00     0.173 A 
ATOM     63  F   UNL     1       7.010 -12.493  -6.159  1.00  0.00    -0.203 F 
ATOM     64  C   UNL     1       8.935 -13.809  -6.487  1.00  0.00     0.198 A 
ATOM     65  C   UNL     1      11.108 -12.900  -6.022  1.00  0.00     0.198 A 
ATOM     66  F   UNL     1      11.313 -10.710  -5.192  1.00  0.00    -0.203 F 
ATOM     67  F   UNL     1       8.164 -14.837  -6.869  1.00  0.00    -0.200 F 
ATOM     68  C   UNL     1      10.314 -13.952  -6.451  1.00  0.00     0.200 A 
ATOM     69  F   UNL     1      12.441 -13.030  -6.001  1.00  0.00    -0.200 F 
ATOM     70  F   UNL     1      10.879 -15.107  -6.827  1.00  0.00    -0.200 F 
ENDBRANCH  37  60
ENDBRANCH  11  12
ENDBRANCH   4   6
ENDBRANCH   3   4
ENDBRANCH   2   3
ENDBRANCH   1   2
BRANCH   1  71
ATOM     71  O   UNL     1       2.391  -0.622   0.410  1.00  0.00    -0.458 OA
BRANCH  71  72
ATOM     72  C   UNL     1       1.340  -1.399   0.810  1.00  0.00     0.339 C 
ATOM     73  O   UNL     1       0.591  -1.121   1.739  1.00  0.00    -0.246 OA
BRANCH  72  74
ATOM     74  C   UNL     1       1.232  -2.801   0.163  1.00  0.00     0.080 A 
ATOM     75  C   UNL     1       2.286  -4.522   0.269  1.00  0.00     0.045 A 
ATOM     76  C   UNL     1      -0.375  -2.942  -0.672  1.00  0.00     0.057 A 
ATOM     77  C   UNL     1       1.691  -6.026  -0.234  1.00  0.00     0.060 A 
ATOM     78  C   UNL     1      -0.867  -4.551  -1.290  1.00  0.00     0.044 A 
ATOM     79  Cl  UNL     1      -1.414  -1.600  -0.917  1.00  0.00    -0.083 Cl
ATOM     80  C   UNL     1       0.140  -6.027  -1.060  1.00  0.00     0.066 A 
ATOM     81  Cl  UNL     1      -0.497  -7.535  -1.596  1.00  0.00    -0.082 Cl
BRANCH  77  82
ATOM     82  N   UNL     1       2.167  -7.014   0.677  1.00  0.00    -0.331 N 
ATOM     83  H   UNL     1       1.948  -7.940   0.424  1.00  0.00     0.169 HD
BRANCH  82  84
ATOM     84  C   UNL     1       2.883  -6.895   1.858  1.00  0.00     0.177 C 
ATOM     85  S   UNL     1       3.073  -8.278   2.792  1.00  0.00    -0.040 S 
BRANCH  84  86
ATOM     86  N   UNL     1       3.496  -5.759   2.456  1.00  0.00    -0.299 N 
ATOM     87  C   UNL     1       3.736  -4.309   2.589  1.00  0.00     0.258 C 
ATOM     88  H   UNL     1       4.066  -6.149   3.158  1.00  0.00     0.172 HD
ATOM     89  O   UNL     1       4.762  -3.889   3.114  1.00  0.00    -0.269 OA
BRANCH  87  90
ATOM     90  C   UNL     1       2.800  -3.328   1.932  1.00  0.00     0.058 A 
ATOM     91  C   UNL     1       3.551  -2.805   0.378  1.00  0.00     0.015 A 
ATOM     92  C   UNL     1       1.211  -4.040   2.032  1.00  0.00     0.053 A 
ATOM     93  C   UNL     1       2.839  -3.180  -1.215  1.00  0.00     0.001 A 
ATOM     94  C   UNL     1       0.405  -4.490   0.522  1.00  0.00     0.021 A 
ATOM     95  Cl  UNL     1       0.575  -4.633   3.514  1.00  0.00    -0.083 Cl
ATOM     96  C   UNL     1       1.292  -4.089  -1.251  1.00  0.00     0.002 A 
ENDBRANCH  87  90
ENDBRANCH  84  86
ENDBRANCH  82  84
ENDBRANCH  77  82
ENDBRANCH  72  74
ENDBRANCH  71  72
ENDBRANCH   1  71
TORSDOF 15
