REMARK SMILES O=C(OCCOC(=O)c1cn(C2CC2)c2cc(N3CC[NH2+]CC3)ccc2c1=O)c1ccc(-c2c3nc(c(-c4c(F)c(F)c(F)c(F)c4F)c4ccc([nH]4)c(-c4c(F)c(F)c(F)c(F)c4F)c4nc(c(-c5c(F)c(F)c(F)c(F)c5F)c5ccc2[nH]5)C=C4)C=C3)cc1
REMARK SMILES IDX 4 1 3 2 2 3 1 4 29 5 30 6 91 7 31 8 90 9 32 10 33 11 34 12
REMARK SMILES IDX 84 13 35 14 89 15 83 16 85 17 36 18 88 19 82 20 81 21 37 23
REMARK SMILES IDX 69 24 49 25 68 26 50 27 53 28 67 29 86 30 51 31 52 32 66 34
REMARK SMILES IDX 87 35 54 36 38 37 39 38 47 39 40 40 41 41 45 42 48 43 42 44
REMARK SMILES IDX 43 45 46 46 44 47 70 48 71 49 79 50 72 51 73 52 77 53 80 54
REMARK SMILES IDX 74 55 75 56 78 57 76 58 55 59 56 60 64 61 57 62 58 63 62 64
REMARK SMILES IDX 65 65 59 66 60 67 63 68 61 69 5 70 6 71 7 72 8 73 9 74 10 75
REMARK SMILES IDX 27 76 11 77 26 78 28 79 15 80 25 81 16 82 24 83 17 84 12 85
REMARK SMILES IDX 13 86 14 87 18 88 19 89 23 90 20 91 22 92 21 93
REMARK H PARENT 85 22 53 33 21 94 21 95
REMARK Flexibility Score: inf
ROOT
ATOM      1  C   UNL     1       4.385  -0.256  -1.393  1.00  0.00     0.275 C 
ENDROOT
BRANCH   1   2
ATOM      2  O   UNL     1       3.335  -1.022  -0.776  1.00  0.00    -0.458 OA
BRANCH   2   3
ATOM      3  C   UNL     1       3.169  -1.361   0.526  1.00  0.00     0.338 C 
ATOM      4  O   UNL     1       2.431  -2.300   0.816  1.00  0.00    -0.246 OA
BRANCH   3   5
ATOM      5  C   UNL     1       3.725  -0.549   1.653  1.00  0.00     0.060 A 
ATOM      6  C   UNL     1       2.908  -0.414   2.787  1.00  0.00     0.016 A 
ATOM      7  C   UNL     1       4.989   0.042   1.692  1.00  0.00     0.016 A 
ATOM      8  C   UNL     1       3.307   0.369   3.879  1.00  0.00     0.010 A 
ATOM      9  C   UNL     1       5.400   0.809   2.792  1.00  0.00     0.010 A 
ATOM     10  C   UNL     1       4.559   1.003   3.890  1.00  0.00    -0.014 A 
BRANCH  10  11
ATOM     11  C   UNL     1       5.046   1.673   5.122  1.00  0.00     0.031 A 
ATOM     12  C   UNL     1       5.361   3.136   5.213  1.00  0.00     0.074 A 
ATOM     13  C   UNL     1       5.299   0.906   6.197  1.00  0.00     0.049 A 
ATOM     14  N   UNL     1       5.450   3.883   6.289  1.00  0.00    -0.248 NA
ATOM     15  C   UNL     1       5.642   3.859   3.967  1.00  0.00     0.031 C 
ATOM     16  C   UNL     1       5.196  -0.551   6.232  1.00  0.00     0.029 A 
ATOM     17  N   UNL     1       5.731   1.246   7.452  1.00  0.00    -0.354 N 
ATOM     18  C   UNL     1       5.641   5.178   5.834  1.00  0.00     0.074 A 
ATOM     19  C   UNL     1       5.836   5.097   4.409  1.00  0.00     0.031 C 
ATOM     20  C   UNL     1       5.564  -0.984   7.445  1.00  0.00     0.029 A 
ATOM     21  C   UNL     1       5.935   0.165   8.267  1.00  0.00     0.049 A 
ATOM     22  H   UNL     1       5.880   2.176   7.740  1.00  0.00     0.167 HD
ATOM     23  C   UNL     1       5.606   6.327   6.546  1.00  0.00     0.037 A 
ATOM     24  C   UNL     1       6.379   0.105   9.535  1.00  0.00     0.037 A 
ATOM     25  C   UNL     1       5.739   6.379   7.973  1.00  0.00     0.049 A 
ATOM     26  C   UNL     1       6.637   1.379  10.286  1.00  0.00     0.074 A 
ATOM     27  C   UNL     1       5.800   7.485   8.799  1.00  0.00     0.029 A 
ATOM     28  N   UNL     1       5.976   5.266   8.762  1.00  0.00    -0.354 N 
ATOM     29  N   UNL     1       6.432   2.616   9.903  1.00  0.00    -0.248 NA
ATOM     30  C   UNL     1       7.179   1.252  11.644  1.00  0.00     0.031 C 
ATOM     31  C   UNL     1       6.227   7.048  10.059  1.00  0.00     0.029 A 
ATOM     32  C   UNL     1       6.343   5.666  10.033  1.00  0.00     0.049 A 
ATOM     33  H   UNL     1       5.896   4.332   8.463  1.00  0.00     0.167 HD
ATOM     34  C   UNL     1       6.806   3.416  10.974  1.00  0.00     0.074 A 
ATOM     35  C   UNL     1       7.239   2.522  12.028  1.00  0.00     0.031 C 
ATOM     36  C   UNL     1       6.789   4.769  11.070  1.00  0.00     0.037 A 
BRANCH  23  37
ATOM     37  C   UNL     1       5.427   7.616   5.807  1.00  0.00     0.064 A 
ATOM     38  C   UNL     1       4.136   8.047   5.463  1.00  0.00     0.173 A 
ATOM     39  C   UNL     1       6.499   8.469   5.526  1.00  0.00     0.173 A 
ATOM     40  F   UNL     1       3.072   7.278   5.739  1.00  0.00    -0.203 F 
ATOM     41  C   UNL     1       3.929   9.273   4.835  1.00  0.00     0.198 A 
ATOM     42  C   UNL     1       6.288   9.701   4.909  1.00  0.00     0.198 A 
ATOM     43  F   UNL     1       7.748   8.112   5.859  1.00  0.00    -0.203 F 
ATOM     44  F   UNL     1       2.689   9.649   4.492  1.00  0.00    -0.200 F 
ATOM     45  C   UNL     1       5.006  10.100   4.559  1.00  0.00     0.200 A 
ATOM     46  F   UNL     1       7.328  10.508   4.655  1.00  0.00    -0.200 F 
ATOM     47  F   UNL     1       4.809  11.279   3.954  1.00  0.00    -0.200 F 
ENDBRANCH  23  37
BRANCH  24  48
ATOM     48  C   UNL     1       6.560  -1.234  10.146  1.00  0.00     0.064 A 
ATOM     49  C   UNL     1       5.663  -1.710  11.108  1.00  0.00     0.173 A 
ATOM     50  C   UNL     1       7.552  -2.112   9.678  1.00  0.00     0.173 A 
ATOM     51  F   UNL     1       4.705  -0.903  11.586  1.00  0.00    -0.203 F 
ATOM     52  C   UNL     1       5.739  -3.022  11.568  1.00  0.00     0.198 A 
ATOM     53  C   UNL     1       7.609  -3.431  10.119  1.00  0.00     0.198 A 
ATOM     54  F   UNL     1       8.423  -1.705   8.743  1.00  0.00    -0.203 F 
ATOM     55  F   UNL     1       4.867  -3.457  12.488  1.00  0.00    -0.200 F 
ATOM     56  C   UNL     1       6.701  -3.885  11.063  1.00  0.00     0.200 A 
ATOM     57  F   UNL     1       8.522  -4.268   9.608  1.00  0.00    -0.200 F 
ATOM     58  F   UNL     1       6.745  -5.159  11.478  1.00  0.00    -0.200 F 
ENDBRANCH  24  48
BRANCH  36  59
ATOM     59  C   UNL     1       7.293   5.398  12.334  1.00  0.00     0.064 A 
ATOM     60  C   UNL     1       8.663   5.425  12.630  1.00  0.00     0.173 A 
ATOM     61  C   UNL     1       6.421   6.106  13.174  1.00  0.00     0.173 A 
ATOM     62  F   UNL     1       9.535   4.758  11.859  1.00  0.00    -0.203 F 
ATOM     63  C   UNL     1       9.142   6.144  13.721  1.00  0.00     0.198 A 
ATOM     64  C   UNL     1       6.907   6.851  14.243  1.00  0.00     0.198 A 
ATOM     65  F   UNL     1       5.103   6.122  12.921  1.00  0.00    -0.203 F 
ATOM     66  F   UNL     1      10.454   6.148  13.993  1.00  0.00    -0.200 F 
ATOM     67  C   UNL     1       8.267   6.870  14.515  1.00  0.00     0.200 A 
ATOM     68  F   UNL     1       6.063   7.572  14.993  1.00  0.00    -0.200 F 
ATOM     69  F   UNL     1       8.735   7.596  15.540  1.00  0.00    -0.200 F 
ENDBRANCH  36  59
ENDBRANCH  10  11
ENDBRANCH   3   5
ENDBRANCH   2   3
ENDBRANCH   1   2
BRANCH   1  70
ATOM     70  C   UNL     1       4.093   1.240  -1.510  1.00  0.00     0.275 C 
BRANCH  70  71
ATOM     71  O   UNL     1       3.533   1.787  -0.309  1.00  0.00    -0.458 OA
BRANCH  71  72
ATOM     72  C   UNL     1       2.167   1.863  -0.281  1.00  0.00     0.343 C 
ATOM     73  O   UNL     1       1.426   1.609  -1.209  1.00  0.00    -0.246 OA
BRANCH  72  74
ATOM     74  C   UNL     1       1.732   2.295   1.059  1.00  0.00     0.124 A 
ATOM     75  C   UNL     1       2.343   3.329   1.650  1.00  0.00     0.106 A 
ATOM     76  C   UNL     1       0.635   1.641   1.800  1.00  0.00     0.203 A 
ATOM     77  N   UNL     1       2.032   3.870   2.882  1.00  0.00    -0.343 N 
ATOM     78  C   UNL     1       0.428   2.052   3.215  1.00  0.00     0.047 A 
ATOM     79  O   UNL     1      -0.035   0.737   1.316  1.00  0.00    -0.288 OA
ATOM     80  C   UNL     1       1.095   3.185   3.717  1.00  0.00     0.054 A 
ATOM     81  C   UNL     1      -0.394   1.269   4.036  1.00  0.00     0.016 A 
ATOM     82  C   UNL     1       0.823   3.552   5.048  1.00  0.00     0.053 A 
ATOM     83  C   UNL     1      -0.596   1.628   5.369  1.00  0.00     0.027 A 
ATOM     84  C   UNL     1      -0.022   2.791   5.886  1.00  0.00     0.039 A 
BRANCH  77  85
ATOM     85  C   UNL     1       2.620   5.170   3.268  1.00  0.00     0.087 C 
ATOM     86  C   UNL     1       3.418   6.081   2.354  1.00  0.00     0.027 C 
ATOM     87  C   UNL     1       2.020   6.445   2.731  1.00  0.00     0.027 C 
ENDBRANCH  77  85
BRANCH  84  88
ATOM     88  N   UNL     1      -0.298   3.242   7.167  1.00  0.00    -0.360 N 
ATOM     89  C   UNL     1      -1.201   4.400   7.271  1.00  0.00     0.178 C 
ATOM     90  C   UNL     1      -0.269   2.349   8.336  1.00  0.00     0.178 C 
ATOM     91  C   UNL     1      -2.599   3.958   7.766  1.00  0.00     0.282 C 
ATOM     92  C   UNL     1      -1.688   2.028   8.866  1.00  0.00     0.282 C 
ATOM     93  N   UNL     1      -2.556   3.213   9.042  1.00  0.00    -0.343 N 
ATOM     94  H   UNL     1      -3.497   2.915   9.298  1.00  0.00     0.346 HD
ATOM     95  H   UNL     1      -2.187   3.809   9.783  1.00  0.00     0.346 HD
ENDBRANCH  84  88
ENDBRANCH  72  74
ENDBRANCH  71  72
ENDBRANCH  70  71
ENDBRANCH   1  70
TORSDOF 13
