REMARK SMILES Cc1oc(CNC(=O)c2ccnn2C)cc1C(=O)OCCOC(=O)c1ccc(-c2c3nc(c(-c4c(F)c(F)c(F)c(F)c4F)c4ccc([nH]4)c(-c4c(F)c(F)c(F)c(F)c4F)c4nc(c(-c5c(F)c(F)c(F)c(F)c5F)c5ccc2[nH]5)C=C4)C=C3)cc1
REMARK SMILES IDX 20 1 19 2 17 3 18 4 16 5 1 6 2 7 3 8 4 9 15 10 5 11 6 12
REMARK SMILES IDX 7 13 8 15 9 16 10 17 13 18 11 19 12 20 14 21 21 22 22 23
REMARK SMILES IDX 23 24 24 25 25 26 26 27 87 28 27 29 86 30 28 31 29 32 30 33
REMARK SMILES IDX 80 34 31 35 85 36 79 37 81 38 32 39 84 40 78 41 77 42 33 44
REMARK SMILES IDX 65 45 45 46 64 47 46 48 49 49 63 50 82 51 47 52 48 53 62 55
REMARK SMILES IDX 83 56 50 57 34 58 35 59 43 60 36 61 37 62 41 63 44 64 38 65
REMARK SMILES IDX 39 66 42 67 40 68 66 69 67 70 75 71 68 72 69 73 73 74 76 75
REMARK SMILES IDX 70 76 71 77 74 78 72 79 51 80 52 81 60 82 53 83 54 84 58 85
REMARK SMILES IDX 61 86 55 87 56 88 59 89 57 90
REMARK H PARENT 6 14 81 43 49 54
REMARK Flexibility Score: inf
ROOT
ATOM      1  C   UNL     1       1.827  -4.374  -0.104  1.00  0.00     0.275 C 
ENDROOT
BRANCH   1   2
ATOM      2  O   UNL     1       1.641  -2.947  -0.063  1.00  0.00    -0.458 OA
BRANCH   2   3
ATOM      3  C   UNL     1       0.606  -2.470  -0.810  1.00  0.00     0.341 C 
ATOM      4  O   UNL     1      -0.083  -3.154  -1.553  1.00  0.00    -0.246 OA
BRANCH   3   5
ATOM      5  C   UNL     1       0.292  -1.075  -0.553  1.00  0.00     0.101 A 
ATOM      6  C   UNL     1       2.488   0.055   0.395  1.00  0.00     0.088 C 
ATOM      7  C   UNL     1       1.071  -0.068  -0.009  1.00  0.00     0.115 A 
ATOM      8  O   UNL     1       0.336   1.081   0.116  1.00  0.00    -0.464 OA
ATOM      9  C   UNL     1      -0.904   0.827  -0.381  1.00  0.00     0.124 A 
ATOM     10  C   UNL     1      -0.958  -0.459  -0.856  1.00  0.00     0.063 A 
BRANCH   9  11
ATOM     11  C   UNL     1      -1.893   1.923  -0.432  1.00  0.00     0.191 C 
BRANCH  11  12
ATOM     12  N   UNL     1      -1.923   2.694   0.787  1.00  0.00    -0.343 N 
ATOM     13  C   UNL     1      -2.038   4.055   0.904  1.00  0.00     0.269 C 
ATOM     14  H   UNL     1      -1.852   2.187   1.628  1.00  0.00     0.164 HD
ATOM     15  O   UNL     1      -2.013   4.563   2.021  1.00  0.00    -0.268 OA
BRANCH  13  16
ATOM     16  C   UNL     1      -2.121   4.826  -0.307  1.00  0.00     0.125 A 
ATOM     17  C   UNL     1      -1.231   5.781  -0.760  1.00  0.00     0.055 A 
ATOM     18  N   UNL     1      -3.109   4.782  -1.259  1.00  0.00    -0.263 N 
ATOM     19  C   UNL     1      -1.698   6.146  -2.033  1.00  0.00     0.136 A 
ATOM     20  N   UNL     1      -2.829   5.517  -2.354  1.00  0.00    -0.181 NA
ATOM     21  C   UNL     1      -4.340   4.027  -1.238  1.00  0.00     0.174 C 
ENDBRANCH  13  16
ENDBRANCH  11  12
ENDBRANCH   9  11
ENDBRANCH   3   5
ENDBRANCH   2   3
ENDBRANCH   1   2
BRANCH   1  22
ATOM     22  C   UNL     1       1.153  -5.043   1.096  1.00  0.00     0.275 C 
BRANCH  22  23
ATOM     23  O   UNL     1      -0.280  -4.896   1.024  1.00  0.00    -0.458 OA
BRANCH  23  24
ATOM     24  C   UNL     1      -0.852  -4.189   2.025  1.00  0.00     0.338 C 
ATOM     25  O   UNL     1      -0.305  -3.671   2.982  1.00  0.00    -0.246 OA
BRANCH  24  26
ATOM     26  C   UNL     1      -2.299  -4.071   1.782  1.00  0.00     0.060 A 
ATOM     27  C   UNL     1      -2.749  -3.078   0.916  1.00  0.00     0.016 A 
ATOM     28  C   UNL     1      -3.212  -4.836   2.506  1.00  0.00     0.016 A 
ATOM     29  C   UNL     1      -4.111  -2.808   0.797  1.00  0.00     0.010 A 
ATOM     30  C   UNL     1      -4.585  -4.603   2.345  1.00  0.00     0.010 A 
ATOM     31  C   UNL     1      -5.048  -3.570   1.509  1.00  0.00    -0.014 A 
BRANCH  31  32
ATOM     32  C   UNL     1      -6.500  -3.244   1.419  1.00  0.00     0.031 A 
ATOM     33  C   UNL     1      -7.243  -2.763   2.636  1.00  0.00     0.074 A 
ATOM     34  C   UNL     1      -7.153  -3.348   0.245  1.00  0.00     0.049 A 
ATOM     35  N   UNL     1      -8.527  -2.556   2.798  1.00  0.00    -0.248 NA
ATOM     36  C   UNL     1      -6.436  -2.478   3.832  1.00  0.00     0.031 C 
ATOM     37  C   UNL     1      -6.551  -3.752  -1.025  1.00  0.00     0.029 A 
ATOM     38  N   UNL     1      -8.471  -3.117  -0.070  1.00  0.00    -0.354 N 
ATOM     39  C   UNL     1      -8.686  -2.167   4.122  1.00  0.00     0.074 A 
ATOM     40  C   UNL     1      -7.368  -2.164   4.721  1.00  0.00     0.031 C 
ATOM     41  C   UNL     1      -7.488  -3.717  -1.986  1.00  0.00     0.029 A 
ATOM     42  C   UNL     1      -8.771  -3.358  -1.389  1.00  0.00     0.049 A 
ATOM     43  H   UNL     1      -9.136  -2.808   0.587  1.00  0.00     0.167 HD
ATOM     44  C   UNL     1      -9.826  -1.843   4.778  1.00  0.00     0.037 A 
ATOM     45  C   UNL     1      -9.951  -3.330  -2.039  1.00  0.00     0.037 A 
ATOM     46  C   UNL     1     -11.133  -1.797   4.173  1.00  0.00     0.049 A 
ATOM     47  C   UNL     1     -11.207  -2.997  -1.281  1.00  0.00     0.074 A 
ATOM     48  C   UNL     1     -12.344  -1.465   4.758  1.00  0.00     0.029 A 
ATOM     49  N   UNL     1     -11.396  -2.077   2.842  1.00  0.00    -0.354 N 
ATOM     50  N   UNL     1     -11.351  -2.678  -0.019  1.00  0.00    -0.248 NA
ATOM     51  C   UNL     1     -12.468  -3.040  -2.037  1.00  0.00     0.031 C 
ATOM     52  C   UNL     1     -13.345  -1.575   3.786  1.00  0.00     0.029 A 
ATOM     53  C   UNL     1     -12.752  -1.938   2.588  1.00  0.00     0.049 A 
ATOM     54  H   UNL     1     -10.721  -2.338   2.175  1.00  0.00     0.167 HD
ATOM     55  C   UNL     1     -12.711  -2.472   0.169  1.00  0.00     0.074 A 
ATOM     56  C   UNL     1     -13.349  -2.681  -1.114  1.00  0.00     0.031 C 
ATOM     57  C   UNL     1     -13.373  -2.145   1.306  1.00  0.00     0.037 A 
BRANCH  44  58
ATOM     58  C   UNL     1      -9.721  -1.541   6.244  1.00  0.00     0.064 A 
ATOM     59  C   UNL     1      -9.178  -0.338   6.715  1.00  0.00     0.173 A 
ATOM     60  C   UNL     1     -10.211  -2.457   7.188  1.00  0.00     0.173 A 
ATOM     61  F   UNL     1      -8.685   0.564   5.853  1.00  0.00    -0.203 F 
ATOM     62  C   UNL     1      -9.109  -0.071   8.081  1.00  0.00     0.198 A 
ATOM     63  C   UNL     1     -10.163  -2.177   8.551  1.00  0.00     0.198 A 
ATOM     64  F   UNL     1     -10.745  -3.620   6.787  1.00  0.00    -0.203 F 
ATOM     65  F   UNL     1      -8.550   1.068   8.512  1.00  0.00    -0.200 F 
ATOM     66  C   UNL     1      -9.607  -0.987   8.996  1.00  0.00     0.200 A 
ATOM     67  F   UNL     1     -10.655  -3.058   9.432  1.00  0.00    -0.200 F 
ATOM     68  F   UNL     1      -9.546  -0.726  10.310  1.00  0.00    -0.200 F 
ENDBRANCH  44  58
BRANCH  45  69
ATOM     69  C   UNL     1     -10.006  -3.662  -3.486  1.00  0.00     0.064 A 
ATOM     70  C   UNL     1     -10.298  -2.678  -4.441  1.00  0.00     0.173 A 
ATOM     71  C   UNL     1      -9.769  -4.967  -3.943  1.00  0.00     0.173 A 
ATOM     72  F   UNL     1     -10.559  -1.422  -4.050  1.00  0.00    -0.203 F 
ATOM     73  C   UNL     1     -10.360  -2.990  -5.798  1.00  0.00     0.198 A 
ATOM     74  C   UNL     1      -9.803  -5.271  -5.301  1.00  0.00     0.198 A 
ATOM     75  F   UNL     1      -9.489  -5.944  -3.068  1.00  0.00    -0.203 F 
ATOM     76  F   UNL     1     -10.679  -2.040  -6.687  1.00  0.00    -0.200 F 
ATOM     77  C   UNL     1     -10.105  -4.284  -6.227  1.00  0.00     0.200 A 
ATOM     78  F   UNL     1      -9.544  -6.520  -5.712  1.00  0.00    -0.200 F 
ATOM     79  F   UNL     1     -10.156  -4.581  -7.533  1.00  0.00    -0.200 F 
ENDBRANCH  45  69
BRANCH  57  80
ATOM     80  C   UNL     1     -14.859  -1.970   1.208  1.00  0.00     0.064 A 
ATOM     81  C   UNL     1     -15.720  -3.070   1.088  1.00  0.00     0.173 A 
ATOM     82  C   UNL     1     -15.429  -0.690   1.270  1.00  0.00     0.173 A 
ATOM     83  F   UNL     1     -15.219  -4.312   1.008  1.00  0.00    -0.203 F 
ATOM     84  C   UNL     1     -17.099  -2.893   1.011  1.00  0.00     0.198 A 
ATOM     85  C   UNL     1     -16.810  -0.518   1.216  1.00  0.00     0.198 A 
ATOM     86  F   UNL     1     -14.648   0.394   1.389  1.00  0.00    -0.203 F 
ATOM     87  F   UNL     1     -17.901  -3.955   0.855  1.00  0.00    -0.200 F 
ATOM     88  C   UNL     1     -17.642  -1.619   1.081  1.00  0.00     0.200 A 
ATOM     89  F   UNL     1     -17.334   0.713   1.292  1.00  0.00    -0.200 F 
ATOM     90  F   UNL     1     -18.970  -1.451   1.010  1.00  0.00    -0.200 F 
ENDBRANCH  57  80
ENDBRANCH  31  32
ENDBRANCH  24  26
ENDBRANCH  23  24
ENDBRANCH  22  23
ENDBRANCH   1  22
TORSDOF 14
