REMARK SMILES NS(=O)(=O)c1ccc(-n2nc(C(=O)NCCCCCCCCCCC(=O)OCCOC(=O)c3ccc(-c4c5nc(c(-c6c(F)c(F)c(F)c(F)c6F)c6ccc([nH]6)c(-c6c(F)c(F)c(F)c(F)c6F)c6nc(c(-c7c(F)c(F)c(F)c(F)c7F)c7ccc4[nH]7)C=C6)C=C5)cc3)cc2-c2ccccc2)cc1
REMARK SMILES IDX 21 1 20 2 19 3 18 4 17 5 16 6 15 7 14 8 12 9 13 10 11 12
REMARK SMILES IDX 9 13 10 14 97 15 96 16 8 17 5 18 6 19 105 20 7 21 104 22
REMARK SMILES IDX 2 23 3 24 4 25 1 26 98 29 99 30 103 31 100 32 102 33 101 34
REMARK SMILES IDX 22 35 23 36 24 37 25 38 26 39 27 40 28 41 29 42 30 43 31 44
REMARK SMILES IDX 32 45 33 46 34 47 95 48 35 49 94 50 36 51 37 52 38 53 88 54
REMARK SMILES IDX 39 55 93 56 87 57 89 58 40 59 92 60 86 61 85 62 41 64 73 65
REMARK SMILES IDX 53 66 72 67 54 68 57 69 71 70 90 71 55 72 56 73 70 75 91 76
REMARK SMILES IDX 58 77 42 78 43 79 51 80 44 81 45 82 49 83 52 84 46 85 47 86
REMARK SMILES IDX 50 87 48 88 74 89 75 90 83 91 76 92 77 93 81 94 84 95 78 96
REMARK SMILES IDX 79 97 82 98 80 99 59 100 60 101 68 102 61 103 62 104 66 105
REMARK SMILES IDX 69 106 63 107 64 108 67 109 65 110
REMARK H PARENT 14 11 1 27 1 28 89 63 57 74
REMARK Flexibility Score: inf
ROOT
ATOM      1  C   UNL     1       4.985  12.371  10.911  1.00  0.00     0.000 C 
ENDROOT
BRANCH   1   2
ATOM      2  C   UNL     1       5.293  11.212   9.964  1.00  0.00     0.000 C 
BRANCH   2   3
ATOM      3  C   UNL     1       4.260  10.089  10.074  1.00  0.00     0.000 C 
BRANCH   3   4
ATOM      4  C   UNL     1       2.841  10.579   9.761  1.00  0.00     0.000 C 
BRANCH   4   5
ATOM      5  C   UNL     1       2.678  11.018   8.300  1.00  0.00     0.002 C 
BRANCH   5   6
ATOM      6  C   UNL     1       3.043   9.909   7.309  1.00  0.00     0.021 C 
BRANCH   6   7
ATOM      7  C   UNL     1       2.143   8.691   7.505  1.00  0.00     0.116 C 
BRANCH   7   8
ATOM      8  N   UNL     1       0.941   8.867   6.732  1.00  0.00    -0.351 N 
ATOM      9  C   UNL     1       0.570   8.391   5.501  1.00  0.00     0.271 C 
ATOM     10  O   UNL     1      -0.492   8.832   5.053  1.00  0.00    -0.267 OA
ATOM     11  H   UNL     1       0.262   9.432   7.167  1.00  0.00     0.163 HD
BRANCH   9  12
ATOM     12  C   UNL     1       1.360   7.353   4.810  1.00  0.00     0.151 A 
ATOM     13  N   UNL     1       1.629   5.640   3.547  1.00  0.00    -0.232 N 
ATOM     14  N   UNL     1       0.811   6.686   3.780  1.00  0.00    -0.162 NA
ATOM     15  C   UNL     1       2.784   5.700   4.303  1.00  0.00     0.075 A 
ATOM     16  C   UNL     1       2.676   6.875   5.016  1.00  0.00     0.065 A 
BRANCH  13  17
ATOM     17  C   UNL     1       1.254   4.664   2.602  1.00  0.00     0.065 A 
ATOM     18  C   UNL     1       0.670   2.788   0.652  1.00  0.00     0.082 A 
ATOM     19  C   UNL     1       1.149   2.363   1.895  1.00  0.00     0.024 A 
ATOM     20  C   UNL     1       0.445   4.145   0.392  1.00  0.00     0.024 A 
ATOM     21  C   UNL     1       1.459   3.307   2.869  1.00  0.00     0.030 A 
ATOM     22  C   UNL     1       0.706   5.086   1.384  1.00  0.00     0.030 A 
BRANCH  18  23
ATOM     23  S   UNL     1       0.392   1.633  -0.652  1.00  0.00     0.238 S 
ATOM     24  O   UNL     1       1.158   2.059  -1.805  1.00  0.00    -0.207 OA
ATOM     25  O   UNL     1      -1.014   1.334  -0.710  1.00  0.00    -0.207 OA
BRANCH  23  26
ATOM     26  N   UNL     1       1.145   0.224  -0.128  1.00  0.00    -0.225 NA
ATOM     27  H   UNL     1       1.031  -0.505  -0.832  1.00  0.00     0.137 HD
ATOM     28  H   UNL     1       0.722  -0.082   0.749  1.00  0.00     0.137 HD
ENDBRANCH  23  26
ENDBRANCH  18  23
ENDBRANCH  13  17
BRANCH  15  29
ATOM     29  C   UNL     1       3.920   4.789   4.244  1.00  0.00     0.000 A 
ATOM     30  C   UNL     1       4.691   4.686   3.082  1.00  0.00     0.010 A 
ATOM     31  C   UNL     1       4.264   4.029   5.369  1.00  0.00     0.010 A 
ATOM     32  C   UNL     1       5.787   3.823   3.042  1.00  0.00     0.001 A 
ATOM     33  C   UNL     1       5.358   3.163   5.325  1.00  0.00     0.001 A 
ATOM     34  C   UNL     1       6.118   3.061   4.162  1.00  0.00     0.000 A 
ENDBRANCH  15  29
ENDBRANCH   9  12
ENDBRANCH   7   8
ENDBRANCH   6   7
ENDBRANCH   5   6
ENDBRANCH   4   5
ENDBRANCH   3   4
ENDBRANCH   2   3
ENDBRANCH   1   2
BRANCH   1  35
ATOM     35  C   UNL     1       5.013  11.926  12.374  1.00  0.00     0.001 C 
BRANCH  35  36
ATOM     36  C   UNL     1       6.435  11.623  12.852  1.00  0.00     0.012 C 
BRANCH  36  37
ATOM     37  C   UNL     1       7.452  12.756  12.676  1.00  0.00     0.123 C 
BRANCH  37  38
ATOM     38  C   UNL     1       7.136  14.094  13.319  1.00  0.00     0.305 C 
ATOM     39  O   UNL     1       7.977  14.757  13.916  1.00  0.00    -0.252 OA
BRANCH  38  40
ATOM     40  O   UNL     1       5.852  14.483  13.121  1.00  0.00    -0.462 OA
BRANCH  40  41
ATOM     41  C   UNL     1       5.363  15.614  13.866  1.00  0.00     0.274 C 
BRANCH  41  42
ATOM     42  C   UNL     1       4.845  15.200  15.238  1.00  0.00     0.275 C 
BRANCH  42  43
ATOM     43  O   UNL     1       5.910  14.680  16.029  1.00  0.00    -0.458 OA
BRANCH  43  44
ATOM     44  C   UNL     1       5.970  13.333  16.053  1.00  0.00     0.338 C 
ATOM     45  O   UNL     1       5.274  12.551  15.431  1.00  0.00    -0.246 OA
BRANCH  44  46
ATOM     46  C   UNL     1       6.876  12.892  17.107  1.00  0.00     0.060 A 
ATOM     47  C   UNL     1       7.303  11.559  17.082  1.00  0.00     0.016 A 
ATOM     48  C   UNL     1       6.946  13.685  18.256  1.00  0.00     0.016 A 
ATOM     49  C   UNL     1       7.612  10.957  18.281  1.00  0.00     0.010 A 
ATOM     50  C   UNL     1       7.221  13.076  19.450  1.00  0.00     0.010 A 
ATOM     51  C   UNL     1       7.470  11.705  19.454  1.00  0.00    -0.014 A 
BRANCH  51  52
ATOM     52  C   UNL     1       7.722  11.055  20.720  1.00  0.00     0.031 A 
ATOM     53  C   UNL     1       9.168  10.868  20.950  1.00  0.00     0.074 A 
ATOM     54  C   UNL     1       6.742  10.822  21.616  1.00  0.00     0.049 A 
ATOM     55  N   UNL     1       9.822   9.758  20.978  1.00  0.00    -0.248 NA
ATOM     56  C   UNL     1      10.025  12.068  20.952  1.00  0.00     0.031 C 
ATOM     57  C   UNL     1       5.358  11.304  21.547  1.00  0.00     0.029 A 
ATOM     58  N   UNL     1       6.796  10.215  22.837  1.00  0.00    -0.354 N 
ATOM     59  C   UNL     1      11.130  10.123  21.280  1.00  0.00     0.074 A 
ATOM     60  C   UNL     1      11.242  11.525  20.995  1.00  0.00     0.031 C 
ATOM     61  C   UNL     1       4.781  11.185  22.764  1.00  0.00     0.029 A 
ATOM     62  C   UNL     1       5.698  10.487  23.648  1.00  0.00     0.049 A 
ATOM     63  H   UNL     1       7.543   9.638  23.118  1.00  0.00     0.167 HD
ATOM     64  C   UNL     1      11.863   9.338  22.115  1.00  0.00     0.037 A 
ATOM     65  C   UNL     1       5.593  10.208  24.971  1.00  0.00     0.037 A 
ATOM     66  C   UNL     1      11.269   8.030  22.228  1.00  0.00     0.049 A 
ATOM     67  C   UNL     1       6.591   9.161  25.292  1.00  0.00     0.074 A 
ATOM     68  C   UNL     1      11.224   6.874  21.483  1.00  0.00     0.029 A 
ATOM     69  N   UNL     1      10.239   7.977  23.126  1.00  0.00    -0.354 N 
ATOM     70  N   UNL     1       6.519   7.939  24.843  1.00  0.00    -0.248 NA
ATOM     71  C   UNL     1       7.887   9.554  25.840  1.00  0.00     0.031 C 
ATOM     72  C   UNL     1      10.080   6.147  21.932  1.00  0.00     0.029 A 
ATOM     73  C   UNL     1       9.474   6.857  22.963  1.00  0.00     0.049 A 
ATOM     74  H   UNL     1      10.069   8.664  23.810  1.00  0.00     0.167 HD
ATOM     75  C   UNL     1       7.836   7.567  24.667  1.00  0.00     0.074 A 
ATOM     76  C   UNL     1       8.622   8.510  25.449  1.00  0.00     0.031 C 
ATOM     77  C   UNL     1       8.197   6.763  23.628  1.00  0.00     0.037 A 
BRANCH  64  78
ATOM     78  C   UNL     1      12.743   9.872  23.230  1.00  0.00     0.064 A 
ATOM     79  C   UNL     1      13.498   8.950  23.984  1.00  0.00     0.173 A 
ATOM     80  C   UNL     1      12.635  11.163  23.794  1.00  0.00     0.173 A 
ATOM     81  F   UNL     1      13.655   7.687  23.558  1.00  0.00    -0.203 F 
ATOM     82  C   UNL     1      14.033   9.276  25.234  1.00  0.00     0.198 A 
ATOM     83  C   UNL     1      13.213  11.499  25.017  1.00  0.00     0.198 A 
ATOM     84  F   UNL     1      11.877  12.126  23.259  1.00  0.00    -0.203 F 
ATOM     85  F   UNL     1      14.638   8.331  25.966  1.00  0.00    -0.200 F 
ATOM     86  C   UNL     1      13.885  10.549  25.752  1.00  0.00     0.200 A 
ATOM     87  F   UNL     1      13.035  12.733  25.511  1.00  0.00    -0.200 F 
ATOM     88  F   UNL     1      14.346  10.848  26.973  1.00  0.00    -0.200 F 
ENDBRANCH  64  78
BRANCH  65  89
ATOM     89  C   UNL     1       4.896  10.968  26.034  1.00  0.00     0.064 A 
ATOM     90  C   UNL     1       4.580  10.366  27.264  1.00  0.00     0.173 A 
ATOM     91  C   UNL     1       4.800  12.371  25.978  1.00  0.00     0.173 A 
ATOM     92  F   UNL     1       4.683   9.037  27.409  1.00  0.00    -0.203 F 
ATOM     93  C   UNL     1       4.231  11.127  28.384  1.00  0.00     0.198 A 
ATOM     94  C   UNL     1       4.448  13.129  27.096  1.00  0.00     0.198 A 
ATOM     95  F   UNL     1       5.146  13.038  24.868  1.00  0.00    -0.203 F 
ATOM     96  F   UNL     1       4.007  10.523  29.560  1.00  0.00    -0.200 F 
ATOM     97  C   UNL     1       4.180  12.509  28.303  1.00  0.00     0.200 A 
ATOM     98  F   UNL     1       4.438  14.467  27.015  1.00  0.00    -0.200 F 
ATOM     99  F   UNL     1       3.918  13.243  29.394  1.00  0.00    -0.200 F 
ENDBRANCH  65  89
BRANCH  77 100
ATOM    100  C   UNL     1       7.161   5.848  23.066  1.00  0.00     0.064 A 
ATOM    101  C   UNL     1       6.029   6.266  22.350  1.00  0.00     0.173 A 
ATOM    102  C   UNL     1       7.375   4.471  23.207  1.00  0.00     0.173 A 
ATOM    103  F   UNL     1       5.800   7.567  22.122  1.00  0.00    -0.203 F 
ATOM    104  C   UNL     1       5.135   5.334  21.824  1.00  0.00     0.198 A 
ATOM    105  C   UNL     1       6.502   3.545  22.651  1.00  0.00     0.198 A 
ATOM    106  F   UNL     1       8.462   4.024  23.856  1.00  0.00    -0.203 F 
ATOM    107  F   UNL     1       4.049   5.748  21.154  1.00  0.00    -0.200 F 
ATOM    108  C   UNL     1       5.377   3.976  21.968  1.00  0.00     0.200 A 
ATOM    109  F   UNL     1       6.764   2.236  22.762  1.00  0.00    -0.200 F 
ATOM    110  F   UNL     1       4.537   3.080  21.431  1.00  0.00    -0.200 F 
ENDBRANCH  77 100
ENDBRANCH  51  52
ENDBRANCH  44  46
ENDBRANCH  43  44
ENDBRANCH  42  43
ENDBRANCH  41  42
ENDBRANCH  40  41
ENDBRANCH  38  40
ENDBRANCH  37  38
ENDBRANCH  36  37
ENDBRANCH  35  36
ENDBRANCH   1  35
TORSDOF 26
