REMARK SMILES CS(=O)(=O)c1ccc(-n2nc(C(F)(F)F)cc2-c2ccc(CC(=O)OCCOC(=O)c3ccc(-c4c5nc(c(-c6c(F)c(F)c(F)c(F)c6F)c6ccc([nH]6)c(-c6c(F)c(F)c(F)c(F)c6F)c6nc(c(-c7c(F)c(F)c(F)c(F)c7F)c7ccc4[nH]7)C=C6)C=C5)cc3)cc2)cc1
REMARK SMILES IDX 26 1 25 2 23 3 24 4 22 5 21 6 18 7 19 8 95 9 20 10 94 11
REMARK SMILES IDX 17 12 9 13 10 14 11 15 16 16 8 17 5 18 6 19 97 20 7 21 96 22
REMARK SMILES IDX 2 23 1 24 3 25 4 26 12 27 13 28 14 29 15 30 27 31 28 32
REMARK SMILES IDX 29 33 30 34 31 35 32 36 93 37 33 38 92 39 34 40 35 41 36 42
REMARK SMILES IDX 86 43 37 44 91 45 85 46 87 47 38 48 90 49 84 50 83 51 39 53
REMARK SMILES IDX 71 54 51 55 70 56 52 57 55 58 69 59 88 60 53 61 54 62 68 64
REMARK SMILES IDX 89 65 56 66 40 67 41 68 49 69 42 70 43 71 47 72 50 73 44 74
REMARK SMILES IDX 45 75 48 76 46 77 72 78 73 79 81 80 74 81 75 82 79 83 82 84
REMARK SMILES IDX 76 85 77 86 80 87 78 88 57 89 58 90 66 91 59 92 60 93 64 94
REMARK SMILES IDX 67 95 61 96 62 97 65 98 63 99
REMARK H PARENT 87 52 55 63
REMARK Flexibility Score: inf
ROOT
ATOM      1  C   UNL     1       2.759  -3.302  -3.261  1.00  0.00     0.274 C 
ENDROOT
BRANCH   1   2
ATOM      2  O   UNL     1       3.083  -4.426  -2.417  1.00  0.00    -0.462 OA
BRANCH   2   3
ATOM      3  C   UNL     1       4.372  -4.860  -2.475  1.00  0.00     0.310 C 
ATOM      4  O   UNL     1       5.242  -4.343  -3.171  1.00  0.00    -0.252 OA
BRANCH   3   5
ATOM      5  C   UNL     1       4.621  -6.131  -1.690  1.00  0.00     0.158 C 
BRANCH   5   6
ATOM      6  C   UNL     1       4.022  -6.221  -0.307  1.00  0.00    -0.037 A 
ATOM      7  C   UNL     1       2.916  -6.341   2.287  1.00  0.00     0.000 A 
ATOM      8  C   UNL     1       4.067  -5.588   2.043  1.00  0.00     0.010 A 
ATOM      9  C   UNL     1       2.350  -7.075   1.240  1.00  0.00     0.010 A 
ATOM     10  C   UNL     1       4.623  -5.552   0.763  1.00  0.00     0.005 A 
ATOM     11  C   UNL     1       2.887  -6.998  -0.052  1.00  0.00     0.005 A 
BRANCH   7  12
ATOM     12  C   UNL     1       2.315  -6.334   3.618  1.00  0.00     0.075 A 
ATOM     13  N   UNL     1       1.784  -5.214   4.252  1.00  0.00    -0.233 N 
ATOM     14  N   UNL     1       1.581  -5.441   5.577  1.00  0.00    -0.163 NA
ATOM     15  C   UNL     1       1.765  -6.765   5.739  1.00  0.00     0.167 A 
ATOM     16  C   UNL     1       2.252  -7.353   4.546  1.00  0.00     0.064 A 
BRANCH  13  17
ATOM     17  C   UNL     1       1.415  -3.963   3.683  1.00  0.00     0.065 A 
ATOM     18  C   UNL     1       0.690  -1.508   2.570  1.00  0.00     0.067 A 
ATOM     19  C   UNL     1       0.558  -2.675   1.815  1.00  0.00     0.022 A 
ATOM     20  C   UNL     1       1.154  -1.561   3.888  1.00  0.00     0.022 A 
ATOM     21  C   UNL     1       0.935  -3.898   2.368  1.00  0.00     0.030 A 
ATOM     22  C   UNL     1       1.492  -2.794   4.455  1.00  0.00     0.030 A 
BRANCH  18  23
ATOM     23  S   UNL     1       0.236   0.047   1.845  1.00  0.00     0.175 S 
ATOM     24  C   UNL     1       1.018   0.062   0.253  1.00  0.00     0.163 C 
ATOM     25  O   UNL     1       0.876   1.100   2.631  1.00  0.00    -0.224 OA
ATOM     26  O   UNL     1      -1.188   0.023   1.649  1.00  0.00    -0.224 OA
ENDBRANCH  18  23
ENDBRANCH  13  17
BRANCH  15  27
ATOM     27  C   UNL     1       1.495  -7.479   7.037  1.00  0.00     0.435 C 
ATOM     28  F   UNL     1       2.013  -6.841   8.118  1.00  0.00    -0.164 F 
ATOM     29  F   UNL     1       0.163  -7.635   7.263  1.00  0.00    -0.164 F 
ATOM     30  F   UNL     1       2.028  -8.734   7.039  1.00  0.00    -0.164 F 
ENDBRANCH  15  27
ENDBRANCH   7  12
ENDBRANCH   5   6
ENDBRANCH   3   5
ENDBRANCH   2   3
ENDBRANCH   1   2
BRANCH   1  31
ATOM     31  C   UNL     1       2.913  -1.947  -2.573  1.00  0.00     0.275 C 
BRANCH  31  32
ATOM     32  O   UNL     1       4.264  -1.645  -2.215  1.00  0.00    -0.458 OA
BRANCH  32  33
ATOM     33  C   UNL     1       4.598  -2.073  -0.982  1.00  0.00     0.338 C 
ATOM     34  O   UNL     1       3.925  -2.788  -0.248  1.00  0.00    -0.246 OA
BRANCH  33  35
ATOM     35  C   UNL     1       5.815  -1.424  -0.501  1.00  0.00     0.060 A 
ATOM     36  C   UNL     1       6.545  -2.074   0.499  1.00  0.00     0.016 A 
ATOM     37  C   UNL     1       6.034  -0.078  -0.809  1.00  0.00     0.016 A 
ATOM     38  C   UNL     1       7.396  -1.345   1.302  1.00  0.00     0.010 A 
ATOM     39  C   UNL     1       6.884   0.654  -0.004  1.00  0.00     0.010 A 
ATOM     40  C   UNL     1       7.498   0.028   1.086  1.00  0.00    -0.014 A 
BRANCH  40  41
ATOM     41  C   UNL     1       8.275   0.799   2.041  1.00  0.00     0.031 A 
ATOM     42  C   UNL     1       9.752   0.673   1.930  1.00  0.00     0.074 A 
ATOM     43  C   UNL     1       7.675   1.699   2.844  1.00  0.00     0.049 A 
ATOM     44  N   UNL     1      10.624   0.496   2.871  1.00  0.00    -0.248 NA
ATOM     45  C   UNL     1      10.328   0.707   0.575  1.00  0.00     0.031 C 
ATOM     46  C   UNL     1       6.271   2.120   2.818  1.00  0.00     0.029 A 
ATOM     47  N   UNL     1       8.239   2.548   3.745  1.00  0.00    -0.354 N 
ATOM     48  C   UNL     1      11.869   0.552   2.248  1.00  0.00     0.074 A 
ATOM     49  C   UNL     1      11.628   0.577   0.830  1.00  0.00     0.031 C 
ATOM     50  C   UNL     1       6.159   3.302   3.462  1.00  0.00     0.029 A 
ATOM     51  C   UNL     1       7.453   3.656   4.021  1.00  0.00     0.049 A 
ATOM     52  H   UNL     1       9.118   2.391   4.160  1.00  0.00     0.167 HD
ATOM     53  C   UNL     1      13.017   0.781   2.938  1.00  0.00     0.037 A 
ATOM     54  C   UNL     1       7.876   4.829   4.551  1.00  0.00     0.037 A 
ATOM     55  C   UNL     1      12.901   0.432   4.325  1.00  0.00     0.049 A 
ATOM     56  C   UNL     1       9.205   4.601   5.174  1.00  0.00     0.074 A 
ATOM     57  C   UNL     1      12.570  -0.729   5.001  1.00  0.00     0.029 A 
ATOM     58  N   UNL     1      12.835   1.428   5.268  1.00  0.00    -0.354 N 
ATOM     59  N   UNL     1       9.406   3.919   6.266  1.00  0.00    -0.248 NA
ATOM     60  C   UNL     1      10.382   4.802   4.339  1.00  0.00     0.031 C 
ATOM     61  C   UNL     1      11.836  -0.297   6.144  1.00  0.00     0.029 A 
ATOM     62  C   UNL     1      11.796   1.095   6.100  1.00  0.00     0.049 A 
ATOM     63  H   UNL     1      13.415   2.220   5.333  1.00  0.00     0.167 HD
ATOM     64  C   UNL     1      10.607   3.259   6.053  1.00  0.00     0.074 A 
ATOM     65  C   UNL     1      11.209   3.918   4.899  1.00  0.00     0.031 C 
ATOM     66  C   UNL     1      10.874   2.059   6.646  1.00  0.00     0.037 A 
BRANCH  53  67
ATOM     67  C   UNL     1      14.143   1.617   2.393  1.00  0.00     0.064 A 
ATOM     68  C   UNL     1      15.394   1.614   3.036  1.00  0.00     0.173 A 
ATOM     69  C   UNL     1      13.948   2.635   1.432  1.00  0.00     0.173 A 
ATOM     70  F   UNL     1      15.667   0.716   3.994  1.00  0.00    -0.203 F 
ATOM     71  C   UNL     1      16.359   2.590   2.770  1.00  0.00     0.198 A 
ATOM     72  C   UNL     1      14.933   3.571   1.128  1.00  0.00     0.198 A 
ATOM     73  F   UNL     1      12.764   2.827   0.836  1.00  0.00    -0.203 F 
ATOM     74  F   UNL     1      17.490   2.619   3.487  1.00  0.00    -0.200 F 
ATOM     75  C   UNL     1      16.128   3.567   1.817  1.00  0.00     0.200 A 
ATOM     76  F   UNL     1      14.681   4.522   0.218  1.00  0.00    -0.200 F 
ATOM     77  F   UNL     1      17.029   4.532   1.599  1.00  0.00    -0.200 F 
ENDBRANCH  53  67
BRANCH  54  78
ATOM     78  C   UNL     1       7.350   6.186   4.276  1.00  0.00     0.064 A 
ATOM     79  C   UNL     1       7.637   7.258   5.135  1.00  0.00     0.173 A 
ATOM     80  C   UNL     1       6.754   6.517   3.042  1.00  0.00     0.173 A 
ATOM     81  F   UNL     1       8.259   7.039   6.302  1.00  0.00    -0.203 F 
ATOM     82  C   UNL     1       7.348   8.580   4.779  1.00  0.00     0.198 A 
ATOM     83  C   UNL     1       6.447   7.832   2.697  1.00  0.00     0.198 A 
ATOM     84  F   UNL     1       6.541   5.583   2.104  1.00  0.00    -0.203 F 
ATOM     85  F   UNL     1       7.692   9.582   5.599  1.00  0.00    -0.200 F 
ATOM     86  C   UNL     1       6.754   8.865   3.561  1.00  0.00     0.200 A 
ATOM     87  F   UNL     1       5.908   8.095   1.498  1.00  0.00    -0.200 F 
ATOM     88  F   UNL     1       6.519  10.134   3.200  1.00  0.00    -0.200 F 
ENDBRANCH  54  78
BRANCH  66  89
ATOM     89  C   UNL     1       9.966   1.589   7.744  1.00  0.00     0.064 A 
ATOM     90  C   UNL     1       8.591   1.353   7.570  1.00  0.00     0.173 A 
ATOM     91  C   UNL     1      10.533   1.224   8.973  1.00  0.00     0.173 A 
ATOM     92  F   UNL     1       8.000   1.560   6.387  1.00  0.00    -0.203 F 
ATOM     93  C   UNL     1       7.811   0.836   8.603  1.00  0.00     0.198 A 
ATOM     94  C   UNL     1       9.759   0.670   9.989  1.00  0.00     0.198 A 
ATOM     95  F   UNL     1      11.853   1.363   9.173  1.00  0.00    -0.203 F 
ATOM     96  F   UNL     1       6.498   0.638   8.417  1.00  0.00    -0.200 F 
ATOM     97  C   UNL     1       8.397   0.490   9.809  1.00  0.00     0.200 A 
ATOM     98  F   UNL     1      10.339   0.285  11.134  1.00  0.00    -0.200 F 
ATOM     99  F   UNL     1       7.655  -0.045  10.788  1.00  0.00    -0.200 F 
ENDBRANCH  66  89
ENDBRANCH  40  41
ENDBRANCH  33  35
ENDBRANCH  32  33
ENDBRANCH  31  32
ENDBRANCH   1  31
TORSDOF 16
