REMARK SMILES COc1ccc(-c2c(C)n[nH]c2C)c(C(=O)OCCOC(=O)c2ccc(-c3c4nc(c(-c5c(F)c(F)c(F)c(F)c5F)c5ccc([nH]5)c(-c5c(F)c(F)c(F)c(F)c5F)c5nc(c(-c6c(F)c(F)c(F)c(F)c6F)c6ccc3[nH]6)C=C5)C=C4)cc2)c1
REMARK SMILES IDX 19 1 18 2 17 3 15 4 16 5 14 6 3 7 4 8 86 9 5 10 6 11 2 12
REMARK SMILES IDX 1 13 7 14 8 15 12 16 9 17 10 18 11 19 13 20 20 22 21 23
REMARK SMILES IDX 22 24 23 25 24 26 85 27 25 28 84 29 26 30 27 31 28 32 78 33
REMARK SMILES IDX 29 34 83 35 77 36 79 37 30 38 82 39 76 40 75 41 31 43 63 44
REMARK SMILES IDX 43 45 62 46 44 47 47 48 61 49 80 50 45 51 46 52 60 54 81 55
REMARK SMILES IDX 48 56 32 57 33 58 41 59 34 60 35 61 39 62 42 63 36 64 37 65
REMARK SMILES IDX 40 66 38 67 64 68 65 69 73 70 66 71 67 72 71 73 74 74 68 75
REMARK SMILES IDX 69 76 72 77 70 78 49 79 50 80 58 81 51 82 52 83 56 84 59 85
REMARK SMILES IDX 53 86 54 87 57 88 55 89
REMARK H PARENT 11 21 79 42 47 53
REMARK Flexibility Score: inf
ROOT
ATOM      1  C   UNL     1       7.168   2.716  -2.414  1.00  0.00     0.275 C 
ENDROOT
BRANCH   1   2
ATOM      2  C   UNL     1       6.149   2.406  -1.316  1.00  0.00     0.275 C 
BRANCH   2   3
ATOM      3  O   UNL     1       4.852   2.120  -1.908  1.00  0.00    -0.458 OA
BRANCH   3   4
ATOM      4  C   UNL     1       3.828   2.961  -1.599  1.00  0.00     0.339 C 
ATOM      5  O   UNL     1       3.867   3.838  -0.750  1.00  0.00    -0.246 OA
BRANCH   4   6
ATOM      6  C   UNL     1       2.553   2.519  -2.228  1.00  0.00     0.071 A 
ATOM      7  C   UNL     1       0.765   0.960  -1.710  1.00  0.00     0.119 A 
ATOM      8  C   UNL     1      -0.068   1.651  -2.590  1.00  0.00     0.047 A 
ATOM      9  C   UNL     1       2.080   1.371  -1.568  1.00  0.00     0.062 A 
ATOM     10  C   UNL     1       0.398   2.770  -3.301  1.00  0.00     0.013 A 
ATOM     11  C   UNL     1       1.710   3.236  -3.132  1.00  0.00     0.000 A 
BRANCH   7  12
ATOM     12  O   UNL     1       0.212  -0.086  -1.026  1.00  0.00    -0.497 OA
ATOM     13  C   UNL     1       0.774  -0.342   0.264  1.00  0.00     0.278 C 
ENDBRANCH   7  12
BRANCH  11  14
ATOM     14  C   UNL     1       2.005   4.579  -3.696  1.00  0.00     0.026 A 
ATOM     15  C   UNL     1       1.958   6.093  -2.524  1.00  0.00     0.067 A 
ATOM     16  C   UNL     1       3.184   4.955  -5.037  1.00  0.00     0.040 A 
ATOM     17  C   UNL     1       0.757   6.385  -1.681  1.00  0.00     0.069 C 
ATOM     18  N   UNL     1       3.060   7.298  -2.951  1.00  0.00    -0.180 NA
ATOM     19  N   UNL     1       3.941   6.764  -4.524  1.00  0.00    -0.282 N 
ATOM     20  C   UNL     1       3.344   3.937  -6.176  1.00  0.00     0.067 C 
ATOM     21  H   UNL     1       4.636   7.267  -5.006  1.00  0.00     0.190 HD
ENDBRANCH  11  14
ENDBRANCH   4   6
ENDBRANCH   3   4
ENDBRANCH   2   3
ENDBRANCH   1   2
BRANCH   1  22
ATOM     22  O   UNL     1       6.834   3.998  -2.967  1.00  0.00    -0.458 OA
BRANCH  22  23
ATOM     23  C   UNL     1       5.911   3.879  -3.933  1.00  0.00     0.338 C 
ATOM     24  O   UNL     1       5.578   2.864  -4.523  1.00  0.00    -0.246 OA
BRANCH  23  25
ATOM     25  C   UNL     1       5.257   5.152  -4.202  1.00  0.00     0.060 A 
ATOM     26  C   UNL     1       3.735   5.492  -3.381  1.00  0.00     0.016 A 
ATOM     27  C   UNL     1       5.415   5.683  -5.814  1.00  0.00     0.016 A 
ATOM     28  C   UNL     1       2.235   6.426  -4.519  1.00  0.00     0.010 A 
ATOM     29  C   UNL     1       4.200   6.520  -6.723  1.00  0.00     0.010 A 
ATOM     30  C   UNL     1       2.641   6.920  -6.161  1.00  0.00    -0.014 A 
BRANCH  30  31
ATOM     31  C   UNL     1       1.936   8.093  -6.761  1.00  0.00     0.031 A 
ATOM     32  C   UNL     1       1.311   8.012  -8.111  1.00  0.00     0.074 A 
ATOM     33  C   UNL     1       1.932   9.266  -6.086  1.00  0.00     0.049 A 
ATOM     34  N   UNL     1       0.706   8.959  -8.779  1.00  0.00    -0.248 NA
ATOM     35  C   UNL     1       1.416   6.735  -8.830  1.00  0.00     0.031 C 
ATOM     36  C   UNL     1       2.651   9.519  -4.849  1.00  0.00     0.029 A 
ATOM     37  N   UNL     1       1.300  10.469  -6.296  1.00  0.00    -0.354 N 
ATOM     38  C   UNL     1       0.371   8.405 -10.003  1.00  0.00     0.074 A 
ATOM     39  C   UNL     1       0.852   7.038  -9.994  1.00  0.00     0.031 C 
ATOM     40  C   UNL     1       2.274  10.666  -4.292  1.00  0.00     0.029 A 
ATOM     41  C   UNL     1       1.475  11.369  -5.261  1.00  0.00     0.049 A 
ATOM     42  H   UNL     1       0.775  10.669  -7.105  1.00  0.00     0.167 HD
ATOM     43  C   UNL     1      -0.267   9.011 -11.030  1.00  0.00     0.037 A 
ATOM     44  C   UNL     1       1.130  12.659  -5.115  1.00  0.00     0.037 A 
ATOM     45  C   UNL     1      -0.712  10.384 -10.998  1.00  0.00     0.049 A 
ATOM     46  C   UNL     1       0.450  13.289  -6.281  1.00  0.00     0.074 A 
ATOM     47  C   UNL     1      -1.406  11.086 -11.966  1.00  0.00     0.029 A 
ATOM     48  N   UNL     1      -0.487  11.270  -9.948  1.00  0.00    -0.354 N 
ATOM     49  N   UNL     1       0.085  12.731  -7.409  1.00  0.00    -0.248 NA
ATOM     50  C   UNL     1       0.170  14.722  -6.185  1.00  0.00     0.031 C 
ATOM     51  C   UNL     1      -1.531  12.411 -11.541  1.00  0.00     0.029 A 
ATOM     52  C   UNL     1      -0.993  12.521 -10.268  1.00  0.00     0.049 A 
ATOM     53  H   UNL     1      -0.036  11.042  -9.104  1.00  0.00     0.167 HD
ATOM     54  C   UNL     1      -0.473  13.743  -8.161  1.00  0.00     0.074 A 
ATOM     55  C   UNL     1      -0.442  14.939  -7.339  1.00  0.00     0.031 C 
ATOM     56  C   UNL     1      -0.948  13.691  -9.427  1.00  0.00     0.037 A 
BRANCH  43  57
ATOM     57  C   UNL     1      -0.488   8.224 -12.289  1.00  0.00     0.064 A 
ATOM     58  C   UNL     1      -1.392   7.153 -12.348  1.00  0.00     0.173 A 
ATOM     59  C   UNL     1       0.163   8.597 -13.476  1.00  0.00     0.173 A 
ATOM     60  F   UNL     1      -2.033   6.747 -11.242  1.00  0.00    -0.203 F 
ATOM     61  C   UNL     1      -1.626   6.478 -13.544  1.00  0.00     0.198 A 
ATOM     62  C   UNL     1      -0.098   7.941 -14.676  1.00  0.00     0.198 A 
ATOM     63  F   UNL     1       1.038   9.613 -13.477  1.00  0.00    -0.203 F 
ATOM     64  F   UNL     1      -2.466   5.434 -13.569  1.00  0.00    -0.200 F 
ATOM     65  C   UNL     1      -0.989   6.880 -14.709  1.00  0.00     0.200 A 
ATOM     66  F   UNL     1       0.509   8.342 -15.802  1.00  0.00    -0.200 F 
ATOM     67  F   UNL     1      -1.230   6.242 -15.862  1.00  0.00    -0.200 F 
ENDBRANCH  43  57
BRANCH  44  68
ATOM     68  C   UNL     1       1.516  13.441  -3.903  1.00  0.00     0.064 A 
ATOM     69  C   UNL     1       0.546  14.046  -3.093  1.00  0.00     0.173 A 
ATOM     70  C   UNL     1       2.863  13.629  -3.538  1.00  0.00     0.173 A 
ATOM     71  F   UNL     1      -0.754  13.917  -3.396  1.00  0.00    -0.203 F 
ATOM     72  C   UNL     1       0.904  14.837  -2.001  1.00  0.00     0.198 A 
ATOM     73  C   UNL     1       3.217  14.369  -2.412  1.00  0.00     0.198 A 
ATOM     74  F   UNL     1       3.845  13.080  -4.269  1.00  0.00    -0.203 F 
ATOM     75  F   UNL     1      -0.044  15.474  -1.300  1.00  0.00    -0.200 F 
ATOM     76  C   UNL     1       2.238  14.992  -1.657  1.00  0.00     0.200 A 
ATOM     77  F   UNL     1       4.507  14.489  -2.071  1.00  0.00    -0.200 F 
ATOM     78  F   UNL     1       2.581  15.757  -0.612  1.00  0.00    -0.200 F 
ENDBRANCH  44  68
BRANCH  56  79
ATOM     79  C   UNL     1      -1.510  14.967  -9.965  1.00  0.00     0.064 A 
ATOM     80  C   UNL     1      -0.691  16.067 -10.259  1.00  0.00     0.173 A 
ATOM     81  C   UNL     1      -2.889  15.087 -10.188  1.00  0.00     0.173 A 
ATOM     82  F   UNL     1       0.631  16.007 -10.032  1.00  0.00    -0.203 F 
ATOM     83  C   UNL     1      -1.240  17.255 -10.726  1.00  0.00     0.198 A 
ATOM     84  C   UNL     1      -3.427  16.260 -10.700  1.00  0.00     0.198 A 
ATOM     85  F   UNL     1      -3.710  14.061  -9.917  1.00  0.00    -0.203 F 
ATOM     86  F   UNL     1      -0.451  18.319 -10.930  1.00  0.00    -0.200 F 
ATOM     87  C   UNL     1      -2.604  17.347 -10.957  1.00  0.00     0.200 A 
ATOM     88  F   UNL     1      -4.742  16.340 -10.940  1.00  0.00    -0.200 F 
ATOM     89  F   UNL     1      -3.130  18.489 -11.418  1.00  0.00    -0.200 F 
ENDBRANCH  56  79
ENDBRANCH  30  31
ENDBRANCH  23  25
ENDBRANCH  22  23
ENDBRANCH   1  22
TORSDOF 13
