REMARK SMILES CC[C@@H]1CCC[N@H+]([C@@H]2CC[C@]([NH2+]C3CC3)(C(=O)OCCOC(=O)c3ccc(-c4c5nc(c(-c6c(F)c(F)c(F)c(F)c6F)c6ccc([nH]6)c(-c6c(F)c(F)c(F)c(F)c6F)c6nc(c(-c7c(F)c(F)c(F)c(F)c7F)c7ccc4[nH]7)C=C6)C=C5)cc3)C2)CC1
REMARK SMILES IDX 18 1 16 2 17 3 11 4 8 5 9 6 87 7 10 8 7 9 88 11 89 12 3 13
REMARK SMILES IDX 2 15 1 16 6 17 5 18 4 19 12 21 13 24 14 25 15 26 19 27 20 28
REMARK SMILES IDX 21 29 22 30 23 31 24 32 25 33 86 34 26 35 85 36 27 37 28 38
REMARK SMILES IDX 29 39 79 40 30 41 84 42 78 43 80 44 31 45 83 46 77 47 76 48
REMARK SMILES IDX 32 50 64 51 44 52 63 53 45 54 48 55 62 56 81 57 46 58 47 59
REMARK SMILES IDX 61 61 82 62 49 63 33 64 34 65 42 66 35 67 36 68 40 69 43 70
REMARK SMILES IDX 37 71 38 72 41 73 39 74 65 75 66 76 74 77 67 78 68 79 72 80
REMARK SMILES IDX 75 81 69 82 70 83 73 84 71 85 50 86 51 87 59 88 52 89 53 90
REMARK SMILES IDX 57 91 60 92 54 93 55 94 58 95 56 96
REMARK H PARENT 7 10 12 22 12 23 80 49 48 60
REMARK Flexibility Score: 90.00
ROOT
ATOM      1  O   UNL     1       4.188   0.176  -8.734  1.00  0.00    -0.457 OA
ENDROOT
BRANCH   1   2
ATOM      2  C   UNL     1       4.702  -1.080  -8.737  1.00  0.00     0.368 C 
ATOM      3  O   UNL     1       5.709  -1.416  -9.362  1.00  0.00    -0.245 OA
BRANCH   2   4
ATOM      4  C   UNL     1       3.911  -2.104  -7.875  1.00  0.00     0.200 C 
ATOM      5  C   UNL     1       2.610  -2.437  -5.828  1.00  0.00     0.191 C 
ATOM      6  C   UNL     1       4.029  -2.967  -5.558  1.00  0.00     0.072 C 
ATOM      7  C   UNL     1       2.742  -1.514  -7.059  1.00  0.00     0.146 C 
ATOM      8  C   UNL     1       4.867  -2.543  -6.753  1.00  0.00     0.087 C 
BRANCH   5   9
ATOM      9  N   UNL     1       1.912  -1.926  -4.631  1.00  0.00    -0.332 N 
ATOM     10  H   UNL     1       0.950  -1.724  -4.902  1.00  0.00     0.348 HD
BRANCH   9  11
ATOM     11  C   UNL     1       2.394  -0.617  -4.175  1.00  0.00     0.262 C 
BRANCH  11  12
ATOM     12  C   UNL     1       2.121  -0.190  -2.724  1.00  0.00     0.065 C 
BRANCH  12  13
ATOM     13  C   UNL     1       0.670  -0.388  -2.254  1.00  0.00    -0.006 CG0
ATOM     14  G   UNL     1       0.438  -1.821  -1.753  1.00  0.00     0.000 G0
BRANCH  13  15
ATOM     15  C   UNL     1       0.295   0.634  -1.155  1.00  0.00     0.000 C 
ATOM     16  C   UNL     1       1.051   0.486   0.160  1.00  0.00     0.004 C 
ENDBRANCH  13  15
ENDBRANCH  12  13
ENDBRANCH  11  12
ENDBRANCH   9  11
BRANCH   9  17
ATOM     17  C   UNL     1       1.835  -2.957  -3.589  1.00  0.00     0.262 C 
BRANCH  17  18
ATOM     18  C   UNL     1       0.512  -2.895  -2.829  1.00  0.00     0.062 C 
BRANCH  18  19
ATOM     19  C   UNL     1       0.438  -1.821  -1.753  1.00  0.00     0.009 CG0
ATOM     20  G   UNL     1       0.670  -0.388  -2.254  1.00  0.00     0.000 G0
ENDBRANCH  18  19
ENDBRANCH  17  18
ENDBRANCH   9  17
ENDBRANCH   5   9
BRANCH   4  21
ATOM     21  N   UNL     1       3.560  -3.192  -8.823  1.00  0.00    -0.329 N 
ATOM     22  H   UNL     1       4.415  -3.436  -9.322  1.00  0.00     0.347 HD
ATOM     23  H   UNL     1       2.799  -2.792  -9.372  1.00  0.00     0.347 HD
BRANCH  21  24
ATOM     24  C   UNL     1       2.996  -4.437  -8.316  1.00  0.00     0.183 C 
ATOM     25  C   UNL     1       1.525  -4.693  -8.477  1.00  0.00     0.071 C 
ATOM     26  C   UNL     1       2.509  -5.441  -9.325  1.00  0.00     0.071 C 
ENDBRANCH  21  24
ENDBRANCH   4  21
ENDBRANCH   2   4
ENDBRANCH   1   2
BRANCH   1  27
ATOM     27  C   UNL     1       4.913   1.148  -9.518  1.00  0.00     0.274 C 
BRANCH  27  28
ATOM     28  C   UNL     1       5.805   2.000  -8.616  1.00  0.00     0.275 C 
BRANCH  28  29
ATOM     29  O   UNL     1       6.750   1.149  -7.945  1.00  0.00    -0.458 OA
BRANCH  29  30
ATOM     30  C   UNL     1       7.121   1.542  -6.705  1.00  0.00     0.338 C 
ATOM     31  O   UNL     1       6.806   2.587  -6.152  1.00  0.00    -0.246 OA
BRANCH  30  32
ATOM     32  C   UNL     1       7.934   0.490  -6.045  1.00  0.00     0.060 A 
ATOM     33  C   UNL     1       7.872  -0.843  -6.452  1.00  0.00     0.016 A 
ATOM     34  C   UNL     1       8.694   0.820  -4.921  1.00  0.00     0.016 A 
ATOM     35  C   UNL     1       8.433  -1.849  -5.662  1.00  0.00     0.010 A 
ATOM     36  C   UNL     1       9.367  -0.180  -4.206  1.00  0.00     0.010 A 
ATOM     37  C   UNL     1       9.207  -1.537  -4.535  1.00  0.00    -0.014 A 
BRANCH  37  38
ATOM     38  C   UNL     1       9.811  -2.608  -3.683  1.00  0.00     0.031 A 
ATOM     39  C   UNL     1       9.585  -2.614  -2.190  1.00  0.00     0.074 A 
ATOM     40  C   UNL     1      10.563  -3.592  -4.219  1.00  0.00     0.049 A 
ATOM     41  N   UNL     1      10.218  -3.279  -1.255  1.00  0.00    -0.248 NA
ATOM     42  C   UNL     1       8.519  -1.738  -1.679  1.00  0.00     0.031 C 
ATOM     43  C   UNL     1      10.842  -3.775  -5.643  1.00  0.00     0.029 A 
ATOM     44  N   UNL     1      11.219  -4.642  -3.621  1.00  0.00    -0.354 N 
ATOM     45  C   UNL     1       9.701  -2.826  -0.048  1.00  0.00     0.074 A 
ATOM     46  C   UNL     1       8.678  -1.853  -0.367  1.00  0.00     0.031 C 
ATOM     47  C   UNL     1      11.538  -4.907  -5.816  1.00  0.00     0.029 A 
ATOM     48  C   UNL     1      11.857  -5.472  -4.510  1.00  0.00     0.049 A 
ATOM     49  H   UNL     1      11.231  -4.786  -2.647  1.00  0.00     0.167 HD
ATOM     50  C   UNL     1      10.060  -3.178   1.211  1.00  0.00     0.037 A 
ATOM     51  C   UNL     1      12.648  -6.543  -4.306  1.00  0.00     0.037 A 
ATOM     52  C   UNL     1      10.999  -4.222   1.531  1.00  0.00     0.049 A 
ATOM     53  C   UNL     1      13.015  -6.936  -2.905  1.00  0.00     0.074 A 
ATOM     54  C   UNL     1      11.405  -4.669   2.778  1.00  0.00     0.029 A 
ATOM     55  N   UNL     1      11.651  -5.009   0.595  1.00  0.00    -0.354 N 
ATOM     56  N   UNL     1      12.622  -6.414  -1.771  1.00  0.00    -0.248 NA
ATOM     57  C   UNL     1      13.977  -8.038  -2.760  1.00  0.00     0.031 C 
ATOM     58  C   UNL     1      12.315  -5.717   2.595  1.00  0.00     0.029 A 
ATOM     59  C   UNL     1      12.454  -5.939   1.235  1.00  0.00     0.049 A 
ATOM     60  H   UNL     1      11.558  -4.920  -0.381  1.00  0.00     0.167 HD
ATOM     61  C   UNL     1      13.294  -7.112  -0.778  1.00  0.00     0.074 A 
ATOM     62  C   UNL     1      14.100  -8.116  -1.442  1.00  0.00     0.031 C 
ATOM     63  C   UNL     1      13.259  -6.925   0.563  1.00  0.00     0.037 A 
BRANCH  50  64
ATOM     64  C   UNL     1       9.470  -2.394   2.345  1.00  0.00     0.064 A 
ATOM     65  C   UNL     1       8.146  -2.571   2.769  1.00  0.00     0.173 A 
ATOM     66  C   UNL     1      10.265  -1.469   3.041  1.00  0.00     0.173 A 
ATOM     67  F   UNL     1       7.341  -3.431   2.128  1.00  0.00    -0.203 F 
ATOM     68  C   UNL     1       7.633  -1.833   3.834  1.00  0.00     0.198 A 
ATOM     69  C   UNL     1       9.757  -0.751   4.119  1.00  0.00     0.198 A 
ATOM     70  F   UNL     1      11.541  -1.268   2.678  1.00  0.00    -0.203 F 
ATOM     71  F   UNL     1       6.352  -1.987   4.197  1.00  0.00    -0.200 F 
ATOM     72  C   UNL     1       8.439  -0.929   4.511  1.00  0.00     0.200 A 
ATOM     73  F   UNL     1      10.541   0.114   4.778  1.00  0.00    -0.200 F 
ATOM     74  F   UNL     1       7.943  -0.224   5.537  1.00  0.00    -0.200 F 
ENDBRANCH  50  64
BRANCH  51  75
ATOM     75  C   UNL     1      13.177  -7.295  -5.471  1.00  0.00     0.064 A 
ATOM     76  C   UNL     1      12.682  -8.570  -5.777  1.00  0.00     0.173 A 
ATOM     77  C   UNL     1      14.151  -6.748  -6.317  1.00  0.00     0.173 A 
ATOM     78  F   UNL     1      11.771  -9.144  -4.979  1.00  0.00    -0.203 F 
ATOM     79  C   UNL     1      13.137  -9.266  -6.895  1.00  0.00     0.198 A 
ATOM     80  C   UNL     1      14.586  -7.434  -7.448  1.00  0.00     0.198 A 
ATOM     81  F   UNL     1      14.657  -5.533  -6.061  1.00  0.00    -0.203 F 
ATOM     82  F   UNL     1      12.663 -10.491  -7.157  1.00  0.00    -0.200 F 
ATOM     83  C   UNL     1      14.080  -8.693  -7.736  1.00  0.00     0.200 A 
ATOM     84  F   UNL     1      15.487  -6.871  -8.265  1.00  0.00    -0.200 F 
ATOM     85  F   UNL     1      14.502  -9.354  -8.822  1.00  0.00    -0.200 F 
ENDBRANCH  51  75
BRANCH  63  86
ATOM     86  C   UNL     1      14.114  -7.827   1.397  1.00  0.00     0.064 A 
ATOM     87  C   UNL     1      15.498  -7.623   1.500  1.00  0.00     0.173 A 
ATOM     88  C   UNL     1      13.547  -8.892   2.110  1.00  0.00     0.173 A 
ATOM     89  F   UNL     1      16.086  -6.628   0.821  1.00  0.00    -0.203 F 
ATOM     90  C   UNL     1      16.287  -8.469   2.275  1.00  0.00     0.198 A 
ATOM     91  C   UNL     1      14.337  -9.724   2.898  1.00  0.00     0.198 A 
ATOM     92  F   UNL     1      12.228  -9.124   2.041  1.00  0.00    -0.203 F 
ATOM     93  F   UNL     1      17.613  -8.280   2.332  1.00  0.00    -0.200 F 
ATOM     94  C   UNL     1      15.706  -9.515   2.976  1.00  0.00     0.200 A 
ATOM     95  F   UNL     1      13.774 -10.734   3.576  1.00  0.00    -0.200 F 
ATOM     96  F   UNL     1      16.468 -10.331   3.718  1.00  0.00    -0.200 F 
ENDBRANCH  63  86
ENDBRANCH  37  38
ENDBRANCH  30  32
ENDBRANCH  29  30
ENDBRANCH  28  29
ENDBRANCH  27  28
ENDBRANCH   1  27
TORSDOF 15
