REMARK SMILES O=C(OCCOC(=O)c1cc(NC(=O)c2cccs2)ccc1N1CCC[C@H](C[NH+]2CCCC2)C1)c1ccc(-c2c3nc(c(-c4c(F)c(F)c(F)c(F)c4F)c4ccc([nH]4)c(-c4c(F)c(F)c(F)c(F)c4F)c4nc(c(-c5c(F)c(F)c(F)c(F)c5F)c5ccc2[nH]5)C=C4)C=C3)cc1
REMARK SMILES IDX 5 1 4 2 3 3 2 4 1 5 35 6 36 7 97 8 37 9 96 10 38 11 39 12
REMARK SMILES IDX 40 13 90 14 41 15 95 16 89 17 91 18 42 19 94 20 88 21 87 22
REMARK SMILES IDX 43 24 75 25 55 26 74 27 56 28 59 29 73 30 92 31 57 32 58 33
REMARK SMILES IDX 72 35 93 36 60 37 44 38 45 39 53 40 46 41 47 42 51 43 54 44
REMARK SMILES IDX 48 45 49 46 52 47 50 48 76 49 77 50 85 51 78 52 79 53 83 54
REMARK SMILES IDX 86 55 80 56 81 57 84 58 82 59 61 60 62 61 70 62 63 63 64 64
REMARK SMILES IDX 68 65 71 66 65 67 66 68 69 69 67 70 6 71 7 72 8 73 9 74
REMARK SMILES IDX 10 75 22 76 11 77 21 78 20 79 23 80 24 81 34 82 25 83 27 84
REMARK SMILES IDX 26 85 28 86 29 87 30 88 33 89 31 91 32 92 12 93 13 94 14 96
REMARK SMILES IDX 15 97 16 98 19 99 17 100 18 101
REMARK H PARENT 91 23 59 34 29 90 12 95
REMARK Flexibility Score: inf
ROOT
ATOM      1  C   UNL     1       4.173  -1.642  -1.384  1.00  0.00     0.275 C 
ENDROOT
BRANCH   1   2
ATOM      2  C   UNL     1       4.991  -1.598  -0.089  1.00  0.00     0.275 C 
BRANCH   2   3
ATOM      3  O   UNL     1       4.501  -0.843   1.043  1.00  0.00    -0.458 OA
BRANCH   3   4
ATOM      4  C   UNL     1       3.527   0.077   0.885  1.00  0.00     0.338 C 
ATOM      5  O   UNL     1       2.345  -0.162   1.100  1.00  0.00    -0.246 OA
BRANCH   4   6
ATOM      6  C   UNL     1       4.027   1.448   0.565  1.00  0.00     0.060 A 
ATOM      7  C   UNL     1       5.309   1.684   0.069  1.00  0.00     0.016 A 
ATOM      8  C   UNL     1       3.145   2.531   0.693  1.00  0.00     0.016 A 
ATOM      9  C   UNL     1       5.685   2.968  -0.324  1.00  0.00     0.010 A 
ATOM     10  C   UNL     1       3.512   3.821   0.294  1.00  0.00     0.010 A 
ATOM     11  C   UNL     1       4.788   4.042  -0.225  1.00  0.00    -0.014 A 
BRANCH  11  12
ATOM     12  C   UNL     1       5.301   5.401  -0.523  1.00  0.00     0.031 A 
ATOM     13  C   UNL     1       6.036   6.098   0.559  1.00  0.00     0.074 A 
ATOM     14  C   UNL     1       5.203   5.950  -1.746  1.00  0.00     0.049 A 
ATOM     15  N   UNL     1       6.763   7.176   0.492  1.00  0.00    -0.248 NA
ATOM     16  C   UNL     1       5.902   5.522   1.906  1.00  0.00     0.031 C 
ATOM     17  C   UNL     1       4.382   5.401  -2.801  1.00  0.00     0.029 A 
ATOM     18  N   UNL     1       5.803   7.028  -2.342  1.00  0.00    -0.354 N 
ATOM     19  C   UNL     1       7.151   7.429   1.794  1.00  0.00     0.074 A 
ATOM     20  C   UNL     1       6.583   6.393   2.629  1.00  0.00     0.031 C 
ATOM     21  C   UNL     1       4.636   6.020  -3.961  1.00  0.00     0.029 A 
ATOM     22  C   UNL     1       5.596   7.081  -3.708  1.00  0.00     0.049 A 
ATOM     23  H   UNL     1       6.329   7.698  -1.847  1.00  0.00     0.167 HD
ATOM     24  C   UNL     1       7.894   8.465   2.240  1.00  0.00     0.037 A 
ATOM     25  C   UNL     1       6.144   7.886  -4.639  1.00  0.00     0.037 A 
ATOM     26  C   UNL     1       8.380   9.509   1.380  1.00  0.00     0.049 A 
ATOM     27  C   UNL     1       7.055   8.971  -4.132  1.00  0.00     0.074 A 
ATOM     28  C   UNL     1       9.087  10.646   1.713  1.00  0.00     0.029 A 
ATOM     29  N   UNL     1       8.185   9.543   0.002  1.00  0.00    -0.354 N 
ATOM     30  N   UNL     1       7.457   9.191  -2.902  1.00  0.00    -0.248 NA
ATOM     31  C   UNL     1       7.549   9.944  -5.112  1.00  0.00     0.031 C 
ATOM     32  C   UNL     1       9.287  11.388   0.542  1.00  0.00     0.029 A 
ATOM     33  C   UNL     1       8.755  10.686  -0.531  1.00  0.00     0.049 A 
ATOM     34  H   UNL     1       7.711   8.854  -0.518  1.00  0.00     0.167 HD
ATOM     35  C   UNL     1       8.221  10.343  -2.950  1.00  0.00     0.074 A 
ATOM     36  C   UNL     1       8.285  10.737  -4.346  1.00  0.00     0.031 C 
ATOM     37  C   UNL     1       8.786  11.037  -1.931  1.00  0.00     0.037 A 
BRANCH  24  38
ATOM     38  C   UNL     1       8.113   8.523   3.719  1.00  0.00     0.064 A 
ATOM     39  C   UNL     1       8.912   7.578   4.382  1.00  0.00     0.173 A 
ATOM     40  C   UNL     1       7.421   9.462   4.497  1.00  0.00     0.173 A 
ATOM     41  F   UNL     1       9.555   6.629   3.684  1.00  0.00    -0.203 F 
ATOM     42  C   UNL     1       8.972   7.543   5.772  1.00  0.00     0.198 A 
ATOM     43  C   UNL     1       7.509   9.444   5.885  1.00  0.00     0.198 A 
ATOM     44  F   UNL     1       6.626  10.371   3.912  1.00  0.00    -0.203 F 
ATOM     45  F   UNL     1       9.668   6.575   6.386  1.00  0.00    -0.200 F 
ATOM     46  C   UNL     1       8.272   8.476   6.522  1.00  0.00     0.200 A 
ATOM     47  F   UNL     1       6.828  10.342   6.609  1.00  0.00    -0.200 F 
ATOM     48  F   UNL     1       8.312   8.427   7.861  1.00  0.00    -0.200 F 
ENDBRANCH  24  38
BRANCH  25  49
ATOM     49  C   UNL     1       5.878   7.702  -6.098  1.00  0.00     0.064 A 
ATOM     50  C   UNL     1       6.921   7.394  -6.987  1.00  0.00     0.173 A 
ATOM     51  C   UNL     1       4.592   7.827  -6.648  1.00  0.00     0.173 A 
ATOM     52  F   UNL     1       8.177   7.277  -6.530  1.00  0.00    -0.203 F 
ATOM     53  C   UNL     1       6.694   7.238  -8.356  1.00  0.00     0.198 A 
ATOM     54  C   UNL     1       4.359   7.634  -8.011  1.00  0.00     0.198 A 
ATOM     55  F   UNL     1       3.550   8.123  -5.858  1.00  0.00    -0.203 F 
ATOM     56  F   UNL     1       7.722   6.991  -9.181  1.00  0.00    -0.200 F 
ATOM     57  C   UNL     1       5.411   7.349  -8.866  1.00  0.00     0.200 A 
ATOM     58  F   UNL     1       3.113   7.729  -8.495  1.00  0.00    -0.200 F 
ATOM     59  F   UNL     1       5.192   7.190 -10.179  1.00  0.00    -0.200 F 
ENDBRANCH  25  49
BRANCH  37  60
ATOM     60  C   UNL     1       9.511  12.292  -2.304  1.00  0.00     0.064 A 
ATOM     61  C   UNL     1       8.818  13.445  -2.700  1.00  0.00     0.173 A 
ATOM     62  C   UNL     1      10.908  12.352  -2.217  1.00  0.00     0.173 A 
ATOM     63  F   UNL     1       7.481  13.426  -2.814  1.00  0.00    -0.203 F 
ATOM     64  C   UNL     1       9.504  14.613  -3.017  1.00  0.00     0.198 A 
ATOM     65  C   UNL     1      11.588  13.530  -2.505  1.00  0.00     0.198 A 
ATOM     66  F   UNL     1      11.609  11.273  -1.839  1.00  0.00    -0.203 F 
ATOM     67  F   UNL     1       8.829  15.691  -3.437  1.00  0.00    -0.200 F 
ATOM     68  C   UNL     1      10.887  14.656  -2.911  1.00  0.00     0.200 A 
ATOM     69  F   UNL     1      12.922  13.575  -2.390  1.00  0.00    -0.200 F 
ATOM     70  F   UNL     1      11.546  15.785  -3.207  1.00  0.00    -0.200 F 
ENDBRANCH  37  60
ENDBRANCH  11  12
ENDBRANCH   4   6
ENDBRANCH   3   4
ENDBRANCH   2   3
ENDBRANCH   1   2
BRANCH   1  71
ATOM     71  O   UNL     1       3.748  -0.339  -1.796  1.00  0.00    -0.458 OA
BRANCH  71  72
ATOM     72  C   UNL     1       2.454  -0.254  -2.186  1.00  0.00     0.340 C 
ATOM     73  O   UNL     1       1.661  -1.186  -2.297  1.00  0.00    -0.246 OA
BRANCH  72  74
ATOM     74  C   UNL     1       2.058   1.143  -2.420  1.00  0.00     0.085 A 
ATOM     75  C   UNL     1       0.924   1.611  -1.706  1.00  0.00     0.044 A 
ATOM     76  C   UNL     1       2.718   1.942  -3.361  1.00  0.00     0.051 A 
ATOM     77  C   UNL     1       0.403   2.878  -1.942  1.00  0.00     0.042 A 
ATOM     78  C   UNL     1       2.098   3.158  -3.670  1.00  0.00     0.029 A 
ATOM     79  C   UNL     1       0.980   3.629  -2.969  1.00  0.00     0.028 A 
BRANCH  76  80
ATOM     80  N   UNL     1       3.886   1.616  -4.017  1.00  0.00    -0.370 N 
ATOM     81  C   UNL     1       5.174   2.175  -3.614  1.00  0.00     0.116 C 
ATOM     82  C   UNL     1       3.951   0.469  -4.903  1.00  0.00     0.126 C 
ATOM     83  C   UNL     1       5.949   2.631  -4.849  1.00  0.00     0.022 C 
ATOM     84  C   UNL     1       4.617   0.930  -6.211  1.00  0.00     0.064 C 
ATOM     85  C   UNL     1       6.012   1.512  -5.889  1.00  0.00     0.013 C 
BRANCH  84  86
ATOM     86  C   UNL     1       3.656   1.912  -6.935  1.00  0.00     0.267 C 
BRANCH  86  87
ATOM     87  N   UNL     1       3.840   2.191  -8.359  1.00  0.00    -0.335 N 
ATOM     88  C   UNL     1       3.924   1.000  -9.201  1.00  0.00     0.262 C 
ATOM     89  C   UNL     1       4.953   3.068  -8.705  1.00  0.00     0.262 C 
ATOM     90  H   UNL     1       2.975   2.694  -8.559  1.00  0.00     0.348 HD
ATOM     91  C   UNL     1       5.403   0.817  -9.474  1.00  0.00     0.067 C 
ATOM     92  C   UNL     1       5.942   2.235  -9.511  1.00  0.00     0.067 C 
ENDBRANCH  86  87
ENDBRANCH  84  86
ENDBRANCH  76  80
BRANCH  77  93
ATOM     93  N   UNL     1      -0.682   3.485  -1.283  1.00  0.00    -0.321 N 
ATOM     94  C   UNL     1      -1.437   3.213  -0.163  1.00  0.00     0.265 C 
ATOM     95  H   UNL     1      -0.974   4.309  -1.734  1.00  0.00     0.170 HD
ATOM     96  O   UNL     1      -2.364   3.994   0.071  1.00  0.00    -0.268 OA
BRANCH  94  97
ATOM     97  C   UNL     1      -1.086   2.161   0.755  1.00  0.00     0.092 A 
ATOM     98  C   UNL     1      -0.340   2.269   1.912  1.00  0.00     0.025 A 
ATOM     99  S   UNL     1      -1.797   0.613   0.603  1.00  0.00    -0.139 S 
ATOM    100  C   UNL     1      -0.212   1.020   2.584  1.00  0.00     0.012 A 
ATOM    101  C   UNL     1      -0.928   0.025   1.957  1.00  0.00     0.065 A 
ENDBRANCH  94  97
ENDBRANCH  77  93
ENDBRANCH  72  74
ENDBRANCH  71  72
ENDBRANCH   1  71
TORSDOF 16
