REMARK SMILES C[C@H]1[C@@H](C(=O)OCCOC(=O)c2ccc(-c3c4nc(c(-c5c(F)c(F)c(F)c(F)c5F)c5ccc([nH]5)c(-c5c(F)c(F)c(F)c(F)c5F)c5nc(c(-c6c(F)c(F)c(F)c(F)c6F)c6ccc3[nH]6)C=C5)C=C4)cc2)CCN1C(=O)c1cncc(O)c1
REMARK SMILES IDX 7 1 6 2 4 3 5 4 3 5 1 6 2 7 77 8 75 9 76 10 78 11 79 12
REMARK SMILES IDX 80 13 81 14 86 15 82 16 84 17 83 18 85 19 8 21 9 22 10 23
REMARK SMILES IDX 11 24 12 25 13 26 74 27 14 28 73 29 15 30 16 31 17 32 67 33
REMARK SMILES IDX 18 34 72 35 66 36 68 37 19 38 71 39 65 40 64 41 20 43 52 44
REMARK SMILES IDX 32 45 51 46 33 47 36 48 50 49 69 50 34 51 35 52 49 54 70 55
REMARK SMILES IDX 37 56 21 57 22 58 30 59 23 60 24 61 28 62 31 63 25 64 26 65
REMARK SMILES IDX 29 66 27 67 53 68 54 69 62 70 55 71 56 72 60 73 63 74 57 75
REMARK SMILES IDX 58 76 61 77 59 78 38 79 39 80 47 81 40 82 41 83 45 84 48 85
REMARK SMILES IDX 42 86 43 87 46 88 44 89
REMARK H PARENT 85 20 68 42 36 53
REMARK Flexibility Score: inf
ROOT
ATOM      1  C   UNL     1       1.917   2.597  -2.609  1.00  0.00     0.274 C 
ENDROOT
BRANCH   1   2
ATOM      2  O   UNL     1       1.514   1.624  -1.623  1.00  0.00    -0.462 OA
BRANCH   2   3
ATOM      3  C   UNL     1       0.821   2.065  -0.554  1.00  0.00     0.311 C 
ATOM      4  O   UNL     1       0.400   3.212  -0.434  1.00  0.00    -0.252 OA
BRANCH   3   5
ATOM      5  C   UNL     1       0.557   1.019   0.514  1.00  0.00     0.123 C 
ATOM      6  C   UNL     1       2.566  -0.477  -0.303  1.00  0.00     0.032 C 
ATOM      7  C   UNL     1       1.401  -0.267   0.657  1.00  0.00     0.096 C 
ATOM      8  N   UNL     1       0.424  -1.366   0.575  1.00  0.00    -0.335 N 
ATOM      9  C   UNL     1      -0.898   0.531   0.486  1.00  0.00     0.039 C 
ATOM     10  C   UNL     1      -0.816  -0.899  -0.002  1.00  0.00     0.121 C 
BRANCH   8  11
ATOM     11  C   UNL     1       0.563  -2.692   0.944  1.00  0.00     0.255 C 
ATOM     12  O   UNL     1      -0.280  -3.556   0.725  1.00  0.00    -0.269 OA
BRANCH  11  13
ATOM     13  C   UNL     1       1.790  -3.092   1.644  1.00  0.00     0.062 A 
ATOM     14  C   UNL     1       2.627  -4.025   1.052  1.00  0.00     0.125 A 
ATOM     15  C   UNL     1       2.139  -2.543   2.879  1.00  0.00     0.063 A 
ATOM     16  N   UNL     1       3.821  -4.388   1.579  1.00  0.00    -0.260 NA
ATOM     17  C   UNL     1       3.360  -2.898   3.432  1.00  0.00     0.134 A 
ATOM     18  C   UNL     1       4.163  -3.806   2.755  1.00  0.00     0.157 A 
BRANCH  17  19
ATOM     19  O   UNL     1       3.795  -2.366   4.607  1.00  0.00    -0.506 OA
ATOM     20  H   UNL     1       4.624  -2.623   4.959  1.00  0.00     0.293 HD
ENDBRANCH  17  19
ENDBRANCH  11  13
ENDBRANCH   8  11
ENDBRANCH   3   5
ENDBRANCH   2   3
ENDBRANCH   1   2
BRANCH   1  21
ATOM     21  C   UNL     1       1.233   2.325  -3.944  1.00  0.00     0.275 C 
BRANCH  21  22
ATOM     22  O   UNL     1      -0.168   2.622  -3.837  1.00  0.00    -0.458 OA
BRANCH  22  23
ATOM     23  C   UNL     1      -0.962   1.554  -3.610  1.00  0.00     0.338 C 
ATOM     24  O   UNL     1      -0.649   0.379  -3.551  1.00  0.00    -0.246 OA
BRANCH  23  25
ATOM     25  C   UNL     1      -2.328   2.025  -3.368  1.00  0.00     0.060 A 
ATOM     26  C   UNL     1      -2.639   2.582  -2.128  1.00  0.00     0.016 A 
ATOM     27  C   UNL     1      -3.318   1.802  -4.321  1.00  0.00     0.016 A 
ATOM     28  C   UNL     1      -3.966   2.832  -1.797  1.00  0.00     0.010 A 
ATOM     29  C   UNL     1      -4.636   2.150  -4.022  1.00  0.00     0.010 A 
ATOM     30  C   UNL     1      -4.977   2.643  -2.748  1.00  0.00    -0.014 A 
BRANCH  30  31
ATOM     31  C   UNL     1      -6.394   2.951  -2.432  1.00  0.00     0.031 A 
ATOM     32  C   UNL     1      -7.434   1.873  -2.537  1.00  0.00     0.074 A 
ATOM     33  C   UNL     1      -6.756   4.203  -2.094  1.00  0.00     0.049 A 
ATOM     34  N   UNL     1      -8.735   1.980  -2.603  1.00  0.00    -0.248 NA
ATOM     35  C   UNL     1      -6.940   0.487  -2.590  1.00  0.00     0.031 C 
ATOM     36  C   UNL     1      -5.842   5.328  -1.894  1.00  0.00     0.029 A 
ATOM     37  N   UNL     1      -8.000   4.744  -1.877  1.00  0.00    -0.354 N 
ATOM     38  C   UNL     1      -9.212   0.688  -2.774  1.00  0.00     0.074 A 
ATOM     39  C   UNL     1      -8.062  -0.192  -2.781  1.00  0.00     0.031 C 
ATOM     40  C   UNL     1      -6.551   6.420  -1.573  1.00  0.00     0.029 A 
ATOM     41  C   UNL     1      -7.971   6.096  -1.641  1.00  0.00     0.049 A 
ATOM     42  H   UNL     1      -8.830   4.214  -1.888  1.00  0.00     0.167 HD
ATOM     43  C   UNL     1     -10.495   0.283  -2.927  1.00  0.00     0.037 A 
ATOM     44  C   UNL     1      -8.973   6.991  -1.556  1.00  0.00     0.037 A 
ATOM     45  C   UNL     1     -11.631   1.164  -2.864  1.00  0.00     0.049 A 
ATOM     46  C   UNL     1     -10.386   6.526  -1.754  1.00  0.00     0.074 A 
ATOM     47  C   UNL     1     -12.973   0.858  -3.002  1.00  0.00     0.029 A 
ATOM     48  N   UNL     1     -11.554   2.528  -2.623  1.00  0.00    -0.354 N 
ATOM     49  N   UNL     1     -10.828   5.317  -2.002  1.00  0.00    -0.248 NA
ATOM     50  C   UNL     1     -11.436   7.550  -1.688  1.00  0.00     0.031 C 
ATOM     51  C   UNL     1     -13.708   2.041  -2.866  1.00  0.00     0.029 A 
ATOM     52  C   UNL     1     -12.825   3.078  -2.611  1.00  0.00     0.049 A 
ATOM     53  H   UNL     1     -10.720   3.031  -2.481  1.00  0.00     0.167 HD
ATOM     54  C   UNL     1     -12.205   5.431  -2.113  1.00  0.00     0.074 A 
ATOM     55  C   UNL     1     -12.528   6.826  -1.894  1.00  0.00     0.031 C 
ATOM     56  C   UNL     1     -13.119   4.468  -2.378  1.00  0.00     0.037 A 
BRANCH  43  57
ATOM     57  C   UNL     1     -10.739  -1.167  -3.218  1.00  0.00     0.064 A 
ATOM     58  C   UNL     1     -10.638  -2.151  -2.226  1.00  0.00     0.173 A 
ATOM     59  C   UNL     1     -11.124  -1.568  -4.507  1.00  0.00     0.173 A 
ATOM     60  F   UNL     1     -10.260  -1.819  -0.983  1.00  0.00    -0.203 F 
ATOM     61  C   UNL     1     -10.900  -3.488  -2.517  1.00  0.00     0.198 A 
ATOM     62  C   UNL     1     -11.406  -2.901  -4.789  1.00  0.00     0.198 A 
ATOM     63  F   UNL     1     -11.238  -0.663  -5.491  1.00  0.00    -0.203 F 
ATOM     64  F   UNL     1     -10.767  -4.418  -1.561  1.00  0.00    -0.200 F 
ATOM     65  C   UNL     1     -11.290  -3.861  -3.795  1.00  0.00     0.200 A 
ATOM     66  F   UNL     1     -11.792  -3.258  -6.022  1.00  0.00    -0.200 F 
ATOM     67  F   UNL     1     -11.550  -5.147  -4.071  1.00  0.00    -0.200 F 
ENDBRANCH  43  57
BRANCH  44  68
ATOM     68  C   UNL     1      -8.655   8.422  -1.326  1.00  0.00     0.064 A 
ATOM     69  C   UNL     1      -8.938   9.033  -0.098  1.00  0.00     0.173 A 
ATOM     70  C   UNL     1      -8.027   9.196  -2.314  1.00  0.00     0.173 A 
ATOM     71  F   UNL     1      -9.558   8.339   0.867  1.00  0.00    -0.203 F 
ATOM     72  C   UNL     1      -8.602  10.365   0.135  1.00  0.00     0.198 A 
ATOM     73  C   UNL     1      -7.668  10.519  -2.071  1.00  0.00     0.198 A 
ATOM     74  F   UNL     1      -7.734   8.655  -3.506  1.00  0.00    -0.203 F 
ATOM     75  F   UNL     1      -8.903  10.934   1.310  1.00  0.00    -0.200 F 
ATOM     76  C   UNL     1      -7.958  11.104  -0.848  1.00  0.00     0.200 A 
ATOM     77  F   UNL     1      -7.032  11.224  -3.017  1.00  0.00    -0.200 F 
ATOM     78  F   UNL     1      -7.620  12.379  -0.616  1.00  0.00    -0.200 F 
ENDBRANCH  44  68
BRANCH  56  79
ATOM     79  C   UNL     1     -14.557   4.882  -2.408  1.00  0.00     0.064 A 
ATOM     80  C   UNL     1     -15.105   5.534  -3.521  1.00  0.00     0.173 A 
ATOM     81  C   UNL     1     -15.404   4.576  -1.334  1.00  0.00     0.173 A 
ATOM     82  F   UNL     1     -14.326   5.860  -4.563  1.00  0.00    -0.203 F 
ATOM     83  C   UNL     1     -16.454   5.875  -3.553  1.00  0.00     0.198 A 
ATOM     84  C   UNL     1     -16.755   4.902  -1.376  1.00  0.00     0.198 A 
ATOM     85  F   UNL     1     -14.921   3.951  -0.249  1.00  0.00    -0.203 F 
ATOM     86  F   UNL     1     -16.955   6.521  -4.614  1.00  0.00    -0.200 F 
ATOM     87  C   UNL     1     -17.279   5.553  -2.484  1.00  0.00     0.200 A 
ATOM     88  F   UNL     1     -17.552   4.585  -0.346  1.00  0.00    -0.200 F 
ATOM     89  F   UNL     1     -18.579   5.875  -2.520  1.00  0.00    -0.200 F 
ENDBRANCH  56  79
ENDBRANCH  30  31
ENDBRANCH  23  25
ENDBRANCH  22  23
ENDBRANCH  21  22
ENDBRANCH   1  21
TORSDOF 14
