REMARK SMILES O=C(N[C@@H](Cc1ccc(O)cc1)C(=O)N[C@@H](CO)C(=O)OCCOC(=O)c1ccc(-c2c3nc(c(-c4c(F)c(F)c(F)c(F)c4F)c4ccc([nH]4)c(-c4c(F)c(F)c(F)c(F)c4F)c4nc(c(-c5c(F)c(F)c(F)c(F)c5F)c5ccc2[nH]5)C=C4)C=C3)cc1)c1ccc(F)cc1
REMARK SMILES IDX 21 1 19 2 20 3 16 4 15 5 13 6 14 7 4 9 3 10 1 11 2 12 90 14
REMARK SMILES IDX 91 15 96 16 92 17 95 18 93 19 94 20 5 21 6 22 7 23 12 24
REMARK SMILES IDX 8 25 11 26 9 27 10 28 17 30 18 31 22 33 23 34 24 35 25 36
REMARK SMILES IDX 26 37 27 38 28 39 89 40 29 41 88 42 30 43 31 44 32 45 82 46
REMARK SMILES IDX 33 47 87 48 81 49 83 50 34 51 86 52 80 53 79 54 35 56 67 57
REMARK SMILES IDX 47 58 66 59 48 60 51 61 65 62 84 63 49 64 50 65 64 67 85 68
REMARK SMILES IDX 52 69 36 70 37 71 45 72 38 73 39 74 43 75 46 76 40 77 41 78
REMARK SMILES IDX 44 79 42 80 68 81 69 82 77 83 70 84 71 85 75 86 78 87 72 88
REMARK SMILES IDX 73 89 76 90 74 91 53 92 54 93 62 94 55 95 56 96 60 97 63 98
REMARK SMILES IDX 57 99 58 100 61 101 59 102
REMARK H PARENT 15 8 3 13 10 29 18 32 83 55 51 66
REMARK Flexibility Score: inf
ROOT
ATOM      1  O   UNL     1       5.532  -5.767  -1.198  1.00  0.00    -0.460 OA
ENDROOT
BRANCH   1   2
ATOM      2  C   UNL     1       4.219  -5.900  -1.599  1.00  0.00     0.331 C 
ATOM      3  O   UNL     1       3.600  -6.957  -1.533  1.00  0.00    -0.250 OA
BRANCH   2   4
ATOM      4  C   UNL     1       3.567  -4.527  -1.947  1.00  0.00     0.218 C 
BRANCH   4   5
ATOM      5  N   UNL     1       4.555  -3.488  -2.256  1.00  0.00    -0.339 N 
ATOM      6  C   UNL     1       4.894  -2.314  -1.671  1.00  0.00     0.243 C 
ATOM      7  O   UNL     1       5.921  -1.783  -2.120  1.00  0.00    -0.273 OA
ATOM      8  H   UNL     1       5.085  -3.686  -3.062  1.00  0.00     0.164 HD
BRANCH   6   9
ATOM      9  C   UNL     1       4.116  -1.584  -0.541  1.00  0.00     0.176 C 
BRANCH   9  10
ATOM     10  N   UNL     1       2.762  -1.173  -0.908  1.00  0.00    -0.340 N 
ATOM     11  O   UNL     1       0.925   0.090  -0.594  1.00  0.00    -0.269 OA
ATOM     12  C   UNL     1       2.150   0.025  -0.608  1.00  0.00     0.251 C 
ATOM     13  H   UNL     1       2.230  -1.821  -1.424  1.00  0.00     0.164 HD
BRANCH  12  14
ATOM     14  C   UNL     1       2.953   1.232  -0.280  1.00  0.00     0.040 A 
ATOM     15  C   UNL     1       4.010   1.643  -1.105  1.00  0.00     0.017 A 
ATOM     16  C   UNL     1       2.594   2.009   0.832  1.00  0.00     0.017 A 
ATOM     17  C   UNL     1       4.736   2.794  -0.789  1.00  0.00     0.040 A 
ATOM     18  C   UNL     1       3.319   3.165   1.139  1.00  0.00     0.040 A 
ATOM     19  C   UNL     1       4.386   3.543   0.330  1.00  0.00     0.123 A 
ATOM     20  F   UNL     1       5.078   4.651   0.622  1.00  0.00    -0.207 F 
ENDBRANCH  12  14
ENDBRANCH   9  10
BRANCH   9  21
ATOM     21  C   UNL     1       4.193  -2.151   0.888  1.00  0.00     0.070 C 
BRANCH  21  22
ATOM     22  C   UNL     1       3.342  -3.355   1.197  1.00  0.00    -0.045 A 
ATOM     23  C   UNL     1       1.974  -3.286   1.473  1.00  0.00     0.007 A 
ATOM     24  C   UNL     1       3.945  -4.611   1.183  1.00  0.00     0.007 A 
ATOM     25  C   UNL     1       1.236  -4.460   1.680  1.00  0.00     0.046 A 
ATOM     26  C   UNL     1       3.223  -5.783   1.409  1.00  0.00     0.046 A 
ATOM     27  C   UNL     1       1.863  -5.700   1.627  1.00  0.00     0.115 A 
BRANCH  27  28
ATOM     28  O   UNL     1       1.113  -6.826   1.769  1.00  0.00    -0.508 OA
ATOM     29  H   UNL     1       0.190  -6.759   1.916  1.00  0.00     0.293 HD
ENDBRANCH  27  28
ENDBRANCH  21  22
ENDBRANCH   9  21
ENDBRANCH   6   9
ENDBRANCH   4   5
BRANCH   4  30
ATOM     30  C   UNL     1       2.511  -4.680  -3.042  1.00  0.00     0.193 C 
BRANCH  30  31
ATOM     31  O   UNL     1       3.088  -5.078  -4.279  1.00  0.00    -0.394 OA
ATOM     32  H   UNL     1       3.717  -4.402  -4.575  1.00  0.00     0.210 HD
ENDBRANCH  30  31
ENDBRANCH   4  30
ENDBRANCH   2   4
ENDBRANCH   1   2
BRANCH   1  33
ATOM     33  C   UNL     1       6.147  -6.957  -0.634  1.00  0.00     0.274 C 
BRANCH  33  34
ATOM     34  C   UNL     1       7.317  -6.606   0.313  1.00  0.00     0.275 C 
BRANCH  34  35
ATOM     35  O   UNL     1       6.834  -6.016   1.546  1.00  0.00    -0.458 OA
BRANCH  35  36
ATOM     36  C   UNL     1       7.774  -5.469   2.373  1.00  0.00     0.338 C 
ATOM     37  O   UNL     1       8.984  -5.539   2.210  1.00  0.00    -0.246 OA
BRANCH  36  38
ATOM     38  C   UNL     1       7.130  -4.616   3.426  1.00  0.00     0.060 A 
ATOM     39  C   UNL     1       5.761  -4.649   3.630  1.00  0.00     0.016 A 
ATOM     40  C   UNL     1       7.856  -3.664   4.141  1.00  0.00     0.016 A 
ATOM     41  C   UNL     1       5.102  -3.584   4.260  1.00  0.00     0.010 A 
ATOM     42  C   UNL     1       7.191  -2.706   4.945  1.00  0.00     0.010 A 
ATOM     43  C   UNL     1       5.786  -2.575   4.945  1.00  0.00    -0.014 A 
BRANCH  43  44
ATOM     44  C   UNL     1       5.075  -1.387   5.579  1.00  0.00     0.031 A 
ATOM     45  C   UNL     1       5.718  -0.006   5.554  1.00  0.00     0.074 A 
ATOM     46  C   UNL     1       3.844  -1.441   6.147  1.00  0.00     0.049 A 
ATOM     47  N   UNL     1       5.513   1.029   6.336  1.00  0.00    -0.248 NA
ATOM     48  C   UNL     1       6.742   0.232   4.525  1.00  0.00     0.031 C 
ATOM     49  C   UNL     1       2.965  -2.606   6.221  1.00  0.00     0.029 A 
ATOM     50  N   UNL     1       3.100  -0.452   6.770  1.00  0.00    -0.354 N 
ATOM     51  C   UNL     1       6.478   1.972   5.990  1.00  0.00     0.074 A 
ATOM     52  C   UNL     1       7.238   1.404   4.897  1.00  0.00     0.031 C 
ATOM     53  C   UNL     1       1.785  -2.252   6.750  1.00  0.00     0.029 A 
ATOM     54  C   UNL     1       1.873  -0.879   7.226  1.00  0.00     0.049 A 
ATOM     55  H   UNL     1       3.420   0.473   6.877  1.00  0.00     0.167 HD
ATOM     56  C   UNL     1       6.719   3.189   6.542  1.00  0.00     0.037 A 
ATOM     57  C   UNL     1       0.945  -0.294   8.013  1.00  0.00     0.037 A 
ATOM     58  C   UNL     1       5.870   3.837   7.511  1.00  0.00     0.049 A 
ATOM     59  C   UNL     1       1.207   1.061   8.607  1.00  0.00     0.074 A 
ATOM     60  C   UNL     1       6.035   5.072   8.121  1.00  0.00     0.029 A 
ATOM     61  N   UNL     1       4.663   3.334   7.966  1.00  0.00    -0.354 N 
ATOM     62  N   UNL     1       2.236   1.854   8.440  1.00  0.00    -0.248 NA
ATOM     63  C   UNL     1       0.194   1.582   9.538  1.00  0.00     0.031 C 
ATOM     64  C   UNL     1       4.936   5.307   8.954  1.00  0.00     0.029 A 
ATOM     65  C   UNL     1       4.067   4.238   8.833  1.00  0.00     0.049 A 
ATOM     66  H   UNL     1       4.283   2.462   7.711  1.00  0.00     0.167 HD
ATOM     67  C   UNL     1       1.994   2.962   9.242  1.00  0.00     0.074 A 
ATOM     68  C   UNL     1       0.707   2.758   9.869  1.00  0.00     0.031 C 
ATOM     69  C   UNL     1       2.783   4.044   9.452  1.00  0.00     0.037 A 
BRANCH  56  70
ATOM     70  C   UNL     1       7.990   3.896   6.156  1.00  0.00     0.064 A 
ATOM     71  C   UNL     1       8.179   4.490   4.902  1.00  0.00     0.173 A 
ATOM     72  C   UNL     1       9.026   4.017   7.099  1.00  0.00     0.173 A 
ATOM     73  F   UNL     1       7.228   4.396   3.961  1.00  0.00    -0.203 F 
ATOM     74  C   UNL     1       9.367   5.152   4.594  1.00  0.00     0.198 A 
ATOM     75  C   UNL     1      10.197   4.708   6.801  1.00  0.00     0.198 A 
ATOM     76  F   UNL     1       8.894   3.479   8.322  1.00  0.00    -0.203 F 
ATOM     77  F   UNL     1       9.548   5.667   3.371  1.00  0.00    -0.200 F 
ATOM     78  C   UNL     1      10.371   5.267   5.546  1.00  0.00     0.200 A 
ATOM     79  F   UNL     1      11.155   4.834   7.730  1.00  0.00    -0.200 F 
ATOM     80  F   UNL     1      11.508   5.912   5.251  1.00  0.00    -0.200 F 
ENDBRANCH  56  70
BRANCH  57  81
ATOM     81  C   UNL     1      -0.297  -1.035   8.379  1.00  0.00     0.064 A 
ATOM     82  C   UNL     1      -1.556  -0.596   7.947  1.00  0.00     0.173 A 
ATOM     83  C   UNL     1      -0.252  -2.183   9.185  1.00  0.00     0.173 A 
ATOM     84  F   UNL     1      -1.660   0.522   7.213  1.00  0.00    -0.203 F 
ATOM     85  C   UNL     1      -2.720  -1.273   8.310  1.00  0.00     0.198 A 
ATOM     86  C   UNL     1      -1.410  -2.883   9.512  1.00  0.00     0.198 A 
ATOM     87  F   UNL     1       0.925  -2.639   9.639  1.00  0.00    -0.203 F 
ATOM     88  F   UNL     1      -3.914  -0.801   7.928  1.00  0.00    -0.200 F 
ATOM     89  C   UNL     1      -2.644  -2.424   9.081  1.00  0.00     0.200 A 
ATOM     90  F   UNL     1      -1.329  -4.002  10.245  1.00  0.00    -0.200 F 
ATOM     91  F   UNL     1      -3.761  -3.082   9.418  1.00  0.00    -0.200 F 
ENDBRANCH  57  81
BRANCH  69  92
ATOM     92  C   UNL     1       2.252   5.112  10.363  1.00  0.00     0.064 A 
ATOM     93  C   UNL     1       2.166   4.922  11.750  1.00  0.00     0.173 A 
ATOM     94  C   UNL     1       1.812   6.337   9.840  1.00  0.00     0.173 A 
ATOM     95  F   UNL     1       2.556   3.761  12.297  1.00  0.00    -0.203 F 
ATOM     96  C   UNL     1       1.624   5.904  12.575  1.00  0.00     0.198 A 
ATOM     97  C   UNL     1       1.296   7.328  10.671  1.00  0.00     0.198 A 
ATOM     98  F   UNL     1       1.876   6.571   8.520  1.00  0.00    -0.203 F 
ATOM     99  F   UNL     1       1.496   5.677  13.890  1.00  0.00    -0.200 F 
ATOM    100  C   UNL     1       1.192   7.107  12.036  1.00  0.00     0.200 A 
ATOM    101  F   UNL     1       0.885   8.492  10.149  1.00  0.00    -0.200 F 
ATOM    102  F   UNL     1       0.662   8.047  12.830  1.00  0.00    -0.200 F 
ENDBRANCH  69  92
ENDBRANCH  43  44
ENDBRANCH  36  38
ENDBRANCH  35  36
ENDBRANCH  34  35
ENDBRANCH  33  34
ENDBRANCH   1  33
TORSDOF 20
