REMARK SMILES Cc1cc(F)c(-c2ccc(F)c(C(=O)OCCOC(=O)c3ccc(-c4c5nc(c(-c6c(F)c(F)c(F)c(F)c6F)c6ccc([nH]6)c(-c6c(F)c(F)c(F)c(F)c6F)c6nc(c(-c7c(F)c(F)c(F)c(F)c7F)c7ccc4[nH]7)C=C6)C=C5)cc3)c2)cc1F
REMARK SMILES IDX 17 1 16 2 15 3 13 4 14 5 12 6 7 7 8 8 84 9 9 10 10 11 11 12
REMARK SMILES IDX 6 13 1 14 2 15 3 16 86 17 4 18 85 19 87 20 5 21 18 22 19 23
REMARK SMILES IDX 20 24 21 25 22 26 83 27 23 28 82 29 24 30 25 31 26 32 76 33
REMARK SMILES IDX 27 34 81 35 75 36 77 37 28 38 80 39 74 40 73 41 29 43 61 44
REMARK SMILES IDX 41 45 60 46 42 47 45 48 59 49 78 50 43 51 44 52 58 54 79 55
REMARK SMILES IDX 46 56 30 57 31 58 39 59 32 60 33 61 37 62 40 63 34 64 35 65
REMARK SMILES IDX 38 66 36 67 62 68 63 69 71 70 64 71 65 72 69 73 72 74 66 75
REMARK SMILES IDX 67 76 70 77 68 78 47 79 48 80 56 81 49 82 50 83 54 84 57 85
REMARK SMILES IDX 51 86 52 87 55 88 53 89
REMARK H PARENT 77 42 45 53
REMARK Flexibility Score: inf
ROOT
ATOM      1  C   UNL     1      -4.689  -8.955  -1.321  1.00  0.00     0.275 C 
ENDROOT
BRANCH   1   2
ATOM      2  C   UNL     1      -3.438  -8.850  -0.448  1.00  0.00     0.275 C 
BRANCH   2   3
ATOM      3  O   UNL     1      -2.532  -7.863  -0.983  1.00  0.00    -0.458 OA
BRANCH   3   4
ATOM      4  C   UNL     1      -1.358  -8.321  -1.494  1.00  0.00     0.341 C 
ATOM      5  O   UNL     1      -0.988  -9.477  -1.521  1.00  0.00    -0.246 OA
BRANCH   4   6
ATOM      6  C   UNL     1      -0.622  -7.193  -2.114  1.00  0.00     0.096 A 
ATOM      7  C   UNL     1      -0.002  -4.835  -2.199  1.00  0.00    -0.014 A 
ATOM      8  C   UNL     1       0.718  -5.090  -3.380  1.00  0.00     0.012 A 
ATOM      9  C   UNL     1      -0.703  -5.894  -1.594  1.00  0.00     0.027 A 
ATOM     10  C   UNL     1       0.815  -6.382  -3.890  1.00  0.00     0.041 A 
ATOM     11  C   UNL     1       0.181  -7.428  -3.231  1.00  0.00     0.137 A 
ATOM     12  F   UNL     1       0.370  -8.664  -3.714  1.00  0.00    -0.206 F 
BRANCH   7  13
ATOM     13  C   UNL     1       0.075  -3.512  -1.571  1.00  0.00     0.020 A 
ATOM     14  C   UNL     1       0.802   0.391   0.151  1.00  0.00     0.047 C 
ATOM     15  C   UNL     1       0.495  -0.957  -0.423  1.00  0.00    -0.012 A 
ATOM     16  C   UNL     1       0.848  -2.112   0.279  1.00  0.00     0.046 A 
ATOM     17  C   UNL     1      -0.091  -1.095  -1.685  1.00  0.00     0.126 A 
ATOM     18  C   UNL     1       0.634  -3.365  -0.290  1.00  0.00     0.131 A 
ATOM     19  C   UNL     1      -0.305  -2.350  -2.256  1.00  0.00     0.051 A 
ATOM     20  F   UNL     1      -0.436  -0.006  -2.385  1.00  0.00    -0.207 F 
ATOM     21  F   UNL     1       1.024  -4.448   0.401  1.00  0.00    -0.206 F 
ENDBRANCH   7  13
ENDBRANCH   4   6
ENDBRANCH   3   4
ENDBRANCH   2   3
ENDBRANCH   1   2
BRANCH   1  22
ATOM     22  O   UNL     1      -4.370  -9.613  -2.561  1.00  0.00    -0.458 OA
BRANCH  22  23
ATOM     23  C   UNL     1      -4.248  -8.807  -3.640  1.00  0.00     0.338 C 
ATOM     24  O   UNL     1      -4.447  -7.608  -3.710  1.00  0.00    -0.246 OA
BRANCH  23  25
ATOM     25  C   UNL     1      -3.691  -9.598  -4.745  1.00  0.00     0.060 A 
ATOM     26  C   UNL     1      -4.498 -10.168  -5.724  1.00  0.00     0.016 A 
ATOM     27  C   UNL     1      -2.306  -9.688  -4.837  1.00  0.00     0.016 A 
ATOM     28  C   UNL     1      -3.895 -10.847  -6.792  1.00  0.00     0.010 A 
ATOM     29  C   UNL     1      -1.704 -10.299  -5.931  1.00  0.00     0.010 A 
ATOM     30  C   UNL     1      -2.491 -10.900  -6.919  1.00  0.00    -0.014 A 
BRANCH  30  31
ATOM     31  C   UNL     1      -1.832 -11.543  -8.089  1.00  0.00     0.031 A 
ATOM     32  C   UNL     1      -0.894 -12.710  -7.905  1.00  0.00     0.074 A 
ATOM     33  C   UNL     1      -2.014 -11.021  -9.318  1.00  0.00     0.049 A 
ATOM     34  N   UNL     1      -0.194 -13.357  -8.806  1.00  0.00    -0.248 NA
ATOM     35  C   UNL     1      -0.688 -13.195  -6.532  1.00  0.00     0.031 C 
ATOM     36  C   UNL     1      -2.817  -9.836  -9.621  1.00  0.00     0.029 A 
ATOM     37  N   UNL     1      -1.528 -11.413 -10.542  1.00  0.00    -0.354 N 
ATOM     38  C   UNL     1       0.546 -14.303  -8.107  1.00  0.00     0.074 A 
ATOM     39  C   UNL     1       0.246 -14.121  -6.704  1.00  0.00     0.031 C 
ATOM     40  C   UNL     1      -2.800  -9.618 -10.945  1.00  0.00     0.029 A 
ATOM     41  C   UNL     1      -1.958 -10.626 -11.583  1.00  0.00     0.049 A 
ATOM     42  H   UNL     1      -0.929 -12.185 -10.662  1.00  0.00     0.167 HD
ATOM     43  C   UNL     1       1.382 -15.252  -8.593  1.00  0.00     0.037 A 
ATOM     44  C   UNL     1      -1.706 -10.706 -12.904  1.00  0.00     0.037 A 
ATOM     45  C   UNL     1       1.644 -15.466  -9.993  1.00  0.00     0.049 A 
ATOM     46  C   UNL     1      -0.834 -11.816 -13.422  1.00  0.00     0.074 A 
ATOM     47  C   UNL     1       2.413 -16.454 -10.584  1.00  0.00     0.029 A 
ATOM     48  N   UNL     1       1.136 -14.687 -11.020  1.00  0.00    -0.354 N 
ATOM     49  N   UNL     1      -0.203 -12.751 -12.755  1.00  0.00    -0.248 NA
ATOM     50  C   UNL     1      -0.650 -11.892 -14.879  1.00  0.00     0.031 C 
ATOM     51  C   UNL     1       2.397 -16.254 -11.967  1.00  0.00     0.029 A 
ATOM     52  C   UNL     1       1.579 -15.170 -12.241  1.00  0.00     0.049 A 
ATOM     53  H   UNL     1       0.548 -13.906 -10.901  1.00  0.00     0.167 HD
ATOM     54  C   UNL     1       0.431 -13.537 -13.707  1.00  0.00     0.074 A 
ATOM     55  C   UNL     1       0.093 -12.983 -15.000  1.00  0.00     0.031 C 
ATOM     56  C   UNL     1       1.225 -14.619 -13.522  1.00  0.00     0.037 A 
BRANCH  43  57
ATOM     57  C   UNL     1       2.059 -16.171  -7.617  1.00  0.00     0.064 A 
ATOM     58  C   UNL     1       1.346 -17.178  -6.949  1.00  0.00     0.173 A 
ATOM     59  C   UNL     1       3.450 -16.120  -7.434  1.00  0.00     0.173 A 
ATOM     60  F   UNL     1       0.015 -17.269  -7.088  1.00  0.00    -0.203 F 
ATOM     61  C   UNL     1       1.999 -18.096  -6.130  1.00  0.00     0.198 A 
ATOM     62  C   UNL     1       4.103 -17.055  -6.635  1.00  0.00     0.198 A 
ATOM     63  F   UNL     1       4.180 -15.184  -8.059  1.00  0.00    -0.203 F 
ATOM     64  F   UNL     1       1.295 -19.038  -5.489  1.00  0.00    -0.200 F 
ATOM     65  C   UNL     1       3.377 -18.041  -5.983  1.00  0.00     0.200 A 
ATOM     66  F   UNL     1       5.436 -17.014  -6.509  1.00  0.00    -0.200 F 
ATOM     67  F   UNL     1       4.007 -18.944  -5.218  1.00  0.00    -0.200 F 
ENDBRANCH  43  57
BRANCH  44  68
ATOM     68  C   UNL     1      -2.328  -9.728 -13.834  1.00  0.00     0.064 A 
ATOM     69  C   UNL     1      -3.350 -10.120 -14.710  1.00  0.00     0.173 A 
ATOM     70  C   UNL     1      -1.926  -8.385 -13.859  1.00  0.00     0.173 A 
ATOM     71  F   UNL     1      -3.755 -11.399 -14.735  1.00  0.00    -0.203 F 
ATOM     72  C   UNL     1      -3.933  -9.211 -15.589  1.00  0.00     0.198 A 
ATOM     73  C   UNL     1      -2.530  -7.470 -14.719  1.00  0.00     0.198 A 
ATOM     74  F   UNL     1      -0.958  -7.958 -13.036  1.00  0.00    -0.203 F 
ATOM     75  F   UNL     1      -4.877  -9.623 -16.446  1.00  0.00    -0.200 F 
ATOM     76  C   UNL     1      -3.527  -7.885 -15.589  1.00  0.00     0.200 A 
ATOM     77  F   UNL     1      -2.146  -6.186 -14.705  1.00  0.00    -0.200 F 
ATOM     78  F   UNL     1      -4.093  -7.010 -16.430  1.00  0.00    -0.200 F 
ENDBRANCH  44  68
BRANCH  56  79
ATOM     79  C   UNL     1       1.761 -15.301 -14.746  1.00  0.00     0.064 A 
ATOM     80  C   UNL     1       2.773 -14.723 -15.526  1.00  0.00     0.173 A 
ATOM     81  C   UNL     1       1.294 -16.573 -15.110  1.00  0.00     0.173 A 
ATOM     82  F   UNL     1       3.244 -13.504 -15.225  1.00  0.00    -0.203 F 
ATOM     83  C   UNL     1       3.282 -15.384 -16.640  1.00  0.00     0.198 A 
ATOM     84  C   UNL     1       1.825 -17.243 -16.208  1.00  0.00     0.198 A 
ATOM     85  F   UNL     1       0.334 -17.173 -14.391  1.00  0.00    -0.203 F 
ATOM     86  F   UNL     1       4.219 -14.795 -17.396  1.00  0.00    -0.200 F 
ATOM     87  C   UNL     1       2.813 -16.646 -16.976  1.00  0.00     0.200 A 
ATOM     88  F   UNL     1       1.382 -18.468 -16.523  1.00  0.00    -0.200 F 
ATOM     89  F   UNL     1       3.311 -17.285 -18.044  1.00  0.00    -0.200 F 
ENDBRANCH  56  79
ENDBRANCH  30  31
ENDBRANCH  23  25
ENDBRANCH  22  23
ENDBRANCH   1  22
TORSDOF 12
