REMARK SMILES Cn1cc(C(=O)NCCc2ccccc2)c(C(=O)OCCOC(=O)c2ccc(-c3c4nc(c(-c5c(F)c(F)c(F)c(F)c5F)c5ccc([nH]5)c(-c5c(F)c(F)c(F)c(F)c5F)c5nc(c(-c6c(F)c(F)c(F)c(F)c6F)c6ccc3[nH]6)C=C5)C=C4)cc2)n1
REMARK SMILES IDX 20 1 19 2 17 3 18 4 16 5 1 6 2 7 3 8 88 9 4 10 5 11 6 12
REMARK SMILES IDX 7 13 8 15 9 16 10 17 11 18 15 19 12 20 14 21 13 22 21 23
REMARK SMILES IDX 22 24 23 25 24 26 25 27 26 28 87 29 27 30 86 31 28 32 29 33
REMARK SMILES IDX 30 34 80 35 31 36 85 37 79 38 81 39 32 40 84 41 78 42 77 43
REMARK SMILES IDX 33 45 65 46 45 47 64 48 46 49 49 50 63 51 82 52 47 53 48 54
REMARK SMILES IDX 62 56 83 57 50 58 34 59 35 60 43 61 36 62 37 63 41 64 44 65
REMARK SMILES IDX 38 66 39 67 42 68 40 69 66 70 67 71 75 72 68 73 69 74 73 75
REMARK SMILES IDX 76 76 70 77 71 78 74 79 72 80 51 81 52 82 60 83 53 84 54 85
REMARK SMILES IDX 58 86 61 87 55 88 56 89 59 90 57 91
REMARK H PARENT 7 14 81 44 49 55
REMARK Flexibility Score: inf
ROOT
ATOM      1  C   UNL     1       4.580   2.154   0.009  1.00  0.00     0.275 C 
ENDROOT
BRANCH   1   2
ATOM      2  O   UNL     1       3.515   1.190  -0.032  1.00  0.00    -0.457 OA
BRANCH   2   3
ATOM      3  C   UNL     1       2.575   1.247   0.959  1.00  0.00     0.359 C 
ATOM      4  O   UNL     1       2.592   2.053   1.881  1.00  0.00    -0.244 OA
BRANCH   3   5
ATOM      5  C   UNL     1       1.451   0.331   0.696  1.00  0.00     0.183 A 
ATOM      6  C   UNL     1      -1.960  -0.028   0.021  1.00  0.00     0.173 C 
ATOM      7  N   UNL     1      -0.545  -0.217   0.234  1.00  0.00    -0.274 N 
ATOM      8  C   UNL     1       0.191  -1.323  -0.063  1.00  0.00     0.123 A 
ATOM      9  N   UNL     1       0.179   0.780   0.747  1.00  0.00    -0.165 NA
ATOM     10  C   UNL     1       1.487  -1.061   0.346  1.00  0.00     0.092 A 
BRANCH  10  11
ATOM     11  C   UNL     1       2.656  -1.922   0.414  1.00  0.00     0.255 C 
ATOM     12  O   UNL     1       3.789  -1.464   0.561  1.00  0.00    -0.269 OA
ATOM     13  N   UNL     1       2.552  -3.286   0.407  1.00  0.00    -0.352 N 
ATOM     14  H   UNL     1       3.418  -3.742   0.512  1.00  0.00     0.163 HD
BRANCH  13  15
ATOM     15  C   UNL     1       1.433  -4.205   0.280  1.00  0.00     0.121 C 
BRANCH  15  16
ATOM     16  C   UNL     1       1.323  -4.764  -1.145  1.00  0.00     0.057 C 
BRANCH  16  17
ATOM     17  C   UNL     1       2.376  -5.823  -1.384  1.00  0.00    -0.046 A 
ATOM     18  C   UNL     1       2.063  -7.179  -1.212  1.00  0.00     0.004 A 
ATOM     19  C   UNL     1       3.698  -5.464  -1.683  1.00  0.00     0.004 A 
ATOM     20  C   UNL     1       3.058  -8.151  -1.308  1.00  0.00     0.000 A 
ATOM     21  C   UNL     1       4.694  -6.437  -1.765  1.00  0.00     0.000 A 
ATOM     22  C   UNL     1       4.375  -7.779  -1.571  1.00  0.00     0.000 A 
ENDBRANCH  16  17
ENDBRANCH  15  16
ENDBRANCH  13  15
ENDBRANCH  10  11
ENDBRANCH   3   5
ENDBRANCH   2   3
ENDBRANCH   1   2
BRANCH   1  23
ATOM     23  C   UNL     1       4.590   2.972  -1.284  1.00  0.00     0.275 C 
BRANCH  23  24
ATOM     24  O   UNL     1       3.425   3.818  -1.358  1.00  0.00    -0.458 OA
BRANCH  24  25
ATOM     25  C   UNL     1       2.394   3.318  -2.078  1.00  0.00     0.338 C 
ATOM     26  O   UNL     1       2.366   2.289  -2.732  1.00  0.00    -0.246 OA
BRANCH  25  27
ATOM     27  C   UNL     1       1.202   4.149  -1.852  1.00  0.00     0.060 A 
ATOM     28  C   UNL     1       0.141   3.568  -1.159  1.00  0.00     0.016 A 
ATOM     29  C   UNL     1       1.087   5.442  -2.362  1.00  0.00     0.016 A 
ATOM     30  C   UNL     1      -1.045   4.265  -0.966  1.00  0.00     0.010 A 
ATOM     31  C   UNL     1      -0.110   6.146  -2.173  1.00  0.00     0.010 A 
ATOM     32  C   UNL     1      -1.186   5.558  -1.482  1.00  0.00    -0.014 A 
BRANCH  32  33
ATOM     33  C   UNL     1      -2.487   6.254  -1.347  1.00  0.00     0.031 A 
ATOM     34  C   UNL     1      -3.399   6.363  -2.533  1.00  0.00     0.074 A 
ATOM     35  C   UNL     1      -2.870   6.740  -0.152  1.00  0.00     0.049 A 
ATOM     36  N   UNL     1      -4.545   6.986  -2.644  1.00  0.00    -0.248 NA
ATOM     37  C   UNL     1      -2.968   5.674  -3.759  1.00  0.00     0.031 C 
ATOM     38  C   UNL     1      -2.100   6.639   1.086  1.00  0.00     0.029 A 
ATOM     39  N   UNL     1      -4.009   7.413   0.214  1.00  0.00    -0.354 N 
ATOM     40  C   UNL     1      -4.957   6.788  -3.954  1.00  0.00     0.074 A 
ATOM     41  C   UNL     1      -3.940   5.989  -4.604  1.00  0.00     0.031 C 
ATOM     42  C   UNL     1      -2.789   7.227   2.078  1.00  0.00     0.029 A 
ATOM     43  C   UNL     1      -4.026   7.783   1.536  1.00  0.00     0.049 A 
ATOM     44  H   UNL     1      -4.743   7.612  -0.411  1.00  0.00     0.167 HD
ATOM     45  C   UNL     1      -6.085   7.234  -4.558  1.00  0.00     0.037 A 
ATOM     46  C   UNL     1      -4.926   8.511   2.223  1.00  0.00     0.037 A 
ATOM     47  C   UNL     1      -7.107   8.008  -3.904  1.00  0.00     0.049 A 
ATOM     48  C   UNL     1      -6.146   9.034   1.516  1.00  0.00     0.074 A 
ATOM     49  C   UNL     1      -8.285   8.505  -4.433  1.00  0.00     0.029 A 
ATOM     50  N   UNL     1      -7.072   8.392  -2.572  1.00  0.00    -0.354 N 
ATOM     51  N   UNL     1      -6.516   8.864   0.270  1.00  0.00    -0.248 NA
ATOM     52  C   UNL     1      -7.069   9.860   2.308  1.00  0.00     0.031 C 
ATOM     53  C   UNL     1      -8.951   9.216  -3.428  1.00  0.00     0.029 A 
ATOM     54  C   UNL     1      -8.203   9.132  -2.265  1.00  0.00     0.049 A 
ATOM     55  H   UNL     1      -6.351   8.173  -1.939  1.00  0.00     0.167 HD
ATOM     56  C   UNL     1      -7.717   9.546   0.132  1.00  0.00     0.074 A 
ATOM     57  C   UNL     1      -8.024  10.119   1.426  1.00  0.00     0.031 C 
ATOM     58  C   UNL     1      -8.493   9.688  -0.969  1.00  0.00     0.037 A 
BRANCH  45  59
ATOM     59  C   UNL     1      -6.259   6.921  -6.012  1.00  0.00     0.064 A 
ATOM     60  C   UNL     1      -6.632   5.644  -6.451  1.00  0.00     0.173 A 
ATOM     61  C   UNL     1      -6.090   7.927  -6.976  1.00  0.00     0.173 A 
ATOM     62  F   UNL     1      -6.791   4.646  -5.568  1.00  0.00    -0.203 F 
ATOM     63  C   UNL     1      -6.816   5.380  -7.806  1.00  0.00     0.198 A 
ATOM     64  C   UNL     1      -6.295   7.665  -8.327  1.00  0.00     0.198 A 
ATOM     65  F   UNL     1      -5.735   9.166  -6.604  1.00  0.00    -0.203 F 
ATOM     66  F   UNL     1      -7.142   4.144  -8.208  1.00  0.00    -0.200 F 
ATOM     67  C   UNL     1      -6.654   6.391  -8.742  1.00  0.00     0.200 A 
ATOM     68  F   UNL     1      -6.145   8.645  -9.229  1.00  0.00    -0.200 F 
ATOM     69  F   UNL     1      -6.838   6.137 -10.044  1.00  0.00    -0.200 F 
ENDBRANCH  45  59
BRANCH  46  70
ATOM     70  C   UNL     1      -4.693   8.813   3.659  1.00  0.00     0.064 A 
ATOM     71  C   UNL     1      -5.490   8.237   4.657  1.00  0.00     0.173 A 
ATOM     72  C   UNL     1      -3.677   9.693   4.059  1.00  0.00     0.173 A 
ATOM     73  F   UNL     1      -6.493   7.413   4.320  1.00  0.00    -0.203 F 
ATOM     74  C   UNL     1      -5.287   8.540   6.002  1.00  0.00     0.198 A 
ATOM     75  C   UNL     1      -3.459   9.976   5.405  1.00  0.00     0.198 A 
ATOM     76  F   UNL     1      -2.893  10.275   3.140  1.00  0.00    -0.203 F 
ATOM     77  F   UNL     1      -6.090   8.010   6.934  1.00  0.00    -0.200 F 
ATOM     78  C   UNL     1      -4.268   9.404   6.375  1.00  0.00     0.200 A 
ATOM     79  F   UNL     1      -2.470  10.806   5.761  1.00  0.00    -0.200 F 
ATOM     80  F   UNL     1      -4.074   9.695   7.668  1.00  0.00    -0.200 F 
ENDBRANCH  46  70
BRANCH  58  81
ATOM     81  C   UNL     1      -9.760  10.474  -0.816  1.00  0.00     0.064 A 
ATOM     82  C   UNL     1      -9.746  11.873  -0.732  1.00  0.00     0.173 A 
ATOM     83  C   UNL     1     -11.002   9.823  -0.793  1.00  0.00     0.173 A 
ATOM     84  F   UNL     1      -8.580  12.537  -0.734  1.00  0.00    -0.203 F 
ATOM     85  C   UNL     1     -10.931  12.593  -0.611  1.00  0.00     0.198 A 
ATOM     86  C   UNL     1     -12.187  10.547  -0.695  1.00  0.00     0.198 A 
ATOM     87  F   UNL     1     -11.067   8.486  -0.876  1.00  0.00    -0.203 F 
ATOM     88  F   UNL     1     -10.894  13.928  -0.495  1.00  0.00    -0.200 F 
ATOM     89  C   UNL     1     -12.150  11.931  -0.599  1.00  0.00     0.200 A 
ATOM     90  F   UNL     1     -13.364   9.907  -0.691  1.00  0.00    -0.200 F 
ATOM     91  F   UNL     1     -13.290  12.626  -0.486  1.00  0.00    -0.200 F 
ENDBRANCH  58  81
ENDBRANCH  32  33
ENDBRANCH  25  27
ENDBRANCH  24  25
ENDBRANCH  23  24
ENDBRANCH   1  23
TORSDOF 15
