REMARK SMILES COc1cc(Br)ccc1[C@H]([NH3+])C(=O)OCCOC(=O)c1ccc(-c2c3nc(c(-c4c(F)c(F)c(F)c(F)c4F)c4ccc([nH]4)c(-c4c(F)c(F)c(F)c(F)c4F)c4nc(c(-c5c(F)c(F)c(F)c(F)c5F)c5ccc2[nH]5)C=C4)C=C3)cc1
REMARK SMILES IDX 15 1 14 2 12 3 13 4 10 5 9 6 3 7 4 8 5 9 8 10 6 11 7 12 2 13
REMARK SMILES IDX 1 14 11 15 16 19 17 20 18 21 19 22 20 23 21 24 82 25 22 26
REMARK SMILES IDX 81 27 23 28 24 29 25 30 75 31 26 32 80 33 74 34 76 35 27 36
REMARK SMILES IDX 79 37 73 38 72 39 28 41 60 42 40 43 59 44 41 45 44 46 58 47
REMARK SMILES IDX 77 48 42 49 43 50 57 52 78 53 45 54 29 55 30 56 38 57 31 58
REMARK SMILES IDX 32 59 36 60 39 61 33 62 34 63 37 64 35 65 61 66 62 67 70 68
REMARK SMILES IDX 63 69 64 70 68 71 71 72 65 73 66 74 69 75 67 76 46 77 47 78
REMARK SMILES IDX 55 79 48 80 49 81 53 82 56 83 50 84 51 85 54 86 52 87
REMARK H PARENT 11 16 11 17 11 18 76 40 44 51
REMARK Flexibility Score: inf
ROOT
ATOM      1  C   UNL     1      -1.955   0.806   6.701  1.00  0.00     0.274 C 
ENDROOT
BRANCH   1   2
ATOM      2  O   UNL     1      -1.616  -0.231   5.767  1.00  0.00    -0.457 OA
BRANCH   2   3
ATOM      3  C   UNL     1      -2.207  -0.186   4.538  1.00  0.00     0.370 C 
ATOM      4  O   UNL     1      -3.081   0.617   4.224  1.00  0.00    -0.245 OA
BRANCH   3   5
ATOM      5  C   UNL     1      -1.629  -1.238   3.564  1.00  0.00     0.326 C 
BRANCH   5   6
ATOM      6  C   UNL     1      -2.595  -2.350   3.180  1.00  0.00     0.063 A 
ATOM      7  C   UNL     1      -2.321  -3.166   2.058  1.00  0.00     0.129 A 
ATOM      8  C   UNL     1      -3.196  -4.202   1.711  1.00  0.00     0.062 A 
ATOM      9  C   UNL     1      -4.362  -4.404   2.448  1.00  0.00     0.021 A 
ATOM     10  C   UNL     1      -3.778  -2.580   3.906  1.00  0.00     0.015 A 
ATOM     11  Br  UNL     1      -5.545  -5.799   1.968  1.00  0.00    -0.051 Br
ATOM     12  C   UNL     1      -4.663  -3.592   3.535  1.00  0.00     0.016 A 
BRANCH   7  13
ATOM     13  O   UNL     1      -1.156  -2.897   1.381  1.00  0.00    -0.496 OA
ATOM     14  C   UNL     1      -1.096  -3.319   0.023  1.00  0.00     0.278 C 
ENDBRANCH   7  13
ENDBRANCH   5   6
BRANCH   5  15
ATOM     15  N   UNL     1      -0.334  -1.777   4.042  1.00  0.00    -0.342 N 
ATOM     16  H   UNL     1      -0.480  -2.293   4.910  1.00  0.00     0.345 HD
ATOM     17  H   UNL     1       0.314  -1.007   4.209  1.00  0.00     0.345 HD
ATOM     18  H   UNL     1       0.056  -2.402   3.336  1.00  0.00     0.345 HD
ENDBRANCH   5  15
ENDBRANCH   3   5
ENDBRANCH   2   3
ENDBRANCH   1   2
BRANCH   1  19
ATOM     19  C   UNL     1      -0.873   1.891   6.724  1.00  0.00     0.275 C 
BRANCH  19  20
ATOM     20  O   UNL     1      -0.913   2.718   5.544  1.00  0.00    -0.458 OA
BRANCH  20  21
ATOM     21  C   UNL     1      -0.196   2.265   4.489  1.00  0.00     0.338 C 
ATOM     22  O   UNL     1       0.498   1.263   4.436  1.00  0.00    -0.246 OA
BRANCH  21  23
ATOM     23  C   UNL     1      -0.490   3.087   3.304  1.00  0.00     0.060 A 
ATOM     24  C   UNL     1      -0.921   2.428   2.148  1.00  0.00     0.016 A 
ATOM     25  C   UNL     1      -0.293   4.468   3.298  1.00  0.00     0.016 A 
ATOM     26  C   UNL     1      -1.153   3.140   0.979  1.00  0.00     0.010 A 
ATOM     27  C   UNL     1      -0.527   5.186   2.121  1.00  0.00     0.010 A 
ATOM     28  C   UNL     1      -0.951   4.523   0.955  1.00  0.00    -0.014 A 
BRANCH  28  29
ATOM     29  C   UNL     1      -1.141   5.265  -0.311  1.00  0.00     0.031 A 
ATOM     30  C   UNL     1       0.054   5.726  -1.088  1.00  0.00     0.074 A 
ATOM     31  C   UNL     1      -2.385   5.497  -0.768  1.00  0.00     0.049 A 
ATOM     32  N   UNL     1       0.108   6.478  -2.157  1.00  0.00    -0.248 NA
ATOM     33  C   UNL     1       1.367   5.277  -0.598  1.00  0.00     0.031 C 
ATOM     34  C   UNL     1      -3.617   5.037  -0.129  1.00  0.00     0.029 A 
ATOM     35  N   UNL     1      -2.815   6.183  -1.875  1.00  0.00    -0.354 N 
ATOM     36  C   UNL     1       1.457   6.612  -2.455  1.00  0.00     0.074 A 
ATOM     37  C   UNL     1       2.190   5.872  -1.450  1.00  0.00     0.031 C 
ATOM     38  C   UNL     1      -4.667   5.460  -0.851  1.00  0.00     0.029 A 
ATOM     39  C   UNL     1      -4.182   6.265  -1.969  1.00  0.00     0.049 A 
ATOM     40  H   UNL     1      -2.203   6.579  -2.538  1.00  0.00     0.167 HD
ATOM     41  C   UNL     1       2.026   7.294  -3.477  1.00  0.00     0.037 A 
ATOM     42  C   UNL     1      -4.952   6.948  -2.836  1.00  0.00     0.037 A 
ATOM     43  C   UNL     1       1.285   8.014  -4.479  1.00  0.00     0.049 A 
ATOM     44  C   UNL     1      -4.292   7.767  -3.912  1.00  0.00     0.074 A 
ATOM     45  C   UNL     1       1.766   8.723  -5.566  1.00  0.00     0.029 A 
ATOM     46  N   UNL     1      -0.098   8.120  -4.512  1.00  0.00    -0.354 N 
ATOM     47  N   UNL     1      -3.017   7.903  -4.182  1.00  0.00    -0.248 NA
ATOM     48  C   UNL     1      -5.178   8.539  -4.793  1.00  0.00     0.031 C 
ATOM     49  C   UNL     1       0.675   9.294  -6.232  1.00  0.00     0.029 A 
ATOM     50  C   UNL     1      -0.487   8.906  -5.585  1.00  0.00     0.049 A 
ATOM     51  H   UNL     1      -0.712   7.698  -3.869  1.00  0.00     0.167 HD
ATOM     52  C   UNL     1      -2.946   8.764  -5.267  1.00  0.00     0.074 A 
ATOM     53  C   UNL     1      -4.309   9.104  -5.620  1.00  0.00     0.031 C 
ATOM     54  C   UNL     1      -1.851   9.235  -5.913  1.00  0.00     0.037 A 
BRANCH  41  55
ATOM     55  C   UNL     1       3.523   7.323  -3.541  1.00  0.00     0.064 A 
ATOM     56  C   UNL     1       4.269   6.202  -3.931  1.00  0.00     0.173 A 
ATOM     57  C   UNL     1       4.220   8.502  -3.236  1.00  0.00     0.173 A 
ATOM     58  F   UNL     1       3.651   5.046  -4.218  1.00  0.00    -0.203 F 
ATOM     59  C   UNL     1       5.660   6.254  -3.993  1.00  0.00     0.198 A 
ATOM     60  C   UNL     1       5.608   8.558  -3.322  1.00  0.00     0.198 A 
ATOM     61  F   UNL     1       3.552   9.603  -2.859  1.00  0.00    -0.203 F 
ATOM     62  F   UNL     1       6.356   5.159  -4.329  1.00  0.00    -0.200 F 
ATOM     63  C   UNL     1       6.327   7.433  -3.695  1.00  0.00     0.200 A 
ATOM     64  F   UNL     1       6.250   9.701  -3.042  1.00  0.00    -0.200 F 
ATOM     65  F   UNL     1       7.665   7.483  -3.759  1.00  0.00    -0.200 F 
ENDBRANCH  41  55
BRANCH  42  66
ATOM     66  C   UNL     1      -6.430   6.921  -2.692  1.00  0.00     0.064 A 
ATOM     67  C   UNL     1      -7.238   6.282  -3.642  1.00  0.00     0.173 A 
ATOM     68  C   UNL     1      -7.064   7.537  -1.603  1.00  0.00     0.173 A 
ATOM     69  F   UNL     1      -6.679   5.703  -4.715  1.00  0.00    -0.203 F 
ATOM     70  C   UNL     1      -8.625   6.268  -3.513  1.00  0.00     0.198 A 
ATOM     71  C   UNL     1      -8.449   7.499  -1.460  1.00  0.00     0.198 A 
ATOM     72  F   UNL     1      -6.336   8.166  -0.669  1.00  0.00    -0.203 F 
ATOM     73  F   UNL     1      -9.378   5.685  -4.455  1.00  0.00    -0.200 F 
ATOM     74  C   UNL     1      -9.229   6.870  -2.418  1.00  0.00     0.200 A 
ATOM     75  F   UNL     1      -9.027   8.073  -0.396  1.00  0.00    -0.200 F 
ATOM     76  F   UNL     1     -10.563   6.852  -2.292  1.00  0.00    -0.200 F 
ENDBRANCH  42  66
BRANCH  54  77
ATOM     77  C   UNL     1      -2.084  10.158  -7.072  1.00  0.00     0.064 A 
ATOM     78  C   UNL     1      -2.486  11.487  -6.877  1.00  0.00     0.173 A 
ATOM     79  C   UNL     1      -1.864   9.721  -8.386  1.00  0.00     0.173 A 
ATOM     80  F   UNL     1      -2.726  11.945  -5.639  1.00  0.00    -0.203 F 
ATOM     81  C   UNL     1      -2.676  12.342  -7.959  1.00  0.00     0.198 A 
ATOM     82  C   UNL     1      -2.030  10.585  -9.464  1.00  0.00     0.198 A 
ATOM     83  F   UNL     1      -1.475   8.459  -8.623  1.00  0.00    -0.203 F 
ATOM     84  F   UNL     1      -3.097  13.597  -7.754  1.00  0.00    -0.200 F 
ATOM     85  C   UNL     1      -2.440  11.893  -9.250  1.00  0.00     0.200 A 
ATOM     86  F   UNL     1      -1.791  10.153 -10.710  1.00  0.00    -0.200 F 
ATOM     87  F   UNL     1      -2.616  12.719 -10.291  1.00  0.00    -0.200 F 
ENDBRANCH  54  77
ENDBRANCH  28  29
ENDBRANCH  21  23
ENDBRANCH  20  21
ENDBRANCH  19  20
ENDBRANCH   1  19
TORSDOF 14
