REMARK SMILES O=C(OCCOC(=O)c1ccc(-c2c3nc(c(-c4c(F)c(F)c(F)c(F)c4F)c4ccc([nH]4)c(-c4c(F)c(F)c(F)c(F)c4F)c4nc(c(-c5c(F)c(F)c(F)c(F)c5F)c5ccc2[nH]5)C=C4)C=C3)cc1)C1=Cc2c(ccc(Cl)c2Oc2ccccc2)O[C@H]1C(F)(F)F
REMARK SMILES IDX 4 1 3 2 2 3 1 4 72 5 73 6 89 7 74 8 88 9 75 10 80 11 76 12
REMARK SMILES IDX 78 13 77 14 79 15 90 16 91 17 92 18 93 19 81 20 82 21 83 22
REMARK SMILES IDX 87 23 84 24 86 25 85 26 5 27 6 28 7 29 8 30 9 31 10 32 71 33
REMARK SMILES IDX 11 34 70 35 12 36 13 37 14 38 64 39 15 40 69 41 63 42 65 43
REMARK SMILES IDX 16 44 68 45 62 46 61 47 17 49 49 50 29 51 48 52 30 53 33 54
REMARK SMILES IDX 47 55 66 56 31 57 32 58 46 60 67 61 34 62 18 63 19 64 27 65
REMARK SMILES IDX 20 66 21 67 25 68 28 69 22 70 23 71 26 72 24 73 50 74 51 75
REMARK SMILES IDX 59 76 52 77 53 78 57 79 60 80 54 81 55 82 58 83 56 84 35 85
REMARK SMILES IDX 36 86 44 87 37 88 38 89 42 90 45 91 39 92 40 93 43 94 41 95
REMARK H PARENT 65 48 33 59
REMARK Flexibility Score: inf
ROOT
ATOM      1  C   UNL     1       2.416  -0.269  -0.118  1.00  0.00     0.275 C 
ENDROOT
BRANCH   1   2
ATOM      2  O   UNL     1       2.235   1.093   0.282  1.00  0.00    -0.459 OA
BRANCH   2   3
ATOM      3  C   UNL     1       3.235   1.733   0.909  1.00  0.00     0.338 C 
ATOM      4  O   UNL     1       3.030   2.531   1.813  1.00  0.00    -0.246 OA
BRANCH   3   5
ATOM      5  C   UNL     1       4.570   1.570   0.312  1.00  0.00     0.088 C 
ATOM      6  C   UNL     1       4.991   0.585  -0.497  1.00  0.00     0.031 C 
ATOM      7  C   UNL     1       5.659   2.359   0.935  1.00  0.00     0.316 C 
ATOM      8  C   UNL     1       5.543  -0.541   0.287  1.00  0.00     0.062 A 
ATOM      9  O   UNL     1       6.826   1.456   1.125  1.00  0.00    -0.475 OA
ATOM     10  C   UNL     1       6.585   0.062   1.081  1.00  0.00     0.131 A 
ATOM     11  C   UNL     1       5.295  -1.994   0.197  1.00  0.00     0.156 A 
ATOM     12  C   UNL     1       7.505  -0.761   1.686  1.00  0.00     0.049 A 
ATOM     13  C   UNL     1       6.270  -2.754   0.864  1.00  0.00     0.084 A 
ATOM     14  C   UNL     1       7.350  -2.151   1.563  1.00  0.00     0.028 A 
ATOM     15  Cl  UNL     1       6.309  -4.482   0.727  1.00  0.00    -0.080 Cl
BRANCH   7  16
ATOM     16  C   UNL     1       5.848   3.592   0.008  1.00  0.00     0.430 C 
ATOM     17  F   UNL     1       4.648   4.064  -0.439  1.00  0.00    -0.167 F 
ATOM     18  F   UNL     1       6.454   4.628   0.623  1.00  0.00    -0.167 F 
ATOM     19  F   UNL     1       6.565   3.288  -1.101  1.00  0.00    -0.167 F 
ENDBRANCH   7  16
BRANCH  11  20
ATOM     20  O   UNL     1       4.619  -2.740  -0.820  1.00  0.00    -0.455 OA
BRANCH  20  21
ATOM     21  C   UNL     1       3.282  -3.166  -1.044  1.00  0.00     0.127 A 
ATOM     22  C   UNL     1       2.152  -3.166  -0.211  1.00  0.00     0.047 A 
ATOM     23  C   UNL     1       3.017  -3.355  -2.439  1.00  0.00     0.047 A 
ATOM     24  C   UNL     1       0.833  -3.044  -0.779  1.00  0.00     0.004 A 
ATOM     25  C   UNL     1       1.718  -3.194  -2.998  1.00  0.00     0.004 A 
ATOM     26  C   UNL     1       0.629  -2.973  -2.163  1.00  0.00     0.000 A 
ENDBRANCH  20  21
ENDBRANCH  11  20
ENDBRANCH   3   5
ENDBRANCH   2   3
ENDBRANCH   1   2
BRANCH   1  27
ATOM     27  C   UNL     1       2.950  -0.464  -1.556  1.00  0.00     0.275 C 
BRANCH  27  28
ATOM     28  O   UNL     1       2.761   0.632  -2.350  1.00  0.00    -0.458 OA
BRANCH  28  29
ATOM     29  C   UNL     1       1.449   0.662  -2.622  1.00  0.00     0.338 C 
ATOM     30  O   UNL     1       0.522  -0.025  -2.274  1.00  0.00    -0.246 OA
BRANCH  29  31
ATOM     31  C   UNL     1       1.375   1.957  -3.167  1.00  0.00     0.060 A 
ATOM     32  C   UNL     1       0.385   2.708  -2.562  1.00  0.00     0.016 A 
ATOM     33  C   UNL     1       2.368   2.382  -4.070  1.00  0.00     0.016 A 
ATOM     34  C   UNL     1       0.289   3.970  -3.000  1.00  0.00     0.010 A 
ATOM     35  C   UNL     1       2.338   3.683  -4.423  1.00  0.00     0.010 A 
ATOM     36  C   UNL     1       1.263   4.408  -3.914  1.00  0.00    -0.014 A 
BRANCH  36  37
ATOM     37  C   UNL     1       1.028   5.706  -4.442  1.00  0.00     0.031 A 
ATOM     38  C   UNL     1       0.355   5.733  -5.752  1.00  0.00     0.074 A 
ATOM     39  C   UNL     1       1.303   6.676  -3.571  1.00  0.00     0.049 A 
ATOM     40  N   UNL     1      -0.062   6.767  -6.403  1.00  0.00    -0.248 NA
ATOM     41  C   UNL     1       0.103   4.438  -6.428  1.00  0.00     0.031 C 
ATOM     42  C   UNL     1       1.908   6.487  -2.239  1.00  0.00     0.029 A 
ATOM     43  N   UNL     1       1.047   7.992  -3.648  1.00  0.00    -0.354 N 
ATOM     44  C   UNL     1      -0.610   6.260  -7.564  1.00  0.00     0.074 A 
ATOM     45  C   UNL     1      -0.458   4.828  -7.560  1.00  0.00     0.031 C 
ATOM     46  C   UNL     1       1.946   7.668  -1.613  1.00  0.00     0.029 A 
ATOM     47  C   UNL     1       1.449   8.672  -2.536  1.00  0.00     0.049 A 
ATOM     48  H   UNL     1       0.617   8.420  -4.423  1.00  0.00     0.167 HD
ATOM     49  C   UNL     1      -1.190   6.994  -8.528  1.00  0.00     0.037 A 
ATOM     50  C   UNL     1       1.438   9.996  -2.362  1.00  0.00     0.037 A 
ATOM     51  C   UNL     1      -1.277   8.420  -8.406  1.00  0.00     0.049 A 
ATOM     52  C   UNL     1       0.855  10.777  -3.503  1.00  0.00     0.074 A 
ATOM     53  C   UNL     1      -1.803   9.335  -9.287  1.00  0.00     0.029 A 
ATOM     54  N   UNL     1      -0.803   9.133  -7.302  1.00  0.00    -0.354 N 
ATOM     55  N   UNL     1       0.327  10.330  -4.624  1.00  0.00    -0.248 NA
ATOM     56  C   UNL     1       0.866  12.228  -3.373  1.00  0.00     0.031 C 
ATOM     57  C   UNL     1      -1.588  10.606  -8.744  1.00  0.00     0.029 A 
ATOM     58  C   UNL     1      -0.989  10.485  -7.493  1.00  0.00     0.049 A 
ATOM     59  H   UNL     1      -0.395   8.728  -6.502  1.00  0.00     0.167 HD
ATOM     60  C   UNL     1      -0.067  11.443  -5.338  1.00  0.00     0.074 A 
ATOM     61  C   UNL     1       0.253  12.585  -4.492  1.00  0.00     0.031 C 
ATOM     62  C   UNL     1      -0.625  11.539  -6.572  1.00  0.00     0.037 A 
BRANCH  49  63
ATOM     63  C   UNL     1      -1.659   6.279  -9.749  1.00  0.00     0.064 A 
ATOM     64  C   UNL     1      -2.761   5.409  -9.733  1.00  0.00     0.173 A 
ATOM     65  C   UNL     1      -0.967   6.439 -10.957  1.00  0.00     0.173 A 
ATOM     66  F   UNL     1      -3.421   5.174  -8.589  1.00  0.00    -0.203 F 
ATOM     67  C   UNL     1      -3.154   4.732 -10.884  1.00  0.00     0.198 A 
ATOM     68  C   UNL     1      -1.378   5.782 -12.111  1.00  0.00     0.198 A 
ATOM     69  F   UNL     1       0.121   7.223 -11.012  1.00  0.00    -0.203 F 
ATOM     70  F   UNL     1      -4.182   3.873 -10.838  1.00  0.00    -0.200 F 
ATOM     71  C   UNL     1      -2.470   4.929 -12.075  1.00  0.00     0.200 A 
ATOM     72  F   UNL     1      -0.708   5.965 -13.258  1.00  0.00    -0.200 F 
ATOM     73  F   UNL     1      -2.856   4.286 -13.185  1.00  0.00    -0.200 F 
ENDBRANCH  49  63
BRANCH  50  74
ATOM     74  C   UNL     1       2.033  10.591  -1.149  1.00  0.00     0.064 A 
ATOM     75  C   UNL     1       1.260  11.334  -0.254  1.00  0.00     0.173 A 
ATOM     76  C   UNL     1       3.396  10.414  -0.849  1.00  0.00     0.173 A 
ATOM     77  F   UNL     1      -0.049  11.511  -0.487  1.00  0.00    -0.203 F 
ATOM     78  C   UNL     1       1.835  11.926   0.867  1.00  0.00     0.198 A 
ATOM     79  C   UNL     1       3.962  10.975   0.291  1.00  0.00     0.198 A 
ATOM     80  F   UNL     1       4.178   9.682  -1.657  1.00  0.00    -0.203 F 
ATOM     81  F   UNL     1       1.085  12.687   1.675  1.00  0.00    -0.200 F 
ATOM     82  C   UNL     1       3.184  11.747   1.138  1.00  0.00     0.200 A 
ATOM     83  F   UNL     1       5.258  10.774   0.562  1.00  0.00    -0.200 F 
ATOM     84  F   UNL     1       3.738  12.329   2.210  1.00  0.00    -0.200 F 
ENDBRANCH  50  74
BRANCH  62  85
ATOM     85  C   UNL     1      -0.916  12.928  -7.029  1.00  0.00     0.064 A 
ATOM     86  C   UNL     1       0.116  13.799  -7.402  1.00  0.00     0.173 A 
ATOM     87  C   UNL     1      -2.242  13.365  -7.141  1.00  0.00     0.173 A 
ATOM     88  F   UNL     1       1.398  13.419  -7.287  1.00  0.00    -0.203 F 
ATOM     89  C   UNL     1      -0.173  15.082  -7.844  1.00  0.00     0.198 A 
ATOM     90  C   UNL     1      -2.527  14.632  -7.627  1.00  0.00     0.198 A 
ATOM     91  F   UNL     1      -3.255  12.552  -6.804  1.00  0.00    -0.203 F 
ATOM     92  F   UNL     1       0.826  15.926  -8.136  1.00  0.00    -0.200 F 
ATOM     93  C   UNL     1      -1.493  15.492  -7.968  1.00  0.00     0.200 A 
ATOM     94  F   UNL     1      -3.801  15.019  -7.771  1.00  0.00    -0.200 F 
ATOM     95  F   UNL     1      -1.770  16.725  -8.412  1.00  0.00    -0.200 F 
ENDBRANCH  62  85
ENDBRANCH  36  37
ENDBRANCH  29  31
ENDBRANCH  28  29
ENDBRANCH  27  28
ENDBRANCH   1  27
TORSDOF 14
