REMARK SMILES COc1ccc(-c2cnc(N)c(C(=O)OCCOC(=O)c3ccc(-c4c5nc(c(-c6c(F)c(F)c(F)c(F)c6F)c6ccc([nH]6)c(-c6c(F)c(F)c(F)c(F)c6F)c6nc(c(-c7c(F)c(F)c(F)c(F)c7F)c7ccc4[nH]7)C=C6)C=C5)cc3)c2)c(C)c1
REMARK SMILES IDX 16 1 15 2 13 3 14 4 12 5 7 6 8 7 84 8 9 9 10 10 6 11 3 12
REMARK SMILES IDX 4 13 87 14 5 15 85 16 86 17 2 18 1 19 11 20 17 23 18 24
REMARK SMILES IDX 19 25 20 26 21 27 22 28 83 29 23 30 82 31 24 32 25 33 26 34
REMARK SMILES IDX 76 35 27 36 81 37 75 38 77 39 28 40 80 41 74 42 73 43 29 45
REMARK SMILES IDX 61 46 41 47 60 48 42 49 45 50 59 51 78 52 43 53 44 54 58 56
REMARK SMILES IDX 79 57 46 58 30 59 31 60 39 61 32 62 33 63 37 64 40 65 34 66
REMARK SMILES IDX 35 67 38 68 36 69 62 70 63 71 71 72 64 73 65 74 69 75 72 76
REMARK SMILES IDX 66 77 67 78 70 79 68 80 47 81 48 82 56 83 49 84 50 85 54 86
REMARK SMILES IDX 57 87 51 88 52 89 55 90 53 91
REMARK H PARENT 11 21 11 22 77 44 45 55
REMARK Flexibility Score: inf
ROOT
ATOM      1  C   UNL     1       0.232   6.550  10.143  1.00  0.00     0.275 C 
ENDROOT
BRANCH   1   2
ATOM      2  O   UNL     1       0.522   6.266   8.762  1.00  0.00    -0.458 OA
BRANCH   2   3
ATOM      3  C   UNL     1       1.836   5.974   8.566  1.00  0.00     0.342 C 
ATOM      4  O   UNL     1       2.679   5.920   9.453  1.00  0.00    -0.246 OA
BRANCH   3   5
ATOM      5  C   UNL     1       2.221   5.809   7.151  1.00  0.00     0.102 A 
ATOM      6  C   UNL     1       2.106   4.709   4.973  1.00  0.00     0.001 A 
ATOM      7  C   UNL     1       3.246   5.460   4.668  1.00  0.00     0.122 A 
ATOM      8  C   UNL     1       1.574   4.937   6.254  1.00  0.00     0.030 A 
ATOM      9  N   UNL     1       3.887   6.312   5.505  1.00  0.00    -0.238 NA
ATOM     10  C   UNL     1       3.393   6.450   6.745  1.00  0.00     0.138 A 
BRANCH   6  11
ATOM     11  C   UNL     1       1.579   3.734   3.976  1.00  0.00    -0.014 A 
ATOM     12  C   UNL     1       0.832   1.998   1.819  1.00  0.00     0.119 A 
ATOM     13  C   UNL     1       2.147   2.037   2.250  1.00  0.00     0.047 A 
ATOM     14  C   UNL     1      -0.109   2.777   2.491  1.00  0.00     0.050 A 
ATOM     15  C   UNL     1       2.506   2.885   3.312  1.00  0.00     0.013 A 
ATOM     16  C   UNL     1       0.234   3.636   3.565  1.00  0.00    -0.040 A 
ATOM     17  C   UNL     1      -0.915   4.391   4.176  1.00  0.00     0.045 C 
BRANCH  12  18
ATOM     18  O   UNL     1       0.345   1.310   0.745  1.00  0.00    -0.497 OA
ATOM     19  C   UNL     1       1.082   0.182   0.293  1.00  0.00     0.278 C 
ENDBRANCH  12  18
ENDBRANCH   6  11
BRANCH  10  20
ATOM     20  N   UNL     1       4.100   7.315   7.562  1.00  0.00    -0.383 N 
ATOM     21  H   UNL     1       4.922   7.744   7.231  1.00  0.00     0.158 HD
ATOM     22  H   UNL     1       3.781   7.502   8.475  1.00  0.00     0.158 HD
ENDBRANCH  10  20
ENDBRANCH   3   5
ENDBRANCH   2   3
ENDBRANCH   1   2
BRANCH   1  23
ATOM     23  C   UNL     1      -1.226   6.288  10.549  1.00  0.00     0.275 C 
BRANCH  23  24
ATOM     24  O   UNL     1      -2.007   5.300   9.817  1.00  0.00    -0.458 OA
BRANCH  24  25
ATOM     25  C   UNL     1      -1.543   4.238   9.118  1.00  0.00     0.338 C 
ATOM     26  O   UNL     1      -2.050   3.874   8.061  1.00  0.00    -0.246 OA
BRANCH  25  27
ATOM     27  C   UNL     1      -0.376   3.531   9.668  1.00  0.00     0.060 A 
ATOM     28  C   UNL     1       0.517   2.882   8.796  1.00  0.00     0.016 A 
ATOM     29  C   UNL     1      -0.106   3.627  11.025  1.00  0.00     0.016 A 
ATOM     30  C   UNL     1       1.745   2.437   9.263  1.00  0.00     0.010 A 
ATOM     31  C   UNL     1       1.163   3.357  11.454  1.00  0.00     0.010 A 
ATOM     32  C   UNL     1       2.053   2.698  10.594  1.00  0.00    -0.014 A 
BRANCH  32  33
ATOM     33  C   UNL     1       3.123   2.034  11.310  1.00  0.00     0.031 A 
ATOM     34  C   UNL     1       4.516   2.457  11.168  1.00  0.00     0.074 A 
ATOM     35  C   UNL     1       2.635   1.110  12.167  1.00  0.00     0.049 A 
ATOM     36  N   UNL     1       5.524   1.691  11.387  1.00  0.00    -0.248 NA
ATOM     37  C   UNL     1       4.910   3.779  10.690  1.00  0.00     0.031 C 
ATOM     38  C   UNL     1       3.230   0.370  13.259  1.00  0.00     0.029 A 
ATOM     39  N   UNL     1       1.346   0.545  12.050  1.00  0.00    -0.354 N 
ATOM     40  C   UNL     1       6.633   2.509  11.468  1.00  0.00     0.074 A 
ATOM     41  C   UNL     1       6.241   3.721  10.801  1.00  0.00     0.031 C 
ATOM     42  C   UNL     1       2.487  -0.743  13.456  1.00  0.00     0.029 A 
ATOM     43  C   UNL     1       1.485  -0.800  12.392  1.00  0.00     0.049 A 
ATOM     44  H   UNL     1       0.519   1.007  11.782  1.00  0.00     0.167 HD
ATOM     45  C   UNL     1       7.647   2.125  12.298  1.00  0.00     0.037 A 
ATOM     46  C   UNL     1       1.437  -1.690  11.354  1.00  0.00     0.037 A 
ATOM     47  C   UNL     1       7.352   0.786  12.823  1.00  0.00     0.049 A 
ATOM     48  C   UNL     1       2.793  -2.313  11.096  1.00  0.00     0.074 A 
ATOM     49  C   UNL     1       6.802   0.328  14.008  1.00  0.00     0.029 A 
ATOM     50  N   UNL     1       7.256  -0.262  11.927  1.00  0.00    -0.354 N 
ATOM     51  N   UNL     1       3.921  -1.821  11.533  1.00  0.00    -0.248 NA
ATOM     52  C   UNL     1       2.983  -3.506  10.278  1.00  0.00     0.031 C 
ATOM     53  C   UNL     1       6.287  -0.986  13.767  1.00  0.00     0.029 A 
ATOM     54  C   UNL     1       6.543  -1.324  12.448  1.00  0.00     0.049 A 
ATOM     55  H   UNL     1       7.648  -0.252  11.024  1.00  0.00     0.167 HD
ATOM     56  C   UNL     1       4.949  -2.628  11.155  1.00  0.00     0.074 A 
ATOM     57  C   UNL     1       4.320  -3.628  10.305  1.00  0.00     0.031 C 
ATOM     58  C   UNL     1       6.237  -2.446  11.573  1.00  0.00     0.037 A 
BRANCH  45  59
ATOM     59  C   UNL     1       8.756   2.994  12.869  1.00  0.00     0.064 A 
ATOM     60  C   UNL     1       9.611   2.455  13.861  1.00  0.00     0.173 A 
ATOM     61  C   UNL     1       9.002   4.351  12.574  1.00  0.00     0.173 A 
ATOM     62  F   UNL     1       9.545   1.162  14.209  1.00  0.00    -0.203 F 
ATOM     63  C   UNL     1      10.566   3.220  14.538  1.00  0.00     0.198 A 
ATOM     64  C   UNL     1       9.969   5.113  13.243  1.00  0.00     0.198 A 
ATOM     65  F   UNL     1       8.330   5.016  11.634  1.00  0.00    -0.203 F 
ATOM     66  F   UNL     1      11.311   2.653  15.498  1.00  0.00    -0.200 F 
ATOM     67  C   UNL     1      10.740   4.553  14.236  1.00  0.00     0.200 A 
ATOM     68  F   UNL     1      10.135   6.404  12.919  1.00  0.00    -0.200 F 
ATOM     69  F   UNL     1      11.648   5.290  14.889  1.00  0.00    -0.200 F 
ENDBRANCH  45  59
BRANCH  46  70
ATOM     70  C   UNL     1       0.444  -1.323  10.277  1.00  0.00     0.064 A 
ATOM     71  C   UNL     1      -0.870  -0.942  10.648  1.00  0.00     0.173 A 
ATOM     72  C   UNL     1       0.809  -1.073   8.948  1.00  0.00     0.173 A 
ATOM     73  F   UNL     1      -1.304  -1.155  11.902  1.00  0.00    -0.203 F 
ATOM     74  C   UNL     1      -1.714  -0.246   9.781  1.00  0.00     0.198 A 
ATOM     75  C   UNL     1      -0.056  -0.411   8.067  1.00  0.00     0.198 A 
ATOM     76  F   UNL     1       2.032  -1.390   8.502  1.00  0.00    -0.203 F 
ATOM     77  F   UNL     1      -2.893   0.217  10.221  1.00  0.00    -0.200 F 
ATOM     78  C   UNL     1      -1.302   0.027   8.491  1.00  0.00     0.200 A 
ATOM     79  F   UNL     1       0.358  -0.114   6.826  1.00  0.00    -0.200 F 
ATOM     80  F   UNL     1      -2.077   0.754   7.674  1.00  0.00    -0.200 F 
ENDBRANCH  46  70
BRANCH  58  81
ATOM     81  C   UNL     1       7.334  -3.375  11.162  1.00  0.00     0.064 A 
ATOM     82  C   UNL     1       7.176  -4.767  11.201  1.00  0.00     0.173 A 
ATOM     83  C   UNL     1       8.608  -2.898  10.793  1.00  0.00     0.173 A 
ATOM     84  F   UNL     1       6.033  -5.318  11.639  1.00  0.00    -0.203 F 
ATOM     85  C   UNL     1       8.193  -5.625  10.793  1.00  0.00     0.198 A 
ATOM     86  C   UNL     1       9.647  -3.760  10.463  1.00  0.00     0.198 A 
ATOM     87  F   UNL     1       8.876  -1.588  10.703  1.00  0.00    -0.203 F 
ATOM     88  F   UNL     1       7.966  -6.944  10.744  1.00  0.00    -0.200 F 
ATOM     89  C   UNL     1       9.430  -5.122  10.432  1.00  0.00     0.200 A 
ATOM     90  F   UNL     1      10.852  -3.258  10.157  1.00  0.00    -0.200 F 
ATOM     91  F   UNL     1      10.411  -5.949  10.048  1.00  0.00    -0.200 F 
ENDBRANCH  58  81
ENDBRANCH  32  33
ENDBRANCH  25  27
ENDBRANCH  24  25
ENDBRANCH  23  24
ENDBRANCH   1  23
TORSDOF 14
