REMARK SMILES Cc1ccc(OCCC[N@H+]2CCCC[C@@H]2C(=O)OCCOC(=O)c2ccc(-c3c4nc(c(-c5c(F)c(F)c(F)c(F)c5F)c5ccc([nH]5)c(-c5c(F)c(F)c(F)c(F)c5F)c5nc(c(-c6c(F)c(F)c(F)c(F)c6F)c6ccc3[nH]6)C=C5)C=C4)cc2)cc1C
REMARK SMILES IDX 18 1 16 2 17 3 15 4 10 5 11 6 12 8 14 9 13 10 9 11 8 12 7 13
REMARK SMILES IDX 6 14 5 15 1 16 2 17 3 18 88 19 4 20 87 21 89 22 19 23 20 24
REMARK SMILES IDX 21 25 22 26 23 27 24 28 25 29 86 30 26 31 85 32 27 33 28 34
REMARK SMILES IDX 29 35 79 36 30 37 84 38 78 39 80 40 31 41 83 42 77 43 76 44
REMARK SMILES IDX 32 46 64 47 44 48 63 49 45 50 48 51 62 52 81 53 46 54 47 55
REMARK SMILES IDX 61 57 82 58 49 59 33 60 34 61 42 62 35 63 36 64 40 65 43 66
REMARK SMILES IDX 37 67 38 68 41 69 39 70 65 71 66 72 74 73 67 74 68 75 72 76
REMARK SMILES IDX 75 77 69 78 70 79 73 80 71 81 50 82 51 83 59 84 52 85 53 86
REMARK SMILES IDX 57 87 60 88 54 89 55 90 58 91 56 92
REMARK H PARENT 10 7 80 45 48 56
REMARK Flexibility Score: inf
ROOT
ATOM      1  O   UNL     1      -1.357   1.439  -2.063  1.00  0.00    -0.458 OA
ENDROOT
BRANCH   1   2
ATOM      2  C   UNL     1      -1.535   1.890  -0.793  1.00  0.00     0.365 C 
ATOM      3  O   UNL     1      -0.828   1.568   0.154  1.00  0.00    -0.245 OA
BRANCH   2   4
ATOM      4  C   UNL     1      -2.696   2.872  -0.622  1.00  0.00     0.295 C 
ATOM      5  N   UNL     1      -3.995   2.204  -0.283  1.00  0.00    -0.323 N 
ATOM      6  C   UNL     1      -5.036   3.248  -0.099  1.00  0.00     0.262 C 
ATOM      7  H   UNL     1      -4.226   1.568  -1.046  1.00  0.00     0.348 HD
ATOM      8  C   UNL     1      -5.174   4.216  -1.277  1.00  0.00     0.062 C 
ATOM      9  C   UNL     1      -2.804   3.782  -1.853  1.00  0.00     0.078 C 
ATOM     10  C   UNL     1      -3.842   4.865  -1.622  1.00  0.00     0.013 C 
BRANCH   5  11
ATOM     11  C   UNL     1      -3.905   1.417   0.978  1.00  0.00     0.266 C 
BRANCH  11  12
ATOM     12  C   UNL     1      -4.450  -0.017   0.857  1.00  0.00     0.103 C 
BRANCH  12  13
ATOM     13  C   UNL     1      -3.574  -0.986   0.055  1.00  0.00     0.235 C 
BRANCH  13  14
ATOM     14  O   UNL     1      -2.953  -1.975   0.907  1.00  0.00    -0.493 OA
BRANCH  14  15
ATOM     15  C   UNL     1      -1.648  -1.665   1.176  1.00  0.00     0.119 A 
ATOM     16  C   UNL     1       2.390  -0.298   1.708  1.00  0.00     0.044 C 
ATOM     17  C   UNL     1       1.011  -0.876   1.560  1.00  0.00    -0.048 A 
ATOM     18  C   UNL     1      -0.025  -0.312   2.321  1.00  0.00     0.007 A 
ATOM     19  C   UNL     1       0.720  -1.953   0.698  1.00  0.00    -0.045 A 
ATOM     20  C   UNL     1      -1.345  -0.723   2.147  1.00  0.00     0.047 A 
ATOM     21  C   UNL     1      -0.623  -2.335   0.510  1.00  0.00     0.050 A 
ATOM     22  C   UNL     1       1.806  -2.738   0.015  1.00  0.00     0.045 C 
ENDBRANCH  14  15
ENDBRANCH  13  14
ENDBRANCH  12  13
ENDBRANCH  11  12
ENDBRANCH   5  11
ENDBRANCH   2   4
ENDBRANCH   1   2
BRANCH   1  23
ATOM     23  C   UNL     1      -0.287   0.488  -2.240  1.00  0.00     0.274 C 
BRANCH  23  24
ATOM     24  C   UNL     1       1.078   1.141  -2.502  1.00  0.00     0.275 C 
BRANCH  24  25
ATOM     25  O   UNL     1       1.622   1.771  -1.324  1.00  0.00    -0.458 OA
BRANCH  25  26
ATOM     26  C   UNL     1       1.335   3.088  -1.202  1.00  0.00     0.338 C 
ATOM     27  O   UNL     1       0.789   3.795  -2.034  1.00  0.00    -0.246 OA
BRANCH  26  28
ATOM     28  C   UNL     1       1.609   3.566   0.169  1.00  0.00     0.060 A 
ATOM     29  C   UNL     1       0.605   4.323   0.786  1.00  0.00     0.016 A 
ATOM     30  C   UNL     1       2.829   3.362   0.816  1.00  0.00     0.016 A 
ATOM     31  C   UNL     1       0.818   4.900   2.033  1.00  0.00     0.010 A 
ATOM     32  C   UNL     1       3.054   3.961   2.066  1.00  0.00     0.010 A 
ATOM     33  C   UNL     1       2.061   4.765   2.658  1.00  0.00    -0.014 A 
BRANCH  33  34
ATOM     34  C   UNL     1       2.365   5.678   3.789  1.00  0.00     0.031 A 
ATOM     35  C   UNL     1       3.088   6.964   3.485  1.00  0.00     0.074 A 
ATOM     36  C   UNL     1       1.912   5.438   5.032  1.00  0.00     0.049 A 
ATOM     37  N   UNL     1       3.381   7.963   4.279  1.00  0.00    -0.248 NA
ATOM     38  C   UNL     1       3.536   7.150   2.095  1.00  0.00     0.031 C 
ATOM     39  C   UNL     1       1.169   4.251   5.452  1.00  0.00     0.029 A 
ATOM     40  N   UNL     1       2.006   6.197   6.173  1.00  0.00    -0.354 N 
ATOM     41  C   UNL     1       4.049   8.887   3.486  1.00  0.00     0.074 A 
ATOM     42  C   UNL     1       4.148   8.322   2.160  1.00  0.00     0.031 C 
ATOM     43  C   UNL     1       0.878   4.360   6.761  1.00  0.00     0.029 A 
ATOM     44  C   UNL     1       1.420   5.619   7.272  1.00  0.00     0.049 A 
ATOM     45  H   UNL     1       2.451   7.075   6.200  1.00  0.00     0.167 HD
ATOM     46  C   UNL     1       4.524  10.108   3.827  1.00  0.00     0.037 A 
ATOM     47  C   UNL     1       1.336   6.060   8.543  1.00  0.00     0.037 A 
ATOM     48  C   UNL     1       4.411  10.689   5.136  1.00  0.00     0.049 A 
ATOM     49  C   UNL     1       1.900   7.414   8.900  1.00  0.00     0.074 A 
ATOM     50  C   UNL     1       4.841  11.931   5.568  1.00  0.00     0.029 A 
ATOM     51  N   UNL     1       3.824  10.065   6.225  1.00  0.00    -0.354 N 
ATOM     52  N   UNL     1       2.484   8.302   8.132  1.00  0.00    -0.248 NA
ATOM     53  C   UNL     1       1.776   7.835  10.305  1.00  0.00     0.031 C 
ATOM     54  C   UNL     1       4.550  12.043   6.932  1.00  0.00     0.029 A 
ATOM     55  C   UNL     1       3.897  10.890   7.335  1.00  0.00     0.049 A 
ATOM     56  H   UNL     1       3.416   9.169   6.212  1.00  0.00     0.167 HD
ATOM     57  C   UNL     1       2.764   9.391   8.948  1.00  0.00     0.074 A 
ATOM     58  C   UNL     1       2.270   9.063  10.268  1.00  0.00     0.031 C 
ATOM     59  C   UNL     1       3.380  10.558   8.637  1.00  0.00     0.037 A 
BRANCH  46  60
ATOM     60  C   UNL     1       5.231  10.892   2.764  1.00  0.00     0.064 A 
ATOM     61  C   UNL     1       4.532  11.505   1.714  1.00  0.00     0.173 A 
ATOM     62  C   UNL     1       6.623  11.059   2.817  1.00  0.00     0.173 A 
ATOM     63  F   UNL     1       3.203  11.358   1.611  1.00  0.00    -0.203 F 
ATOM     64  C   UNL     1       5.205  12.242   0.743  1.00  0.00     0.198 A 
ATOM     65  C   UNL     1       7.289  11.817   1.859  1.00  0.00     0.198 A 
ATOM     66  F   UNL     1       7.334  10.491   3.803  1.00  0.00    -0.203 F 
ATOM     67  F   UNL     1       4.524  12.785  -0.275  1.00  0.00    -0.200 F 
ATOM     68  C   UNL     1       6.581  12.403   0.821  1.00  0.00     0.200 A 
ATOM     69  F   UNL     1       8.617  11.979   1.940  1.00  0.00    -0.200 F 
ATOM     70  F   UNL     1       7.226  13.119  -0.110  1.00  0.00    -0.200 F 
ENDBRANCH  46  60
BRANCH  47  71
ATOM     71  C   UNL     1       0.702   5.219   9.594  1.00  0.00     0.064 A 
ATOM     72  C   UNL     1      -0.492   5.610  10.217  1.00  0.00     0.173 A 
ATOM     73  C   UNL     1       1.323   4.049  10.052  1.00  0.00     0.173 A 
ATOM     74  F   UNL     1      -1.109   6.738   9.835  1.00  0.00    -0.203 F 
ATOM     75  C   UNL     1      -1.018   4.885  11.285  1.00  0.00     0.198 A 
ATOM     76  C   UNL     1       0.781   3.308  11.100  1.00  0.00     0.198 A 
ATOM     77  F   UNL     1       2.470   3.634   9.494  1.00  0.00    -0.203 F 
ATOM     78  F   UNL     1      -2.120   5.321  11.911  1.00  0.00    -0.200 F 
ATOM     79  C   UNL     1      -0.381   3.734  11.725  1.00  0.00     0.200 A 
ATOM     80  F   UNL     1       1.396   2.194  11.519  1.00  0.00    -0.200 F 
ATOM     81  F   UNL     1      -0.877   3.047  12.763  1.00  0.00    -0.200 F 
ENDBRANCH  47  71
BRANCH  59  82
ATOM     82  C   UNL     1       3.514  11.585   9.725  1.00  0.00     0.064 A 
ATOM     83  C   UNL     1       4.399  11.411  10.798  1.00  0.00     0.173 A 
ATOM     84  C   UNL     1       2.772  12.775   9.671  1.00  0.00     0.173 A 
ATOM     85  F   UNL     1       5.122  10.285  10.901  1.00  0.00    -0.203 F 
ATOM     86  C   UNL     1       4.515  12.377  11.794  1.00  0.00     0.198 A 
ATOM     87  C   UNL     1       2.914  13.753  10.652  1.00  0.00     0.198 A 
ATOM     88  F   UNL     1       1.919  12.996   8.660  1.00  0.00    -0.203 F 
ATOM     89  F   UNL     1       5.330  12.167  12.837  1.00  0.00    -0.200 F 
ATOM     90  C   UNL     1       3.778  13.549  11.717  1.00  0.00     0.200 A 
ATOM     91  F   UNL     1       2.212  14.892  10.568  1.00  0.00    -0.200 F 
ATOM     92  F   UNL     1       3.894  14.480  12.674  1.00  0.00    -0.200 F 
ENDBRANCH  59  82
ENDBRANCH  33  34
ENDBRANCH  26  28
ENDBRANCH  25  26
ENDBRANCH  24  25
ENDBRANCH  23  24
ENDBRANCH   1  23
TORSDOF 16
