REMARK SMILES Cn1ccnc1NCCOCC(=O)OCCOC(=O)c1ccc(-c2c3nc(c(-c4c(F)c(F)c(F)c(F)c4F)c4ccc([nH]4)c(-c4c(F)c(F)c(F)c(F)c4F)c4nc(c(-c5c(F)c(F)c(F)c(F)c5F)c5ccc2[nH]5)C=C4)C=C3)cc1
REMARK SMILES IDX 14 1 12 2 13 3 11 4 10 5 9 6 8 7 7 8 6 10 1 11 2 12 3 13
REMARK SMILES IDX 4 14 5 15 15 16 16 17 17 18 18 19 19 20 20 21 21 22 82 23
REMARK SMILES IDX 22 24 81 25 23 26 24 27 25 28 75 29 26 30 80 31 74 32 76 33
REMARK SMILES IDX 27 34 79 35 73 36 72 37 28 39 60 40 40 41 59 42 41 43 44 44
REMARK SMILES IDX 58 45 77 46 42 47 43 48 57 50 78 51 45 52 29 53 30 54 38 55
REMARK SMILES IDX 31 56 32 57 36 58 39 59 33 60 34 61 37 62 35 63 61 64 62 65
REMARK SMILES IDX 70 66 63 67 64 68 68 69 71 70 65 71 66 72 69 73 67 74 46 75
REMARK SMILES IDX 47 76 55 77 48 78 49 79 53 80 56 81 50 82 51 83 54 84 52 85
REMARK H PARENT 7 9 76 38 44 49
REMARK Flexibility Score: inf
ROOT
ATOM      1  O   UNL     1       1.677   4.431   3.984  1.00  0.00    -0.460 OA
ENDROOT
BRANCH   1   2
ATOM      2  C   UNL     1       2.221   4.047   2.795  1.00  0.00     0.332 C 
ATOM      3  O   UNL     1       3.109   3.196   2.713  1.00  0.00    -0.250 OA
BRANCH   2   4
ATOM      4  C   UNL     1       1.673   4.761   1.497  1.00  0.00     0.282 C 
BRANCH   4   5
ATOM      5  O   UNL     1       0.490   5.250   0.913  1.00  0.00    -0.368 OA
BRANCH   5   6
ATOM      6  C   UNL     1      -0.800   4.655   1.059  1.00  0.00     0.182 C 
BRANCH   6   7
ATOM      7  C   UNL     1      -1.336   3.512   0.107  1.00  0.00     0.144 C 
BRANCH   7   8
ATOM      8  N   UNL     1      -0.459   2.367  -0.071  1.00  0.00    -0.353 N 
ATOM      9  H   UNL     1       0.469   2.579  -0.322  1.00  0.00     0.163 HD
BRANCH   8  10
ATOM     10  C   UNL     1      -0.760   0.963   0.069  1.00  0.00     0.202 A 
ATOM     11  C   UNL     1       1.618  -1.092   1.290  1.00  0.00     0.153 C 
ATOM     12  N   UNL     1       0.302  -0.659   0.663  1.00  0.00    -0.321 N 
ATOM     13  C   UNL     1      -0.612  -2.185   0.079  1.00  0.00     0.109 A 
ATOM     14  C   UNL     1      -2.033  -1.655  -0.747  1.00  0.00     0.133 A 
ATOM     15  N   UNL     1      -2.109   0.252  -0.752  1.00  0.00    -0.222 NA
ENDBRANCH   8  10
ENDBRANCH   7   8
ENDBRANCH   6   7
ENDBRANCH   5   6
ENDBRANCH   4   5
ENDBRANCH   2   4
ENDBRANCH   1   2
BRANCH   1  16
ATOM     16  C   UNL     1       2.025   3.602   5.144  1.00  0.00     0.274 C 
BRANCH  16  17
ATOM     17  C   UNL     1       1.028   2.453   5.355  1.00  0.00     0.275 C 
BRANCH  17  18
ATOM     18  O   UNL     1       1.122   1.557   4.237  1.00  0.00    -0.458 OA
BRANCH  18  19
ATOM     19  C   UNL     1       0.381   2.021   3.217  1.00  0.00     0.338 C 
ATOM     20  O   UNL     1      -0.435   2.924   3.281  1.00  0.00    -0.246 OA
BRANCH  19  21
ATOM     21  C   UNL     1       0.423   1.158   2.064  1.00  0.00     0.060 A 
ATOM     22  C   UNL     1       1.480   1.287   0.653  1.00  0.00     0.016 A 
ATOM     23  C   UNL     1      -0.971   0.275   2.180  1.00  0.00     0.016 A 
ATOM     24  C   UNL     1       1.138   0.517  -0.889  1.00  0.00     0.010 A 
ATOM     25  C   UNL     1      -1.466  -0.540   0.787  1.00  0.00     0.010 A 
ATOM     26  C   UNL     1      -0.358  -0.464  -0.990  1.00  0.00    -0.014 A 
BRANCH  26  27
ATOM     27  C   UNL     1      -0.399  -1.158  -2.511  1.00  0.00     0.031 A 
ATOM     28  C   UNL     1      -1.631  -1.110  -3.416  1.00  0.00     0.074 A 
ATOM     29  C   UNL     1       0.555  -2.071  -2.823  1.00  0.00     0.049 A 
ATOM     30  N   UNL     1      -2.117  -2.055  -4.195  1.00  0.00    -0.248 NA
ATOM     31  C   UNL     1      -2.479   0.084  -3.351  1.00  0.00     0.031 C 
ATOM     32  C   UNL     1       1.814  -2.259  -2.115  1.00  0.00     0.029 A 
ATOM     33  N   UNL     1       0.567  -3.093  -3.755  1.00  0.00    -0.354 N 
ATOM     34  C   UNL     1      -3.380  -1.612  -4.588  1.00  0.00     0.074 A 
ATOM     35  C   UNL     1      -3.602  -0.358  -3.904  1.00  0.00     0.031 C 
ATOM     36  C   UNL     1       2.438  -3.355  -2.559  1.00  0.00     0.029 A 
ATOM     37  C   UNL     1       1.613  -3.978  -3.580  1.00  0.00     0.049 A 
ATOM     38  H   UNL     1      -0.103  -3.182  -4.470  1.00  0.00     0.167 HD
ATOM     39  C   UNL     1      -4.261  -2.178  -5.455  1.00  0.00     0.037 A 
ATOM     40  C   UNL     1       1.888  -5.176  -4.130  1.00  0.00     0.037 A 
ATOM     41  C   UNL     1      -3.965  -3.347  -6.250  1.00  0.00     0.049 A 
ATOM     42  C   UNL     1       0.954  -5.748  -5.150  1.00  0.00     0.074 A 
ATOM     43  C   UNL     1      -4.707  -3.901  -7.280  1.00  0.00     0.029 A 
ATOM     44  N   UNL     1      -2.818  -4.118  -6.127  1.00  0.00    -0.354 N 
ATOM     45  N   UNL     1      -0.222  -5.309  -5.520  1.00  0.00    -0.248 NA
ATOM     46  C   UNL     1       1.390  -6.966  -5.846  1.00  0.00     0.031 C 
ATOM     47  C   UNL     1      -4.031  -5.029  -7.753  1.00  0.00     0.029 A 
ATOM     48  C   UNL     1      -2.835  -5.140  -7.064  1.00  0.00     0.049 A 
ATOM     49  H   UNL     1      -2.100  -3.963  -5.473  1.00  0.00     0.167 HD
ATOM     50  C   UNL     1      -0.641  -6.159  -6.532  1.00  0.00     0.074 A 
ATOM     51  C   UNL     1       0.400  -7.149  -6.709  1.00  0.00     0.031 C 
ATOM     52  C   UNL     1      -1.783  -6.106  -7.256  1.00  0.00     0.037 A 
BRANCH  39  53
ATOM     53  C   UNL     1      -5.611  -1.525  -5.647  1.00  0.00     0.064 A 
ATOM     54  C   UNL     1      -5.747  -0.225  -6.160  1.00  0.00     0.173 A 
ATOM     55  C   UNL     1      -6.797  -2.232  -5.374  1.00  0.00     0.173 A 
ATOM     56  F   UNL     1      -4.660   0.496  -6.473  1.00  0.00    -0.203 F 
ATOM     57  C   UNL     1      -7.000   0.363  -6.326  1.00  0.00     0.198 A 
ATOM     58  C   UNL     1      -8.050  -1.661  -5.593  1.00  0.00     0.198 A 
ATOM     59  F   UNL     1      -6.746  -3.493  -4.917  1.00  0.00    -0.203 F 
ATOM     60  F   UNL     1      -7.090   1.632  -6.748  1.00  0.00    -0.200 F 
ATOM     61  C   UNL     1      -8.150  -0.357  -6.051  1.00  0.00     0.200 A 
ATOM     62  F   UNL     1      -9.162  -2.375  -5.364  1.00  0.00    -0.200 F 
ATOM     63  F   UNL     1      -9.354   0.203  -6.231  1.00  0.00    -0.200 F 
ENDBRANCH  39  53
BRANCH  40  64
ATOM     64  C   UNL     1       3.146  -5.886  -3.761  1.00  0.00     0.064 A 
ATOM     65  C   UNL     1       4.218  -5.939  -4.663  1.00  0.00     0.173 A 
ATOM     66  C   UNL     1       3.326  -6.476  -2.501  1.00  0.00     0.173 A 
ATOM     67  F   UNL     1       4.091  -5.397  -5.883  1.00  0.00    -0.203 F 
ATOM     68  C   UNL     1       5.413  -6.572  -4.330  1.00  0.00     0.198 A 
ATOM     69  C   UNL     1       4.535  -7.082  -2.157  1.00  0.00     0.198 A 
ATOM     70  F   UNL     1       2.343  -6.432  -1.590  1.00  0.00    -0.203 F 
ATOM     71  F   UNL     1       6.405  -6.639  -5.227  1.00  0.00    -0.200 F 
ATOM     72  C   UNL     1       5.574  -7.136  -3.074  1.00  0.00     0.200 A 
ATOM     73  F   UNL     1       4.698  -7.601  -0.932  1.00  0.00    -0.200 F 
ATOM     74  F   UNL     1       6.730  -7.729  -2.747  1.00  0.00    -0.200 F 
ENDBRANCH  40  64
BRANCH  52  75
ATOM     75  C   UNL     1      -1.937  -7.088  -8.378  1.00  0.00     0.064 A 
ATOM     76  C   UNL     1      -2.183  -8.448  -8.150  1.00  0.00     0.173 A 
ATOM     77  C   UNL     1      -1.892  -6.639  -9.708  1.00  0.00     0.173 A 
ATOM     78  F   UNL     1      -2.212  -8.930  -6.898  1.00  0.00    -0.203 F 
ATOM     79  C   UNL     1      -2.368  -9.327  -9.214  1.00  0.00     0.198 A 
ATOM     80  C   UNL     1      -2.111  -7.514 -10.767  1.00  0.00     0.198 A 
ATOM     81  F   UNL     1      -1.656  -5.347  -9.978  1.00  0.00    -0.203 F 
ATOM     82  F   UNL     1      -2.560 -10.632  -8.976  1.00  0.00    -0.200 F 
ATOM     83  C   UNL     1      -2.344  -8.858 -10.519  1.00  0.00     0.200 A 
ATOM     84  F   UNL     1      -2.102  -7.054 -12.025  1.00  0.00    -0.200 F 
ATOM     85  F   UNL     1      -2.541  -9.702 -11.540  1.00  0.00    -0.200 F 
ENDBRANCH  52  75
ENDBRANCH  26  27
ENDBRANCH  19  21
ENDBRANCH  18  19
ENDBRANCH  17  18
ENDBRANCH  16  17
ENDBRANCH   1  16
TORSDOF 16
