REMARK SMILES COc1cc2ccccc2cc1C(=O)Nc1cc(C(=O)OCCOC(=O)c2ccc(-c3c4nc(c(-c5c(F)c(F)c(F)c(F)c5F)c5ccc([nH]5)c(-c5c(F)c(F)c(F)c(F)c5F)c5nc(c(-c6c(F)c(F)c(F)c(F)c6F)c6ccc3[nH]6)C=C5)C=C4)cc2)ccc1C
REMARK SMILES IDX 22 1 21 2 19 3 20 4 18 5 16 6 17 7 92 8 91 9 93 10 90 11
REMARK SMILES IDX 15 12 13 13 14 14 12 16 3 17 4 18 5 19 11 20 6 21 10 22 7 23
REMARK SMILES IDX 9 24 8 25 2 26 1 27 23 28 24 29 25 30 26 31 27 32 28 33
REMARK SMILES IDX 89 34 29 35 88 36 30 37 31 38 32 39 82 40 33 41 87 42 81 43
REMARK SMILES IDX 83 44 34 45 86 46 80 47 79 48 35 50 67 51 47 52 66 53 48 54
REMARK SMILES IDX 51 55 65 56 84 57 49 58 50 59 64 61 85 62 52 63 36 64 37 65
REMARK SMILES IDX 45 66 38 67 39 68 43 69 46 70 40 71 41 72 44 73 42 74 68 75
REMARK SMILES IDX 69 76 77 77 70 78 71 79 75 80 78 81 72 82 73 83 76 84 74 85
REMARK SMILES IDX 53 86 54 87 62 88 55 89 56 90 60 91 63 92 57 93 58 94 61 95
REMARK SMILES IDX 59 96
REMARK H PARENT 15 15 83 49 51 60
REMARK Flexibility Score: inf
ROOT
ATOM      1  C   UNL     1      -0.094   6.123  -2.172  1.00  0.00     0.275 C 
ENDROOT
BRANCH   1   2
ATOM      2  O   UNL     1       0.400   4.847  -2.612  1.00  0.00    -0.458 OA
BRANCH   2   3
ATOM      3  C   UNL     1       0.672   4.028  -1.574  1.00  0.00     0.338 C 
ATOM      4  O   UNL     1       0.453   4.293  -0.393  1.00  0.00    -0.246 OA
BRANCH   3   5
ATOM      5  C   UNL     1       1.339   2.774  -1.936  1.00  0.00     0.062 A 
ATOM      6  C   UNL     1       2.909   1.135  -1.077  1.00  0.00     0.045 A 
ATOM      7  C   UNL     1       2.452   2.449  -1.155  1.00  0.00     0.042 A 
ATOM      8  C   UNL     1       2.364   0.166  -1.944  1.00  0.00    -0.027 A 
ATOM      9  C   UNL     1       1.286   0.529  -2.785  1.00  0.00     0.006 A 
ATOM     10  C   UNL     1       2.727  -1.295  -1.867  1.00  0.00     0.046 C 
ATOM     11  C   UNL     1       0.753   1.824  -2.767  1.00  0.00     0.016 A 
BRANCH   6  12
ATOM     12  N   UNL     1       3.828   0.761  -0.073  1.00  0.00    -0.322 N 
ATOM     13  C   UNL     1       4.000   1.238   1.219  1.00  0.00     0.259 C 
ATOM     14  O   UNL     1       4.998   0.882   1.849  1.00  0.00    -0.269 OA
ATOM     15  H   UNL     1       4.449   0.043  -0.333  1.00  0.00     0.170 HD
BRANCH  13  16
ATOM     16  C   UNL     1       3.000   2.100   1.916  1.00  0.00     0.082 A 
ATOM     17  C   UNL     1       1.622   2.007   1.728  1.00  0.00     0.132 A 
ATOM     18  C   UNL     1       0.816   3.062   2.148  1.00  0.00     0.056 A 
ATOM     19  C   UNL     1       1.299   4.093   2.959  1.00  0.00    -0.015 A 
ATOM     20  C   UNL     1       3.491   3.085   2.800  1.00  0.00     0.026 A 
ATOM     21  C   UNL     1       0.456   5.127   3.396  1.00  0.00     0.009 A 
ATOM     22  C   UNL     1       2.639   4.058   3.371  1.00  0.00    -0.017 A 
ATOM     23  C   UNL     1       0.885   6.048   4.345  1.00  0.00     0.001 A 
ATOM     24  C   UNL     1       3.067   5.010   4.318  1.00  0.00     0.009 A 
ATOM     25  C   UNL     1       2.188   5.977   4.821  1.00  0.00     0.001 A 
BRANCH  17  26
ATOM     26  O   UNL     1       0.961   1.017   1.049  1.00  0.00    -0.496 OA
ATOM     27  C   UNL     1       1.107  -0.265   1.653  1.00  0.00     0.278 C 
ENDBRANCH  17  26
ENDBRANCH  13  16
ENDBRANCH   6  12
ENDBRANCH   3   5
ENDBRANCH   2   3
ENDBRANCH   1   2
BRANCH   1  28
ATOM     28  C   UNL     1      -1.230   6.650  -3.044  1.00  0.00     0.275 C 
BRANCH  28  29
ATOM     29  O   UNL     1      -2.391   5.818  -3.309  1.00  0.00    -0.458 OA
BRANCH  29  30
ATOM     30  C   UNL     1      -2.427   4.495  -3.031  1.00  0.00     0.338 C 
ATOM     31  O   UNL     1      -2.438   3.626  -3.896  1.00  0.00    -0.246 OA
BRANCH  30  32
ATOM     32  C   UNL     1      -2.638   4.177  -1.596  1.00  0.00     0.060 A 
ATOM     33  C   UNL     1      -2.596   2.838  -1.161  1.00  0.00     0.016 A 
ATOM     34  C   UNL     1      -2.834   5.199  -0.669  1.00  0.00     0.016 A 
ATOM     35  C   UNL     1      -2.731   2.525   0.198  1.00  0.00     0.010 A 
ATOM     36  C   UNL     1      -2.882   4.896   0.676  1.00  0.00     0.010 A 
ATOM     37  C   UNL     1      -2.883   3.561   1.118  1.00  0.00    -0.014 A 
BRANCH  37  38
ATOM     38  C   UNL     1      -3.296   3.416   2.518  1.00  0.00     0.031 A 
ATOM     39  C   UNL     1      -2.388   3.080   3.630  1.00  0.00     0.074 A 
ATOM     40  C   UNL     1      -4.561   3.814   2.742  1.00  0.00     0.049 A 
ATOM     41  N   UNL     1      -2.125   3.840   4.648  1.00  0.00    -0.248 NA
ATOM     42  C   UNL     1      -1.707   1.782   3.647  1.00  0.00     0.031 C 
ATOM     43  C   UNL     1      -5.216   4.159   3.986  1.00  0.00     0.029 A 
ATOM     44  N   UNL     1      -5.599   3.726   1.799  1.00  0.00    -0.354 N 
ATOM     45  C   UNL     1      -1.259   3.135   5.477  1.00  0.00     0.074 A 
ATOM     46  C   UNL     1      -0.996   1.878   4.774  1.00  0.00     0.031 C 
ATOM     47  C   UNL     1      -6.537   3.949   3.830  1.00  0.00     0.029 A 
ATOM     48  C   UNL     1      -6.708   3.288   2.538  1.00  0.00     0.049 A 
ATOM     49  H   UNL     1      -5.557   3.927   0.836  1.00  0.00     0.167 HD
ATOM     50  C   UNL     1      -1.490   3.062   6.817  1.00  0.00     0.037 A 
ATOM     51  C   UNL     1      -7.135   1.998   2.381  1.00  0.00     0.037 A 
ATOM     52  C   UNL     1      -2.891   2.946   7.119  1.00  0.00     0.049 A 
ATOM     53  C   UNL     1      -7.058   1.224   3.670  1.00  0.00     0.074 A 
ATOM     54  C   UNL     1      -3.893   3.849   7.415  1.00  0.00     0.029 A 
ATOM     55  N   UNL     1      -3.500   1.730   6.872  1.00  0.00    -0.354 N 
ATOM     56  N   UNL     1      -6.116   1.377   4.560  1.00  0.00    -0.248 NA
ATOM     57  C   UNL     1      -8.072   0.255   4.066  1.00  0.00     0.031 C 
ATOM     58  C   UNL     1      -5.131   3.170   7.294  1.00  0.00     0.029 A 
ATOM     59  C   UNL     1      -4.865   1.853   6.958  1.00  0.00     0.049 A 
ATOM     60  H   UNL     1      -3.023   0.894   6.663  1.00  0.00     0.167 HD
ATOM     61  C   UNL     1      -6.437   0.632   5.666  1.00  0.00     0.074 A 
ATOM     62  C   UNL     1      -7.645  -0.081   5.295  1.00  0.00     0.031 C 
ATOM     63  C   UNL     1      -5.713   0.688   6.819  1.00  0.00     0.037 A 
BRANCH  50  64
ATOM     64  C   UNL     1      -0.415   3.634   7.696  1.00  0.00     0.064 A 
ATOM     65  C   UNL     1      -0.705   4.387   8.850  1.00  0.00     0.173 A 
ATOM     66  C   UNL     1       0.954   3.463   7.402  1.00  0.00     0.173 A 
ATOM     67  F   UNL     1      -1.965   4.575   9.263  1.00  0.00    -0.203 F 
ATOM     68  C   UNL     1       0.301   4.983   9.615  1.00  0.00     0.198 A 
ATOM     69  C   UNL     1       1.958   4.066   8.165  1.00  0.00     0.198 A 
ATOM     70  F   UNL     1       1.342   2.686   6.379  1.00  0.00    -0.203 F 
ATOM     71  F   UNL     1      -0.025   5.708  10.695  1.00  0.00    -0.200 F 
ATOM     72  C   UNL     1       1.630   4.835   9.265  1.00  0.00     0.200 A 
ATOM     73  F   UNL     1       3.246   3.896   7.833  1.00  0.00    -0.200 F 
ATOM     74  F   UNL     1       2.591   5.421   9.994  1.00  0.00    -0.200 F 
ENDBRANCH  50  64
BRANCH  51  75
ATOM     75  C   UNL     1      -6.864   1.413   1.032  1.00  0.00     0.064 A 
ATOM     76  C   UNL     1      -7.367   2.068  -0.113  1.00  0.00     0.173 A 
ATOM     77  C   UNL     1      -5.910   0.409   0.820  1.00  0.00     0.173 A 
ATOM     78  F   UNL     1      -8.282   3.042   0.021  1.00  0.00    -0.203 F 
ATOM     79  C   UNL     1      -6.878   1.794  -1.390  1.00  0.00     0.198 A 
ATOM     80  C   UNL     1      -5.434   0.124  -0.465  1.00  0.00     0.198 A 
ATOM     81  F   UNL     1      -5.375  -0.253   1.856  1.00  0.00    -0.203 F 
ATOM     82  F   UNL     1      -7.321   2.498  -2.442  1.00  0.00    -0.200 F 
ATOM     83  C   UNL     1      -5.899   0.832  -1.563  1.00  0.00     0.200 A 
ATOM     84  F   UNL     1      -4.474  -0.798  -0.631  1.00  0.00    -0.200 F 
ATOM     85  F   UNL     1      -5.388   0.601  -2.781  1.00  0.00    -0.200 F 
ENDBRANCH  51  75
BRANCH  63  86
ATOM     86  C   UNL     1      -5.778  -0.284   7.971  1.00  0.00     0.064 A 
ATOM     87  C   UNL     1      -6.162  -1.626   7.826  1.00  0.00     0.173 A 
ATOM     88  C   UNL     1      -5.254   0.067   9.242  1.00  0.00     0.173 A 
ATOM     89  F   UNL     1      -6.560  -2.113   6.644  1.00  0.00    -0.203 F 
ATOM     90  C   UNL     1      -6.079  -2.535   8.883  1.00  0.00     0.198 A 
ATOM     91  C   UNL     1      -5.116  -0.858  10.274  1.00  0.00     0.198 A 
ATOM     92  F   UNL     1      -4.819   1.307   9.508  1.00  0.00    -0.203 F 
ATOM     93  F   UNL     1      -6.487  -3.798   8.701  1.00  0.00    -0.200 F 
ATOM     94  C   UNL     1      -5.541  -2.156  10.100  1.00  0.00     0.200 A 
ATOM     95  F   UNL     1      -4.537  -0.487  11.425  1.00  0.00    -0.200 F 
ATOM     96  F   UNL     1      -5.407  -3.049  11.089  1.00  0.00    -0.200 F 
ENDBRANCH  63  86
ENDBRANCH  37  38
ENDBRANCH  30  32
ENDBRANCH  29  30
ENDBRANCH  28  29
ENDBRANCH   1  28
TORSDOF 14
