REMARK SMILES O=C(OCCOC(=O)[C@H]1[C@@H]2C[C@H]3C[C@@H](C2)C[C@]1(n1ncc(N2CCN(c4ccc(F)cc4)CC2)c(Cl)c1=O)C3)c1ccc(-c2c3nc(c(-c4c(F)c(F)c(F)c(F)c4F)c4ccc([nH]4)c(-c4c(F)c(F)c(F)c(F)c4F)c4nc(c(-c5c(F)c(F)c(F)c(F)c5F)c5ccc2[nH]5)C=C4)C=C3)cc1
REMARK SMILES IDX 5 1 4 2 3 3 2 4 1 5 40 6 41 7 102 8 42 9 101 10 43 11 44 12
REMARK SMILES IDX 45 13 95 14 46 15 100 16 94 17 96 18 47 19 99 20 93 21 92 22
REMARK SMILES IDX 48 24 80 25 60 26 79 27 61 28 64 29 78 30 97 31 62 32 63 33
REMARK SMILES IDX 77 35 98 36 65 37 49 38 50 39 58 40 51 41 52 42 56 43 59 44
REMARK SMILES IDX 53 45 54 46 57 47 55 48 81 49 82 50 90 51 83 52 84 53 88 54
REMARK SMILES IDX 91 55 85 56 86 57 89 58 87 59 66 60 67 61 75 62 68 63 69 64
REMARK SMILES IDX 73 65 76 66 70 67 71 68 74 69 72 70 6 71 7 72 8 73 9 74
REMARK SMILES IDX 10 75 17 76 15 77 11 78 39 79 16 80 14 81 12 82 13 83 18 84
REMARK SMILES IDX 19 85 37 86 20 87 35 88 38 89 21 90 36 91 22 92 23 93 34 94
REMARK SMILES IDX 24 95 33 96 25 97 26 98 27 99 32 100 28 101 31 102 29 103
REMARK SMILES IDX 30 104
REMARK H PARENT 96 23 64 34
REMARK Flexibility Score: inf
ROOT
ATOM      1  C   UNL     1      -1.520  -2.406  -0.444  1.00  0.00     0.274 C 
ENDROOT
BRANCH   1   2
ATOM      2  C   UNL     1      -1.831  -2.561  -1.929  1.00  0.00     0.275 C 
BRANCH   2   3
ATOM      3  O   UNL     1      -1.085  -3.620  -2.550  1.00  0.00    -0.458 OA
BRANCH   3   4
ATOM      4  C   UNL     1      -0.017  -3.440  -3.363  1.00  0.00     0.338 C 
ATOM      5  O   UNL     1       0.182  -4.200  -4.308  1.00  0.00    -0.246 OA
BRANCH   4   6
ATOM      6  C   UNL     1       1.076  -2.500  -2.983  1.00  0.00     0.060 A 
ATOM      7  C   UNL     1       2.378  -3.025  -2.998  1.00  0.00     0.016 A 
ATOM      8  C   UNL     1       0.912  -1.137  -2.730  1.00  0.00     0.016 A 
ATOM      9  C   UNL     1       3.490  -2.224  -2.722  1.00  0.00     0.010 A 
ATOM     10  C   UNL     1       2.022  -0.326  -2.462  1.00  0.00     0.010 A 
ATOM     11  C   UNL     1       3.318  -0.859  -2.473  1.00  0.00    -0.014 A 
BRANCH  11  12
ATOM     12  C   UNL     1       4.476   0.065  -2.444  1.00  0.00     0.031 A 
ATOM     13  C   UNL     1       4.991   0.665  -1.173  1.00  0.00     0.074 A 
ATOM     14  C   UNL     1       5.006   0.427  -3.625  1.00  0.00     0.049 A 
ATOM     15  N   UNL     1       6.009   1.465  -0.984  1.00  0.00    -0.248 NA
ATOM     16  C   UNL     1       4.280   0.305   0.055  1.00  0.00     0.031 C 
ATOM     17  C   UNL     1       4.572  -0.075  -4.930  1.00  0.00     0.029 A 
ATOM     18  N   UNL     1       5.988   1.334  -3.921  1.00  0.00    -0.354 N 
ATOM     19  C   UNL     1       6.115   1.625   0.391  1.00  0.00     0.074 A 
ATOM     20  C   UNL     1       5.027   0.884   0.989  1.00  0.00     0.031 C 
ATOM     21  C   UNL     1       5.255   0.563  -5.891  1.00  0.00     0.029 A 
ATOM     22  C   UNL     1       6.151   1.532  -5.268  1.00  0.00     0.049 A 
ATOM     23  H   UNL     1       6.523   1.797  -3.237  1.00  0.00     0.167 HD
ATOM     24  C   UNL     1       7.040   2.332   1.083  1.00  0.00     0.037 A 
ATOM     25  C   UNL     1       6.913   2.422  -5.926  1.00  0.00     0.037 A 
ATOM     26  C   UNL     1       8.011   3.199   0.468  1.00  0.00     0.049 A 
ATOM     27  C   UNL     1       7.802   3.339  -5.139  1.00  0.00     0.074 A 
ATOM     28  C   UNL     1       8.950   4.016   1.073  1.00  0.00     0.029 A 
ATOM     29  N   UNL     1       8.127   3.400  -0.900  1.00  0.00    -0.354 N 
ATOM     30  N   UNL     1       7.964   3.416  -3.840  1.00  0.00    -0.248 NA
ATOM     31  C   UNL     1       8.624   4.282  -5.906  1.00  0.00     0.031 C 
ATOM     32  C   UNL     1       9.588   4.760   0.074  1.00  0.00     0.029 A 
ATOM     33  C   UNL     1       9.091   4.360  -1.156  1.00  0.00     0.049 A 
ATOM     34  H   UNL     1       7.602   2.929  -1.587  1.00  0.00     0.167 HD
ATOM     35  C   UNL     1       8.933   4.385  -3.634  1.00  0.00     0.074 A 
ATOM     36  C   UNL     1       9.320   4.871  -4.944  1.00  0.00     0.031 C 
ATOM     37  C   UNL     1       9.463   4.825  -2.467  1.00  0.00     0.037 A 
BRANCH  24  38
ATOM     38  C   UNL     1       7.053   2.218   2.578  1.00  0.00     0.064 A 
ATOM     39  C   UNL     1       7.613   1.094   3.205  1.00  0.00     0.173 A 
ATOM     40  C   UNL     1       6.630   3.280   3.390  1.00  0.00     0.173 A 
ATOM     41  F   UNL     1       8.027   0.050   2.472  1.00  0.00    -0.203 F 
ATOM     42  C   UNL     1       7.763   1.045   4.589  1.00  0.00     0.198 A 
ATOM     43  C   UNL     1       6.795   3.233   4.774  1.00  0.00     0.198 A 
ATOM     44  F   UNL     1       6.091   4.378   2.840  1.00  0.00    -0.203 F 
ATOM     45  F   UNL     1       8.307  -0.036   5.166  1.00  0.00    -0.200 F 
ATOM     46  C   UNL     1       7.365   2.119   5.371  1.00  0.00     0.200 A 
ATOM     47  F   UNL     1       6.418   4.276   5.527  1.00  0.00    -0.200 F 
ATOM     48  F   UNL     1       7.536   2.083   6.700  1.00  0.00    -0.200 F 
ENDBRANCH  24  38
BRANCH  25  49
ATOM     49  C   UNL     1       6.862   2.462  -7.407  1.00  0.00     0.064 A 
ATOM     50  C   UNL     1       7.937   1.997  -8.174  1.00  0.00     0.173 A 
ATOM     51  C   UNL     1       5.718   2.912  -8.083  1.00  0.00     0.173 A 
ATOM     52  F   UNL     1       9.055   1.571  -7.570  1.00  0.00    -0.203 F 
ATOM     53  C   UNL     1       7.871   1.984  -9.565  1.00  0.00     0.198 A 
ATOM     54  C   UNL     1       5.644   2.874  -9.473  1.00  0.00     0.198 A 
ATOM     55  F   UNL     1       4.660   3.358  -7.390  1.00  0.00    -0.203 F 
ATOM     56  F   UNL     1       8.922   1.555 -10.278  1.00  0.00    -0.200 F 
ATOM     57  C   UNL     1       6.722   2.413 -10.213  1.00  0.00     0.200 A 
ATOM     58  F   UNL     1       4.525   3.273 -10.093  1.00  0.00    -0.200 F 
ATOM     59  F   UNL     1       6.654   2.383 -11.550  1.00  0.00    -0.200 F 
ENDBRANCH  25  49
BRANCH  37  60
ATOM     60  C   UNL     1      10.548   5.854  -2.555  1.00  0.00     0.064 A 
ATOM     61  C   UNL     1      10.273   7.187  -2.889  1.00  0.00     0.173 A 
ATOM     62  C   UNL     1      11.875   5.507  -2.261  1.00  0.00     0.173 A 
ATOM     63  F   UNL     1       9.020   7.563  -3.191  1.00  0.00    -0.203 F 
ATOM     64  C   UNL     1      11.293   8.132  -2.952  1.00  0.00     0.198 A 
ATOM     65  C   UNL     1      12.888   6.459  -2.297  1.00  0.00     0.198 A 
ATOM     66  F   UNL     1      12.186   4.245  -1.927  1.00  0.00    -0.203 F 
ATOM     67  F   UNL     1      11.016   9.390  -3.318  1.00  0.00    -0.200 F 
ATOM     68  C   UNL     1      12.598   7.769  -2.650  1.00  0.00     0.200 A 
ATOM     69  F   UNL     1      14.145   6.110  -1.992  1.00  0.00    -0.200 F 
ATOM     70  F   UNL     1      13.578   8.681  -2.705  1.00  0.00    -0.200 F 
ENDBRANCH  37  60
ENDBRANCH  11  12
ENDBRANCH   4   6
ENDBRANCH   3   4
ENDBRANCH   2   3
ENDBRANCH   1   2
BRANCH   1  71
ATOM     71  O   UNL     1      -0.111  -2.530  -0.205  1.00  0.00    -0.462 OA
BRANCH  71  72
ATOM     72  C   UNL     1       0.263  -3.433   0.753  1.00  0.00     0.311 C 
ATOM     73  O   UNL     1      -0.513  -4.027   1.486  1.00  0.00    -0.252 OA
BRANCH  72  74
ATOM     74  C   UNL     1       1.779  -3.408   0.907  1.00  0.00     0.130 C 
ATOM     75  C   UNL     1       2.050  -2.869   2.350  1.00  0.00     0.006 C 
ATOM     76  C   UNL     1       2.645  -4.691   0.643  1.00  0.00     0.081 C 
ATOM     77  C   UNL     1       1.829  -3.959   3.420  1.00  0.00     0.008 C 
ATOM     78  C   UNL     1       3.507  -2.416   2.458  1.00  0.00     0.008 C 
ATOM     79  C   UNL     1       4.136  -4.168   0.772  1.00  0.00     0.035 C 
ATOM     80  C   UNL     1       2.436  -5.734   1.774  1.00  0.00     0.035 C 
ATOM     81  C   UNL     1       2.753  -5.153   3.157  1.00  0.00    -0.008 C 
ATOM     82  C   UNL     1       4.441  -3.589   2.161  1.00  0.00    -0.008 C 
ATOM     83  C   UNL     1       4.215  -4.687   3.204  1.00  0.00     0.007 C 
BRANCH  76  84
ATOM     84  N   UNL     1       2.481  -5.410  -0.681  1.00  0.00    -0.222 N 
ATOM     85  N   UNL     1       3.666  -5.733  -1.322  1.00  0.00    -0.175 NA
ATOM     86  C   UNL     1       1.268  -5.981  -1.078  1.00  0.00     0.288 A 
ATOM     87  C   UNL     1       3.645  -6.641  -2.240  1.00  0.00     0.161 A 
ATOM     88  C   UNL     1       1.319  -6.991  -2.180  1.00  0.00     0.132 A 
ATOM     89  O   UNL     1       0.199  -5.738  -0.528  1.00  0.00    -0.266 OA
ATOM     90  C   UNL     1       2.473  -7.402  -2.722  1.00  0.00     0.082 A 
ATOM     91  Cl  UNL     1      -0.187  -7.756  -2.580  1.00  0.00    -0.076 Cl
BRANCH  90  92
ATOM     92  N   UNL     1       2.708  -8.412  -3.652  1.00  0.00    -0.365 N 
ATOM     93  C   UNL     1       3.534  -9.601  -3.342  1.00  0.00     0.138 C 
ATOM     94  C   UNL     1       2.112  -8.431  -5.006  1.00  0.00     0.138 C 
ATOM     95  C   UNL     1       2.744 -10.912  -3.590  1.00  0.00     0.138 C 
ATOM     96  C   UNL     1       1.358  -9.750  -5.287  1.00  0.00     0.138 C 
ATOM     97  N   UNL     1       2.210 -10.911  -4.960  1.00  0.00    -0.368 N 
BRANCH  97  98
ATOM     98  C   UNL     1       2.063 -12.072  -5.691  1.00  0.00     0.037 A 
ATOM     99  C   UNL     1       2.274 -12.045  -7.081  1.00  0.00     0.029 A 
ATOM    100  C   UNL     1       1.737 -13.303  -5.106  1.00  0.00     0.029 A 
ATOM    101  C   UNL     1       2.171 -13.199  -7.859  1.00  0.00     0.041 A 
ATOM    102  C   UNL     1       1.618 -14.463  -5.881  1.00  0.00     0.041 A 
ATOM    103  C   UNL     1       1.841 -14.399  -7.250  1.00  0.00     0.123 A 
ATOM    104  F   UNL     1       1.741 -15.511  -7.991  1.00  0.00    -0.207 F 
ENDBRANCH  97  98
ENDBRANCH  90  92
ENDBRANCH  76  84
ENDBRANCH  72  74
ENDBRANCH  71  72
ENDBRANCH   1  71
TORSDOF 14
