REMARK SMILES O=C(Cc1ccc(-c2ccn(C(F)F)c(=O)c2)cc1)OCCOC(=O)c1ccc(-c2c3nc(c(-c4c(F)c(F)c(F)c(F)c4F)c4ccc([nH]4)c(-c4c(F)c(F)c(F)c(F)c4F)c4nc(c(-c5c(F)c(F)c(F)c(F)c5F)c5ccc2[nH]5)C=C4)C=C3)cc1
REMARK SMILES IDX 21 1 20 2 2 3 1 4 3 5 4 6 5 7 19 8 6 9 18 10 7 11 8 12 9 13
REMARK SMILES IDX 17 14 10 15 15 16 11 17 16 18 12 19 13 20 14 21 22 22 23 23
REMARK SMILES IDX 24 24 25 25 26 26 27 27 88 28 28 29 87 30 29 31 30 32 31 33
REMARK SMILES IDX 81 34 32 35 86 36 80 37 82 38 33 39 85 40 79 41 78 42 34 44
REMARK SMILES IDX 66 45 46 46 65 47 47 48 50 49 64 50 83 51 48 52 49 53 63 55
REMARK SMILES IDX 84 56 51 57 35 58 36 59 44 60 37 61 38 62 42 63 45 64 39 65
REMARK SMILES IDX 40 66 43 67 41 68 67 69 68 70 76 71 69 72 70 73 74 74 77 75
REMARK SMILES IDX 71 76 72 77 75 78 73 79 52 80 53 81 61 82 54 83 55 84 59 85
REMARK SMILES IDX 62 86 56 87 57 88 60 89 58 90
REMARK H PARENT 82 43 50 54
REMARK Flexibility Score: inf
ROOT
ATOM      1  C   UNL     1       4.309   0.125   0.981  1.00  0.00     0.274 C 
ENDROOT
BRANCH   1   2
ATOM      2  O   UNL     1       2.940   0.557   0.821  1.00  0.00    -0.462 OA
BRANCH   2   3
ATOM      3  C   UNL     1       2.205   0.466  -0.311  1.00  0.00     0.310 C 
ATOM      4  O   UNL     1       1.055   0.902  -0.337  1.00  0.00    -0.252 OA
BRANCH   3   5
ATOM      5  C   UNL     1       2.811  -0.169  -1.538  1.00  0.00     0.158 C 
BRANCH   5   6
ATOM      6  C   UNL     1       3.792   0.669  -2.308  1.00  0.00    -0.037 A 
ATOM      7  C   UNL     1       4.884   0.045  -2.937  1.00  0.00     0.005 A 
ATOM      8  C   UNL     1       3.598   2.041  -2.469  1.00  0.00     0.005 A 
ATOM      9  C   UNL     1       5.777   0.787  -3.709  1.00  0.00     0.009 A 
ATOM     10  C   UNL     1       4.490   2.782  -3.235  1.00  0.00     0.009 A 
ATOM     11  C   UNL     1       5.576   2.160  -3.867  1.00  0.00    -0.018 A 
BRANCH  11  12
ATOM     12  C   UNL     1       6.409   2.979  -4.755  1.00  0.00    -0.011 A 
ATOM     13  C   UNL     1       7.227   4.072  -4.274  1.00  0.00     0.027 A 
ATOM     14  C   UNL     1       6.241   2.805  -6.076  1.00  0.00     0.080 A 
ATOM     15  C   UNL     1       7.698   4.984  -5.132  1.00  0.00     0.095 A 
ATOM     16  C   UNL     1       6.807   3.780  -7.045  1.00  0.00     0.255 A 
ATOM     17  N   UNL     1       7.462   4.868  -6.489  1.00  0.00    -0.258 N 
ATOM     18  O   UNL     1       6.616   3.591  -8.241  1.00  0.00    -0.269 OA
BRANCH  17  19
ATOM     19  C   UNL     1       7.846   5.922  -7.390  1.00  0.00     0.451 C 
ATOM     20  F   UNL     1       8.682   5.471  -8.354  1.00  0.00    -0.185 F 
ATOM     21  F   UNL     1       6.753   6.453  -7.994  1.00  0.00    -0.185 F 
ENDBRANCH  17  19
ENDBRANCH  11  12
ENDBRANCH   5   6
ENDBRANCH   3   5
ENDBRANCH   2   3
ENDBRANCH   1   2
BRANCH   1  22
ATOM     22  C   UNL     1       4.381  -1.218   1.708  1.00  0.00     0.275 C 
BRANCH  22  23
ATOM     23  O   UNL     1       4.040  -2.282   0.800  1.00  0.00    -0.458 OA
BRANCH  23  24
ATOM     24  C   UNL     1       2.758  -2.720   0.841  1.00  0.00     0.338 C 
ATOM     25  O   UNL     1       1.898  -2.405   1.642  1.00  0.00    -0.246 OA
BRANCH  24  26
ATOM     26  C   UNL     1       2.493  -3.477  -0.404  1.00  0.00     0.060 A 
ATOM     27  C   UNL     1       1.271  -3.269  -1.061  1.00  0.00     0.016 A 
ATOM     28  C   UNL     1       3.464  -4.310  -0.969  1.00  0.00     0.016 A 
ATOM     29  C   UNL     1       1.015  -3.900  -2.279  1.00  0.00     0.010 A 
ATOM     30  C   UNL     1       3.201  -4.952  -2.179  1.00  0.00     0.010 A 
ATOM     31  C   UNL     1       1.969  -4.766  -2.829  1.00  0.00    -0.014 A 
BRANCH  31  32
ATOM     32  C   UNL     1       1.633  -5.639  -3.975  1.00  0.00     0.031 A 
ATOM     33  C   UNL     1       1.120  -7.018  -3.682  1.00  0.00     0.074 A 
ATOM     34  C   UNL     1       1.853  -5.252  -5.243  1.00  0.00     0.049 A 
ATOM     35  N   UNL     1       0.895  -8.015  -4.496  1.00  0.00    -0.248 NA
ATOM     36  C   UNL     1       0.839  -7.314  -2.268  1.00  0.00     0.031 C 
ATOM     37  C   UNL     1       2.333  -3.936  -5.655  1.00  0.00     0.029 A 
ATOM     38  N   UNL     1       1.730  -5.953  -6.417  1.00  0.00    -0.354 N 
ATOM     39  C   UNL     1       0.458  -9.059  -3.694  1.00  0.00     0.074 A 
ATOM     40  C   UNL     1       0.471  -8.584  -2.328  1.00  0.00     0.031 C 
ATOM     41  C   UNL     1       2.500  -3.935  -6.990  1.00  0.00     0.029 A 
ATOM     42  C   UNL     1       2.166  -5.258  -7.517  1.00  0.00     0.049 A 
ATOM     43  H   UNL     1       1.364  -6.866  -6.464  1.00  0.00     0.167 HD
ATOM     44  C   UNL     1       0.082 -10.306  -4.063  1.00  0.00     0.037 A 
ATOM     45  C   UNL     1       2.309  -5.660  -8.795  1.00  0.00     0.037 A 
ATOM     46  C   UNL     1       0.084 -10.783  -5.418  1.00  0.00     0.049 A 
ATOM     47  C   UNL     1       1.935  -7.069  -9.180  1.00  0.00     0.074 A 
ATOM     48  C   UNL     1      -0.309 -12.018  -5.899  1.00  0.00     0.029 A 
ATOM     49  N   UNL     1       0.518 -10.045  -6.509  1.00  0.00    -0.354 N 
ATOM     50  N   UNL     1       1.478  -8.040  -8.426  1.00  0.00    -0.248 NA
ATOM     51  C   UNL     1       2.097  -7.439 -10.594  1.00  0.00     0.031 C 
ATOM     52  C   UNL     1      -0.067 -12.045  -7.277  1.00  0.00     0.029 A 
ATOM     53  C   UNL     1       0.431 -10.809  -7.660  1.00  0.00     0.049 A 
ATOM     54  H   UNL     1       0.841  -9.115  -6.471  1.00  0.00     0.167 HD
ATOM     55  C   UNL     1       1.272  -9.121  -9.273  1.00  0.00     0.074 A 
ATOM     56  C   UNL     1       1.653  -8.689 -10.602  1.00  0.00     0.031 C 
ATOM     57  C   UNL     1       0.805 -10.359  -8.977  1.00  0.00     0.037 A 
BRANCH  44  58
ATOM     58  C   UNL     1      -0.322 -11.244  -2.967  1.00  0.00     0.064 A 
ATOM     59  C   UNL     1      -1.526 -11.082  -2.265  1.00  0.00     0.173 A 
ATOM     60  C   UNL     1       0.518 -12.305  -2.599  1.00  0.00     0.173 A 
ATOM     61  F   UNL     1      -2.352 -10.069  -2.566  1.00  0.00    -0.203 F 
ATOM     62  C   UNL     1      -1.857 -11.928  -1.210  1.00  0.00     0.198 A 
ATOM     63  C   UNL     1       0.171 -13.165  -1.562  1.00  0.00     0.198 A 
ATOM     64  F   UNL     1       1.682 -12.499  -3.238  1.00  0.00    -0.203 F 
ATOM     65  F   UNL     1      -2.982 -11.718  -0.513  1.00  0.00    -0.200 F 
ATOM     66  C   UNL     1      -1.010 -12.970  -0.862  1.00  0.00     0.200 A 
ATOM     67  F   UNL     1       0.988 -14.174  -1.229  1.00  0.00    -0.200 F 
ATOM     68  F   UNL     1      -1.325 -13.777   0.160  1.00  0.00    -0.200 F 
ENDBRANCH  44  58
BRANCH  45  69
ATOM     69  C   UNL     1       2.854  -4.716  -9.804  1.00  0.00     0.064 A 
ATOM     70  C   UNL     1       2.033  -4.167 -10.798  1.00  0.00     0.173 A 
ATOM     71  C   UNL     1       4.206  -4.345  -9.794  1.00  0.00     0.173 A 
ATOM     72  F   UNL     1       0.740  -4.516 -10.865  1.00  0.00    -0.203 F 
ATOM     73  C   UNL     1       2.546  -3.287 -11.749  1.00  0.00     0.198 A 
ATOM     74  C   UNL     1       4.713  -3.448 -10.731  1.00  0.00     0.198 A 
ATOM     75  F   UNL     1       5.033  -4.847  -8.865  1.00  0.00    -0.203 F 
ATOM     76  F   UNL     1       1.748  -2.803 -12.710  1.00  0.00    -0.200 F 
ATOM     77  C   UNL     1       3.884  -2.923 -11.711  1.00  0.00     0.200 A 
ATOM     78  F   UNL     1       6.005  -3.095 -10.687  1.00  0.00    -0.200 F 
ATOM     79  F   UNL     1       4.376  -2.075 -12.624  1.00  0.00    -0.200 F 
ENDBRANCH  45  69
BRANCH  57  80
ATOM     80  C   UNL     1       0.638 -11.332 -10.108  1.00  0.00     0.064 A 
ATOM     81  C   UNL     1       1.738 -11.973 -10.694  1.00  0.00     0.173 A 
ATOM     82  C   UNL     1      -0.645 -11.687 -10.550  1.00  0.00     0.173 A 
ATOM     83  F   UNL     1       2.985 -11.659 -10.314  1.00  0.00    -0.203 F 
ATOM     84  C   UNL     1       1.558 -12.931 -11.690  1.00  0.00     0.198 A 
ATOM     85  C   UNL     1      -0.822 -12.662 -11.528  1.00  0.00     0.198 A 
ATOM     86  F   UNL     1      -1.730 -11.107 -10.014  1.00  0.00    -0.203 F 
ATOM     87  F   UNL     1       2.624 -13.515 -12.255  1.00  0.00    -0.200 F 
ATOM     88  C   UNL     1       0.280 -13.281 -12.098  1.00  0.00     0.200 A 
ATOM     89  F   UNL     1      -2.059 -13.009 -11.911  1.00  0.00    -0.200 F 
ATOM     90  F   UNL     1       0.109 -14.216 -13.043  1.00  0.00    -0.200 F 
ENDBRANCH  57  80
ENDBRANCH  31  32
ENDBRANCH  24  26
ENDBRANCH  23  24
ENDBRANCH  22  23
ENDBRANCH   1  22
TORSDOF 14
