REMARK SMILES O=C(OCCOC(=O)[C@@H]1CCCC[C@H]1C(=O)Nc1ccc(NC(=O)c2ccco2)cc1)c1ccc(-c2c3nc(c(-c4c(F)c(F)c(F)c(F)c4F)c4ccc([nH]4)c(-c4c(F)c(F)c(F)c(F)c4F)c4nc(c(-c5c(F)c(F)c(F)c(F)c5F)c5ccc2[nH]5)C=C4)C=C3)cc1
REMARK SMILES IDX 5 1 4 2 3 3 2 4 1 5 32 6 33 7 94 8 34 9 93 10 35 11 36 12
REMARK SMILES IDX 37 13 87 14 38 15 92 16 86 17 88 18 39 19 91 20 85 21 84 22
REMARK SMILES IDX 40 24 72 25 52 26 71 27 53 28 56 29 70 30 89 31 54 32 55 33
REMARK SMILES IDX 69 35 90 36 57 37 41 38 42 39 50 40 43 41 44 42 48 43 51 44
REMARK SMILES IDX 45 45 46 46 49 47 47 48 73 49 74 50 82 51 75 52 76 53 80 54
REMARK SMILES IDX 83 55 77 56 78 57 81 58 79 59 58 60 59 61 67 62 60 63 61 64
REMARK SMILES IDX 65 65 68 66 62 67 63 68 66 69 64 70 6 71 7 72 8 73 9 74
REMARK SMILES IDX 10 75 14 76 11 77 13 78 12 79 15 80 16 81 17 82 18 84 19 85
REMARK SMILES IDX 31 86 20 87 30 88 21 89 22 90 23 91 24 93 25 94 26 95 29 96
REMARK SMILES IDX 27 97 28 98
REMARK H PARENT 88 23 56 34 17 83 22 92
REMARK Flexibility Score: inf
ROOT
ATOM      1  C   UNL     1       3.815   1.945  -1.518  1.00  0.00     0.274 C 
ENDROOT
BRANCH   1   2
ATOM      2  C   UNL     1       4.465   0.616  -1.884  1.00  0.00     0.275 C 
BRANCH   2   3
ATOM      3  O   UNL     1       3.811  -0.536  -1.337  1.00  0.00    -0.458 OA
BRANCH   3   4
ATOM      4  C   UNL     1       4.092  -1.203  -0.196  1.00  0.00     0.338 C 
ATOM      5  O   UNL     1       3.583  -2.305  -0.002  1.00  0.00    -0.246 OA
BRANCH   4   6
ATOM      6  C   UNL     1       4.848  -0.578   0.929  1.00  0.00     0.060 A 
ATOM      7  C   UNL     1       6.014   0.187   0.851  1.00  0.00     0.016 A 
ATOM      8  C   UNL     1       4.332  -0.835   2.198  1.00  0.00     0.016 A 
ATOM      9  C   UNL     1       6.580   0.768   2.004  1.00  0.00     0.010 A 
ATOM     10  C   UNL     1       4.855  -0.212   3.333  1.00  0.00     0.010 A 
ATOM     11  C   UNL     1       5.989   0.601   3.261  1.00  0.00    -0.014 A 
BRANCH  11  12
ATOM     12  C   UNL     1       6.548   1.196   4.511  1.00  0.00     0.031 A 
ATOM     13  C   UNL     1       6.878   0.300   5.683  1.00  0.00     0.074 A 
ATOM     14  C   UNL     1       6.649   2.533   4.671  1.00  0.00     0.049 A 
ATOM     15  N   UNL     1       7.300   0.618   6.883  1.00  0.00    -0.248 NA
ATOM     16  C   UNL     1       6.648  -1.143   5.500  1.00  0.00     0.031 C 
ATOM     17  C   UNL     1       6.271   3.544   3.685  1.00  0.00     0.029 A 
ATOM     18  N   UNL     1       7.059   3.275   5.755  1.00  0.00    -0.354 N 
ATOM     19  C   UNL     1       7.374  -0.581   7.579  1.00  0.00     0.074 A 
ATOM     20  C   UNL     1       6.800  -1.599   6.731  1.00  0.00     0.031 C 
ATOM     21  C   UNL     1       6.421   4.768   4.221  1.00  0.00     0.029 A 
ATOM     22  C   UNL     1       6.935   4.632   5.580  1.00  0.00     0.049 A 
ATOM     23  H   UNL     1       7.410   2.870   6.581  1.00  0.00     0.167 HD
ATOM     24  C   UNL     1       7.966  -0.847   8.768  1.00  0.00     0.037 A 
ATOM     25  C   UNL     1       7.221   5.651   6.414  1.00  0.00     0.037 A 
ATOM     26  C   UNL     1       8.615   0.144   9.576  1.00  0.00     0.049 A 
ATOM     27  C   UNL     1       7.884   5.359   7.734  1.00  0.00     0.074 A 
ATOM     28  C   UNL     1       9.395  -0.027  10.704  1.00  0.00     0.029 A 
ATOM     29  N   UNL     1       8.559   1.506   9.325  1.00  0.00    -0.354 N 
ATOM     30  N   UNL     1       8.147   4.201   8.289  1.00  0.00    -0.248 NA
ATOM     31  C   UNL     1       8.351   6.515   8.514  1.00  0.00     0.031 C 
ATOM     32  C   UNL     1       9.806   1.238  11.143  1.00  0.00     0.029 A 
ATOM     33  C   UNL     1       9.294   2.191  10.276  1.00  0.00     0.049 A 
ATOM     34  H   UNL     1       8.069   1.923   8.581  1.00  0.00     0.167 HD
ATOM     35  C   UNL     1       8.885   4.484   9.431  1.00  0.00     0.074 A 
ATOM     36  C   UNL     1       8.994   5.926   9.513  1.00  0.00     0.031 C 
ATOM     37  C   UNL     1       9.446   3.622  10.312  1.00  0.00     0.037 A 
BRANCH  24  38
ATOM     38  C   UNL     1       8.019  -2.289   9.181  1.00  0.00     0.064 A 
ATOM     39  C   UNL     1       8.774  -3.219   8.444  1.00  0.00     0.173 A 
ATOM     40  C   UNL     1       7.279  -2.764  10.271  1.00  0.00     0.173 A 
ATOM     41  F   UNL     1       9.498  -2.815   7.388  1.00  0.00    -0.203 F 
ATOM     42  C   UNL     1       8.722  -4.578   8.732  1.00  0.00     0.198 A 
ATOM     43  C   UNL     1       7.260  -4.123  10.581  1.00  0.00     0.198 A 
ATOM     44  F   UNL     1       6.554  -1.919  11.019  1.00  0.00    -0.203 F 
ATOM     45  F   UNL     1       9.373  -5.452   7.952  1.00  0.00    -0.200 F 
ATOM     46  C   UNL     1       7.964  -5.030   9.800  1.00  0.00     0.200 A 
ATOM     47  F   UNL     1       6.539  -4.561  11.622  1.00  0.00    -0.200 F 
ATOM     48  F   UNL     1       7.898  -6.341  10.067  1.00  0.00    -0.200 F 
ENDBRANCH  24  38
BRANCH  25  49
ATOM     49  C   UNL     1       6.991   7.056   5.989  1.00  0.00     0.064 A 
ATOM     50  C   UNL     1       8.059   7.861   5.568  1.00  0.00     0.173 A 
ATOM     51  C   UNL     1       5.714   7.631   6.028  1.00  0.00     0.173 A 
ATOM     52  F   UNL     1       9.301   7.357   5.532  1.00  0.00    -0.203 F 
ATOM     53  C   UNL     1       7.864   9.198   5.231  1.00  0.00     0.198 A 
ATOM     54  C   UNL     1       5.517   8.966   5.675  1.00  0.00     0.198 A 
ATOM     55  F   UNL     1       4.659   6.900   6.417  1.00  0.00    -0.203 F 
ATOM     56  F   UNL     1       8.910   9.956   4.874  1.00  0.00    -0.200 F 
ATOM     57  C   UNL     1       6.593   9.750   5.285  1.00  0.00     0.200 A 
ATOM     58  F   UNL     1       4.287   9.497   5.723  1.00  0.00    -0.200 F 
ATOM     59  F   UNL     1       6.407  11.040   4.971  1.00  0.00    -0.200 F 
ENDBRANCH  25  49
BRANCH  37  60
ATOM     60  C   UNL     1      10.330   4.195  11.377  1.00  0.00     0.064 A 
ATOM     61  C   UNL     1       9.811   4.860  12.495  1.00  0.00     0.173 A 
ATOM     62  C   UNL     1      11.720   4.019  11.298  1.00  0.00     0.173 A 
ATOM     63  F   UNL     1       8.491   5.069  12.604  1.00  0.00    -0.203 F 
ATOM     64  C   UNL     1      10.655   5.340  13.493  1.00  0.00     0.198 A 
ATOM     65  C   UNL     1      12.559   4.478  12.309  1.00  0.00     0.198 A 
ATOM     66  F   UNL     1      12.263   3.388  10.246  1.00  0.00    -0.203 F 
ATOM     67  F   UNL     1      10.143   6.003  14.539  1.00  0.00    -0.200 F 
ATOM     68  C   UNL     1      12.026   5.140  13.404  1.00  0.00     0.200 A 
ATOM     69  F   UNL     1      13.881   4.276  12.225  1.00  0.00    -0.200 F 
ATOM     70  F   UNL     1      12.835   5.592  14.372  1.00  0.00    -0.200 F 
ENDBRANCH  37  60
ENDBRANCH  11  12
ENDBRANCH   4   6
ENDBRANCH   3   4
ENDBRANCH   2   3
ENDBRANCH   1   2
BRANCH   1  71
ATOM     71  O   UNL     1       3.600   2.150  -0.111  1.00  0.00    -0.462 OA
BRANCH  71  72
ATOM     72  C   UNL     1       2.297   2.057   0.278  1.00  0.00     0.309 C 
ATOM     73  O   UNL     1       1.418   1.529  -0.391  1.00  0.00    -0.252 OA
BRANCH  72  74
ATOM     74  C   UNL     1       2.010   2.779   1.587  1.00  0.00     0.111 C 
ATOM     75  C   UNL     1       2.829   4.073   1.725  1.00  0.00     0.016 C 
ATOM     76  C   UNL     1       2.132   1.910   2.842  1.00  0.00     0.093 C 
ATOM     77  C   UNL     1       2.411   4.855   2.968  1.00  0.00     0.001 C 
ATOM     78  C   UNL     1       1.758   2.690   4.114  1.00  0.00     0.014 C 
ATOM     79  C   UNL     1       2.517   4.010   4.232  1.00  0.00     0.001 C 
BRANCH  76  80
ATOM     80  C   UNL     1       1.455   0.530   2.872  1.00  0.00     0.228 C 
ATOM     81  O   UNL     1       1.858  -0.347   3.645  1.00  0.00    -0.274 OA
ATOM     82  N   UNL     1       0.322   0.249   2.155  1.00  0.00    -0.326 N 
ATOM     83  H   UNL     1       0.327  -0.424   1.436  1.00  0.00     0.169 HD
BRANCH  82  84
ATOM     84  C   UNL     1      -0.845   0.954   2.483  1.00  0.00     0.041 A 
ATOM     85  C   UNL     1      -1.517   0.610   3.651  1.00  0.00     0.028 A 
ATOM     86  C   UNL     1      -1.244   2.052   1.742  1.00  0.00     0.028 A 
ATOM     87  C   UNL     1      -2.460   1.487   4.178  1.00  0.00     0.028 A 
ATOM     88  C   UNL     1      -2.146   2.954   2.302  1.00  0.00     0.028 A 
ATOM     89  C   UNL     1      -2.695   2.718   3.569  1.00  0.00     0.041 A 
BRANCH  89  90
ATOM     90  N   UNL     1      -3.394   3.788   4.150  1.00  0.00    -0.319 N 
ATOM     91  C   UNL     1      -3.877   4.025   5.421  1.00  0.00     0.291 C 
ATOM     92  H   UNL     1      -3.576   4.522   3.521  1.00  0.00     0.170 HD
ATOM     93  O   UNL     1      -4.379   5.134   5.627  1.00  0.00    -0.265 OA
BRANCH  91  94
ATOM     94  C   UNL     1      -3.762   3.028   6.453  1.00  0.00     0.191 A 
ATOM     95  C   UNL     1      -2.729   2.680   7.305  1.00  0.00     0.056 A 
ATOM     96  O   UNL     1      -4.843   2.225   6.693  1.00  0.00    -0.459 OA
ATOM     97  C   UNL     1      -3.197   1.588   8.080  1.00  0.00     0.043 A 
ATOM     98  C   UNL     1      -4.492   1.359   7.677  1.00  0.00     0.196 A 
ENDBRANCH  91  94
ENDBRANCH  89  90
ENDBRANCH  82  84
ENDBRANCH  76  80
ENDBRANCH  72  74
ENDBRANCH  71  72
ENDBRANCH   1  71
TORSDOF 15
