REMARK SMILES O=C(OCCOC(=O)C1(Cc2ccncc2)Cc2ccccc2C1)c1ccc(-c2c3nc(c(-c4c(F)c(F)c(F)c(F)c4F)c4ccc([nH]4)c(-c4c(F)c(F)c(F)c(F)c4F)c4nc(c(-c5c(F)c(F)c(F)c(F)c5F)c5ccc2[nH]5)C=C4)C=C3)cc1
REMARK SMILES IDX 4 1 3 2 2 3 1 4 25 5 26 6 87 7 27 8 86 9 28 10 29 11 30 12
REMARK SMILES IDX 80 13 31 14 85 15 79 16 81 17 32 18 84 19 78 20 77 21 33 23
REMARK SMILES IDX 65 24 45 25 64 26 46 27 49 28 63 29 82 30 47 31 48 32 62 34
REMARK SMILES IDX 83 35 50 36 34 37 35 38 43 39 36 40 37 41 41 42 44 43 38 44
REMARK SMILES IDX 39 45 42 46 40 47 66 48 67 49 75 50 68 51 69 52 73 53 76 54
REMARK SMILES IDX 70 55 71 56 74 57 72 58 51 59 52 60 60 61 53 62 54 63 58 64
REMARK SMILES IDX 61 65 55 66 56 67 59 68 57 69 5 70 6 71 7 72 8 73 9 74 17 75
REMARK SMILES IDX 24 76 18 77 23 78 19 79 22 80 20 81 21 82 10 83 11 84 12 85
REMARK SMILES IDX 16 86 13 87 15 88 14 89
REMARK H PARENT 81 22 49 33
REMARK Flexibility Score: inf
ROOT
ATOM      1  C   UNL     1       4.452   0.746  -1.351  1.00  0.00     0.275 C 
ENDROOT
BRANCH   1   2
ATOM      2  O   UNL     1       3.448  -0.243  -1.078  1.00  0.00    -0.458 OA
BRANCH   2   3
ATOM      3  C   UNL     1       3.421  -1.218  -0.142  1.00  0.00     0.338 C 
ATOM      4  O   UNL     1       2.557  -2.090  -0.210  1.00  0.00    -0.246 OA
BRANCH   3   5
ATOM      5  C   UNL     1       4.267  -1.167   1.089  1.00  0.00     0.060 A 
ATOM      6  C   UNL     1       5.488  -0.499   1.226  1.00  0.00     0.016 A 
ATOM      7  C   UNL     1       3.705  -1.752   2.234  1.00  0.00     0.016 A 
ATOM      8  C   UNL     1       6.026  -0.225   2.487  1.00  0.00     0.010 A 
ATOM      9  C   UNL     1       4.235  -1.475   3.495  1.00  0.00     0.010 A 
ATOM     10  C   UNL     1       5.370  -0.656   3.636  1.00  0.00    -0.014 A 
BRANCH  10  11
ATOM     11  C   UNL     1       5.939  -0.398   4.980  1.00  0.00     0.031 A 
ATOM     12  C   UNL     1       6.412  -1.597   5.739  1.00  0.00     0.074 A 
ATOM     13  C   UNL     1       6.012   0.840   5.517  1.00  0.00     0.049 A 
ATOM     14  N   UNL     1       6.871  -1.687   6.957  1.00  0.00    -0.248 NA
ATOM     15  C   UNL     1       6.329  -2.889   5.029  1.00  0.00     0.031 C 
ATOM     16  C   UNL     1       5.598   2.086   4.870  1.00  0.00     0.029 A 
ATOM     17  N   UNL     1       6.440   1.254   6.758  1.00  0.00    -0.354 N 
ATOM     18  C   UNL     1       7.153  -3.032   7.131  1.00  0.00     0.074 A 
ATOM     19  C   UNL     1       6.645  -3.742   5.984  1.00  0.00     0.031 C 
ATOM     20  C   UNL     1       5.739   3.111   5.733  1.00  0.00     0.029 A 
ATOM     21  C   UNL     1       6.263   2.601   6.994  1.00  0.00     0.049 A 
ATOM     22  H   UNL     1       6.838   0.642   7.419  1.00  0.00     0.167 HD
ATOM     23  C   UNL     1       7.882  -3.615   8.106  1.00  0.00     0.037 A 
ATOM     24  C   UNL     1       6.500   3.322   8.110  1.00  0.00     0.037 A 
ATOM     25  C   UNL     1       8.408  -2.895   9.223  1.00  0.00     0.049 A 
ATOM     26  C   UNL     1       7.152   2.620   9.275  1.00  0.00     0.074 A 
ATOM     27  C   UNL     1       9.188  -3.357  10.262  1.00  0.00     0.029 A 
ATOM     28  N   UNL     1       8.191  -1.540   9.441  1.00  0.00    -0.354 N 
ATOM     29  N   UNL     1       7.508   1.362   9.390  1.00  0.00    -0.248 NA
ATOM     30  C   UNL     1       7.481   3.445  10.446  1.00  0.00     0.031 C 
ATOM     31  C   UNL     1       9.404  -2.288  11.139  1.00  0.00     0.029 A 
ATOM     32  C   UNL     1       8.803  -1.151  10.616  1.00  0.00     0.049 A 
ATOM     33  H   UNL     1       7.678  -0.947   8.846  1.00  0.00     0.167 HD
ATOM     34  C   UNL     1       8.174   1.262  10.603  1.00  0.00     0.074 A 
ATOM     35  C   UNL     1       8.143   2.581  11.203  1.00  0.00     0.031 C 
ATOM     36  C   UNL     1       8.782   0.185  11.159  1.00  0.00     0.037 A 
BRANCH  23  37
ATOM     37  C   UNL     1       8.160  -5.077   7.932  1.00  0.00     0.064 A 
ATOM     38  C   UNL     1       8.967  -5.540   6.876  1.00  0.00     0.173 A 
ATOM     39  C   UNL     1       7.529  -6.027   8.742  1.00  0.00     0.173 A 
ATOM     40  F   UNL     1       9.563  -4.667   6.049  1.00  0.00    -0.203 F 
ATOM     41  C   UNL     1       9.076  -6.898   6.600  1.00  0.00     0.198 A 
ATOM     42  C   UNL     1       7.670  -7.388   8.485  1.00  0.00     0.198 A 
ATOM     43  F   UNL     1       6.740  -5.637   9.755  1.00  0.00    -0.203 F 
ATOM     44  F   UNL     1       9.762  -7.309   5.524  1.00  0.00    -0.200 F 
ATOM     45  C   UNL     1       8.427  -7.821   7.404  1.00  0.00     0.200 A 
ATOM     46  F   UNL     1       7.043  -8.283   9.261  1.00  0.00    -0.200 F 
ATOM     47  F   UNL     1       8.509  -9.129   7.123  1.00  0.00    -0.200 F 
ENDBRANCH  23  37
BRANCH  24  48
ATOM     48  C   UNL     1       6.184   4.778   8.195  1.00  0.00     0.064 A 
ATOM     49  C   UNL     1       7.196   5.750   8.181  1.00  0.00     0.173 A 
ATOM     50  C   UNL     1       4.873   5.229   8.399  1.00  0.00     0.173 A 
ATOM     51  F   UNL     1       8.477   5.376   8.048  1.00  0.00    -0.203 F 
ATOM     52  C   UNL     1       6.908   7.103   8.378  1.00  0.00     0.198 A 
ATOM     53  C   UNL     1       4.579   6.583   8.562  1.00  0.00     0.198 A 
ATOM     54  F   UNL     1       3.873   4.347   8.498  1.00  0.00    -0.203 F 
ATOM     55  F   UNL     1       7.905   7.998   8.427  1.00  0.00    -0.200 F 
ATOM     56  C   UNL     1       5.599   7.520   8.562  1.00  0.00     0.200 A 
ATOM     57  F   UNL     1       3.311   6.975   8.752  1.00  0.00    -0.200 F 
ATOM     58  F   UNL     1       5.324   8.816   8.766  1.00  0.00    -0.200 F 
ENDBRANCH  24  48
BRANCH  36  59
ATOM     59  C   UNL     1       9.541   0.403  12.432  1.00  0.00     0.064 A 
ATOM     60  C   UNL     1       8.893   0.610  13.655  1.00  0.00     0.173 A 
ATOM     61  C   UNL     1      10.942   0.311  12.429  1.00  0.00     0.173 A 
ATOM     62  F   UNL     1       7.556   0.723  13.702  1.00  0.00    -0.203 F 
ATOM     63  C   UNL     1       9.622   0.727  14.834  1.00  0.00     0.198 A 
ATOM     64  C   UNL     1      11.664   0.391  13.613  1.00  0.00     0.198 A 
ATOM     65  F   UNL     1      11.605   0.107  11.280  1.00  0.00    -0.203 F 
ATOM     66  F   UNL     1       8.988   0.961  15.991  1.00  0.00    -0.200 F 
ATOM     67  C   UNL     1      11.004   0.603  14.814  1.00  0.00     0.200 A 
ATOM     68  F   UNL     1      12.996   0.249  13.594  1.00  0.00    -0.200 F 
ATOM     69  F   UNL     1      11.702   0.688  15.955  1.00  0.00    -0.200 F 
ENDBRANCH  36  59
ENDBRANCH  10  11
ENDBRANCH   3   5
ENDBRANCH   2   3
ENDBRANCH   1   2
BRANCH   1  70
ATOM     70  C   UNL     1       4.384   2.062  -0.547  1.00  0.00     0.274 C 
BRANCH  70  71
ATOM     71  O   UNL     1       3.789   2.017   0.769  1.00  0.00    -0.462 OA
BRANCH  71  72
ATOM     72  C   UNL     1       2.424   2.045   0.753  1.00  0.00     0.313 C 
ATOM     73  O   UNL     1       1.808   1.954  -0.304  1.00  0.00    -0.252 OA
BRANCH  72  74
ATOM     74  C   UNL     1       1.758   2.123   2.141  1.00  0.00     0.080 C 
ATOM     75  C   UNL     1       2.188   0.882   2.939  1.00  0.00     0.055 C 
ATOM     76  C   UNL     1       2.254   3.297   3.042  1.00  0.00     0.055 C 
ATOM     77  C   UNL     1       2.114   1.318   4.362  1.00  0.00    -0.044 A 
ATOM     78  C   UNL     1       2.162   2.710   4.431  1.00  0.00    -0.044 A 
ATOM     79  C   UNL     1       2.125   0.520   5.497  1.00  0.00     0.004 A 
ATOM     80  C   UNL     1       2.198   3.337   5.664  1.00  0.00     0.004 A 
ATOM     81  C   UNL     1       2.178   1.142   6.738  1.00  0.00     0.000 A 
ATOM     82  C   UNL     1       2.195   2.540   6.819  1.00  0.00     0.000 A 
BRANCH  74  83
ATOM     83  C   UNL     1       0.203   2.054   2.000  1.00  0.00     0.055 C 
BRANCH  83  84
ATOM     84  C   UNL     1      -0.441   3.256   1.357  1.00  0.00    -0.044 A 
ATOM     85  C   UNL     1      -0.595   3.334  -0.029  1.00  0.00     0.024 A 
ATOM     86  C   UNL     1      -0.855   4.341   2.127  1.00  0.00     0.024 A 
ATOM     87  C   UNL     1      -1.027   4.520  -0.591  1.00  0.00     0.111 A 
ATOM     88  C   UNL     1      -1.311   5.476   1.475  1.00  0.00     0.111 A 
ATOM     89  N   UNL     1      -1.380   5.601   0.133  1.00  0.00    -0.265 NA
ENDBRANCH  83  84
ENDBRANCH  74  83
ENDBRANCH  72  74
ENDBRANCH  71  72
ENDBRANCH  70  71
ENDBRANCH   1  70
TORSDOF 13
