REMARK SMILES CC[C@H]1CCC/C(=C(\C)C(=O)OCCOC(=O)c2ccc(-c3c4nc(c(-c5c(F)c(F)c(F)c(F)c5F)c5ccc([nH]5)c(-c5c(F)c(F)c(F)c(F)c5F)c5nc(c(-c6c(F)c(F)c(F)c(F)c6F)c6ccc3[nH]6)C=C5)C=C4)cc2)C1
REMARK SMILES IDX 14 1 13 2 12 3 10 4 11 5 8 6 3 7 4 8 81 9 5 10 7 11 6 12
REMARK SMILES IDX 9 13 2 14 1 15 15 16 16 17 17 18 18 19 19 20 80 21 20 22
REMARK SMILES IDX 79 23 21 24 22 25 23 26 73 27 24 28 78 29 72 30 74 31 25 32
REMARK SMILES IDX 77 33 71 34 70 35 26 37 58 38 38 39 57 40 39 41 42 42 56 43
REMARK SMILES IDX 75 44 40 45 41 46 55 48 76 49 43 50 27 51 28 52 36 53 29 54
REMARK SMILES IDX 30 55 34 56 37 57 31 58 32 59 35 60 33 61 59 62 60 63 68 64
REMARK SMILES IDX 61 65 62 66 66 67 69 68 63 69 64 70 67 71 65 72 44 73 45 74
REMARK SMILES IDX 53 75 46 76 47 77 51 78 54 79 48 80 49 81 52 82 50 83
REMARK H PARENT 74 36 42 47
REMARK Flexibility Score: inf
ROOT
ATOM      1  C   UNL     1       2.558  -3.500  -0.082  1.00  0.00     0.275 C 
ENDROOT
BRANCH   1   2
ATOM      2  C   UNL     1       1.223  -3.170  -0.747  1.00  0.00     0.275 C 
BRANCH   2   3
ATOM      3  O   UNL     1       1.355  -1.976  -1.546  1.00  0.00    -0.459 OA
BRANCH   3   4
ATOM      4  C   UNL     1       0.543  -0.939  -1.212  1.00  0.00     0.333 C 
ATOM      5  O   UNL     1      -0.264  -0.919  -0.302  1.00  0.00    -0.247 OA
BRANCH   4   6
ATOM      6  C   UNL     1       0.763   0.198  -2.166  1.00  0.00     0.033 C 
ATOM      7  C   UNL     1       0.047   2.832   0.213  1.00  0.00    -0.007 C 
ATOM      8  C   UNL     1       0.241   4.111  -0.612  1.00  0.00     0.004 C 
ATOM      9  C   UNL     1       1.090   1.800  -0.231  1.00  0.00     0.035 C 
ATOM     10  C   UNL     1       0.164   3.813  -2.113  1.00  0.00     0.005 C 
ATOM     11  C   UNL     1       0.965   1.457  -1.700  1.00  0.00    -0.060 C 
ATOM     12  C   UNL     1       1.124   2.700  -2.555  1.00  0.00     0.031 C 
ATOM     13  C   UNL     1       0.658  -0.216  -3.606  1.00  0.00     0.052 C 
BRANCH   7  14
ATOM     14  C   UNL     1       0.169   3.091   1.726  1.00  0.00     0.000 C 
ATOM     15  C   UNL     1      -1.107   3.638   2.344  1.00  0.00     0.004 C 
ENDBRANCH   7  14
ENDBRANCH   4   6
ENDBRANCH   3   4
ENDBRANCH   2   3
ENDBRANCH   1   2
BRANCH   1  16
ATOM     16  O   UNL     1       2.873  -2.473   0.877  1.00  0.00    -0.458 OA
BRANCH  16  17
ATOM     17  C   UNL     1       4.137  -1.990   0.839  1.00  0.00     0.338 C 
ATOM     18  O   UNL     1       5.054  -2.388   0.137  1.00  0.00    -0.246 OA
BRANCH  17  19
ATOM     19  C   UNL     1       4.278  -0.824   1.742  1.00  0.00     0.060 A 
ATOM     20  C   UNL     1       3.235   0.081   1.876  1.00  0.00     0.016 A 
ATOM     21  C   UNL     1       5.514  -0.521   2.315  1.00  0.00     0.016 A 
ATOM     22  C   UNL     1       3.483   1.356   2.393  1.00  0.00     0.010 A 
ATOM     23  C   UNL     1       5.712   0.711   2.962  1.00  0.00     0.010 A 
ATOM     24  C   UNL     1       4.728   1.716   2.928  1.00  0.00    -0.014 A 
BRANCH  24  25
ATOM     25  C   UNL     1       5.036   3.148   3.289  1.00  0.00     0.031 A 
ATOM     26  C   UNL     1       6.311   3.795   2.779  1.00  0.00     0.074 A 
ATOM     27  C   UNL     1       4.181   3.939   3.977  1.00  0.00     0.049 A 
ATOM     28  N   UNL     1       6.902   4.899   3.170  1.00  0.00    -0.248 NA
ATOM     29  C   UNL     1       7.028   3.094   1.703  1.00  0.00     0.031 C 
ATOM     30  C   UNL     1       2.868   3.546   4.484  1.00  0.00     0.029 A 
ATOM     31  N   UNL     1       4.275   5.269   4.331  1.00  0.00    -0.354 N 
ATOM     32  C   UNL     1       8.114   4.945   2.490  1.00  0.00     0.074 A 
ATOM     33  C   UNL     1       8.159   3.782   1.633  1.00  0.00     0.031 C 
ATOM     34  C   UNL     1       2.235   4.627   4.965  1.00  0.00     0.029 A 
ATOM     35  C   UNL     1       3.148   5.765   4.945  1.00  0.00     0.049 A 
ATOM     36  H   UNL     1       5.077   5.815   4.159  1.00  0.00     0.167 HD
ATOM     37  C   UNL     1       9.107   5.865   2.585  1.00  0.00     0.037 A 
ATOM     38  C   UNL     1       2.887   6.976   5.479  1.00  0.00     0.037 A 
ATOM     39  C   UNL     1       9.007   7.097   3.325  1.00  0.00     0.049 A 
ATOM     40  C   UNL     1       3.981   8.011   5.536  1.00  0.00     0.074 A 
ATOM     41  C   UNL     1       9.965   8.081   3.506  1.00  0.00     0.029 A 
ATOM     42  N   UNL     1       7.856   7.543   3.956  1.00  0.00    -0.354 N 
ATOM     43  N   UNL     1       5.196   7.962   5.051  1.00  0.00    -0.248 NA
ATOM     44  C   UNL     1       3.679   9.254   6.264  1.00  0.00     0.031 C 
ATOM     45  C   UNL     1       9.399   9.114   4.262  1.00  0.00     0.029 A 
ATOM     46  C   UNL     1       8.076   8.792   4.514  1.00  0.00     0.049 A 
ATOM     47  H   UNL     1       7.008   7.045   4.001  1.00  0.00     0.167 HD
ATOM     48  C   UNL     1       5.802   9.157   5.417  1.00  0.00     0.074 A 
ATOM     49  C   UNL     1       4.809   9.931   6.129  1.00  0.00     0.031 C 
ATOM     50  C   UNL     1       7.077   9.564   5.205  1.00  0.00     0.037 A 
BRANCH  37  51
ATOM     51  C   UNL     1      10.419   5.544   1.927  1.00  0.00     0.064 A 
ATOM     52  C   UNL     1      10.598   5.569   0.538  1.00  0.00     0.173 A 
ATOM     53  C   UNL     1      11.532   5.226   2.725  1.00  0.00     0.173 A 
ATOM     54  F   UNL     1       9.566   5.853  -0.271  1.00  0.00    -0.203 F 
ATOM     55  C   UNL     1      11.832   5.254  -0.030  1.00  0.00     0.198 A 
ATOM     56  C   UNL     1      12.771   4.945   2.156  1.00  0.00     0.198 A 
ATOM     57  F   UNL     1      11.419   5.197   4.062  1.00  0.00    -0.203 F 
ATOM     58  F   UNL     1      11.966   5.229  -1.363  1.00  0.00    -0.200 F 
ATOM     59  C   UNL     1      12.917   4.949   0.778  1.00  0.00     0.200 A 
ATOM     60  F   UNL     1      13.820   4.668   2.942  1.00  0.00    -0.200 F 
ATOM     61  F   UNL     1      14.103   4.652   0.229  1.00  0.00    -0.200 F 
ENDBRANCH  37  51
BRANCH  38  62
ATOM     62  C   UNL     1       1.550   7.272   6.069  1.00  0.00     0.064 A 
ATOM     63  C   UNL     1       0.725   8.267   5.522  1.00  0.00     0.173 A 
ATOM     64  C   UNL     1       1.081   6.596   7.206  1.00  0.00     0.173 A 
ATOM     65  F   UNL     1       1.141   8.973   4.460  1.00  0.00    -0.203 F 
ATOM     66  C   UNL     1      -0.508   8.579   6.095  1.00  0.00     0.198 A 
ATOM     67  C   UNL     1      -0.170   6.880   7.752  1.00  0.00     0.198 A 
ATOM     68  F   UNL     1       1.833   5.648   7.782  1.00  0.00    -0.203 F 
ATOM     69  F   UNL     1      -1.248   9.574   5.587  1.00  0.00    -0.200 F 
ATOM     70  C   UNL     1      -0.959   7.878   7.202  1.00  0.00     0.200 A 
ATOM     71  F   UNL     1      -0.606   6.188   8.813  1.00  0.00    -0.200 F 
ATOM     72  F   UNL     1      -2.147   8.171   7.748  1.00  0.00    -0.200 F 
ENDBRANCH  38  62
BRANCH  50  73
ATOM     73  C   UNL     1       7.462  10.922   5.715  1.00  0.00     0.064 A 
ATOM     74  C   UNL     1       7.631  11.173   7.085  1.00  0.00     0.173 A 
ATOM     75  C   UNL     1       7.686  11.980   4.821  1.00  0.00     0.173 A 
ATOM     76  F   UNL     1       7.415  10.198   7.982  1.00  0.00    -0.203 F 
ATOM     77  C   UNL     1       7.982  12.441   7.543  1.00  0.00     0.198 A 
ATOM     78  C   UNL     1       8.062  13.239   5.281  1.00  0.00     0.198 A 
ATOM     79  F   UNL     1       7.542  11.791   3.501  1.00  0.00    -0.203 F 
ATOM     80  F   UNL     1       8.091  12.670   8.859  1.00  0.00    -0.200 F 
ATOM     81  C   UNL     1       8.202  13.471   6.641  1.00  0.00     0.200 A 
ATOM     82  F   UNL     1       8.284  14.231   4.407  1.00  0.00    -0.200 F 
ATOM     83  F   UNL     1       8.540  14.690   7.083  1.00  0.00    -0.200 F 
ENDBRANCH  50  73
ENDBRANCH  24  25
ENDBRANCH  17  19
ENDBRANCH  16  17
ENDBRANCH   1  16
TORSDOF 12
