REMARK SMILES O=C(CCc1ccccc1)Nc1ccccc1Oc1ccsc1C(=O)OCCOC(=O)c1ccc(-c2c3nc(c(-c4c(F)c(F)c(F)c(F)c4F)c4ccc([nH]4)c(-c4c(F)c(F)c(F)c(F)c4F)c4nc(c(-c5c(F)c(F)c(F)c(F)c5F)c5ccc2[nH]5)C=C4)C=C3)cc1
REMARK SMILES IDX 24 1 25 2 23 3 19 4 20 5 21 6 22 7 18 8 17 9 12 10 13 11
REMARK SMILES IDX 14 12 16 13 15 14 11 15 1 16 2 17 3 19 4 20 5 21 6 22 10 23
REMARK SMILES IDX 7 24 9 25 8 26 26 27 27 28 28 29 29 30 30 31 31 32 32 33
REMARK SMILES IDX 33 34 94 35 34 36 93 37 35 38 36 39 37 40 87 41 38 42 92 43
REMARK SMILES IDX 86 44 88 45 39 46 91 47 85 48 84 49 40 51 72 52 52 53 71 54
REMARK SMILES IDX 53 55 56 56 70 57 89 58 54 59 55 60 69 62 90 63 57 64 41 65
REMARK SMILES IDX 42 66 50 67 43 68 44 69 48 70 51 71 45 72 46 73 49 74 47 75
REMARK SMILES IDX 73 76 74 77 82 78 75 79 76 80 80 81 83 82 77 83 78 84 81 85
REMARK SMILES IDX 79 86 58 87 59 88 67 89 60 90 61 91 65 92 68 93 62 94 63 95
REMARK SMILES IDX 66 96 64 97
REMARK H PARENT 11 18 88 50 56 61
REMARK Flexibility Score: inf
ROOT
ATOM      1  C   UNL     1      -1.159   0.620  -2.107  1.00  0.00     0.352 C 
ATOM      2  O   UNL     1      -1.743   1.675  -2.297  1.00  0.00    -0.245 OA
ENDROOT
BRANCH   1   3
ATOM      3  C   UNL     1       0.202   0.312  -2.526  1.00  0.00     0.155 A 
ATOM      4  C   UNL     1       0.954  -0.836  -2.349  1.00  0.00     0.152 A 
ATOM      5  C   UNL     1       2.243  -0.752  -2.954  1.00  0.00     0.060 A 
ATOM      6  C   UNL     1       2.479   0.500  -3.477  1.00  0.00     0.070 A 
ATOM      7  S   UNL     1       1.124   1.530  -3.314  1.00  0.00    -0.133 S 
BRANCH   4   8
ATOM      8  O   UNL     1       0.415  -1.885  -1.694  1.00  0.00    -0.453 OA
BRANCH   8   9
ATOM      9  C   UNL     1       1.077  -2.789  -0.907  1.00  0.00     0.151 A 
ATOM     10  C   UNL     1       2.235  -2.598  -0.141  1.00  0.00     0.084 A 
ATOM     11  C   UNL     1       2.782  -3.698   0.543  1.00  0.00     0.030 A 
ATOM     12  C   UNL     1       2.136  -4.936   0.556  1.00  0.00     0.002 A 
ATOM     13  C   UNL     1       0.443  -4.043  -0.894  1.00  0.00     0.049 A 
ATOM     14  C   UNL     1       0.958  -5.108  -0.158  1.00  0.00     0.004 A 
BRANCH  10  15
ATOM     15  N   UNL     1       2.927  -1.381   0.029  1.00  0.00    -0.323 N 
ATOM     16  O   UNL     1       1.154   0.022   0.565  1.00  0.00    -0.275 OA
ATOM     17  C   UNL     1       2.342  -0.163   0.316  1.00  0.00     0.224 C 
ATOM     18  H   UNL     1       3.907  -1.402  -0.064  1.00  0.00     0.170 HD
BRANCH  17  19
ATOM     19  C   UNL     1       3.338   0.984   0.358  1.00  0.00     0.105 C 
BRANCH  19  20
ATOM     20  C   UNL     1       4.004   1.124   1.728  1.00  0.00     0.045 C 
BRANCH  20  21
ATOM     21  C   UNL     1       5.178   0.185   1.889  1.00  0.00    -0.048 A 
ATOM     22  C   UNL     1       5.001  -1.089   2.445  1.00  0.00     0.004 A 
ATOM     23  C   UNL     1       6.446   0.551   1.418  1.00  0.00     0.004 A 
ATOM     24  C   UNL     1       6.057  -2.001   2.470  1.00  0.00     0.000 A 
ATOM     25  C   UNL     1       7.507  -0.354   1.469  1.00  0.00     0.000 A 
ATOM     26  C   UNL     1       7.308  -1.635   1.978  1.00  0.00     0.000 A 
ENDBRANCH  20  21
ENDBRANCH  19  20
ENDBRANCH  17  19
ENDBRANCH  10  15
ENDBRANCH   8   9
ENDBRANCH   4   8
ENDBRANCH   1   3
BRANCH   1  27
ATOM     27  O   UNL     1      -1.710  -0.454  -1.461  1.00  0.00    -0.458 OA
BRANCH  27  28
ATOM     28  C   UNL     1      -2.963  -0.245  -0.791  1.00  0.00     0.275 C 
BRANCH  28  29
ATOM     29  C   UNL     1      -2.715   0.195   0.649  1.00  0.00     0.275 C 
BRANCH  29  30
ATOM     30  O   UNL     1      -2.025   1.450   0.624  1.00  0.00    -0.458 OA
BRANCH  30  31
ATOM     31  C   UNL     1      -1.543   1.861   1.815  1.00  0.00     0.338 C 
ATOM     32  O   UNL     1      -1.720   1.346   2.906  1.00  0.00    -0.246 OA
BRANCH  31  33
ATOM     33  C   UNL     1      -0.850   3.146   1.605  1.00  0.00     0.060 A 
ATOM     34  C   UNL     1       0.095   3.305   0.585  1.00  0.00     0.016 A 
ATOM     35  C   UNL     1      -1.156   4.209   2.455  1.00  0.00     0.016 A 
ATOM     36  C   UNL     1       0.760   4.524   0.434  1.00  0.00     0.010 A 
ATOM     37  C   UNL     1      -0.527   5.440   2.272  1.00  0.00     0.010 A 
ATOM     38  C   UNL     1       0.453   5.602   1.276  1.00  0.00    -0.014 A 
BRANCH  38  39
ATOM     39  C   UNL     1       1.170   6.899   1.175  1.00  0.00     0.031 A 
ATOM     40  C   UNL     1       2.077   7.333   2.292  1.00  0.00     0.074 A 
ATOM     41  C   UNL     1       0.968   7.710   0.121  1.00  0.00     0.049 A 
ATOM     42  N   UNL     1       2.669   8.485   2.484  1.00  0.00    -0.248 NA
ATOM     43  C   UNL     1       2.341   6.339   3.344  1.00  0.00     0.031 C 
ATOM     44  C   UNL     1       0.128   7.403  -1.035  1.00  0.00     0.029 A 
ATOM     45  N   UNL     1       1.440   8.975  -0.133  1.00  0.00    -0.354 N 
ATOM     46  C   UNL     1       3.349   8.364   3.688  1.00  0.00     0.074 A 
ATOM     47  C   UNL     1       3.081   7.035   4.194  1.00  0.00     0.031 C 
ATOM     48  C   UNL     1       0.139   8.453  -1.874  1.00  0.00     0.029 A 
ATOM     49  C   UNL     1       0.946   9.522  -1.291  1.00  0.00     0.049 A 
ATOM     50  H   UNL     1       2.072   9.444   0.459  1.00  0.00     0.167 HD
ATOM     51  C   UNL     1       4.131   9.278   4.312  1.00  0.00     0.037 A 
ATOM     52  C   UNL     1       1.100  10.757  -1.807  1.00  0.00     0.037 A 
ATOM     53  C   UNL     1       4.412  10.594   3.800  1.00  0.00     0.049 A 
ATOM     54  C   UNL     1       1.935  11.770  -1.072  1.00  0.00     0.074 A 
ATOM     55  C   UNL     1       5.224  11.576   4.342  1.00  0.00     0.029 A 
ATOM     56  N   UNL     1       3.886  11.113   2.627  1.00  0.00    -0.354 N 
ATOM     57  N   UNL     1       2.588  11.643   0.057  1.00  0.00    -0.248 NA
ATOM     58  C   UNL     1       2.047  13.103  -1.683  1.00  0.00     0.031 C 
ATOM     59  C   UNL     1       5.156  12.704   3.517  1.00  0.00     0.029 A 
ATOM     60  C   UNL     1       4.338  12.409   2.438  1.00  0.00     0.049 A 
ATOM     61  H   UNL     1       3.281  10.631   2.018  1.00  0.00     0.167 HD
ATOM     62  C   UNL     1       3.205  12.867   0.281  1.00  0.00     0.074 A 
ATOM     63  C   UNL     1       2.859  13.721  -0.836  1.00  0.00     0.031 C 
ATOM     64  C   UNL     1       3.988  13.247   1.320  1.00  0.00     0.037 A 
BRANCH  51  65
ATOM     65  C   UNL     1       4.725   8.890   5.634  1.00  0.00     0.064 A 
ATOM     66  C   UNL     1       5.765   7.954   5.729  1.00  0.00     0.173 A 
ATOM     67  C   UNL     1       4.266   9.484   6.819  1.00  0.00     0.173 A 
ATOM     68  F   UNL     1       6.231   7.348   4.626  1.00  0.00    -0.203 F 
ATOM     69  C   UNL     1       6.306   7.607   6.964  1.00  0.00     0.198 A 
ATOM     70  C   UNL     1       4.827   9.155   8.050  1.00  0.00     0.198 A 
ATOM     71  F   UNL     1       3.277  10.390   6.784  1.00  0.00    -0.203 F 
ATOM     72  F   UNL     1       7.269   6.677   7.035  1.00  0.00    -0.200 F 
ATOM     73  C   UNL     1       5.841   8.212   8.123  1.00  0.00     0.200 A 
ATOM     74  F   UNL     1       4.386   9.749   9.167  1.00  0.00    -0.200 F 
ATOM     75  F   UNL     1       6.367   7.881   9.310  1.00  0.00    -0.200 F 
ENDBRANCH  51  65
BRANCH  52  76
ATOM     76  C   UNL     1       0.438  11.107  -3.090  1.00  0.00     0.064 A 
ATOM     77  C   UNL     1       1.190  11.295  -4.257  1.00  0.00     0.173 A 
ATOM     78  C   UNL     1      -0.954  11.261  -3.176  1.00  0.00     0.173 A 
ATOM     79  F   UNL     1       2.526  11.187  -4.217  1.00  0.00    -0.203 F 
ATOM     80  C   UNL     1       0.576  11.634  -5.461  1.00  0.00     0.198 A 
ATOM     81  C   UNL     1      -1.569  11.574  -4.386  1.00  0.00     0.198 A 
ATOM     82  F   UNL     1      -1.716  11.097  -2.085  1.00  0.00    -0.203 F 
ATOM     83  F   UNL     1       1.322  11.847  -6.553  1.00  0.00    -0.200 F 
ATOM     84  C   UNL     1      -0.803  11.766  -5.526  1.00  0.00     0.200 A 
ATOM     85  F   UNL     1      -2.902  11.694  -4.446  1.00  0.00    -0.200 F 
ATOM     86  F   UNL     1      -1.393  12.087  -6.685  1.00  0.00    -0.200 F 
ENDBRANCH  52  76
BRANCH  64  87
ATOM     87  C   UNL     1       4.551  14.638   1.284  1.00  0.00     0.064 A 
ATOM     88  C   UNL     1       3.749  15.762   1.527  1.00  0.00     0.173 A 
ATOM     89  C   UNL     1       5.918  14.845   1.038  1.00  0.00     0.173 A 
ATOM     90  F   UNL     1       2.435  15.618   1.750  1.00  0.00    -0.203 F 
ATOM     91  C   UNL     1       4.291  17.045   1.504  1.00  0.00     0.198 A 
ATOM     92  C   UNL     1       6.460  16.126   1.043  1.00  0.00     0.198 A 
ATOM     93  F   UNL     1       6.728  13.801   0.806  1.00  0.00    -0.203 F 
ATOM     94  F   UNL     1       3.499  18.109   1.697  1.00  0.00    -0.200 F 
ATOM     95  C   UNL     1       5.646  17.226   1.269  1.00  0.00     0.200 A 
ATOM     96  F   UNL     1       7.772  16.298   0.827  1.00  0.00    -0.200 F 
ATOM     97  F   UNL     1       6.167  18.461   1.254  1.00  0.00    -0.200 F 
ENDBRANCH  64  87
ENDBRANCH  38  39
ENDBRANCH  31  33
ENDBRANCH  30  31
ENDBRANCH  29  30
ENDBRANCH  28  29
ENDBRANCH  27  28
ENDBRANCH   1  27
TORSDOF 17
