REMARK SMILES Cc1ccnc(NC2(CC(=O)OCCOC(=O)c3ccc(-c4c5nc(c(-c6c(F)c(F)c(F)c(F)c6F)c6ccc([nH]6)c(-c6c(F)c(F)c(F)c(F)c6F)c6nc(c(-c7c(F)c(F)c(F)c(F)c7F)c7ccc4[nH]7)C=C6)C=C5)cc3)CCC2)n1
REMARK SMILES IDX 13 1 12 2 10 3 11 4 9 5 8 6 81 7 83 8 82 9 7 10 6 12 1 13
REMARK SMILES IDX 2 14 3 15 84 16 4 17 5 18 14 19 15 20 16 21 17 22 18 23
REMARK SMILES IDX 19 24 80 25 20 26 79 27 21 28 22 29 23 30 73 31 24 32 78 33
REMARK SMILES IDX 72 34 74 35 25 36 77 37 71 38 70 39 26 41 58 42 38 43 57 44
REMARK SMILES IDX 39 45 42 46 56 47 75 48 40 49 41 50 55 52 76 53 43 54 27 55
REMARK SMILES IDX 28 56 36 57 29 58 30 59 34 60 37 61 31 62 32 63 35 64 33 65
REMARK SMILES IDX 59 66 60 67 68 68 61 69 62 70 66 71 69 72 63 73 64 74 67 75
REMARK SMILES IDX 65 76 44 77 45 78 53 79 46 80 47 81 51 82 54 83 48 84 49 85
REMARK SMILES IDX 52 86 50 87
REMARK H PARENT 7 11 74 40 42 51
REMARK Flexibility Score: inf
ROOT
ATOM      1  C   UNL     1       3.176   4.576   3.183  1.00  0.00     0.274 C 
ENDROOT
BRANCH   1   2
ATOM      2  O   UNL     1       2.215   4.442   2.116  1.00  0.00    -0.462 OA
BRANCH   2   3
ATOM      3  C   UNL     1       2.547   5.042   0.948  1.00  0.00     0.308 C 
ATOM      4  O   UNL     1       3.589   5.660   0.751  1.00  0.00    -0.252 OA
BRANCH   3   5
ATOM      5  C   UNL     1       1.493   4.926  -0.119  1.00  0.00     0.151 C 
BRANCH   5   6
ATOM      6  C   UNL     1       0.433   3.821  -0.013  1.00  0.00     0.051 C 
ATOM      7  C   UNL     1      -0.684   4.045  -1.080  1.00  0.00     0.029 C 
ATOM      8  C   UNL     1      -0.661   3.997   1.074  1.00  0.00     0.029 C 
ATOM      9  C   UNL     1      -1.532   4.711   0.020  1.00  0.00     0.005 C 
BRANCH   6  10
ATOM     10  N   UNL     1       1.009   2.515  -0.086  1.00  0.00    -0.348 N 
ATOM     11  H   UNL     1       1.994   2.510  -0.079  1.00  0.00     0.164 HD
BRANCH  10  12
ATOM     12  C   UNL     1       0.437   1.247  -0.163  1.00  0.00     0.223 A 
ATOM     13  C   UNL     1      -2.852  -0.340  -0.034  1.00  0.00     0.067 C 
ATOM     14  C   UNL     1      -1.366  -0.186  -0.127  1.00  0.00     0.043 A 
ATOM     15  C   UNL     1      -0.537  -1.285  -0.176  1.00  0.00     0.044 A 
ATOM     16  N   UNL     1      -0.890   1.076  -0.131  1.00  0.00    -0.218 NA
ATOM     17  C   UNL     1       0.807  -1.011  -0.234  1.00  0.00     0.117 A 
ATOM     18  N   UNL     1       1.312   0.235  -0.234  1.00  0.00    -0.222 NA
ENDBRANCH  10  12
ENDBRANCH   6  10
ENDBRANCH   5   6
ENDBRANCH   3   5
ENDBRANCH   2   3
ENDBRANCH   1   2
BRANCH   1  19
ATOM     19  C   UNL     1       4.024   3.316   3.320  1.00  0.00     0.275 C 
BRANCH  19  20
ATOM     20  O   UNL     1       4.685   3.030   2.074  1.00  0.00    -0.458 OA
BRANCH  20  21
ATOM     21  C   UNL     1       4.327   1.866   1.487  1.00  0.00     0.338 C 
ATOM     22  O   UNL     1       3.568   1.019   1.919  1.00  0.00    -0.246 OA
BRANCH  21  23
ATOM     23  C   UNL     1       5.009   1.741   0.192  1.00  0.00     0.060 A 
ATOM     24  C   UNL     1       4.677   2.587  -0.869  1.00  0.00     0.016 A 
ATOM     25  C   UNL     1       5.928   0.707   0.015  1.00  0.00     0.016 A 
ATOM     26  C   UNL     1       5.252   2.387  -2.123  1.00  0.00     0.010 A 
ATOM     27  C   UNL     1       6.542   0.540  -1.227  1.00  0.00     0.010 A 
ATOM     28  C   UNL     1       6.202   1.373  -2.307  1.00  0.00    -0.014 A 
BRANCH  28  29
ATOM     29  C   UNL     1       6.864   1.185  -3.620  1.00  0.00     0.031 A 
ATOM     30  C   UNL     1       6.578  -0.033  -4.446  1.00  0.00     0.074 A 
ATOM     31  C   UNL     1       7.755   2.099  -4.046  1.00  0.00     0.049 A 
ATOM     32  N   UNL     1       7.179  -0.458  -5.528  1.00  0.00    -0.248 NA
ATOM     33  C   UNL     1       5.473  -0.891  -3.993  1.00  0.00     0.031 C 
ATOM     34  C   UNL     1       8.093   3.338  -3.347  1.00  0.00     0.029 A 
ATOM     35  N   UNL     1       8.550   2.116  -5.164  1.00  0.00    -0.354 N 
ATOM     36  C   UNL     1       6.548  -1.645  -5.870  1.00  0.00     0.074 A 
ATOM     37  C   UNL     1       5.518  -1.877  -4.878  1.00  0.00     0.031 C 
ATOM     38  C   UNL     1       9.029   3.995  -4.050  1.00  0.00     0.029 A 
ATOM     39  C   UNL     1       9.395   3.197  -5.215  1.00  0.00     0.049 A 
ATOM     40  H   UNL     1       8.519   1.421  -5.861  1.00  0.00     0.167 HD
ATOM     41  C   UNL     1       6.811  -2.464  -6.915  1.00  0.00     0.037 A 
ATOM     42  C   UNL     1      10.381   3.491  -6.082  1.00  0.00     0.037 A 
ATOM     43  C   UNL     1       7.817  -2.216  -7.914  1.00  0.00     0.049 A 
ATOM     44  C   UNL     1      10.680   2.543  -7.208  1.00  0.00     0.074 A 
ATOM     45  C   UNL     1       8.138  -2.974  -9.026  1.00  0.00     0.029 A 
ATOM     46  N   UNL     1       8.665  -1.118  -7.921  1.00  0.00    -0.354 N 
ATOM     47  N   UNL     1      10.095   1.411  -7.511  1.00  0.00    -0.248 NA
ATOM     48  C   UNL     1      11.787   2.908  -8.103  1.00  0.00     0.031 C 
ATOM     49  C   UNL     1       9.200  -2.351  -9.691  1.00  0.00     0.029 A 
ATOM     50  C   UNL     1       9.520  -1.188  -9.009  1.00  0.00     0.049 A 
ATOM     51  H   UNL     1       8.660  -0.396  -7.252  1.00  0.00     0.167 HD
ATOM     52  C   UNL     1      10.754   0.930  -8.633  1.00  0.00     0.074 A 
ATOM     53  C   UNL     1      11.776   1.902  -8.967  1.00  0.00     0.031 C 
ATOM     54  C   UNL     1      10.534  -0.215  -9.321  1.00  0.00     0.037 A 
BRANCH  41  55
ATOM     55  C   UNL     1       6.011  -3.727  -7.023  1.00  0.00     0.064 A 
ATOM     56  C   UNL     1       4.687  -3.722  -7.483  1.00  0.00     0.173 A 
ATOM     57  C   UNL     1       6.596  -4.962  -6.707  1.00  0.00     0.173 A 
ATOM     58  F   UNL     1       4.082  -2.564  -7.786  1.00  0.00    -0.203 F 
ATOM     59  C   UNL     1       3.971  -4.910  -7.609  1.00  0.00     0.198 A 
ATOM     60  C   UNL     1       5.884  -6.149  -6.852  1.00  0.00     0.198 A 
ATOM     61  F   UNL     1       7.862  -5.018  -6.266  1.00  0.00    -0.203 F 
ATOM     62  F   UNL     1       2.696  -4.882  -8.022  1.00  0.00    -0.200 F 
ATOM     63  C   UNL     1       4.571  -6.122  -7.299  1.00  0.00     0.200 A 
ATOM     64  F   UNL     1       6.467  -7.320  -6.560  1.00  0.00    -0.200 F 
ATOM     65  F   UNL     1       3.882  -7.264  -7.427  1.00  0.00    -0.200 F 
ENDBRANCH  41  55
BRANCH  42  66
ATOM     66  C   UNL     1      11.178   4.727  -5.891  1.00  0.00     0.064 A 
ATOM     67  C   UNL     1      11.020   5.824  -6.747  1.00  0.00     0.173 A 
ATOM     68  C   UNL     1      12.098   4.841  -4.838  1.00  0.00     0.173 A 
ATOM     69  F   UNL     1      10.169   5.748  -7.781  1.00  0.00    -0.203 F 
ATOM     70  C   UNL     1      11.757   6.991  -6.559  1.00  0.00     0.198 A 
ATOM     71  C   UNL     1      12.817   6.016  -4.639  1.00  0.00     0.198 A 
ATOM     72  F   UNL     1      12.284   3.816  -3.994  1.00  0.00    -0.203 F 
ATOM     73  F   UNL     1      11.610   8.017  -7.409  1.00  0.00    -0.200 F 
ATOM     74  C   UNL     1      12.649   7.089  -5.502  1.00  0.00     0.200 A 
ATOM     75  F   UNL     1      13.672   6.110  -3.611  1.00  0.00    -0.200 F 
ATOM     76  F   UNL     1      13.352   8.215  -5.318  1.00  0.00    -0.200 F 
ENDBRANCH  42  66
BRANCH  54  77
ATOM     77  C   UNL     1      11.407  -0.471 -10.511  1.00  0.00     0.064 A 
ATOM     78  C   UNL     1      12.726  -0.922 -10.361  1.00  0.00     0.173 A 
ATOM     79  C   UNL     1      10.912  -0.293 -11.810  1.00  0.00     0.173 A 
ATOM     80  F   UNL     1      13.248  -1.089  -9.137  1.00  0.00    -0.203 F 
ATOM     81  C   UNL     1      13.525  -1.172 -11.474  1.00  0.00     0.198 A 
ATOM     82  C   UNL     1      11.707  -0.561 -12.920  1.00  0.00     0.198 A 
ATOM     83  F   UNL     1       9.655   0.136 -12.001  1.00  0.00    -0.203 F 
ATOM     84  F   UNL     1      14.794  -1.570 -11.310  1.00  0.00    -0.200 F 
ATOM     85  C   UNL     1      13.013  -0.996 -12.751  1.00  0.00     0.200 A 
ATOM     86  F   UNL     1      11.210  -0.397 -14.154  1.00  0.00    -0.200 F 
ATOM     87  F   UNL     1      13.783  -1.238 -13.821  1.00  0.00    -0.200 F 
ENDBRANCH  54  77
ENDBRANCH  28  29
ENDBRANCH  21  23
ENDBRANCH  20  21
ENDBRANCH  19  20
ENDBRANCH   1  19
TORSDOF 14
