REMARK SMILES CC1(C(=O)N[C@H](C(=O)OCCOC(=O)c2ccc(-c3c4nc(c(-c5c(F)c(F)c(F)c(F)c5F)c5ccc([nH]5)c(-c5c(F)c(F)c(F)c(F)c5F)c5nc(c(-c6c(F)c(F)c(F)c(F)c6F)c6ccc3[nH]6)C=C5)C=C4)cc2)C2CC2)CCCC1
REMARK SMILES IDX 10 1 9 2 7 3 8 4 6 5 5 6 3 7 4 8 2 10 1 11 81 12 84 13 82 14
REMARK SMILES IDX 83 15 78 16 79 17 80 18 11 19 12 20 13 21 14 22 15 23 16 24
REMARK SMILES IDX 77 25 17 26 76 27 18 28 19 29 20 30 70 31 21 32 75 33 69 34
REMARK SMILES IDX 71 35 22 36 74 37 68 38 67 39 23 41 55 42 35 43 54 44 36 45
REMARK SMILES IDX 39 46 53 47 72 48 37 49 38 50 52 52 73 53 40 54 24 55 25 56
REMARK SMILES IDX 33 57 26 58 27 59 31 60 34 61 28 62 29 63 32 64 30 65 56 66
REMARK SMILES IDX 57 67 65 68 58 69 59 70 63 71 66 72 60 73 61 74 64 75 62 76
REMARK SMILES IDX 41 77 42 78 50 79 43 80 44 81 48 82 51 83 45 84 46 85 49 86
REMARK SMILES IDX 47 87
REMARK H PARENT 5 9 71 40 39 51
REMARK Flexibility Score: inf
ROOT
ATOM      1  C   UNL     1       3.883   0.040   3.813  1.00  0.00     0.274 C 
ENDROOT
BRANCH   1   2
ATOM      2  O   UNL     1       4.093  -0.538   2.509  1.00  0.00    -0.461 OA
BRANCH   2   3
ATOM      3  C   UNL     1       3.200  -1.509   2.176  1.00  0.00     0.329 C 
ATOM      4  O   UNL     1       2.262  -1.860   2.890  1.00  0.00    -0.250 OA
BRANCH   3   5
ATOM      5  C   UNL     1       3.424  -2.107   0.768  1.00  0.00     0.195 C 
BRANCH   5   6
ATOM      6  N   UNL     1       4.682  -1.772   0.112  1.00  0.00    -0.342 N 
ATOM      7  C   UNL     1       4.968  -1.216  -1.095  1.00  0.00     0.226 C 
ATOM      8  O   UNL     1       6.149  -1.291  -1.450  1.00  0.00    -0.274 OA
ATOM      9  H   UNL     1       5.479  -1.990   0.648  1.00  0.00     0.164 HD
BRANCH   7  10
ATOM     10  C   UNL     1       3.911  -0.523  -1.984  1.00  0.00     0.046 C 
ATOM     11  C   UNL     1       2.864  -1.504  -2.536  1.00  0.00     0.022 C 
ATOM     12  C   UNL     1       4.604   0.172  -3.185  1.00  0.00     0.016 C 
ATOM     13  C   UNL     1       3.261   0.666  -1.254  1.00  0.00     0.016 C 
ATOM     14  C   UNL     1       3.670   1.307  -3.573  1.00  0.00     0.001 C 
ATOM     15  C   UNL     1       3.166   1.832  -2.241  1.00  0.00     0.001 C 
ENDBRANCH   7  10
ENDBRANCH   5   6
BRANCH   5  16
ATOM     16  C   UNL     1       3.312  -3.619   0.848  1.00  0.00     0.023 C 
ATOM     17  C   UNL     1       2.206  -4.345   0.116  1.00  0.00     0.007 C 
ATOM     18  C   UNL     1       3.633  -4.533  -0.312  1.00  0.00     0.007 C 
ENDBRANCH   5  16
ENDBRANCH   3   5
ENDBRANCH   2   3
ENDBRANCH   1   2
BRANCH   1  19
ATOM     19  C   UNL     1       3.013   1.295   3.746  1.00  0.00     0.275 C 
BRANCH  19  20
ATOM     20  O   UNL     1       1.795   1.044   3.019  1.00  0.00    -0.458 OA
BRANCH  20  21
ATOM     21  C   UNL     1       1.644   1.773   1.890  1.00  0.00     0.338 C 
ATOM     22  O   UNL     1       2.401   2.634   1.463  1.00  0.00    -0.246 OA
BRANCH  21  23
ATOM     23  C   UNL     1       0.411   1.413   1.167  1.00  0.00     0.060 A 
ATOM     24  C   UNL     1       0.147   0.096   0.791  1.00  0.00     0.016 A 
ATOM     25  C   UNL     1      -0.389   2.453   0.688  1.00  0.00     0.016 A 
ATOM     26  C   UNL     1      -0.849  -0.168  -0.153  1.00  0.00     0.010 A 
ATOM     27  C   UNL     1      -1.440   2.177  -0.189  1.00  0.00     0.010 A 
ATOM     28  C   UNL     1      -1.651   0.871  -0.654  1.00  0.00    -0.014 A 
BRANCH  28  29
ATOM     29  C   UNL     1      -2.720   0.595  -1.649  1.00  0.00     0.031 A 
ATOM     30  C   UNL     1      -2.659   1.175  -3.037  1.00  0.00     0.074 A 
ATOM     31  C   UNL     1      -3.771  -0.166  -1.293  1.00  0.00     0.049 A 
ATOM     32  N   UNL     1      -3.553   1.122  -3.994  1.00  0.00    -0.248 NA
ATOM     33  C   UNL     1      -1.441   1.917  -3.396  1.00  0.00     0.031 C 
ATOM     34  C   UNL     1      -3.956  -0.784   0.019  1.00  0.00     0.029 A 
ATOM     35  N   UNL     1      -4.880  -0.548  -2.003  1.00  0.00    -0.354 N 
ATOM     36  C   UNL     1      -3.027   1.853  -5.050  1.00  0.00     0.074 A 
ATOM     37  C   UNL     1      -1.732   2.341  -4.620  1.00  0.00     0.031 C 
ATOM     38  C   UNL     1      -5.096  -1.491   0.013  1.00  0.00     0.029 A 
ATOM     39  C   UNL     1      -5.747  -1.331  -1.284  1.00  0.00     0.049 A 
ATOM     40  H   UNL     1      -5.040  -0.285  -2.939  1.00  0.00     0.167 HD
ATOM     41  C   UNL     1      -3.575   2.098  -6.265  1.00  0.00     0.037 A 
ATOM     42  C   UNL     1      -6.943  -1.847  -1.617  1.00  0.00     0.037 A 
ATOM     43  C   UNL     1      -4.845   1.585  -6.713  1.00  0.00     0.049 A 
ATOM     44  C   UNL     1      -7.518  -1.579  -2.974  1.00  0.00     0.074 A 
ATOM     45  C   UNL     1      -5.459   1.753  -7.944  1.00  0.00     0.029 A 
ATOM     46  N   UNL     1      -5.693   0.797  -5.951  1.00  0.00    -0.354 N 
ATOM     47  N   UNL     1      -7.018  -0.871  -3.955  1.00  0.00    -0.248 NA
ATOM     48  C   UNL     1      -8.830  -2.172  -3.265  1.00  0.00     0.031 C 
ATOM     49  C   UNL     1      -6.690   1.087  -7.917  1.00  0.00     0.029 A 
ATOM     50  C   UNL     1      -6.829   0.481  -6.680  1.00  0.00     0.049 A 
ATOM     51  H   UNL     1      -5.515   0.505  -5.028  1.00  0.00     0.167 HD
ATOM     52  C   UNL     1      -7.952  -0.925  -4.978  1.00  0.00     0.074 A 
ATOM     53  C   UNL     1      -9.040  -1.759  -4.507  1.00  0.00     0.031 C 
ATOM     54  C   UNL     1      -7.914  -0.330  -6.194  1.00  0.00     0.037 A 
BRANCH  41  55
ATOM     55  C   UNL     1      -2.813   2.980  -7.207  1.00  0.00     0.064 A 
ATOM     56  C   UNL     1      -1.716   2.503  -7.936  1.00  0.00     0.173 A 
ATOM     57  C   UNL     1      -3.232   4.300  -7.433  1.00  0.00     0.173 A 
ATOM     58  F   UNL     1      -1.272   1.252  -7.747  1.00  0.00    -0.203 F 
ATOM     59  C   UNL     1      -1.058   3.321  -8.853  1.00  0.00     0.198 A 
ATOM     60  C   UNL     1      -2.584   5.109  -8.362  1.00  0.00     0.198 A 
ATOM     61  F   UNL     1      -4.282   4.800  -6.762  1.00  0.00    -0.203 F 
ATOM     62  F   UNL     1       0.002   2.852  -9.526  1.00  0.00    -0.200 F 
ATOM     63  C   UNL     1      -1.497   4.619  -9.070  1.00  0.00     0.200 A 
ATOM     64  F   UNL     1      -3.014   6.360  -8.577  1.00  0.00    -0.200 F 
ATOM     65  F   UNL     1      -0.870   5.399  -9.961  1.00  0.00    -0.200 F 
ENDBRANCH  41  55
BRANCH  42  66
ATOM     66  C   UNL     1      -7.670  -2.671  -0.623  1.00  0.00     0.064 A 
ATOM     67  C   UNL     1      -7.707  -4.065  -0.740  1.00  0.00     0.173 A 
ATOM     68  C   UNL     1      -8.283  -2.085   0.494  1.00  0.00     0.173 A 
ATOM     69  F   UNL     1      -7.147  -4.662  -1.803  1.00  0.00    -0.203 F 
ATOM     70  C   UNL     1      -8.327  -4.848   0.230  1.00  0.00     0.198 A 
ATOM     71  C   UNL     1      -8.885  -2.870   1.473  1.00  0.00     0.198 A 
ATOM     72  F   UNL     1      -8.265  -0.753   0.647  1.00  0.00    -0.203 F 
ATOM     73  F   UNL     1      -8.360  -6.180   0.092  1.00  0.00    -0.200 F 
ATOM     74  C   UNL     1      -8.907  -4.250   1.340  1.00  0.00     0.200 A 
ATOM     75  F   UNL     1      -9.431  -2.291   2.550  1.00  0.00    -0.200 F 
ATOM     76  F   UNL     1      -9.485  -5.006   2.284  1.00  0.00    -0.200 F 
ENDBRANCH  42  66
BRANCH  54  77
ATOM     77  C   UNL     1      -9.091  -0.555  -7.092  1.00  0.00     0.064 A 
ATOM     78  C   UNL     1     -10.300   0.125  -6.886  1.00  0.00     0.173 A 
ATOM     79  C   UNL     1      -9.011  -1.452  -8.166  1.00  0.00     0.173 A 
ATOM     80  F   UNL     1     -10.427   0.980  -5.859  1.00  0.00    -0.203 F 
ATOM     81  C   UNL     1     -11.398  -0.104  -7.711  1.00  0.00     0.198 A 
ATOM     82  C   UNL     1     -10.106  -1.666  -8.999  1.00  0.00     0.198 A 
ATOM     83  F   UNL     1      -7.875  -2.125  -8.402  1.00  0.00    -0.203 F 
ATOM     84  F   UNL     1     -12.557   0.524  -7.471  1.00  0.00    -0.200 F 
ATOM     85  C   UNL     1     -11.299  -0.997  -8.767  1.00  0.00     0.200 A 
ATOM     86  F   UNL     1     -10.010  -2.528 -10.021  1.00  0.00    -0.200 F 
ATOM     87  F   UNL     1     -12.359  -1.223  -9.555  1.00  0.00    -0.200 F 
ENDBRANCH  54  77
ENDBRANCH  28  29
ENDBRANCH  21  23
ENDBRANCH  20  21
ENDBRANCH  19  20
ENDBRANCH   1  19
TORSDOF 14
