REMARK SMILES O=C(OCCOC(=O)[C@H]1[C@H]2C[C@@H]3[C@@H](OC(=O)[C@@H]31)[C@@H]2Sc1ccccc1)c1ccc(-c2c3nc(c(-c4c(F)c(F)c(F)c(F)c4F)c4ccc([nH]4)c(-c4c(F)c(F)c(F)c(F)c4F)c4nc(c(-c5c(F)c(F)c(F)c(F)c5F)c5ccc2[nH]5)C=C4)C=C3)cc1
REMARK SMILES IDX 4 1 3 2 2 3 1 4 26 5 27 6 88 7 28 8 87 9 29 10 30 11 31 12
REMARK SMILES IDX 81 13 32 14 86 15 80 16 82 17 33 18 85 19 79 20 78 21 34 23
REMARK SMILES IDX 66 24 46 25 65 26 47 27 50 28 64 29 83 30 48 31 49 32 63 34
REMARK SMILES IDX 84 35 51 36 35 37 36 38 44 39 37 40 38 41 42 42 45 43 39 44
REMARK SMILES IDX 40 45 43 46 41 47 67 48 68 49 76 50 69 51 70 52 74 53 77 54
REMARK SMILES IDX 71 55 72 56 75 57 73 58 52 59 53 60 61 61 54 62 55 63 59 64
REMARK SMILES IDX 62 65 56 66 57 67 60 68 58 69 5 70 6 71 7 72 8 73 9 74 10 75
REMARK SMILES IDX 17 76 11 77 18 78 12 79 15 80 13 81 14 82 16 83 19 84 20 85
REMARK SMILES IDX 21 86 25 87 22 88 24 89 23 90
REMARK H PARENT 82 22 50 33
REMARK Flexibility Score: inf
ROOT
ATOM      1  C   UNL     1       4.290   0.304  -1.507  1.00  0.00     0.275 C 
ENDROOT
BRANCH   1   2
ATOM      2  O   UNL     1       3.235  -0.601  -1.143  1.00  0.00    -0.458 OA
BRANCH   2   3
ATOM      3  C   UNL     1       3.075  -1.347  -0.025  1.00  0.00     0.338 C 
ATOM      4  O   UNL     1       2.191  -2.201  -0.013  1.00  0.00    -0.246 OA
BRANCH   3   5
ATOM      5  C   UNL     1       3.799  -1.072   1.258  1.00  0.00     0.060 A 
ATOM      6  C   UNL     1       5.045  -0.458   1.401  1.00  0.00     0.016 A 
ATOM      7  C   UNL     1       3.115  -1.421   2.433  1.00  0.00     0.016 A 
ATOM      8  C   UNL     1       5.532  -0.085   2.657  1.00  0.00     0.010 A 
ATOM      9  C   UNL     1       3.583  -1.038   3.695  1.00  0.00     0.010 A 
ATOM     10  C   UNL     1       4.798  -0.357   3.810  1.00  0.00    -0.014 A 
BRANCH  10  11
ATOM     11  C   UNL     1       5.413  -0.117   5.132  1.00  0.00     0.031 A 
ATOM     12  C   UNL     1       5.976  -1.304   5.852  1.00  0.00     0.074 A 
ATOM     13  C   UNL     1       5.532   1.124   5.639  1.00  0.00     0.049 A 
ATOM     14  N   UNL     1       6.635  -1.355   6.978  1.00  0.00    -0.248 NA
ATOM     15  C   UNL     1       5.795  -2.612   5.198  1.00  0.00     0.031 C 
ATOM     16  C   UNL     1       5.082   2.354   4.990  1.00  0.00     0.029 A 
ATOM     17  N   UNL     1       6.068   1.556   6.827  1.00  0.00    -0.354 N 
ATOM     18  C   UNL     1       6.969  -2.690   7.147  1.00  0.00     0.074 A 
ATOM     19  C   UNL     1       6.379  -3.429   6.056  1.00  0.00     0.031 C 
ATOM     20  C   UNL     1       5.314   3.396   5.807  1.00  0.00     0.029 A 
ATOM     21  C   UNL     1       5.939   2.909   7.032  1.00  0.00     0.049 A 
ATOM     22  H   UNL     1       6.504   0.953   7.471  1.00  0.00     0.167 HD
ATOM     23  C   UNL     1       7.736  -3.246   8.111  1.00  0.00     0.037 A 
ATOM     24  C   UNL     1       6.289   3.660   8.094  1.00  0.00     0.037 A 
ATOM     25  C   UNL     1       8.292  -2.505   9.206  1.00  0.00     0.049 A 
ATOM     26  C   UNL     1       7.034   2.997   9.224  1.00  0.00     0.074 A 
ATOM     27  C   UNL     1       9.077  -2.959  10.247  1.00  0.00     0.029 A 
ATOM     28  N   UNL     1       8.097  -1.144   9.407  1.00  0.00    -0.354 N 
ATOM     29  N   UNL     1       7.403   1.744   9.347  1.00  0.00    -0.248 NA
ATOM     30  C   UNL     1       7.444   3.855  10.344  1.00  0.00     0.031 C 
ATOM     31  C   UNL     1       9.304  -1.886  11.114  1.00  0.00     0.029 A 
ATOM     32  C   UNL     1       8.719  -0.748  10.577  1.00  0.00     0.049 A 
ATOM     33  H   UNL     1       7.591  -0.550   8.807  1.00  0.00     0.167 HD
ATOM     34  C   UNL     1       8.125   1.670  10.529  1.00  0.00     0.074 A 
ATOM     35  C   UNL     1       8.145   3.008  11.085  1.00  0.00     0.031 C 
ATOM     36  C   UNL     1       8.729   0.597  11.098  1.00  0.00     0.037 A 
BRANCH  23  37
ATOM     37  C   UNL     1       7.974  -4.722   8.014  1.00  0.00     0.064 A 
ATOM     38  C   UNL     1       8.763  -5.275   6.991  1.00  0.00     0.173 A 
ATOM     39  C   UNL     1       7.368  -5.599   8.924  1.00  0.00     0.173 A 
ATOM     40  F   UNL     1       9.340  -4.480   6.077  1.00  0.00    -0.203 F 
ATOM     41  C   UNL     1       8.903  -6.654   6.862  1.00  0.00     0.198 A 
ATOM     42  C   UNL     1       7.536  -6.976   8.809  1.00  0.00     0.198 A 
ATOM     43  F   UNL     1       6.598  -5.122   9.913  1.00  0.00    -0.203 F 
ATOM     44  F   UNL     1       9.601  -7.162   5.836  1.00  0.00    -0.200 F 
ATOM     45  C   UNL     1       8.293  -7.503   7.772  1.00  0.00     0.200 A 
ATOM     46  F   UNL     1       6.950  -7.795   9.693  1.00  0.00    -0.200 F 
ATOM     47  F   UNL     1       8.421  -8.830   7.643  1.00  0.00    -0.200 F 
ENDBRANCH  23  37
BRANCH  24  48
ATOM     48  C   UNL     1       5.965   5.112   8.135  1.00  0.00     0.064 A 
ATOM     49  C   UNL     1       6.967   6.090   8.062  1.00  0.00     0.173 A 
ATOM     50  C   UNL     1       4.640   5.553   8.286  1.00  0.00     0.173 A 
ATOM     51  F   UNL     1       8.252   5.723   7.943  1.00  0.00    -0.203 F 
ATOM     52  C   UNL     1       6.662   7.447   8.160  1.00  0.00     0.198 A 
ATOM     53  C   UNL     1       4.333   6.911   8.357  1.00  0.00     0.198 A 
ATOM     54  F   UNL     1       3.644   4.660   8.378  1.00  0.00    -0.203 F 
ATOM     55  F   UNL     1       7.646   8.356   8.139  1.00  0.00    -0.200 F 
ATOM     56  C   UNL     1       5.345   7.857   8.303  1.00  0.00     0.200 A 
ATOM     57  F   UNL     1       3.059   7.304   8.495  1.00  0.00    -0.200 F 
ATOM     58  F   UNL     1       5.054   9.162   8.403  1.00  0.00    -0.200 F 
ENDBRANCH  24  48
BRANCH  36  59
ATOM     59  C   UNL     1       9.499   0.831  12.364  1.00  0.00     0.064 A 
ATOM     60  C   UNL     1       8.857   1.110  13.579  1.00  0.00     0.173 A 
ATOM     61  C   UNL     1      10.897   0.706  12.370  1.00  0.00     0.173 A 
ATOM     62  F   UNL     1       7.524   1.252  13.622  1.00  0.00    -0.203 F 
ATOM     63  C   UNL     1       9.590   1.277  14.750  1.00  0.00     0.198 A 
ATOM     64  C   UNL     1      11.622   0.837  13.549  1.00  0.00     0.198 A 
ATOM     65  F   UNL     1      11.557   0.431  11.234  1.00  0.00    -0.203 F 
ATOM     66  F   UNL     1       8.961   1.589  15.892  1.00  0.00    -0.200 F 
ATOM     67  C   UNL     1      10.969   1.129  14.736  1.00  0.00     0.200 A 
ATOM     68  F   UNL     1      12.952   0.674  13.537  1.00  0.00    -0.200 F 
ATOM     69  F   UNL     1      11.671   1.273  15.869  1.00  0.00    -0.200 F 
ENDBRANCH  36  59
ENDBRANCH  10  11
ENDBRANCH   3   5
ENDBRANCH   2   3
ENDBRANCH   1   2
BRANCH   1  70
ATOM     70  C   UNL     1       4.093   1.744  -1.020  1.00  0.00     0.274 C 
BRANCH  70  71
ATOM     71  O   UNL     1       3.653   1.843   0.349  1.00  0.00    -0.462 OA
BRANCH  71  72
ATOM     72  C   UNL     1       2.302   1.903   0.524  1.00  0.00     0.310 C 
ATOM     73  O   UNL     1       1.490   1.962  -0.387  1.00  0.00    -0.252 OA
BRANCH  72  74
ATOM     74  C   UNL     1       1.933   1.893   2.003  1.00  0.00     0.118 C 
ATOM     75  C   UNL     1       1.770   3.331   2.579  1.00  0.00     0.022 C 
ATOM     76  C   UNL     1       0.522   1.280   2.225  1.00  0.00     0.120 C 
ATOM     77  C   UNL     1       0.373   3.671   2.054  1.00  0.00     0.014 C 
ATOM     78  C   UNL     1       1.557   3.171   4.114  1.00  0.00     0.097 C 
ATOM     79  C   UNL     1      -0.288   2.479   2.710  1.00  0.00     0.047 C 
ATOM     80  C   UNL     1       0.400   0.392   3.432  1.00  0.00     0.310 C 
ATOM     81  C   UNL     1       0.157   2.521   4.174  1.00  0.00     0.194 C 
ATOM     82  O   UNL     1       0.258   1.149   4.557  1.00  0.00    -0.461 OA
ATOM     83  O   UNL     1       0.405  -0.830   3.442  1.00  0.00    -0.252 OA
BRANCH  78  84
ATOM     84  S   UNL     1       1.794   4.641   5.200  1.00  0.00    -0.119 SA
BRANCH  84  85
ATOM     85  C   UNL     1       0.750   5.871   4.466  1.00  0.00     0.008 A 
ATOM     86  C   UNL     1       1.333   6.884   3.700  1.00  0.00     0.015 A 
ATOM     87  C   UNL     1      -0.642   5.827   4.605  1.00  0.00     0.015 A 
ATOM     88  C   UNL     1       0.529   7.788   3.005  1.00  0.00     0.001 A 
ATOM     89  C   UNL     1      -1.446   6.713   3.886  1.00  0.00     0.001 A 
ATOM     90  C   UNL     1      -0.860   7.684   3.077  1.00  0.00     0.000 A 
ENDBRANCH  84  85
ENDBRANCH  78  84
ENDBRANCH  72  74
ENDBRANCH  71  72
ENDBRANCH  70  71
ENDBRANCH   1  70
TORSDOF 13
