REMARK SMILES Cc1ccccc1NC(=S)NN1C(=O)CS[C@H]1c1ccccc1C(=O)OCCOC(=O)c1ccc(-c2c3nc(c(-c4c(F)c(F)c(F)c(F)c4F)c4ccc([nH]4)c(-c4c(F)c(F)c(F)c(F)c4F)c4nc(c(-c5c(F)c(F)c(F)c(F)c5F)c5ccc2[nH]5)C=C4)C=C3)cc1
REMARK SMILES IDX 26 1 24 2 25 3 23 4 18 5 19 6 20 7 22 8 21 9 17 10 12 11
REMARK SMILES IDX 13 12 14 13 15 14 16 15 11 16 9 18 10 19 8 20 7 22 1 23 2 24
REMARK SMILES IDX 3 25 4 26 6 27 5 28 27 29 28 30 29 31 30 32 31 33 32 34
REMARK SMILES IDX 33 35 94 36 34 37 93 38 35 39 36 40 37 41 87 42 38 43 92 44
REMARK SMILES IDX 86 45 88 46 39 47 91 48 85 49 84 50 40 52 72 53 52 54 71 55
REMARK SMILES IDX 53 56 56 57 70 58 89 59 54 60 55 61 69 63 90 64 57 65 41 66
REMARK SMILES IDX 42 67 50 68 43 69 44 70 48 71 51 72 45 73 46 74 49 75 47 76
REMARK SMILES IDX 73 77 74 78 82 79 75 80 76 81 80 82 83 83 77 84 78 85 81 86
REMARK SMILES IDX 79 87 58 88 59 89 67 90 60 91 61 92 65 93 68 94 62 95 63 96
REMARK SMILES IDX 66 97 64 98
REMARK H PARENT 11 17 8 21 88 51 56 62
REMARK Flexibility Score: inf
ROOT
ATOM      1  O   UNL     1      -0.270   3.588   0.887  1.00  0.00    -0.458 OA
ENDROOT
BRANCH   1   2
ATOM      2  C   UNL     1      -1.182   5.100   0.864  1.00  0.00     0.338 C 
ATOM      3  O   UNL     1      -0.190   5.867   0.789  1.00  0.00    -0.246 OA
BRANCH   2   4
ATOM      4  C   UNL     1      -3.339   5.301   0.579  1.00  0.00     0.066 A 
ATOM      5  C   UNL     1      -4.229   4.224  -0.398  1.00  0.00     0.001 A 
ATOM      6  C   UNL     1      -5.632   4.263  -0.593  1.00  0.00     0.008 A 
ATOM      7  C   UNL     1      -6.361   5.331  -0.121  1.00  0.00     0.000 A 
ATOM      8  C   UNL     1      -4.338   6.362   0.881  1.00  0.00     0.016 A 
ATOM      9  C   UNL     1      -5.721   6.378   0.524  1.00  0.00     0.001 A 
BRANCH   5  10
ATOM     10  C   UNL     1      -3.466   2.970  -1.448  1.00  0.00     0.197 C 
ATOM     11  N   UNL     1      -1.886   2.412  -1.225  1.00  0.00    -0.236 N 
ATOM     12  C   UNL     1      -2.128   1.048  -0.325  1.00  0.00     0.252 C 
ATOM     13  O   UNL     1      -1.706   0.757   0.803  1.00  0.00    -0.272 OA
ATOM     14  C   UNL     1      -3.305   0.269  -0.756  1.00  0.00     0.174 C 
ATOM     15  S   UNL     1      -4.570   1.409  -1.216  1.00  0.00    -0.120 SA
BRANCH  11  16
ATOM     16  N   UNL     1      -0.274   3.589  -1.197  1.00  0.00    -0.270 N 
ATOM     17  H   UNL     1      -0.501   4.514  -0.950  1.00  0.00     0.191 HD
BRANCH  16  18
ATOM     18  C   UNL     1       1.409   3.402  -1.495  1.00  0.00     0.189 C 
ATOM     19  S   UNL     1       2.393   4.757  -1.274  1.00  0.00    -0.039 S 
BRANCH  18  20
ATOM     20  N   UNL     1       2.150   1.957  -1.475  1.00  0.00    -0.331 N 
ATOM     21  H   UNL     1       3.124   2.076  -1.549  1.00  0.00     0.169 HD
BRANCH  20  22
ATOM     22  C   UNL     1       1.800   0.429  -1.374  1.00  0.00     0.043 A 
ATOM     23  C   UNL     1       3.679  -0.326   0.219  1.00  0.00     0.046 C 
ATOM     24  C   UNL     1       2.297  -0.413  -0.353  1.00  0.00    -0.028 A 
ATOM     25  C   UNL     1       1.549  -1.566   0.064  1.00  0.00     0.005 A 
ATOM     26  C   UNL     1       0.347  -1.922  -0.529  1.00  0.00     0.000 A 
ATOM     27  C   UNL     1       0.838  -0.230  -2.164  1.00  0.00     0.026 A 
ATOM     28  C   UNL     1       0.020  -1.278  -1.696  1.00  0.00     0.002 A 
ENDBRANCH  20  22
ENDBRANCH  18  20
ENDBRANCH  16  18
ENDBRANCH  11  16
ENDBRANCH   5  10
ENDBRANCH   2   4
ENDBRANCH   1   2
BRANCH   1  29
ATOM     29  C   UNL     1       0.098   2.064  -0.150  1.00  0.00     0.275 C 
BRANCH  29  30
ATOM     30  C   UNL     1      -0.222   1.991  -2.210  1.00  0.00     0.275 C 
BRANCH  30  31
ATOM     31  O   UNL     1      -1.050   3.441  -3.032  1.00  0.00    -0.458 OA
BRANCH  31  32
ATOM     32  C   UNL     1      -1.545   4.784  -2.540  1.00  0.00     0.338 C 
ATOM     33  O   UNL     1      -1.580   5.745  -3.305  1.00  0.00    -0.246 OA
BRANCH  32  34
ATOM     34  C   UNL     1      -2.011   5.066  -0.956  1.00  0.00     0.060 A 
ATOM     35  C   UNL     1      -1.979   6.711  -0.200  1.00  0.00     0.016 A 
ATOM     36  C   UNL     1      -2.296   3.700   0.343  1.00  0.00     0.016 A 
ATOM     37  C   UNL     1      -2.076   6.802   1.640  1.00  0.00     0.010 A 
ATOM     38  C   UNL     1      -2.473   3.916   1.993  1.00  0.00     0.010 A 
ATOM     39  C   UNL     1      -2.295   5.377   2.692  1.00  0.00    -0.014 A 
BRANCH  39  40
ATOM     40  C   UNL     1      -1.443   4.786   3.840  1.00  0.00     0.031 A 
ATOM     41  C   UNL     1      -2.119   3.531   4.590  1.00  0.00     0.074 A 
ATOM     42  C   UNL     1      -0.097   5.062   3.774  1.00  0.00     0.049 A 
ATOM     43  N   UNL     1      -2.152   3.361   5.870  1.00  0.00    -0.248 NA
ATOM     44  C   UNL     1      -2.971   2.398   4.003  1.00  0.00     0.031 C 
ATOM     45  C   UNL     1       1.116   4.505   4.389  1.00  0.00     0.029 A 
ATOM     46  N   UNL     1       0.448   6.160   3.091  1.00  0.00    -0.354 N 
ATOM     47  C   UNL     1      -2.398   1.996   6.062  1.00  0.00     0.074 A 
ATOM     48  C   UNL     1      -3.264   1.603   5.023  1.00  0.00     0.031 C 
ATOM     49  C   UNL     1       2.077   5.464   4.429  1.00  0.00     0.029 A 
ATOM     50  C   UNL     1       1.563   6.655   3.769  1.00  0.00     0.049 A 
ATOM     51  H   UNL     1       0.093   6.530   2.251  1.00  0.00     0.167 HD
ATOM     52  C   UNL     1      -1.511   1.243   6.776  1.00  0.00     0.037 A 
ATOM     53  C   UNL     1       1.395   7.904   4.286  1.00  0.00     0.037 A 
ATOM     54  C   UNL     1      -0.444   2.129   7.250  1.00  0.00     0.049 A 
ATOM     55  C   UNL     1       0.884   7.729   5.709  1.00  0.00     0.074 A 
ATOM     56  C   UNL     1       0.912   2.248   7.025  1.00  0.00     0.029 A 
ATOM     57  N   UNL     1      -0.834   3.333   7.816  1.00  0.00    -0.354 N 
ATOM     58  N   UNL     1       0.420   6.599   6.184  1.00  0.00    -0.248 NA
ATOM     59  C   UNL     1       0.996   8.746   6.745  1.00  0.00     0.031 C 
ATOM     60  C   UNL     1       1.290   3.587   7.394  1.00  0.00     0.029 A 
ATOM     61  C   UNL     1       0.162   4.277   7.816  1.00  0.00     0.049 A 
ATOM     62  H   UNL     1      -1.734   3.495   8.181  1.00  0.00     0.167 HD
ATOM     63  C   UNL     1       0.239   6.681   7.531  1.00  0.00     0.074 A 
ATOM     64  C   UNL     1       0.605   8.054   7.831  1.00  0.00     0.031 C 
ATOM     65  C   UNL     1      -0.155   5.621   8.305  1.00  0.00     0.037 A 
BRANCH  52  66
ATOM     66  C   UNL     1      -1.466  -0.278   6.906  1.00  0.00     0.064 A 
ATOM     67  C   UNL     1      -0.601  -0.829   7.877  1.00  0.00     0.173 A 
ATOM     68  C   UNL     1      -2.205  -1.250   6.185  1.00  0.00     0.173 A 
ATOM     69  F   UNL     1       0.160  -0.040   8.648  1.00  0.00    -0.203 F 
ATOM     70  C   UNL     1      -0.493  -2.205   8.115  1.00  0.00     0.198 A 
ATOM     71  C   UNL     1      -2.120  -2.627   6.446  1.00  0.00     0.198 A 
ATOM     72  F   UNL     1      -3.026  -0.943   5.178  1.00  0.00    -0.203 F 
ATOM     73  F   UNL     1       0.360  -2.650   9.046  1.00  0.00    -0.200 F 
ATOM     74  C   UNL     1      -1.264  -3.104   7.411  1.00  0.00     0.200 A 
ATOM     75  F   UNL     1      -2.878  -3.485   5.746  1.00  0.00    -0.200 F 
ATOM     76  F   UNL     1      -1.181  -4.418   7.658  1.00  0.00    -0.200 F 
ENDBRANCH  52  66
BRANCH  53  77
ATOM     77  C   UNL     1       0.932   8.840   3.186  1.00  0.00     0.064 A 
ATOM     78  C   UNL     1       1.756   8.913   2.028  1.00  0.00     0.173 A 
ATOM     79  C   UNL     1      -0.374   9.312   3.026  1.00  0.00     0.173 A 
ATOM     80  F   UNL     1       3.046   8.548   2.111  1.00  0.00    -0.203 F 
ATOM     81  C   UNL     1       1.255   9.236   0.762  1.00  0.00     0.198 A 
ATOM     82  C   UNL     1      -0.855   9.714   1.758  1.00  0.00     0.198 A 
ATOM     83  F   UNL     1      -1.255   9.226   4.034  1.00  0.00    -0.203 F 
ATOM     84  F   UNL     1       2.034   9.119  -0.324  1.00  0.00    -0.200 F 
ATOM     85  C   UNL     1      -0.064   9.608   0.624  1.00  0.00     0.200 A 
ATOM     86  F   UNL     1      -2.156  10.018   1.606  1.00  0.00    -0.200 F 
ATOM     87  F   UNL     1      -0.594   9.800  -0.595  1.00  0.00    -0.200 F 
ENDBRANCH  53  77
BRANCH  65  88
ATOM     88  C   UNL     1      -0.849   5.766   9.654  1.00  0.00     0.064 A 
ATOM     89  C   UNL     1      -1.365   6.980  10.134  1.00  0.00     0.173 A 
ATOM     90  C   UNL     1      -1.137   4.644  10.479  1.00  0.00     0.173 A 
ATOM     91  F   UNL     1      -1.396   8.087   9.382  1.00  0.00    -0.203 F 
ATOM     92  C   UNL     1      -1.935   7.096  11.402  1.00  0.00     0.198 A 
ATOM     93  C   UNL     1      -1.825   4.744  11.682  1.00  0.00     0.198 A 
ATOM     94  F   UNL     1      -0.788   3.392  10.159  1.00  0.00    -0.203 F 
ATOM     95  F   UNL     1      -2.273   8.307  11.861  1.00  0.00    -0.200 F 
ATOM     96  C   UNL     1      -2.170   5.978  12.174  1.00  0.00     0.200 A 
ATOM     97  F   UNL     1      -2.145   3.630  12.355  1.00  0.00    -0.200 F 
ATOM     98  F   UNL     1      -2.743   6.088  13.378  1.00  0.00    -0.200 F 
ENDBRANCH  65  88
ENDBRANCH  39  40
ENDBRANCH  32  34
ENDBRANCH  31  32
ENDBRANCH  30  31
ENDBRANCH  29  30
ENDBRANCH   1  29
TORSDOF 16
