REMARK SMILES C[C@@H]1Cc2ccccc2N1S(=O)(=O)c1c[nH]c(C(=O)OCCOC(=O)c2ccc(-c3c4nc(c(-c5c(F)c(F)c(F)c(F)c5F)c5ccc([nH]5)c(-c5c(F)c(F)c(F)c(F)c5F)c5nc(c(-c6c(F)c(F)c(F)c(F)c6F)c6ccc3[nH]6)C=C5)C=C4)cc2)c1
REMARK SMILES IDX 21 1 20 2 18 3 19 4 17 5 14 6 15 7 89 8 16 9 11 11 12 12
REMARK SMILES IDX 13 13 10 14 1 15 2 16 3 17 4 18 9 19 5 20 8 21 6 22 7 23
REMARK SMILES IDX 22 24 23 25 24 26 25 27 26 28 27 29 88 30 28 31 87 32 29 33
REMARK SMILES IDX 30 34 31 35 81 36 32 37 86 38 80 39 82 40 33 41 85 42 79 43
REMARK SMILES IDX 78 44 34 46 66 47 46 48 65 49 47 50 50 51 64 52 83 53 48 54
REMARK SMILES IDX 49 55 63 57 84 58 51 59 35 60 36 61 44 62 37 63 38 64 42 65
REMARK SMILES IDX 45 66 39 67 40 68 43 69 41 70 67 71 68 72 76 73 69 74 70 75
REMARK SMILES IDX 74 76 77 77 71 78 72 79 75 80 73 81 52 82 53 83 61 84 54 85
REMARK SMILES IDX 55 86 59 87 62 88 56 89 57 90 60 91 58 92
REMARK H PARENT 16 10 82 45 50 56
REMARK Flexibility Score: inf
ROOT
ATOM      1  C   UNL     1       4.913   8.540  -4.328  1.00  0.00     0.275 C 
ENDROOT
BRANCH   1   2
ATOM      2  O   UNL     1       4.414   7.358  -3.656  1.00  0.00    -0.457 OA
BRANCH   2   3
ATOM      3  C   UNL     1       5.161   6.908  -2.608  1.00  0.00     0.354 C 
ATOM      4  O   UNL     1       6.159   7.462  -2.166  1.00  0.00    -0.244 OA
BRANCH   3   5
ATOM      5  C   UNL     1       4.560   5.743  -1.992  1.00  0.00     0.126 A 
ATOM      6  C   UNL     1       3.450   3.854  -1.370  1.00  0.00     0.106 A 
ATOM      7  C   UNL     1       4.033   4.413  -0.249  1.00  0.00     0.105 A 
ATOM      8  C   UNL     1       3.752   4.715  -2.469  1.00  0.00     0.057 A 
ATOM      9  N   UNL     1       4.815   5.448  -0.667  1.00  0.00    -0.354 N 
ATOM     10  H   UNL     1       5.471   5.919  -0.103  1.00  0.00     0.166 HD
BRANCH   6  11
ATOM     11  S   UNL     1       2.673   2.304  -1.382  1.00  0.00     0.266 S 
ATOM     12  O   UNL     1       2.799   1.864  -0.004  1.00  0.00    -0.201 OA
ATOM     13  O   UNL     1       3.380   1.602  -2.435  1.00  0.00    -0.201 OA
BRANCH  11  14
ATOM     14  N   UNL     1       1.019   2.283  -1.780  1.00  0.00    -0.263 N 
ATOM     15  C   UNL     1       0.552  -0.079  -2.540  1.00  0.00     0.032 C 
ATOM     16  C   UNL     1       0.373   0.942  -1.430  1.00  0.00     0.101 C 
ATOM     17  C   UNL     1      -1.111   1.235  -1.142  1.00  0.00     0.063 C 
ATOM     18  C   UNL     1      -1.111   2.715  -0.945  1.00  0.00    -0.021 A 
ATOM     19  C   UNL     1       0.118   3.284  -1.284  1.00  0.00     0.055 A 
ATOM     20  C   UNL     1      -2.201   3.493  -0.576  1.00  0.00     0.006 A 
ATOM     21  C   UNL     1       0.250   4.660  -1.331  1.00  0.00     0.027 A 
ATOM     22  C   UNL     1      -2.056   4.878  -0.576  1.00  0.00     0.000 A 
ATOM     23  C   UNL     1      -0.840   5.459  -0.958  1.00  0.00     0.002 A 
ENDBRANCH  11  14
ENDBRANCH   6  11
ENDBRANCH   3   5
ENDBRANCH   2   3
ENDBRANCH   1   2
BRANCH   1  24
ATOM     24  C   UNL     1       3.787   9.548  -4.605  1.00  0.00     0.275 C 
BRANCH  24  25
ATOM     25  O   UNL     1       3.615  10.375  -3.443  1.00  0.00    -0.458 OA
BRANCH  25  26
ATOM     26  C   UNL     1       2.571  10.035  -2.643  1.00  0.00     0.338 C 
ATOM     27  O   UNL     1       1.512   9.554  -2.961  1.00  0.00    -0.246 OA
BRANCH  26  28
ATOM     28  C   UNL     1       3.172   9.948  -1.300  1.00  0.00     0.060 A 
ATOM     29  C   UNL     1       3.937  10.980  -0.748  1.00  0.00     0.016 A 
ATOM     30  C   UNL     1       3.138   8.682  -0.720  1.00  0.00     0.016 A 
ATOM     31  C   UNL     1       4.718  10.721   0.377  1.00  0.00     0.010 A 
ATOM     32  C   UNL     1       3.970   8.415   0.353  1.00  0.00     0.010 A 
ATOM     33  C   UNL     1       4.764   9.425   0.911  1.00  0.00    -0.014 A 
BRANCH  33  34
ATOM     34  C   UNL     1       5.551   9.129   2.137  1.00  0.00     0.031 A 
ATOM     35  C   UNL     1       4.671   8.887   3.377  1.00  0.00     0.074 A 
ATOM     36  C   UNL     1       6.915   9.101   2.018  1.00  0.00     0.049 A 
ATOM     37  N   UNL     1       5.008   8.835   4.630  1.00  0.00    -0.248 NA
ATOM     38  C   UNL     1       3.203   8.674   3.216  1.00  0.00     0.031 C 
ATOM     39  C   UNL     1       7.644   9.255   0.742  1.00  0.00     0.029 A 
ATOM     40  N   UNL     1       7.964   8.945   2.912  1.00  0.00    -0.354 N 
ATOM     41  C   UNL     1       3.868   8.445   5.359  1.00  0.00     0.074 A 
ATOM     42  C   UNL     1       2.779   8.376   4.442  1.00  0.00     0.031 C 
ATOM     43  C   UNL     1       8.977   9.294   0.950  1.00  0.00     0.029 A 
ATOM     44  C   UNL     1       9.262   9.138   2.363  1.00  0.00     0.049 A 
ATOM     45  H   UNL     1       7.820   8.717   3.859  1.00  0.00     0.167 HD
ATOM     46  C   UNL     1       3.880   8.147   6.685  1.00  0.00     0.037 A 
ATOM     47  C   UNL     1      10.477   9.209   2.996  1.00  0.00     0.037 A 
ATOM     48  C   UNL     1       5.145   8.425   7.261  1.00  0.00     0.049 A 
ATOM     49  C   UNL     1      10.217   8.853   4.398  1.00  0.00     0.074 A 
ATOM     50  C   UNL     1       5.752   9.610   7.580  1.00  0.00     0.029 A 
ATOM     51  N   UNL     1       6.080   7.424   7.261  1.00  0.00    -0.354 N 
ATOM     52  N   UNL     1      10.018   7.644   4.832  1.00  0.00    -0.248 NA
ATOM     53  C   UNL     1      10.140   9.929   5.395  1.00  0.00     0.031 C 
ATOM     54  C   UNL     1       7.121   9.363   7.370  1.00  0.00     0.029 A 
ATOM     55  C   UNL     1       7.306   8.012   7.060  1.00  0.00     0.049 A 
ATOM     56  H   UNL     1       5.907   6.463   7.382  1.00  0.00     0.167 HD
ATOM     57  C   UNL     1       9.478   7.869   6.076  1.00  0.00     0.074 A 
ATOM     58  C   UNL     1       9.882   9.196   6.474  1.00  0.00     0.031 C 
ATOM     59  C   UNL     1       8.336   7.227   6.425  1.00  0.00     0.037 A 
BRANCH  46  60
ATOM     60  C   UNL     1       2.839   7.503   7.538  1.00  0.00     0.064 A 
ATOM     61  C   UNL     1       2.772   7.841   8.907  1.00  0.00     0.173 A 
ATOM     62  C   UNL     1       2.147   6.355   7.134  1.00  0.00     0.173 A 
ATOM     63  F   UNL     1       3.386   8.941   9.371  1.00  0.00    -0.203 F 
ATOM     64  C   UNL     1       2.131   7.023   9.833  1.00  0.00     0.198 A 
ATOM     65  C   UNL     1       1.476   5.554   8.061  1.00  0.00     0.198 A 
ATOM     66  F   UNL     1       2.190   5.942   5.859  1.00  0.00    -0.203 F 
ATOM     67  F   UNL     1       2.182   7.324  11.138  1.00  0.00    -0.200 F 
ATOM     68  C   UNL     1       1.496   5.870   9.411  1.00  0.00     0.200 A 
ATOM     69  F   UNL     1       0.863   4.434   7.651  1.00  0.00    -0.200 F 
ATOM     70  F   UNL     1       0.931   5.048  10.306  1.00  0.00    -0.200 F 
ENDBRANCH  46  60
BRANCH  47  71
ATOM     71  C   UNL     1      11.912   9.598   2.672  1.00  0.00     0.064 A 
ATOM     72  C   UNL     1      12.434   9.859   1.399  1.00  0.00     0.173 A 
ATOM     73  C   UNL     1      12.854   9.810   3.726  1.00  0.00     0.173 A 
ATOM     74  F   UNL     1      11.736   9.586   0.293  1.00  0.00    -0.203 F 
ATOM     75  C   UNL     1      13.723  10.399   1.209  1.00  0.00     0.198 A 
ATOM     76  C   UNL     1      14.112  10.386   3.544  1.00  0.00     0.198 A 
ATOM     77  F   UNL     1      12.588   9.466   4.993  1.00  0.00    -0.203 F 
ATOM     78  F   UNL     1      14.162  10.642  -0.034  1.00  0.00    -0.200 F 
ATOM     79  C   UNL     1      14.543  10.700   2.281  1.00  0.00     0.200 A 
ATOM     80  F   UNL     1      14.884  10.647   4.610  1.00  0.00    -0.200 F 
ATOM     81  F   UNL     1      15.739  11.273   2.098  1.00  0.00    -0.200 F 
ENDBRANCH  47  71
BRANCH  59  82
ATOM     82  C   UNL     1       8.146   5.912   5.710  1.00  0.00     0.064 A 
ATOM     83  C   UNL     1       8.991   4.835   6.016  1.00  0.00     0.173 A 
ATOM     84  C   UNL     1       7.258   5.729   4.637  1.00  0.00     0.173 A 
ATOM     85  F   UNL     1       9.870   4.942   7.024  1.00  0.00    -0.203 F 
ATOM     86  C   UNL     1       8.949   3.645   5.288  1.00  0.00     0.198 A 
ATOM     87  C   UNL     1       7.206   4.536   3.914  1.00  0.00     0.198 A 
ATOM     88  F   UNL     1       6.434   6.708   4.260  1.00  0.00    -0.203 F 
ATOM     89  F   UNL     1       9.777   2.640   5.605  1.00  0.00    -0.200 F 
ATOM     90  C   UNL     1       8.056   3.495   4.239  1.00  0.00     0.200 A 
ATOM     91  F   UNL     1       6.334   4.403   2.902  1.00  0.00    -0.200 F 
ATOM     92  F   UNL     1       8.012   2.348   3.546  1.00  0.00    -0.200 F 
ENDBRANCH  59  82
ENDBRANCH  33  34
ENDBRANCH  26  28
ENDBRANCH  25  26
ENDBRANCH  24  25
ENDBRANCH   1  24
TORSDOF 13
