REMARK SMILES CC(C)(C)c1cc(NC(=O)CSC[C@H]([NH3+])C(=O)OCCOC(=O)c2ccc(-c3c4nc(c(-c5c(F)c(F)c(F)c(F)c5F)c5ccc([nH]5)c(-c5c(F)c(F)c(F)c(F)c5F)c5nc(c(-c6c(F)c(F)c(F)c(F)c6F)c6ccc3[nH]6)C=C5)C=C4)cc2)on1
REMARK SMILES IDX 16 1 17 2 14 3 13 4 12 5 11 6 9 7 8 8 10 10 7 11 5 12 6 13
REMARK SMILES IDX 88 14 87 15 2 16 1 17 3 18 4 19 15 20 18 24 19 25 20 26
REMARK SMILES IDX 21 27 22 28 23 29 24 30 25 31 86 32 26 33 85 34 27 35 28 36
REMARK SMILES IDX 29 37 79 38 30 39 84 40 78 41 80 42 31 43 83 44 77 45 76 46
REMARK SMILES IDX 32 48 64 49 44 50 63 51 45 52 48 53 62 54 81 55 46 56 47 57
REMARK SMILES IDX 61 59 82 60 49 61 33 62 34 63 42 64 35 65 36 66 40 67 43 68
REMARK SMILES IDX 37 69 38 70 41 71 39 72 65 73 66 74 74 75 67 76 68 77 72 78
REMARK SMILES IDX 75 79 69 80 70 81 73 82 71 83 50 84 51 85 59 86 52 87 53 88
REMARK SMILES IDX 57 89 60 90 54 91 55 92 58 93 56 94
REMARK H PARENT 8 9 15 21 15 22 15 23 80 47 48 58
REMARK Flexibility Score: inf
ROOT
ATOM      1  C   UNL     1      -0.363  -0.752  10.391  1.00  0.00     0.365 C 
ATOM      2  O   UNL     1      -0.193  -1.467  11.373  1.00  0.00    -0.245 OA
ENDROOT
BRANCH   1   3
ATOM      3  C   UNL     1       0.189  -1.103   9.001  1.00  0.00     0.301 C 
BRANCH   3   4
ATOM      4  C   UNL     1       1.698  -1.323   9.096  1.00  0.00     0.147 C 
BRANCH   4   5
ATOM      5  S   UNL     1       2.366  -2.240   7.654  1.00  0.00    -0.145 SA
BRANCH   5   6
ATOM      6  C   UNL     1       1.870  -3.965   8.035  1.00  0.00     0.170 C 
BRANCH   6   7
ATOM      7  C   UNL     1       2.102  -4.376   9.480  1.00  0.00     0.236 C 
ATOM      8  N   UNL     1       3.344  -4.450  10.041  1.00  0.00    -0.294 N 
ATOM      9  H   UNL     1       3.376  -4.653  11.004  1.00  0.00     0.173 HD
ATOM     10  O   UNL     1       1.127  -4.622  10.202  1.00  0.00    -0.274 OA
BRANCH   8  11
ATOM     11  C   UNL     1       4.551  -4.275   9.419  1.00  0.00     0.231 A 
ATOM     12  C   UNL     1       6.631  -3.837   8.818  1.00  0.00     0.091 A 
ATOM     13  C   UNL     1       5.795  -4.039   9.949  1.00  0.00     0.097 A 
ATOM     14  N   UNL     1       5.947  -4.050   7.686  1.00  0.00    -0.082 NA
ATOM     15  O   UNL     1       4.654  -4.332   8.070  1.00  0.00    -0.338 OA
BRANCH  12  16
ATOM     16  C   UNL     1       8.070  -3.359   8.773  1.00  0.00     0.008 C 
ATOM     17  C   UNL     1       8.767  -3.766   7.456  1.00  0.00     0.018 C 
ATOM     18  C   UNL     1       8.888  -3.950   9.939  1.00  0.00     0.018 C 
ATOM     19  C   UNL     1       8.094  -1.821   8.881  1.00  0.00     0.018 C 
ENDBRANCH  12  16
ENDBRANCH   8  11
ENDBRANCH   6   7
ENDBRANCH   5   6
ENDBRANCH   4   5
ENDBRANCH   3   4
BRANCH   3  20
ATOM     20  N   UNL     1      -0.165  -0.103   7.966  1.00  0.00    -0.345 N 
ATOM     21  H   UNL     1       0.249   0.797   8.207  1.00  0.00     0.345 HD
ATOM     22  H   UNL     1      -1.180  -0.009   7.917  1.00  0.00     0.345 HD
ATOM     23  H   UNL     1       0.192  -0.410   7.061  1.00  0.00     0.345 HD
ENDBRANCH   3  20
ENDBRANCH   1   3
BRANCH   1  24
ATOM     24  O   UNL     1      -1.126   0.374  10.386  1.00  0.00    -0.458 OA
BRANCH  24  25
ATOM     25  C   UNL     1      -1.935   0.622  11.547  1.00  0.00     0.274 C 
BRANCH  25  26
ATOM     26  C   UNL     1      -3.408   0.361  11.219  1.00  0.00     0.275 C 
BRANCH  26  27
ATOM     27  O   UNL     1      -3.686  -1.046  11.064  1.00  0.00    -0.458 OA
BRANCH  27  28
ATOM     28  C   UNL     1      -3.493  -1.543   9.820  1.00  0.00     0.338 C 
ATOM     29  O   UNL     1      -3.114  -0.944   8.827  1.00  0.00    -0.246 OA
BRANCH  28  30
ATOM     30  C   UNL     1      -3.712  -2.997   9.821  1.00  0.00     0.060 A 
ATOM     31  C   UNL     1      -2.644  -3.825   9.468  1.00  0.00     0.016 A 
ATOM     32  C   UNL     1      -4.980  -3.535  10.045  1.00  0.00     0.016 A 
ATOM     33  C   UNL     1      -2.845  -5.187   9.285  1.00  0.00     0.010 A 
ATOM     34  C   UNL     1      -5.175  -4.912   9.890  1.00  0.00     0.010 A 
ATOM     35  C   UNL     1      -4.114  -5.742   9.484  1.00  0.00    -0.014 A 
BRANCH  35  36
ATOM     36  C   UNL     1      -4.330  -7.186   9.225  1.00  0.00     0.031 A 
ATOM     37  C   UNL     1      -5.142  -7.621   8.039  1.00  0.00     0.074 A 
ATOM     38  C   UNL     1      -3.767  -8.103  10.032  1.00  0.00     0.049 A 
ATOM     39  N   UNL     1      -5.529  -8.824   7.696  1.00  0.00    -0.248 NA
ATOM     40  C   UNL     1      -5.578  -6.563   7.115  1.00  0.00     0.031 C 
ATOM     41  C   UNL     1      -2.909  -7.804  11.180  1.00  0.00     0.029 A 
ATOM     42  N   UNL     1      -3.830  -9.473  10.009  1.00  0.00    -0.354 N 
ATOM     43  C   UNL     1      -6.275  -8.665   6.537  1.00  0.00     0.074 A 
ATOM     44  C   UNL     1      -6.296  -7.249   6.236  1.00  0.00     0.031 C 
ATOM     45  C   UNL     1      -2.520  -8.957  11.746  1.00  0.00     0.029 A 
ATOM     46  C   UNL     1      -3.143 -10.070  11.036  1.00  0.00     0.049 A 
ATOM     47  H   UNL     1      -4.321  -9.979   9.322  1.00  0.00     0.167 HD
ATOM     48  C   UNL     1      -6.885  -9.617   5.791  1.00  0.00     0.037 A 
ATOM     49  C   UNL     1      -3.051 -11.367  11.382  1.00  0.00     0.037 A 
ATOM     50  C   UNL     1      -6.837 -11.027   6.077  1.00  0.00     0.049 A 
ATOM     51  C   UNL     1      -3.775 -12.399  10.564  1.00  0.00     0.074 A 
ATOM     52  C   UNL     1      -7.424 -12.071   5.383  1.00  0.00     0.029 A 
ATOM     53  N   UNL     1      -6.151 -11.591   7.142  1.00  0.00    -0.354 N 
ATOM     54  N   UNL     1      -4.508 -12.237   9.490  1.00  0.00    -0.248 NA
ATOM     55  C   UNL     1      -3.667 -13.794  11.012  1.00  0.00     0.031 C 
ATOM     56  C   UNL     1      -7.117 -13.265   6.045  1.00  0.00     0.029 A 
ATOM     57  C   UNL     1      -6.310 -12.968   7.130  1.00  0.00     0.049 A 
ATOM     58  H   UNL     1      -5.629 -11.088   7.809  1.00  0.00     0.167 HD
ATOM     59  C   UNL     1      -4.934 -13.505   9.124  1.00  0.00     0.074 A 
ATOM     60  C   UNL     1      -4.365 -14.431  10.082  1.00  0.00     0.031 C 
ATOM     61  C   UNL     1      -5.728 -13.871   8.088  1.00  0.00     0.037 A 
BRANCH  48  62
ATOM     62  C   UNL     1      -7.683  -9.164   4.606  1.00  0.00     0.064 A 
ATOM     63  C   UNL     1      -7.066  -8.735   3.423  1.00  0.00     0.173 A 
ATOM     64  C   UNL     1      -9.085  -9.200   4.643  1.00  0.00     0.173 A 
ATOM     65  F   UNL     1      -5.728  -8.669   3.344  1.00  0.00    -0.203 F 
ATOM     66  C   UNL     1      -7.825  -8.342   2.323  1.00  0.00     0.198 A 
ATOM     67  C   UNL     1      -9.840  -8.827   3.534  1.00  0.00     0.198 A 
ATOM     68  F   UNL     1      -9.722  -9.605   5.751  1.00  0.00    -0.203 F 
ATOM     69  F   UNL     1      -7.216  -7.902   1.213  1.00  0.00    -0.200 F 
ATOM     70  C   UNL     1      -9.210  -8.394   2.377  1.00  0.00     0.200 A 
ATOM     71  F   UNL     1     -11.178  -8.886   3.586  1.00  0.00    -0.200 F 
ATOM     72  F   UNL     1      -9.939  -8.021   1.316  1.00  0.00    -0.200 F 
ENDBRANCH  48  62
BRANCH  49  73
ATOM     73  C   UNL     1      -2.262 -11.757  12.577  1.00  0.00     0.064 A 
ATOM     74  C   UNL     1      -1.055 -12.456  12.448  1.00  0.00     0.173 A 
ATOM     75  C   UNL     1      -2.699 -11.438  13.871  1.00  0.00     0.173 A 
ATOM     76  F   UNL     1      -0.610 -12.805  11.232  1.00  0.00    -0.203 F 
ATOM     77  C   UNL     1      -0.320 -12.832  13.571  1.00  0.00     0.198 A 
ATOM     78  C   UNL     1      -1.951 -11.792  14.991  1.00  0.00     0.198 A 
ATOM     79  F   UNL     1      -3.850 -10.771  14.046  1.00  0.00    -0.203 F 
ATOM     80  F   UNL     1       0.812 -13.535  13.423  1.00  0.00    -0.200 F 
ATOM     81  C   UNL     1      -0.765 -12.494  14.840  1.00  0.00     0.200 A 
ATOM     82  F   UNL     1      -2.379 -11.455  16.215  1.00  0.00    -0.200 F 
ATOM     83  F   UNL     1      -0.055 -12.853  15.919  1.00  0.00    -0.200 F 
ENDBRANCH  49  73
BRANCH  61  84
ATOM     84  C   UNL     1      -6.001 -15.335   7.922  1.00  0.00     0.064 A 
ATOM     85  C   UNL     1      -6.899 -16.011   8.760  1.00  0.00     0.173 A 
ATOM     86  C   UNL     1      -5.386 -16.059   6.891  1.00  0.00     0.173 A 
ATOM     87  F   UNL     1      -7.498 -15.362   9.770  1.00  0.00    -0.203 F 
ATOM     88  C   UNL     1      -7.156 -17.367   8.584  1.00  0.00     0.198 A 
ATOM     89  C   UNL     1      -5.662 -17.410   6.703  1.00  0.00     0.198 A 
ATOM     90  F   UNL     1      -4.522 -15.454   6.061  1.00  0.00    -0.203 F 
ATOM     91  F   UNL     1      -7.988 -18.004   9.419  1.00  0.00    -0.200 F 
ATOM     92  C   UNL     1      -6.543 -18.064   7.552  1.00  0.00     0.200 A 
ATOM     93  F   UNL     1      -5.075 -18.080   5.702  1.00  0.00    -0.200 F 
ATOM     94  F   UNL     1      -6.795 -19.369   7.382  1.00  0.00    -0.200 F 
ENDBRANCH  61  84
ENDBRANCH  35  36
ENDBRANCH  28  30
ENDBRANCH  27  28
ENDBRANCH  26  27
ENDBRANCH  25  26
ENDBRANCH  24  25
ENDBRANCH   1  24
TORSDOF 18
