REMARK SMILES COc1nc(-c2ccccc2)nc(C)c1CC(=O)OCCOC(=O)c1ccc(-c2c3nc(c(-c4c(F)c(F)c(F)c(F)c4F)c4ccc([nH]4)c(-c4c(F)c(F)c(F)c(F)c4F)c4nc(c(-c5c(F)c(F)c(F)c(F)c5F)c5ccc2[nH]5)C=C4)C=C3)cc1
REMARK SMILES IDX 20 1 19 2 17 3 18 4 16 5 15 6 3 7 4 8 5 9 13 10 12 11 14 12
REMARK SMILES IDX 2 13 1 14 6 15 7 16 11 17 8 18 10 19 9 20 21 21 22 22 23 23
REMARK SMILES IDX 24 24 25 25 26 26 87 27 27 28 86 29 28 30 29 31 30 32 80 33
REMARK SMILES IDX 31 34 85 35 79 36 81 37 32 38 84 39 78 40 77 41 33 43 65 44
REMARK SMILES IDX 45 45 64 46 46 47 49 48 63 49 82 50 47 51 48 52 62 54 83 55
REMARK SMILES IDX 50 56 34 57 35 58 43 59 36 60 37 61 41 62 44 63 38 64 39 65
REMARK SMILES IDX 42 66 40 67 66 68 67 69 75 70 68 71 69 72 73 73 76 74 70 75
REMARK SMILES IDX 71 76 74 77 72 78 51 79 52 80 60 81 53 82 54 83 58 84 61 85
REMARK SMILES IDX 55 86 56 87 59 88 57 89
REMARK H PARENT 81 42 49 53
REMARK Flexibility Score: inf
ROOT
ATOM      1  C   UNL     1       3.014   1.092  -2.551  1.00  0.00     0.274 C 
ENDROOT
BRANCH   1   2
ATOM      2  O   UNL     1       2.796  -0.259  -2.097  1.00  0.00    -0.462 OA
BRANCH   2   3
ATOM      3  C   UNL     1       3.715  -0.735  -1.216  1.00  0.00     0.310 C 
ATOM      4  O   UNL     1       4.716  -0.123  -0.854  1.00  0.00    -0.252 OA
BRANCH   3   5
ATOM      5  C   UNL     1       3.395  -2.102  -0.664  1.00  0.00     0.165 C 
BRANCH   5   6
ATOM      6  C   UNL     1       2.213  -2.817  -1.248  1.00  0.00     0.047 A 
ATOM      7  C   UNL     1       0.927  -2.619  -0.769  1.00  0.00     0.220 A 
ATOM      8  N   UNL     1      -0.153  -3.274  -1.220  1.00  0.00    -0.193 NA
ATOM      9  C   UNL     1       0.070  -4.184  -2.176  1.00  0.00     0.163 A 
ATOM     10  C   UNL     1       2.321  -3.727  -2.291  1.00  0.00     0.049 A 
ATOM     11  N   UNL     1       1.266  -4.440  -2.734  1.00  0.00    -0.233 NA
ATOM     12  C   UNL     1       3.630  -4.029  -2.961  1.00  0.00     0.067 C 
BRANCH   7  13
ATOM     13  O   UNL     1       0.768  -1.715   0.266  1.00  0.00    -0.481 OA
ATOM     14  C   UNL     1      -0.595  -1.534   0.649  1.00  0.00     0.280 C 
ENDBRANCH   7  13
BRANCH   9  15
ATOM     15  C   UNL     1      -1.071  -4.984  -2.619  1.00  0.00     0.019 A 
ATOM     16  C   UNL     1      -1.039  -6.387  -2.550  1.00  0.00     0.012 A 
ATOM     17  C   UNL     1      -2.234  -4.370  -3.112  1.00  0.00     0.012 A 
ATOM     18  C   UNL     1      -2.135  -7.152  -2.954  1.00  0.00     0.001 A 
ATOM     19  C   UNL     1      -3.325  -5.134  -3.534  1.00  0.00     0.001 A 
ATOM     20  C   UNL     1      -3.276  -6.524  -3.450  1.00  0.00     0.000 A 
ENDBRANCH   9  15
ENDBRANCH   5   6
ENDBRANCH   3   5
ENDBRANCH   2   3
ENDBRANCH   1   2
BRANCH   1  21
ATOM     21  C   UNL     1       2.138   2.072  -1.774  1.00  0.00     0.275 C 
BRANCH  21  22
ATOM     22  O   UNL     1       2.311   1.869  -0.360  1.00  0.00    -0.458 OA
BRANCH  22  23
ATOM     23  C   UNL     1       1.173   1.726   0.351  1.00  0.00     0.338 C 
ATOM     24  O   UNL     1       0.022   1.836  -0.061  1.00  0.00    -0.246 OA
BRANCH  23  25
ATOM     25  C   UNL     1       1.476   1.434   1.764  1.00  0.00     0.060 A 
ATOM     26  C   UNL     1       2.452   0.500   2.121  1.00  0.00     0.016 A 
ATOM     27  C   UNL     1       0.692   2.034   2.751  1.00  0.00     0.016 A 
ATOM     28  C   UNL     1       2.603   0.122   3.456  1.00  0.00     0.010 A 
ATOM     29  C   UNL     1       0.896   1.713   4.094  1.00  0.00     0.010 A 
ATOM     30  C   UNL     1       1.838   0.738   4.458  1.00  0.00    -0.014 A 
BRANCH  30  31
ATOM     31  C   UNL     1       2.038   0.399   5.891  1.00  0.00     0.031 A 
ATOM     32  C   UNL     1       0.931  -0.222   6.696  1.00  0.00     0.074 A 
ATOM     33  C   UNL     1       3.209   0.699   6.484  1.00  0.00     0.049 A 
ATOM     34  N   UNL     1       0.865  -0.434   7.987  1.00  0.00    -0.248 NA
ATOM     35  C   UNL     1      -0.264  -0.654   5.956  1.00  0.00     0.031 C 
ATOM     36  C   UNL     1       4.367   1.292   5.815  1.00  0.00     0.029 A 
ATOM     37  N   UNL     1       3.614   0.558   7.789  1.00  0.00    -0.354 N 
ATOM     38  C   UNL     1      -0.385  -0.993   8.218  1.00  0.00     0.074 A 
ATOM     39  C   UNL     1      -1.051  -1.082   6.935  1.00  0.00     0.031 C 
ATOM     40  C   UNL     1       5.355   1.454   6.708  1.00  0.00     0.029 A 
ATOM     41  C   UNL     1       4.878   1.037   8.023  1.00  0.00     0.049 A 
ATOM     42  H   UNL     1       3.051   0.152   8.488  1.00  0.00     0.167 HD
ATOM     43  C   UNL     1      -0.925  -1.394   9.395  1.00  0.00     0.037 A 
ATOM     44  C   UNL     1       5.567   1.166   9.171  1.00  0.00     0.037 A 
ATOM     45  C   UNL     1      -0.251  -1.333  10.667  1.00  0.00     0.049 A 
ATOM     46  C   UNL     1       4.934   0.742  10.464  1.00  0.00     0.074 A 
ATOM     47  C   UNL     1      -0.708  -1.749  11.907  1.00  0.00     0.029 A 
ATOM     48  N   UNL     1       1.025  -0.828  10.862  1.00  0.00    -0.354 N 
ATOM     49  N   UNL     1       3.747   0.231  10.673  1.00  0.00    -0.248 NA
ATOM     50  C   UNL     1       5.735   0.924  11.682  1.00  0.00     0.031 C 
ATOM     51  C   UNL     1       0.280  -1.465  12.857  1.00  0.00     0.029 A 
ATOM     52  C   UNL     1       1.366  -0.906  12.204  1.00  0.00     0.049 A 
ATOM     53  H   UNL     1       1.604  -0.467  10.153  1.00  0.00     0.167 HD
ATOM     54  C   UNL     1       3.658   0.022  12.041  1.00  0.00     0.074 A 
ATOM     55  C   UNL     1       4.920   0.446  12.612  1.00  0.00     0.031 C 
ATOM     56  C   UNL     1       2.621  -0.473  12.759  1.00  0.00     0.037 A 
BRANCH  43  57
ATOM     57  C   UNL     1      -2.327  -1.924   9.375  1.00  0.00     0.064 A 
ATOM     58  C   UNL     1      -2.621  -3.210   8.900  1.00  0.00     0.173 A 
ATOM     59  C   UNL     1      -3.379  -1.161   9.906  1.00  0.00     0.173 A 
ATOM     60  F   UNL     1      -1.652  -3.973   8.375  1.00  0.00    -0.203 F 
ATOM     61  C   UNL     1      -3.921  -3.709   8.948  1.00  0.00     0.198 A 
ATOM     62  C   UNL     1      -4.673  -1.672   9.971  1.00  0.00     0.198 A 
ATOM     63  F   UNL     1      -3.147   0.073  10.378  1.00  0.00    -0.203 F 
ATOM     64  F   UNL     1      -4.185  -4.932   8.467  1.00  0.00    -0.200 F 
ATOM     65  C   UNL     1      -4.943  -2.944   9.491  1.00  0.00     0.200 A 
ATOM     66  F   UNL     1      -5.657  -0.935  10.505  1.00  0.00    -0.200 F 
ATOM     67  F   UNL     1      -6.190  -3.433   9.549  1.00  0.00    -0.200 F 
ENDBRANCH  43  57
BRANCH  44  68
ATOM     68  C   UNL     1       6.932   1.746   9.140  1.00  0.00     0.064 A 
ATOM     69  C   UNL     1       8.059   0.939   9.342  1.00  0.00     0.173 A 
ATOM     70  C   UNL     1       7.137   3.108   8.875  1.00  0.00     0.173 A 
ATOM     71  F   UNL     1       7.908  -0.363   9.621  1.00  0.00    -0.203 F 
ATOM     72  C   UNL     1       9.343   1.475   9.280  1.00  0.00     0.198 A 
ATOM     73  C   UNL     1       8.422   3.637   8.789  1.00  0.00     0.198 A 
ATOM     74  F   UNL     1       6.087   3.918   8.674  1.00  0.00    -0.203 F 
ATOM     75  F   UNL     1      10.405   0.689   9.502  1.00  0.00    -0.200 F 
ATOM     76  C   UNL     1       9.524   2.821   8.995  1.00  0.00     0.200 A 
ATOM     77  F   UNL     1       8.592   4.934   8.500  1.00  0.00    -0.200 F 
ATOM     78  F   UNL     1      10.760   3.331   8.921  1.00  0.00    -0.200 F 
ENDBRANCH  44  68
BRANCH  56  79
ATOM     79  C   UNL     1       2.819  -0.596  14.239  1.00  0.00     0.064 A 
ATOM     80  C   UNL     1       2.786   0.529  15.076  1.00  0.00     0.173 A 
ATOM     81  C   UNL     1       3.033  -1.851  14.827  1.00  0.00     0.173 A 
ATOM     82  F   UNL     1       2.602   1.752  14.555  1.00  0.00    -0.203 F 
ATOM     83  C   UNL     1       2.984   0.404  16.448  1.00  0.00     0.198 A 
ATOM     84  C   UNL     1       3.209  -1.974  16.202  1.00  0.00     0.198 A 
ATOM     85  F   UNL     1       3.071  -2.956  14.068  1.00  0.00    -0.203 F 
ATOM     86  F   UNL     1       2.993   1.496  17.224  1.00  0.00    -0.200 F 
ATOM     87  C   UNL     1       3.192  -0.847  17.010  1.00  0.00     0.200 A 
ATOM     88  F   UNL     1       3.405  -3.184  16.745  1.00  0.00    -0.200 F 
ATOM     89  F   UNL     1       3.387  -0.965  18.331  1.00  0.00    -0.200 F 
ENDBRANCH  56  79
ENDBRANCH  30  31
ENDBRANCH  23  25
ENDBRANCH  22  23
ENDBRANCH  21  22
ENDBRANCH   1  21
TORSDOF 14
