REMARK SMILES CCCCCCNC(=O)Oc1cccc(-c2ccc([C@H](C)C(=O)OCCOC(=O)c3ccc(-c4c5nc(c(-c6c(F)c(F)c(F)c(F)c6F)c6ccc([nH]6)c(-c6c(F)c(F)c(F)c(F)c6F)c6nc(c(-c7c(F)c(F)c(F)c(F)c7F)c7ccc4[nH]7)C=C6)C=C5)cc3)cc2F)c1
REMARK SMILES IDX 20 1 21 2 19 3 16 4 17 5 94 6 18 7 93 8 95 9 15 10 11 11
REMARK SMILES IDX 12 12 96 13 13 14 14 15 10 16 8 17 7 18 9 20 6 21 5 22 4 23
REMARK SMILES IDX 3 24 2 25 1 26 22 27 23 28 24 29 25 30 26 31 27 32 28 33
REMARK SMILES IDX 29 34 30 35 31 36 92 37 32 38 91 39 33 40 34 41 35 42 85 43
REMARK SMILES IDX 36 44 90 45 84 46 86 47 37 48 89 49 83 50 82 51 38 53 70 54
REMARK SMILES IDX 50 55 69 56 51 57 54 58 68 59 87 60 52 61 53 62 67 64 88 65
REMARK SMILES IDX 55 66 39 67 40 68 48 69 41 70 42 71 46 72 49 73 43 74 44 75
REMARK SMILES IDX 47 76 45 77 71 78 72 79 80 80 73 81 74 82 78 83 81 84 75 85
REMARK SMILES IDX 76 86 79 87 77 88 56 89 57 90 65 91 58 92 59 93 63 94 66 95
REMARK SMILES IDX 60 96 61 97 64 98 62 99
REMARK H PARENT 7 19 86 52 54 63
REMARK Flexibility Score: inf
ROOT
ATOM      1  C   UNL     1      -4.415  12.134  -5.854  1.00  0.00     0.126 C 
ATOM      2  C   UNL     1      -4.400  11.310  -4.562  1.00  0.00     0.025 C 
ENDROOT
BRANCH   1   3
ATOM      3  C   UNL     1      -5.730  12.815  -6.206  1.00  0.00    -0.031 A 
ATOM      4  C   UNL     1      -8.192  13.998  -7.013  1.00  0.00     0.018 A 
ATOM      5  C   UNL     1      -8.094  13.263  -5.823  1.00  0.00     0.012 A 
ATOM      6  C   UNL     1      -7.037  14.126  -7.790  1.00  0.00     0.131 A 
ATOM      7  C   UNL     1      -6.884  12.681  -5.425  1.00  0.00     0.005 A 
ATOM      8  C   UNL     1      -5.834  13.540  -7.406  1.00  0.00     0.044 A 
ATOM      9  F   UNL     1      -7.063  14.814  -8.943  1.00  0.00    -0.206 F 
BRANCH   4  10
ATOM     10  C   UNL     1      -9.475  14.566  -7.440  1.00  0.00    -0.012 A 
ATOM     11  C   UNL     1     -11.245  14.758  -9.085  1.00  0.00     0.133 A 
ATOM     12  C   UNL     1     -11.966  15.606  -8.250  1.00  0.00     0.047 A 
ATOM     13  C   UNL     1     -10.002  14.258  -8.702  1.00  0.00     0.056 A 
ATOM     14  C   UNL     1     -11.448  15.932  -6.999  1.00  0.00     0.004 A 
ATOM     15  C   UNL     1     -10.215  15.412  -6.596  1.00  0.00     0.009 A 
BRANCH  11  16
ATOM     16  O   UNL     1     -11.766  14.515 -10.365  1.00  0.00    -0.410 OA
BRANCH  16  17
ATOM     17  C   UNL     1     -11.827  13.199 -10.801  1.00  0.00     0.412 C 
ATOM     18  N   UNL     1     -12.217  13.085 -12.107  1.00  0.00    -0.321 N 
ATOM     19  H   UNL     1     -12.284  12.173 -12.470  1.00  0.00     0.167 HD
ATOM     20  O   UNL     1     -11.578  12.202 -10.134  1.00  0.00    -0.224 OA
BRANCH  18  21
ATOM     21  C   UNL     1     -12.540  14.170 -13.010  1.00  0.00     0.119 C 
BRANCH  21  22
ATOM     22  C   UNL     1     -11.647  14.169 -14.249  1.00  0.00     0.021 C 
BRANCH  22  23
ATOM     23  C   UNL     1     -11.798  12.940 -15.154  1.00  0.00     0.002 C 
BRANCH  23  24
ATOM     24  C   UNL     1     -13.217  12.662 -15.662  1.00  0.00    -0.000 C 
BRANCH  24  25
ATOM     25  C   UNL     1     -13.880  13.812 -16.424  1.00  0.00    -0.003 C 
ATOM     26  C   UNL     1     -13.148  14.189 -17.702  1.00  0.00     0.004 C 
ENDBRANCH  24  25
ENDBRANCH  23  24
ENDBRANCH  22  23
ENDBRANCH  21  22
ENDBRANCH  18  21
ENDBRANCH  16  17
ENDBRANCH  11  16
ENDBRANCH   4  10
ENDBRANCH   1   3
BRANCH   1  27
ATOM     27  C   UNL     1      -3.218  13.083  -5.950  1.00  0.00     0.313 C 
ATOM     28  O   UNL     1      -2.792  13.509  -7.020  1.00  0.00    -0.252 OA
BRANCH  27  29
ATOM     29  O   UNL     1      -2.667  13.374  -4.742  1.00  0.00    -0.462 OA
BRANCH  29  30
ATOM     30  C   UNL     1      -1.459  14.157  -4.787  1.00  0.00     0.274 C 
BRANCH  30  31
ATOM     31  C   UNL     1      -0.221  13.258  -4.792  1.00  0.00     0.275 C 
BRANCH  31  32
ATOM     32  O   UNL     1      -0.169  12.444  -5.980  1.00  0.00    -0.458 OA
BRANCH  32  33
ATOM     33  C   UNL     1      -0.460  11.134  -5.808  1.00  0.00     0.338 C 
ATOM     34  O   UNL     1      -0.736  10.559  -4.770  1.00  0.00    -0.246 OA
BRANCH  33  35
ATOM     35  C   UNL     1      -0.437  10.447  -7.107  1.00  0.00     0.060 A 
ATOM     36  C   UNL     1      -1.584  10.445  -7.902  1.00  0.00     0.016 A 
ATOM     37  C   UNL     1       0.681   9.705  -7.482  1.00  0.00     0.016 A 
ATOM     38  C   UNL     1      -1.635   9.677  -9.062  1.00  0.00     0.010 A 
ATOM     39  C   UNL     1       0.649   8.975  -8.673  1.00  0.00     0.010 A 
ATOM     40  C   UNL     1      -0.514   8.944  -9.465  1.00  0.00    -0.014 A 
BRANCH  40  41
ATOM     41  C   UNL     1      -0.549   8.138 -10.709  1.00  0.00     0.031 A 
ATOM     42  C   UNL     1      -0.466   6.641 -10.636  1.00  0.00     0.074 A 
ATOM     43  C   UNL     1      -0.633   8.753 -11.903  1.00  0.00     0.049 A 
ATOM     44  N   UNL     1      -0.291   5.773 -11.599  1.00  0.00    -0.248 NA
ATOM     45  C   UNL     1      -0.587   6.041  -9.299  1.00  0.00     0.031 C 
ATOM     46  C   UNL     1      -0.779  10.195 -12.103  1.00  0.00     0.029 A 
ATOM     47  N   UNL     1      -0.593   8.242 -13.176  1.00  0.00    -0.354 N 
ATOM     48  C   UNL     1      -0.241   4.530 -10.983  1.00  0.00     0.074 A 
ATOM     49  C   UNL     1      -0.402   4.755  -9.562  1.00  0.00     0.031 C 
ATOM     50  C   UNL     1      -0.818  10.454 -13.419  1.00  0.00     0.029 A 
ATOM     51  C   UNL     1      -0.628   9.207 -14.153  1.00  0.00     0.049 A 
ATOM     52  H   UNL     1      -0.544   7.278 -13.370  1.00  0.00     0.167 HD
ATOM     53  C   UNL     1      -0.071   3.315 -11.557  1.00  0.00     0.037 A 
ATOM     54  C   UNL     1      -0.473   9.103 -15.486  1.00  0.00     0.037 A 
ATOM     55  C   UNL     1       0.050   3.100 -12.975  1.00  0.00     0.049 A 
ATOM     56  C   UNL     1      -0.206   7.753 -16.089  1.00  0.00     0.074 A 
ATOM     57  C   UNL     1       0.174   1.903 -13.660  1.00  0.00     0.029 A 
ATOM     58  N   UNL     1       0.063   4.109 -13.927  1.00  0.00    -0.354 N 
ATOM     59  N   UNL     1      -0.143   6.583 -15.502  1.00  0.00    -0.248 NA
ATOM     60  C   UNL     1       0.038   7.712 -17.538  1.00  0.00     0.031 C 
ATOM     61  C   UNL     1       0.308   2.192 -15.022  1.00  0.00     0.029 A 
ATOM     62  C   UNL     1       0.228   3.565 -15.191  1.00  0.00     0.049 A 
ATOM     63  H   UNL     1      -0.031   5.069 -13.733  1.00  0.00     0.167 HD
ATOM     64  C   UNL     1       0.133   5.667 -16.506  1.00  0.00     0.074 A 
ATOM     65  C   UNL     1       0.212   6.414 -17.744  1.00  0.00     0.031 C 
ATOM     66  C   UNL     1       0.309   4.326 -16.410  1.00  0.00     0.037 A 
BRANCH  53  67
ATOM     67  C   UNL     1       0.033   2.125 -10.650  1.00  0.00     0.064 A 
ATOM     68  C   UNL     1      -1.084   1.597  -9.988  1.00  0.00     0.173 A 
ATOM     69  C   UNL     1       1.267   1.481 -10.476  1.00  0.00     0.173 A 
ATOM     70  F   UNL     1      -2.283   2.183 -10.112  1.00  0.00    -0.203 F 
ATOM     71  C   UNL     1      -0.964   0.478  -9.166  1.00  0.00     0.198 A 
ATOM     72  C   UNL     1       1.379   0.349  -9.673  1.00  0.00     0.198 A 
ATOM     73  F   UNL     1       2.365   1.945 -11.091  1.00  0.00    -0.203 F 
ATOM     74  F   UNL     1      -2.036   0.012  -8.511  1.00  0.00    -0.200 F 
ATOM     75  C   UNL     1       0.265  -0.148  -9.014  1.00  0.00     0.200 A 
ATOM     76  F   UNL     1       2.565  -0.260  -9.536  1.00  0.00    -0.200 F 
ATOM     77  F   UNL     1       0.377  -1.227  -8.228  1.00  0.00    -0.200 F 
ENDBRANCH  53  67
BRANCH  54  78
ATOM     78  C   UNL     1      -0.524  10.322 -16.332  1.00  0.00     0.064 A 
ATOM     79  C   UNL     1      -1.591  10.541 -17.213  1.00  0.00     0.173 A 
ATOM     80  C   UNL     1       0.486  11.294 -16.274  1.00  0.00     0.173 A 
ATOM     81  F   UNL     1      -2.566   9.627 -17.323  1.00  0.00    -0.203 F 
ATOM     82  C   UNL     1      -1.644  11.684 -18.008  1.00  0.00     0.198 A 
ATOM     83  C   UNL     1       0.419  12.449 -17.050  1.00  0.00     0.198 A 
ATOM     84  F   UNL     1       1.532  11.128 -15.451  1.00  0.00    -0.203 F 
ATOM     85  F   UNL     1      -2.657  11.853 -18.868  1.00  0.00    -0.200 F 
ATOM     86  C   UNL     1      -0.643  12.641 -17.920  1.00  0.00     0.200 A 
ATOM     87  F   UNL     1       1.383  13.375 -16.955  1.00  0.00    -0.200 F 
ATOM     88  F   UNL     1      -0.698  13.743 -18.680  1.00  0.00    -0.200 F 
ENDBRANCH  54  78
BRANCH  66  89
ATOM     89  C   UNL     1       0.589   3.581 -17.680  1.00  0.00     0.064 A 
ATOM     90  C   UNL     1       1.847   3.640 -18.297  1.00  0.00     0.173 A 
ATOM     91  C   UNL     1      -0.394   2.766 -18.260  1.00  0.00     0.173 A 
ATOM     92  F   UNL     1       2.812   4.421 -17.790  1.00  0.00    -0.203 F 
ATOM     93  C   UNL     1       2.105   2.920 -19.460  1.00  0.00     0.198 A 
ATOM     94  C   UNL     1      -0.124   2.028 -19.409  1.00  0.00     0.198 A 
ATOM     95  F   UNL     1      -1.611   2.675 -17.704  1.00  0.00    -0.203 F 
ATOM     96  F   UNL     1       3.302   3.018 -20.055  1.00  0.00    -0.200 F 
ATOM     97  C   UNL     1       1.123   2.109 -20.010  1.00  0.00     0.200 A 
ATOM     98  F   UNL     1      -1.070   1.238 -19.933  1.00  0.00    -0.200 F 
ATOM     99  F   UNL     1       1.377   1.409 -21.124  1.00  0.00    -0.200 F 
ENDBRANCH  66  89
ENDBRANCH  40  41
ENDBRANCH  33  35
ENDBRANCH  32  33
ENDBRANCH  31  32
ENDBRANCH  30  31
ENDBRANCH  29  30
ENDBRANCH  27  29
ENDBRANCH   1  27
TORSDOF 20
