REMARK SMILES CCOc1cc2c(cc1/C=C1/C(=O)N(c3cccc(C(=O)OCCOC(=O)c4ccc(-c5c6nc(c(-c7c(F)c(F)c(F)c(F)c7F)c7ccc([nH]7)c(-c7c(F)c(F)c(F)c(F)c7F)c7nc(c(-c8c(F)c(F)c(F)c(F)c8F)c8ccc5[nH]8)C=C7)C=C6)cc4)c3)C(=S)N=C1O)OCO2
REMARK SMILES IDX 23 1 22 2 20 3 21 4 19 5 15 6 16 7 91 8 17 9 18 10 14 11
REMARK SMILES IDX 10 12 11 13 12 14 95 15 13 16 94 17 92 18 93 19 9 20 4 21
REMARK SMILES IDX 5 22 6 23 8 24 7 25 99 26 97 27 98 28 3 29 2 30 1 31 96 32
REMARK SMILES IDX 24 34 25 35 26 36 27 37 28 38 29 39 90 40 30 41 89 42 31 43
REMARK SMILES IDX 32 44 33 45 83 46 34 47 88 48 82 49 84 50 35 51 87 52 81 53
REMARK SMILES IDX 80 54 36 56 68 57 48 58 67 59 49 60 52 61 66 62 85 63 50 64
REMARK SMILES IDX 51 65 65 67 86 68 53 69 37 70 38 71 46 72 39 73 40 74 44 75
REMARK SMILES IDX 47 76 41 77 42 78 45 79 43 80 69 81 70 82 78 83 71 84 72 85
REMARK SMILES IDX 76 86 79 87 73 88 74 89 77 90 75 91 54 92 55 93 63 94 56 95
REMARK SMILES IDX 57 96 61 97 64 98 58 99 59 100 62 101 60 102
REMARK H PARENT 96 33 84 55 52 66
REMARK Flexibility Score: inf
ROOT
ATOM      1  C   UNL     1      -2.526   0.105  10.497  1.00  0.00     0.275 C 
ENDROOT
BRANCH   1   2
ATOM      2  O   UNL     1      -1.641   1.127   9.996  1.00  0.00    -0.458 OA
BRANCH   2   3
ATOM      3  C   UNL     1      -2.118   2.397  10.011  1.00  0.00     0.338 C 
ATOM      4  O   UNL     1      -3.216   2.754  10.405  1.00  0.00    -0.246 OA
BRANCH   3   5
ATOM      5  C   UNL     1      -1.068   3.353   9.570  1.00  0.00     0.062 A 
ATOM      6  C   UNL     1       1.034   3.873   8.471  1.00  0.00     0.052 A 
ATOM      7  C   UNL     1       0.913   5.210   8.871  1.00  0.00     0.027 A 
ATOM      8  C   UNL     1       0.044   2.945   8.833  1.00  0.00     0.042 A 
ATOM      9  C   UNL     1      -0.203   5.623   9.598  1.00  0.00     0.003 A 
ATOM     10  C   UNL     1      -1.201   4.703   9.925  1.00  0.00     0.016 A 
BRANCH   6  11
ATOM     11  N   UNL     1       2.091   3.454   7.600  1.00  0.00    -0.251 N 
ATOM     12  C   UNL     1       2.459   2.605   4.083  1.00  0.00     0.031 C 
ATOM     13  C   UNL     1       2.766   2.654   5.398  1.00  0.00     0.103 C 
ATOM     14  C   UNL     1       1.670   3.049   6.323  1.00  0.00     0.270 C 
ATOM     15  C   UNL     1       4.032   2.395   6.068  1.00  0.00     0.226 C 
ATOM     16  O   UNL     1       0.497   3.034   5.947  1.00  0.00    -0.268 OA
ATOM     17  N   UNL     1       4.355   2.749   7.252  1.00  0.00    -0.184 NA
ATOM     18  C   UNL     1       3.435   3.411   8.035  1.00  0.00     0.210 C 
ATOM     19  S   UNL     1       3.997   4.018   9.519  1.00  0.00    -0.038 S 
BRANCH  12  20
ATOM     20  C   UNL     1       3.293   2.259   2.911  1.00  0.00     0.021 A 
ATOM     21  C   UNL     1       2.733   1.513   1.833  1.00  0.00     0.130 A 
ATOM     22  C   UNL     1       3.522   1.121   0.746  1.00  0.00     0.097 A 
ATOM     23  C   UNL     1       4.854   1.468   0.760  1.00  0.00     0.169 A 
ATOM     24  C   UNL     1       4.626   2.686   2.818  1.00  0.00     0.062 A 
ATOM     25  C   UNL     1       5.387   2.241   1.760  1.00  0.00     0.166 A 
ATOM     26  O   UNL     1       5.773   1.136  -0.184  1.00  0.00    -0.453 OA
ATOM     27  O   UNL     1       6.710   2.491   1.574  1.00  0.00    -0.454 OA
ATOM     28  C   UNL     1       6.968   1.699   0.397  1.00  0.00     0.468 C 
BRANCH  21  29
ATOM     29  O   UNL     1       1.374   1.309   1.827  1.00  0.00    -0.493 OA
BRANCH  29  30
ATOM     30  C   UNL     1       0.939  -0.037   1.614  1.00  0.00     0.226 C 
ATOM     31  C   UNL     1       0.549  -0.288   0.165  1.00  0.00     0.049 C 
ENDBRANCH  29  30
ENDBRANCH  21  29
ENDBRANCH  12  20
BRANCH  15  32
ATOM     32  O   UNL     1       4.927   1.657   5.410  1.00  0.00    -0.493 OA
ATOM     33  H   UNL     1       4.745   1.368   4.538  1.00  0.00     0.295 HD
ENDBRANCH  15  32
ENDBRANCH   6  11
ENDBRANCH   3   5
ENDBRANCH   2   3
ENDBRANCH   1   2
BRANCH   1  34
ATOM     34  C   UNL     1      -2.123  -0.321  11.908  1.00  0.00     0.275 C 
BRANCH  34  35
ATOM     35  O   UNL     1      -2.322   0.767  12.829  1.00  0.00    -0.458 OA
BRANCH  35  36
ATOM     36  C   UNL     1      -1.203   1.260  13.406  1.00  0.00     0.338 C 
ATOM     37  O   UNL     1      -0.062   0.849  13.306  1.00  0.00    -0.246 OA
BRANCH  36  38
ATOM     38  C   UNL     1      -1.546   2.493  14.130  1.00  0.00     0.060 A 
ATOM     39  C   UNL     1      -1.429   3.701  13.446  1.00  0.00     0.016 A 
ATOM     40  C   UNL     1      -1.856   2.475  15.489  1.00  0.00     0.016 A 
ATOM     41  C   UNL     1      -1.608   4.908  14.115  1.00  0.00     0.010 A 
ATOM     42  C   UNL     1      -2.052   3.689  16.160  1.00  0.00     0.010 A 
ATOM     43  C   UNL     1      -1.906   4.915  15.484  1.00  0.00    -0.014 A 
BRANCH  43  44
ATOM     44  C   UNL     1      -1.949   6.209  16.215  1.00  0.00     0.031 A 
ATOM     45  C   UNL     1      -0.851   6.552  17.183  1.00  0.00     0.074 A 
ATOM     46  C   UNL     1      -2.925   7.104  15.970  1.00  0.00     0.049 A 
ATOM     47  N   UNL     1      -0.740   7.583  17.983  1.00  0.00    -0.248 NA
ATOM     48  C   UNL     1       0.272   5.606  17.263  1.00  0.00     0.031 C 
ATOM     49  C   UNL     1      -4.013   6.926  15.010  1.00  0.00     0.029 A 
ATOM     50  N   UNL     1      -3.147   8.351  16.501  1.00  0.00    -0.354 N 
ATOM     51  C   UNL     1       0.438   7.387  18.691  1.00  0.00     0.074 A 
ATOM     52  C   UNL     1       1.008   6.139  18.228  1.00  0.00     0.031 C 
ATOM     53  C   UNL     1      -4.772   8.034  15.000  1.00  0.00     0.029 A 
ATOM     54  C   UNL     1      -4.257   8.977  15.991  1.00  0.00     0.049 A 
ATOM     55  H   UNL     1      -2.564   8.758  17.183  1.00  0.00     0.167 HD
ATOM     56  C   UNL     1       0.995   8.177  19.640  1.00  0.00     0.037 A 
ATOM     57  C   UNL     1      -4.809  10.165  16.302  1.00  0.00     0.037 A 
ATOM     58  C   UNL     1       0.459   9.442  20.065  1.00  0.00     0.049 A 
ATOM     59  C   UNL     1      -4.183  11.016  17.374  1.00  0.00     0.074 A 
ATOM     60  C   UNL     1       0.953  10.313  21.021  1.00  0.00     0.029 A 
ATOM     61  N   UNL     1      -0.686  10.027  19.546  1.00  0.00    -0.354 N 
ATOM     62  N   UNL     1      -3.099  10.796  18.077  1.00  0.00    -0.248 NA
ATOM     63  C   UNL     1      -4.867  12.274  17.706  1.00  0.00     0.031 C 
ATOM     64  C   UNL     1       0.093  11.414  21.099  1.00  0.00     0.029 A 
ATOM     65  C   UNL     1      -0.918  11.244  20.166  1.00  0.00     0.049 A 
ATOM     66  H   UNL     1      -1.251   9.635  18.842  1.00  0.00     0.167 HD
ATOM     67  C   UNL     1      -2.963  11.888  18.923  1.00  0.00     0.074 A 
ATOM     68  C   UNL     1      -4.066  12.781  18.634  1.00  0.00     0.031 C 
ATOM     69  C   UNL     1      -2.014  12.125  19.861  1.00  0.00     0.037 A 
BRANCH  56  70
ATOM     70  C   UNL     1       2.239   7.675  20.311  1.00  0.00     0.064 A 
ATOM     71  C   UNL     1       3.483   7.678  19.665  1.00  0.00     0.173 A 
ATOM     72  C   UNL     1       2.184   7.207  21.633  1.00  0.00     0.173 A 
ATOM     73  F   UNL     1       3.583   8.101  18.396  1.00  0.00    -0.203 F 
ATOM     74  C   UNL     1       4.624   7.210  20.311  1.00  0.00     0.198 A 
ATOM     75  C   UNL     1       3.331   6.764  22.284  1.00  0.00     0.198 A 
ATOM     76  F   UNL     1       1.018   7.188  22.296  1.00  0.00    -0.203 F 
ATOM     77  F   UNL     1       5.796   7.184  19.662  1.00  0.00    -0.200 F 
ATOM     78  C   UNL     1       4.549   6.759  21.621  1.00  0.00     0.200 A 
ATOM     79  F   UNL     1       3.258   6.338  23.553  1.00  0.00    -0.200 F 
ATOM     80  F   UNL     1       5.649   6.314  22.242  1.00  0.00    -0.200 F 
ENDBRANCH  56  70
BRANCH  57  81
ATOM     81  C   UNL     1      -6.038  10.617  15.600  1.00  0.00     0.064 A 
ATOM     82  C   UNL     1      -6.003  11.693  14.704  1.00  0.00     0.173 A 
ATOM     83  C   UNL     1      -7.272   9.985  15.815  1.00  0.00     0.173 A 
ATOM     84  F   UNL     1      -4.852  12.347  14.489  1.00  0.00    -0.203 F 
ATOM     85  C   UNL     1      -7.157  12.126  14.054  1.00  0.00     0.198 A 
ATOM     86  C   UNL     1      -8.420  10.401  15.146  1.00  0.00     0.198 A 
ATOM     87  F   UNL     1      -7.359   8.954  16.669  1.00  0.00    -0.203 F 
ATOM     88  F   UNL     1      -7.104  13.182  13.231  1.00  0.00    -0.200 F 
ATOM     89  C   UNL     1      -8.363  11.475  14.270  1.00  0.00     0.200 A 
ATOM     90  F   UNL     1      -9.581   9.764  15.350  1.00  0.00    -0.200 F 
ATOM     91  F   UNL     1      -9.471  11.888  13.640  1.00  0.00    -0.200 F 
ENDBRANCH  57  81
BRANCH  69  92
ATOM     92  C   UNL     1      -2.111  13.412  20.625  1.00  0.00     0.064 A 
ATOM     93  C   UNL     1      -3.064  13.592  21.637  1.00  0.00     0.173 A 
ATOM     94  C   UNL     1      -1.214  14.460  20.368  1.00  0.00     0.173 A 
ATOM     95  F   UNL     1      -3.952  12.624  21.908  1.00  0.00    -0.203 F 
ATOM     96  C   UNL     1      -3.128  14.784  22.353  1.00  0.00     0.198 A 
ATOM     97  C   UNL     1      -1.267  15.642  21.101  1.00  0.00     0.198 A 
ATOM     98  F   UNL     1      -0.281  14.333  19.412  1.00  0.00    -0.203 F 
ATOM     99  F   UNL     1      -4.071  14.950  23.291  1.00  0.00    -0.200 F 
ATOM    100  C   UNL     1      -2.227  15.805  22.088  1.00  0.00     0.200 A 
ATOM    101  F   UNL     1      -0.391  16.625  20.850  1.00  0.00    -0.200 F 
ATOM    102  F   UNL     1      -2.288  16.951  22.781  1.00  0.00    -0.200 F 
ENDBRANCH  69  92
ENDBRANCH  43  44
ENDBRANCH  36  38
ENDBRANCH  35  36
ENDBRANCH  34  35
ENDBRANCH   1  34
TORSDOF 16
