REMARK SMILES CCC[C@](C)(C(=O)OCCOC(=O)c1ccc(-c2c3nc(c(-c4c(F)c(F)c(F)c(F)c4F)c4ccc([nH]4)c(-c4c(F)c(F)c(F)c(F)c4F)c4nc(c(-c5c(F)c(F)c(F)c(F)c5F)c5ccc2[nH]5)C=C4)C=C3)cc1)[NH+]1CC(C(C)(C)C)C1
REMARK SMILES IDX 9 1 8 2 6 3 7 4 4 5 5 6 3 7 2 8 1 9 77 10 78 11 84 12 79 14
REMARK SMILES IDX 80 15 81 16 82 17 83 18 10 19 11 20 12 21 13 22 14 23 15 24
REMARK SMILES IDX 76 25 16 26 75 27 17 28 18 29 19 30 69 31 20 32 74 33 68 34
REMARK SMILES IDX 70 35 21 36 73 37 67 38 66 39 22 41 54 42 34 43 53 44 35 45
REMARK SMILES IDX 38 46 52 47 71 48 36 49 37 50 51 52 72 53 39 54 23 55 24 56
REMARK SMILES IDX 32 57 25 58 26 59 30 60 33 61 27 62 28 63 31 64 29 65 55 66
REMARK SMILES IDX 56 67 64 68 57 69 58 70 62 71 65 72 59 73 60 74 63 75 61 76
REMARK SMILES IDX 40 77 41 78 49 79 42 80 43 81 47 82 50 83 44 84 45 85 48 86
REMARK SMILES IDX 46 87
REMARK H PARENT 77 13 70 40 38 51
REMARK Flexibility Score: inf
ROOT
ATOM      1  C   UNL     1       1.102  -4.650   3.981  1.00  0.00     0.274 C 
ENDROOT
BRANCH   1   2
ATOM      2  O   UNL     1       0.804  -3.760   2.884  1.00  0.00    -0.457 OA
BRANCH   2   3
ATOM      3  C   UNL     1       0.228  -2.565   3.201  1.00  0.00     0.367 C 
ATOM      4  O   UNL     1      -0.087  -2.249   4.346  1.00  0.00    -0.245 OA
BRANCH   3   5
ATOM      5  C   UNL     1      -0.049  -1.668   1.941  1.00  0.00     0.193 C 
ATOM      6  C   UNL     1       0.792  -2.141   0.734  1.00  0.00     0.092 C 
BRANCH   5   7
ATOM      7  C   UNL     1      -1.586  -1.737   1.692  1.00  0.00     0.080 C 
BRANCH   7   8
ATOM      8  C   UNL     1      -2.121  -2.848   0.772  1.00  0.00     0.004 C 
ATOM      9  C   UNL     1      -1.922  -4.274   1.259  1.00  0.00     0.004 C 
ENDBRANCH   7   8
ENDBRANCH   5   7
BRANCH   5  10
ATOM     10  N   UNL     1       0.519  -0.323   2.248  1.00  0.00    -0.320 N 
ATOM     11  C   UNL     1       0.200   0.789   1.303  1.00  0.00     0.273 C 
ATOM     12  C   UNL     1      -0.133   0.472   3.321  1.00  0.00     0.273 C 
ATOM     13  H   UNL     1       1.472  -0.671   2.355  1.00  0.00     0.349 HD
ATOM     14  C   UNL     1       0.392   1.727   2.538  1.00  0.00     0.105 C 
BRANCH  14  15
ATOM     15  C   UNL     1      -0.249   3.112   2.702  1.00  0.00    -0.025 C 
ATOM     16  C   UNL     1       0.172   3.672   4.074  1.00  0.00     0.011 C 
ATOM     17  C   UNL     1       0.295   4.034   1.600  1.00  0.00     0.011 C 
ATOM     18  C   UNL     1      -1.776   3.058   2.621  1.00  0.00     0.011 C 
ENDBRANCH  14  15
ENDBRANCH   5  10
ENDBRANCH   3   5
ENDBRANCH   2   3
ENDBRANCH   1   2
BRANCH   1  19
ATOM     19  C   UNL     1       2.613  -4.729   4.171  1.00  0.00     0.275 C 
BRANCH  19  20
ATOM     20  O   UNL     1       3.087  -3.422   4.531  1.00  0.00    -0.458 OA
BRANCH  20  21
ATOM     21  C   UNL     1       4.229  -3.016   3.932  1.00  0.00     0.338 C 
ATOM     22  O   UNL     1       4.972  -3.672   3.223  1.00  0.00    -0.246 OA
BRANCH  21  23
ATOM     23  C   UNL     1       4.462  -1.600   4.274  1.00  0.00     0.060 A 
ATOM     24  C   UNL     1       3.422  -0.679   4.158  1.00  0.00     0.016 A 
ATOM     25  C   UNL     1       5.738  -1.168   4.633  1.00  0.00     0.016 A 
ATOM     26  C   UNL     1       3.667   0.678   4.345  1.00  0.00     0.010 A 
ATOM     27  C   UNL     1       5.967   0.192   4.878  1.00  0.00     0.010 A 
ATOM     28  C   UNL     1       4.940   1.136   4.699  1.00  0.00    -0.014 A 
BRANCH  28  29
ATOM     29  C   UNL     1       5.216   2.598   4.768  1.00  0.00     0.031 A 
ATOM     30  C   UNL     1       6.220   3.204   3.823  1.00  0.00     0.074 A 
ATOM     31  C   UNL     1       4.543   3.403   5.614  1.00  0.00     0.049 A 
ATOM     32  N   UNL     1       6.763   4.396   3.837  1.00  0.00    -0.248 NA
ATOM     33  C   UNL     1       6.676   2.350   2.715  1.00  0.00     0.031 C 
ATOM     34  C   UNL     1       3.469   2.985   6.514  1.00  0.00     0.029 A 
ATOM     35  N   UNL     1       4.657   4.754   5.840  1.00  0.00    -0.354 N 
ATOM     36  C   UNL     1       7.673   4.407   2.788  1.00  0.00     0.074 A 
ATOM     37  C   UNL     1       7.598   3.112   2.146  1.00  0.00     0.031 C 
ATOM     38  C   UNL     1       2.997   4.060   7.165  1.00  0.00     0.029 A 
ATOM     39  C   UNL     1       3.794   5.227   6.798  1.00  0.00     0.049 A 
ATOM     40  H   UNL     1       5.298   5.329   5.361  1.00  0.00     0.167 HD
ATOM     41  C   UNL     1       8.503   5.406   2.404  1.00  0.00     0.037 A 
ATOM     42  C   UNL     1       3.688   6.451   7.352  1.00  0.00     0.037 A 
ATOM     43  C   UNL     1       8.531   6.715   3.000  1.00  0.00     0.049 A 
ATOM     44  C   UNL     1       4.647   7.534   6.938  1.00  0.00     0.074 A 
ATOM     45  C   UNL     1       9.355   7.785   2.701  1.00  0.00     0.029 A 
ATOM     46  N   UNL     1       7.671   7.139   4.002  1.00  0.00    -0.354 N 
ATOM     47  N   UNL     1       5.588   7.505   6.026  1.00  0.00    -0.248 NA
ATOM     48  C   UNL     1       4.551   8.814   7.657  1.00  0.00     0.031 C 
ATOM     49  C   UNL     1       9.011   8.851   3.540  1.00  0.00     0.029 A 
ATOM     50  C   UNL     1       7.948   8.454   4.336  1.00  0.00     0.049 A 
ATOM     51  H   UNL     1       6.969   6.587   4.415  1.00  0.00     0.167 HD
ATOM     52  C   UNL     1       6.190   8.755   6.057  1.00  0.00     0.074 A 
ATOM     53  C   UNL     1       5.492   9.532   7.059  1.00  0.00     0.031 C 
ATOM     54  C   UNL     1       7.237   9.214   5.330  1.00  0.00     0.037 A 
BRANCH  41  55
ATOM     55  C   UNL     1       9.491   5.102   1.318  1.00  0.00     0.064 A 
ATOM     56  C   UNL     1       9.113   5.006  -0.028  1.00  0.00     0.173 A 
ATOM     57  C   UNL     1      10.847   4.929   1.635  1.00  0.00     0.173 A 
ATOM     58  F   UNL     1       7.826   5.145  -0.379  1.00  0.00    -0.203 F 
ATOM     59  C   UNL     1      10.055   4.725  -1.016  1.00  0.00     0.198 A 
ATOM     60  C   UNL     1      11.789   4.673   0.643  1.00  0.00     0.198 A 
ATOM     61  F   UNL     1      11.259   5.014   2.909  1.00  0.00    -0.203 F 
ATOM     62  F   UNL     1       9.666   4.596  -2.292  1.00  0.00    -0.200 F 
ATOM     63  C   UNL     1      11.391   4.565  -0.680  1.00  0.00     0.200 A 
ATOM     64  F   UNL     1      13.081   4.529   0.969  1.00  0.00    -0.200 F 
ATOM     65  F   UNL     1      12.296   4.300  -1.633  1.00  0.00    -0.200 F 
ENDBRANCH  41  55
BRANCH  42  66
ATOM     66  C   UNL     1       2.667   6.708   8.402  1.00  0.00     0.064 A 
ATOM     67  C   UNL     1       1.593   7.578   8.164  1.00  0.00     0.173 A 
ATOM     68  C   UNL     1       2.754   6.110   9.668  1.00  0.00     0.173 A 
ATOM     69  F   UNL     1       1.485   8.200   6.981  1.00  0.00    -0.203 F 
ATOM     70  C   UNL     1       0.652   7.846   9.156  1.00  0.00     0.198 A 
ATOM     71  C   UNL     1       1.795   6.355  10.648  1.00  0.00     0.198 A 
ATOM     72  F   UNL     1       3.767   5.279   9.950  1.00  0.00    -0.203 F 
ATOM     73  F   UNL     1      -0.339   8.716   8.918  1.00  0.00    -0.200 F 
ATOM     74  C   UNL     1       0.749   7.229  10.394  1.00  0.00     0.200 A 
ATOM     75  F   UNL     1       1.888   5.749  11.839  1.00  0.00    -0.200 F 
ATOM     76  F   UNL     1      -0.159   7.484  11.346  1.00  0.00    -0.200 F 
ENDBRANCH  42  66
BRANCH  54  77
ATOM     77  C   UNL     1       7.676  10.627   5.575  1.00  0.00     0.064 A 
ATOM     78  C   UNL     1       8.398  10.977   6.724  1.00  0.00     0.173 A 
ATOM     79  C   UNL     1       7.410  11.629   4.631  1.00  0.00     0.173 A 
ATOM     80  F   UNL     1       8.664  10.056   7.662  1.00  0.00    -0.203 F 
ATOM     81  C   UNL     1       8.822  12.288   6.929  1.00  0.00     0.198 A 
ATOM     82  C   UNL     1       7.855  12.933   4.828  1.00  0.00     0.198 A 
ATOM     83  F   UNL     1       6.727  11.341   3.513  1.00  0.00    -0.203 F 
ATOM     84  F   UNL     1       9.478  12.610   8.053  1.00  0.00    -0.200 F 
ATOM     85  C   UNL     1       8.556  13.262   5.979  1.00  0.00     0.200 A 
ATOM     86  F   UNL     1       7.605  13.872   3.905  1.00  0.00    -0.200 F 
ATOM     87  F   UNL     1       8.969  14.522   6.175  1.00  0.00    -0.200 F 
ENDBRANCH  54  77
ENDBRANCH  28  29
ENDBRANCH  21  23
ENDBRANCH  20  21
ENDBRANCH  19  20
ENDBRANCH   1  19
TORSDOF 15
