REMARK SMILES O=C(OCCOC(=O)c1ccc(-c2c3nc(c(-c4c(F)c(F)c(F)c(F)c4F)c4ccc([nH]4)c(-c4c(F)c(F)c(F)c(F)c4F)c4nc(c(-c5c(F)c(F)c(F)c(F)c5F)c5ccc2[nH]5)C=C4)C=C3)cc1)C1=Cc2cc(OC(F)(F)F)ccc2O[C@@H]1C(F)(F)F
REMARK SMILES IDX 4 1 3 2 2 3 1 4 72 5 73 6 86 7 74 8 85 9 75 10 84 11 76 12
REMARK SMILES IDX 83 13 82 14 87 15 88 16 89 17 90 18 77 19 78 20 79 21 80 22
REMARK SMILES IDX 81 23 5 24 6 25 7 26 8 27 9 28 10 29 71 30 11 31 70 32 12 33
REMARK SMILES IDX 13 34 14 35 64 36 15 37 69 38 63 39 65 40 16 41 68 42 62 43
REMARK SMILES IDX 61 44 17 46 49 47 29 48 48 49 30 50 33 51 47 52 66 53 31 54
REMARK SMILES IDX 32 55 46 57 67 58 34 59 18 60 19 61 27 62 20 63 21 64 25 65
REMARK SMILES IDX 28 66 22 67 23 68 26 69 24 70 50 71 51 72 59 73 52 74 53 75
REMARK SMILES IDX 57 76 60 77 54 78 55 79 58 80 56 81 35 82 36 83 44 84 37 85
REMARK SMILES IDX 38 86 42 87 45 88 39 89 40 90 43 91 41 92
REMARK H PARENT 65 45 33 56
REMARK Flexibility Score: inf
ROOT
ATOM      1  C   UNL     1       3.792   0.644  -1.081  1.00  0.00     0.275 C 
ENDROOT
BRANCH   1   2
ATOM      2  O   UNL     1       2.856   0.425  -2.310  1.00  0.00    -0.459 OA
BRANCH   2   3
ATOM      3  C   UNL     1       3.006  -0.777  -2.877  1.00  0.00     0.338 C 
ATOM      4  O   UNL     1       2.358  -1.323  -3.734  1.00  0.00    -0.246 OA
BRANCH   3   5
ATOM      5  C   UNL     1       3.877  -1.291  -1.851  1.00  0.00     0.087 C 
ATOM      6  C   UNL     1       5.247  -0.837  -2.001  1.00  0.00     0.027 C 
ATOM      7  C   UNL     1       2.708  -0.894  -0.370  1.00  0.00     0.316 C 
ATOM      8  C   UNL     1       5.997   0.350  -0.906  1.00  0.00     0.021 A 
ATOM      9  O   UNL     1       3.488   0.455   0.789  1.00  0.00    -0.475 OA
ATOM     10  C   UNL     1       7.216   0.823  -1.277  1.00  0.00     0.058 A 
ATOM     11  C   UNL     1       5.158   1.096   0.403  1.00  0.00     0.128 A 
ATOM     12  C   UNL     1       7.691   1.930  -0.563  1.00  0.00     0.130 A 
ATOM     13  C   UNL     1       5.680   2.178   1.058  1.00  0.00     0.051 A 
ATOM     14  C   UNL     1       6.963   2.578   0.530  1.00  0.00     0.050 A 
BRANCH   7  15
ATOM     15  C   UNL     1       2.259  -2.420  -0.209  1.00  0.00     0.430 C 
ATOM     16  F   UNL     1       0.977  -2.518   0.171  1.00  0.00    -0.167 F 
ATOM     17  F   UNL     1       2.260  -3.030  -1.439  1.00  0.00    -0.167 F 
ATOM     18  F   UNL     1       3.045  -3.247   0.497  1.00  0.00    -0.167 F 
ENDBRANCH   7  15
BRANCH  12  19
ATOM     19  O   UNL     1       8.912   2.271  -1.086  1.00  0.00    -0.406 OA
BRANCH  19  20
ATOM     20  C   UNL     1       9.631   3.390  -0.635  1.00  0.00     0.573 C 
ATOM     21  F   UNL     1       8.977   4.528  -0.933  1.00  0.00    -0.132 F 
ATOM     22  F   UNL     1       9.863   3.318   0.688  1.00  0.00    -0.132 F 
ATOM     23  F   UNL     1      10.822   3.401  -1.278  1.00  0.00    -0.132 F 
ENDBRANCH  19  20
ENDBRANCH  12  19
ENDBRANCH   3   5
ENDBRANCH   2   3
ENDBRANCH   1   2
BRANCH   1  24
ATOM     24  C   UNL     1       4.604  -0.904   0.200  1.00  0.00     0.275 C 
BRANCH  24  25
ATOM     25  O   UNL     1       3.825  -1.519   1.639  1.00  0.00    -0.458 OA
BRANCH  25  26
ATOM     26  C   UNL     1       2.903  -1.217   2.618  1.00  0.00     0.338 C 
ATOM     27  O   UNL     1       2.409  -0.146   2.920  1.00  0.00    -0.246 OA
BRANCH  26  28
ATOM     28  C   UNL     1       2.234  -2.515   2.965  1.00  0.00     0.060 A 
ATOM     29  C   UNL     1       0.873  -2.665   2.636  1.00  0.00     0.016 A 
ATOM     30  C   UNL     1       3.017  -3.647   3.187  1.00  0.00     0.016 A 
ATOM     31  C   UNL     1       0.377  -3.934   2.274  1.00  0.00     0.010 A 
ATOM     32  C   UNL     1       2.516  -4.906   2.839  1.00  0.00     0.010 A 
ATOM     33  C   UNL     1       1.223  -5.051   2.299  1.00  0.00    -0.014 A 
BRANCH  33  34
ATOM     34  C   UNL     1       0.708  -6.423   2.035  1.00  0.00     0.031 A 
ATOM     35  C   UNL     1       0.174  -7.138   3.237  1.00  0.00     0.074 A 
ATOM     36  C   UNL     1       0.783  -7.058   0.845  1.00  0.00     0.049 A 
ATOM     37  N   UNL     1      -0.234  -8.370   3.373  1.00  0.00    -0.248 NA
ATOM     38  C   UNL     1       0.140  -6.344   4.478  1.00  0.00     0.031 C 
ATOM     39  C   UNL     1       1.288  -6.495  -0.406  1.00  0.00     0.029 A 
ATOM     40  N   UNL     1       0.443  -8.352   0.504  1.00  0.00    -0.354 N 
ATOM     41  C   UNL     1      -0.569  -8.493   4.712  1.00  0.00     0.074 A 
ATOM     42  C   UNL     1      -0.242  -7.245   5.361  1.00  0.00     0.031 C 
ATOM     43  C   UNL     1       1.234  -7.438  -1.371  1.00  0.00     0.029 A 
ATOM     44  C   UNL     1       0.707  -8.681  -0.808  1.00  0.00     0.049 A 
ATOM     45  H   UNL     1       0.046  -8.986   1.144  1.00  0.00     0.167 HD
ATOM     46  C   UNL     1      -1.129  -9.542   5.352  1.00  0.00     0.037 A 
ATOM     47  C   UNL     1       0.541  -9.852  -1.464  1.00  0.00     0.037 A 
ATOM     48  C   UNL     1      -1.423 -10.794   4.723  1.00  0.00     0.049 A 
ATOM     49  C   UNL     1      -0.022 -11.043  -0.711  1.00  0.00     0.074 A 
ATOM     50  C   UNL     1      -1.986 -11.926   5.278  1.00  0.00     0.029 A 
ATOM     51  N   UNL     1      -1.156 -11.079   3.392  1.00  0.00    -0.354 N 
ATOM     52  N   UNL     1      -0.413 -11.129   0.539  1.00  0.00    -0.248 NA
ATOM     53  C   UNL     1      -0.173 -12.302  -1.462  1.00  0.00     0.031 C 
ATOM     54  C   UNL     1      -2.016 -12.917   4.292  1.00  0.00     0.029 A 
ATOM     55  C   UNL     1      -1.527 -12.381   3.110  1.00  0.00     0.049 A 
ATOM     56  H   UNL     1      -0.761 -10.450   2.746  1.00  0.00     0.167 HD
ATOM     57  C   UNL     1      -0.893 -12.424   0.709  1.00  0.00     0.074 A 
ATOM     58  C   UNL     1      -0.752 -13.090  -0.568  1.00  0.00     0.031 C 
ATOM     59  C   UNL     1      -1.405 -13.011   1.819  1.00  0.00     0.037 A 
BRANCH  46  60
ATOM     60  C   UNL     1      -1.420  -9.344   6.807  1.00  0.00     0.064 A 
ATOM     61  C   UNL     1      -2.397  -8.430   7.235  1.00  0.00     0.173 A 
ATOM     62  C   UNL     1      -0.653  -9.995   7.781  1.00  0.00     0.173 A 
ATOM     63  F   UNL     1      -3.129  -7.752   6.337  1.00  0.00    -0.203 F 
ATOM     64  C   UNL     1      -2.553  -8.132   8.585  1.00  0.00     0.198 A 
ATOM     65  C   UNL     1      -0.840  -9.723   9.133  1.00  0.00     0.198 A 
ATOM     66  F   UNL     1       0.302 -10.867   7.422  1.00  0.00    -0.203 F 
ATOM     67  F   UNL     1      -3.421  -7.183   8.963  1.00  0.00    -0.200 F 
ATOM     68  C   UNL     1      -1.777  -8.780   9.532  1.00  0.00     0.200 A 
ATOM     69  F   UNL     1      -0.090 -10.350  10.049  1.00  0.00    -0.200 F 
ATOM     70  F   UNL     1      -1.914  -8.479  10.830  1.00  0.00    -0.200 F 
ENDBRANCH  46  60
BRANCH  47  71
ATOM     71  C   UNL     1       0.883  -9.996  -2.914  1.00  0.00     0.064 A 
ATOM     72  C   UNL     1      -0.117 -10.244  -3.870  1.00  0.00     0.173 A 
ATOM     73  C   UNL     1       2.211  -9.985  -3.366  1.00  0.00     0.173 A 
ATOM     74  F   UNL     1      -1.402 -10.311  -3.491  1.00  0.00    -0.203 F 
ATOM     75  C   UNL     1       0.199 -10.504  -5.205  1.00  0.00     0.198 A 
ATOM     76  C   UNL     1       2.524 -10.217  -4.708  1.00  0.00     0.198 A 
ATOM     77  F   UNL     1       3.213  -9.774  -2.501  1.00  0.00    -0.203 F 
ATOM     78  F   UNL     1      -0.774 -10.809  -6.075  1.00  0.00    -0.200 F 
ATOM     79  C   UNL     1       1.519 -10.488  -5.624  1.00  0.00     0.200 A 
ATOM     80  F   UNL     1       3.803 -10.204  -5.109  1.00  0.00    -0.200 F 
ATOM     81  F   UNL     1       1.824 -10.753  -6.902  1.00  0.00    -0.200 F 
ENDBRANCH  47  71
BRANCH  59  82
ATOM     82  C   UNL     1      -1.908 -14.421   1.704  1.00  0.00     0.064 A 
ATOM     83  C   UNL     1      -1.036 -15.511   1.570  1.00  0.00     0.173 A 
ATOM     84  C   UNL     1      -3.281 -14.690   1.831  1.00  0.00     0.173 A 
ATOM     85  F   UNL     1       0.283 -15.308   1.437  1.00  0.00    -0.203 F 
ATOM     86  C   UNL     1      -1.521 -16.816   1.554  1.00  0.00     0.198 A 
ATOM     87  C   UNL     1      -3.758 -15.996   1.849  1.00  0.00     0.198 A 
ATOM     88  F   UNL     1      -4.156 -13.683   1.975  1.00  0.00    -0.203 F 
ATOM     89  F   UNL     1      -0.674 -17.841   1.391  1.00  0.00    -0.200 F 
ATOM     90  C   UNL     1      -2.879 -17.058   1.706  1.00  0.00     0.200 A 
ATOM     91  F   UNL     1      -5.067 -16.228   2.020  1.00  0.00    -0.200 F 
ATOM     92  F   UNL     1      -3.340 -18.316   1.715  1.00  0.00    -0.200 F 
ENDBRANCH  59  82
ENDBRANCH  33  34
ENDBRANCH  26  28
ENDBRANCH  25  26
ENDBRANCH  24  25
ENDBRANCH   1  24
TORSDOF 14
