REMARK SMILES COC(=O)Cc1nc(NC(=O)[C@H]2CC[C@@H]2C(=O)OCCOC(=O)c2ccc(-c3c4nc(c(-c5c(F)c(F)c(F)c(F)c5F)c5ccc([nH]5)c(-c5c(F)c(F)c(F)c(F)c5F)c5nc(c(-c6c(F)c(F)c(F)c(F)c6F)c6ccc3[nH]6)C=C5)C=C4)cc2)sc1C
REMARK SMILES IDX 18 1 16 2 17 3 15 4 12 5 13 6 14 7 10 8 9 9 11 11 8 12 6 13
REMARK SMILES IDX 7 14 88 15 87 16 89 17 5 18 3 19 4 20 2 21 1 22 19 23 20 24
REMARK SMILES IDX 21 25 22 26 23 27 24 28 25 29 86 30 26 31 85 32 27 33 28 34
REMARK SMILES IDX 29 35 79 36 30 37 84 38 78 39 80 40 31 41 83 42 77 43 76 44
REMARK SMILES IDX 32 46 64 47 44 48 63 49 45 50 48 51 62 52 81 53 46 54 47 55
REMARK SMILES IDX 61 57 82 58 49 59 33 60 34 61 42 62 35 63 36 64 40 65 43 66
REMARK SMILES IDX 37 67 38 68 41 69 39 70 65 71 66 72 74 73 67 74 68 75 72 76
REMARK SMILES IDX 75 77 69 78 70 79 73 80 71 81 50 82 51 83 59 84 52 85 53 86
REMARK SMILES IDX 57 87 60 88 54 89 55 90 58 91 56 92
REMARK H PARENT 9 10 80 45 48 56
REMARK Flexibility Score: inf
ROOT
ATOM      1  O   UNL     1       5.116   8.873  -0.546  1.00  0.00    -0.462 OA
ENDROOT
BRANCH   1   2
ATOM      2  C   UNL     1       4.331   7.809  -0.887  1.00  0.00     0.309 C 
ATOM      3  O   UNL     1       4.114   6.861  -0.131  1.00  0.00    -0.252 OA
BRANCH   2   4
ATOM      4  C   UNL     1       3.751   7.932  -2.331  1.00  0.00     0.111 C 
ATOM      5  C   UNL     1       2.317   7.328  -2.539  1.00  0.00     0.093 C 
ATOM      6  C   UNL     1       3.037   6.022  -2.992  1.00  0.00     0.015 C 
ATOM      7  C   UNL     1       4.262   6.875  -3.341  1.00  0.00     0.017 C 
BRANCH   5   8
ATOM      8  C   UNL     1       1.345   7.997  -3.546  1.00  0.00     0.230 C 
ATOM      9  N   UNL     1       0.287   7.284  -4.075  1.00  0.00    -0.302 N 
ATOM     10  H   UNL     1      -0.196   7.724  -4.811  1.00  0.00     0.172 HD
ATOM     11  O   UNL     1       1.526   9.145  -3.977  1.00  0.00    -0.274 OA
BRANCH   9  12
ATOM     12  C   UNL     1      -0.183   6.049  -3.717  1.00  0.00     0.189 A 
ATOM     13  C   UNL     1      -0.950   3.978  -3.959  1.00  0.00     0.068 A 
ATOM     14  N   UNL     1      -0.771   5.233  -4.555  1.00  0.00    -0.224 NA
ATOM     15  C   UNL     1      -0.580   3.936  -2.620  1.00  0.00     0.027 A 
ATOM     16  S   UNL     1      -0.144   5.507  -2.112  1.00  0.00    -0.102 S 
ATOM     17  C   UNL     1      -0.490   2.820  -1.638  1.00  0.00     0.058 C 
BRANCH  13  18
ATOM     18  C   UNL     1      -1.477   2.898  -4.852  1.00  0.00     0.180 C 
BRANCH  18  19
ATOM     19  C   UNL     1      -1.351   1.506  -4.300  1.00  0.00     0.311 C 
ATOM     20  O   UNL     1      -2.269   0.884  -3.780  1.00  0.00    -0.252 OA
BRANCH  19  21
ATOM     21  O   UNL     1      -0.071   1.048  -4.413  1.00  0.00    -0.469 OA
ATOM     22  C   UNL     1       0.142  -0.240  -3.832  1.00  0.00     0.282 C 
ENDBRANCH  19  21
ENDBRANCH  18  19
ENDBRANCH  13  18
ENDBRANCH   9  12
ENDBRANCH   5   8
ENDBRANCH   2   4
ENDBRANCH   1   2
BRANCH   1  23
ATOM     23  C   UNL     1       5.725   8.820   0.761  1.00  0.00     0.274 C 
BRANCH  23  24
ATOM     24  C   UNL     1       4.960   9.695   1.748  1.00  0.00     0.275 C 
BRANCH  24  25
ATOM     25  O   UNL     1       3.637   9.164   1.937  1.00  0.00    -0.458 OA
BRANCH  25  26
ATOM     26  C   UNL     1       2.619  10.034   1.746  1.00  0.00     0.338 C 
ATOM     27  O   UNL     1       2.694  11.223   1.490  1.00  0.00    -0.246 OA
BRANCH  26  28
ATOM     28  C   UNL     1       1.332   9.331   1.897  1.00  0.00     0.060 A 
ATOM     29  C   UNL     1       1.063   8.199   1.133  1.00  0.00     0.016 A 
ATOM     30  C   UNL     1       0.338   9.875   2.711  1.00  0.00     0.016 A 
ATOM     31  C   UNL     1      -0.226   7.668   1.110  1.00  0.00     0.010 A 
ATOM     32  C   UNL     1      -0.930   9.283   2.753  1.00  0.00     0.010 A 
ATOM     33  C   UNL     1      -1.244   8.197   1.917  1.00  0.00    -0.014 A 
BRANCH  33  34
ATOM     34  C   UNL     1      -2.640   7.672   1.820  1.00  0.00     0.031 A 
ATOM     35  C   UNL     1      -3.772   8.601   1.457  1.00  0.00     0.074 A 
ATOM     36  C   UNL     1      -2.912   6.363   1.998  1.00  0.00     0.049 A 
ATOM     37  N   UNL     1      -5.065   8.399   1.513  1.00  0.00    -0.248 NA
ATOM     38  C   UNL     1      -3.398   9.940   0.974  1.00  0.00     0.031 C 
ATOM     39  C   UNL     1      -1.926   5.319   2.278  1.00  0.00     0.029 A 
ATOM     40  N   UNL     1      -4.106   5.682   1.951  1.00  0.00    -0.354 N 
ATOM     41  C   UNL     1      -5.655   9.602   1.144  1.00  0.00     0.074 A 
ATOM     42  C   UNL     1      -4.580  10.527   0.852  1.00  0.00     0.031 C 
ATOM     43  C   UNL     1      -2.543   4.128   2.317  1.00  0.00     0.029 A 
ATOM     44  C   UNL     1      -3.981   4.331   2.167  1.00  0.00     0.049 A 
ATOM     45  H   UNL     1      -4.970   6.122   1.778  1.00  0.00     0.167 HD
ATOM     46  C   UNL     1      -6.972   9.910   1.062  1.00  0.00     0.037 A 
ATOM     47  C   UNL     1      -4.916   3.368   2.279  1.00  0.00     0.037 A 
ATOM     48  C   UNL     1      -8.045   8.975   1.275  1.00  0.00     0.049 A 
ATOM     49  C   UNL     1      -6.372   3.735   2.208  1.00  0.00     0.074 A 
ATOM     50  C   UNL     1      -9.411   9.200   1.230  1.00  0.00     0.029 A 
ATOM     51  N   UNL     1      -7.872   7.626   1.541  1.00  0.00    -0.354 N 
ATOM     52  N   UNL     1      -6.921   4.903   1.982  1.00  0.00    -0.248 NA
ATOM     53  C   UNL     1      -7.340   2.653   2.445  1.00  0.00     0.031 C 
ATOM     54  C   UNL     1     -10.065   7.989   1.487  1.00  0.00     0.029 A 
ATOM     55  C   UNL     1      -9.105   7.006   1.663  1.00  0.00     0.049 A 
ATOM     56  H   UNL     1      -7.001   7.175   1.631  1.00  0.00     0.167 HD
ATOM     57  C   UNL     1      -8.292   4.699   2.051  1.00  0.00     0.074 A 
ATOM     58  C   UNL     1      -8.495   3.290   2.313  1.00  0.00     0.031 C 
ATOM     59  C   UNL     1      -9.293   5.604   1.924  1.00  0.00     0.037 A 
BRANCH  46  60
ATOM     60  C   UNL     1      -7.332  11.335   0.767  1.00  0.00     0.064 A 
ATOM     61  C   UNL     1      -7.219  11.880  -0.519  1.00  0.00     0.173 A 
ATOM     62  C   UNL     1      -7.835  12.156   1.789  1.00  0.00     0.173 A 
ATOM     63  F   UNL     1      -6.730  11.139  -1.525  1.00  0.00    -0.203 F 
ATOM     64  C   UNL     1      -7.579  13.203  -0.768  1.00  0.00     0.198 A 
ATOM     65  C   UNL     1      -8.215  13.470   1.532  1.00  0.00     0.198 A 
ATOM     66  F   UNL     1      -7.967  11.679   3.036  1.00  0.00    -0.203 F 
ATOM     67  F   UNL     1      -7.429  13.716  -1.997  1.00  0.00    -0.200 F 
ATOM     68  C   UNL     1      -8.082  13.994   0.255  1.00  0.00     0.200 A 
ATOM     69  F   UNL     1      -8.710  14.229   2.519  1.00  0.00    -0.200 F 
ATOM     70  F   UNL     1      -8.433  15.264   0.011  1.00  0.00    -0.200 F 
ENDBRANCH  46  60
BRANCH  47  71
ATOM     71  C   UNL     1      -4.504   1.961   2.522  1.00  0.00     0.064 A 
ATOM     72  C   UNL     1      -4.685   0.978   1.539  1.00  0.00     0.173 A 
ATOM     73  C   UNL     1      -3.924   1.570   3.738  1.00  0.00     0.173 A 
ATOM     74  F   UNL     1      -5.266   1.297   0.374  1.00  0.00    -0.203 F 
ATOM     75  C   UNL     1      -4.302  -0.343   1.765  1.00  0.00     0.198 A 
ATOM     76  C   UNL     1      -3.514   0.257   3.951  1.00  0.00     0.198 A 
ATOM     77  F   UNL     1      -3.736   2.472   4.713  1.00  0.00    -0.203 F 
ATOM     78  F   UNL     1      -4.518  -1.272   0.824  1.00  0.00    -0.200 F 
ATOM     79  C   UNL     1      -3.708  -0.700   2.966  1.00  0.00     0.200 A 
ATOM     80  F   UNL     1      -2.930  -0.081   5.108  1.00  0.00    -0.200 F 
ATOM     81  F   UNL     1      -3.328  -1.967   3.178  1.00  0.00    -0.200 F 
ENDBRANCH  47  71
BRANCH  59  82
ATOM     82  C   UNL     1     -10.695   5.093   2.054  1.00  0.00     0.064 A 
ATOM     83  C   UNL     1     -11.242   4.776   3.305  1.00  0.00     0.173 A 
ATOM     84  C   UNL     1     -11.509   4.947   0.921  1.00  0.00     0.173 A 
ATOM     85  F   UNL     1     -10.495   4.885   4.415  1.00  0.00    -0.203 F 
ATOM     86  C   UNL     1     -12.549   4.311   3.417  1.00  0.00     0.198 A 
ATOM     87  C   UNL     1     -12.822   4.500   1.038  1.00  0.00     0.198 A 
ATOM     88  F   UNL     1     -11.031   5.241  -0.297  1.00  0.00    -0.203 F 
ATOM     89  F   UNL     1     -13.040   3.977   4.618  1.00  0.00    -0.200 F 
ATOM     90  C   UNL     1     -13.339   4.178   2.284  1.00  0.00     0.200 A 
ATOM     91  F   UNL     1     -13.587   4.377  -0.056  1.00  0.00    -0.200 F 
ATOM     92  F   UNL     1     -14.598   3.730   2.393  1.00  0.00    -0.200 F 
ENDBRANCH  59  82
ENDBRANCH  33  34
ENDBRANCH  26  28
ENDBRANCH  25  26
ENDBRANCH  24  25
ENDBRANCH  23  24
ENDBRANCH   1  23
TORSDOF 16
