REMARK SMILES C[N@@H+]1CCN(C(=O)c2ccc3[nH]c4c(c3c2)CSCC4)C[C@H]1C(=O)OCCOC(=O)c1ccc(-c2c3nc(c(-c4c(F)c(F)c(F)c(F)c4F)c4ccc([nH]4)c(-c4c(F)c(F)c(F)c(F)c4F)c4nc(c(-c5c(F)c(F)c(F)c(F)c5F)c5ccc2[nH]5)C=C4)C=C3)cc1
REMARK SMILES IDX 26 1 25 2 23 3 24 4 22 5 1 6 2 7 3 8 4 10 21 11 5 12 6 13
REMARK SMILES IDX 7 14 8 15 9 16 16 17 10 18 15 19 11 20 14 21 12 22 13 23
REMARK SMILES IDX 17 24 20 26 18 27 19 28 27 29 28 30 29 31 30 32 31 33 32 34
REMARK SMILES IDX 93 35 33 36 92 37 34 38 35 39 36 40 86 41 37 42 91 43 85 44
REMARK SMILES IDX 87 45 38 46 90 47 84 48 83 49 39 51 71 52 51 53 70 54 52 55
REMARK SMILES IDX 55 56 69 57 88 58 53 59 54 60 68 62 89 63 56 64 40 65 41 66
REMARK SMILES IDX 49 67 42 68 43 69 47 70 50 71 44 72 45 73 48 74 46 75 72 76
REMARK SMILES IDX 73 77 81 78 74 79 75 80 79 81 82 82 76 83 77 84 80 85 78 86
REMARK SMILES IDX 57 87 58 88 66 89 59 90 60 91 64 92 67 93 61 94 62 95 65 96
REMARK SMILES IDX 63 97
REMARK H PARENT 2 9 12 25 87 50 55 61
REMARK Flexibility Score: inf
ROOT
ATOM      1  C   UNL     1       2.690  -3.632  -2.140  1.00  0.00     0.274 C 
ENDROOT
BRANCH   1   2
ATOM      2  O   UNL     1       2.257  -2.255  -2.021  1.00  0.00    -0.458 OA
BRANCH   2   3
ATOM      3  C   UNL     1       1.169  -2.132  -1.238  1.00  0.00     0.366 C 
ATOM      4  O   UNL     1       0.619  -3.107  -0.722  1.00  0.00    -0.245 OA
BRANCH   3   5
ATOM      5  C   UNL     1       0.555  -0.772  -1.053  1.00  0.00     0.314 C 
ATOM      6  C   UNL     1       2.601   0.555  -0.501  1.00  0.00     0.333 C 
ATOM      7  N   UNL     1       1.278   0.523  -1.101  1.00  0.00    -0.323 N 
ATOM      8  C   UNL     1       0.359   1.515  -0.438  1.00  0.00     0.284 C 
ATOM      9  H   UNL     1       1.485   0.736  -2.076  1.00  0.00     0.348 HD
ATOM     10  C   UNL     1      -1.134   1.505  -0.952  1.00  0.00     0.181 C 
ATOM     11  C   UNL     1      -0.588  -0.622  -2.056  1.00  0.00     0.197 C 
ATOM     12  N   UNL     1      -1.607   0.174  -1.391  1.00  0.00    -0.326 N 
BRANCH  12  13
ATOM     13  C   UNL     1      -2.907  -0.255  -1.161  1.00  0.00     0.254 C 
ATOM     14  O   UNL     1      -3.782   0.509  -0.755  1.00  0.00    -0.269 OA
BRANCH  13  15
ATOM     15  C   UNL     1      -3.263  -1.714  -1.295  1.00  0.00     0.040 A 
ATOM     16  C   UNL     1      -2.437  -2.718  -0.766  1.00  0.00     0.016 A 
ATOM     17  C   UNL     1      -4.577  -2.035  -1.642  1.00  0.00     0.024 A 
ATOM     18  C   UNL     1      -2.873  -4.019  -0.512  1.00  0.00     0.027 A 
ATOM     19  C   UNL     1      -5.078  -3.307  -1.290  1.00  0.00     0.004 A 
ATOM     20  C   UNL     1      -4.228  -4.245  -0.707  1.00  0.00     0.046 A 
ATOM     21  C   UNL     1      -6.383  -3.874  -1.294  1.00  0.00    -0.009 A 
ATOM     22  N   UNL     1      -4.997  -5.313  -0.309  1.00  0.00    -0.358 N 
ATOM     23  C   UNL     1      -6.314  -5.033  -0.543  1.00  0.00     0.021 A 
ATOM     24  C   UNL     1      -7.619  -3.250  -1.843  1.00  0.00     0.107 C 
ATOM     25  H   UNL     1      -4.653  -6.148   0.083  1.00  0.00     0.166 HD
ATOM     26  C   UNL     1      -7.443  -5.859  -0.035  1.00  0.00     0.065 C 
ATOM     27  S   UNL     1      -9.057  -4.375  -1.787  1.00  0.00    -0.157 SA
ATOM     28  C   UNL     1      -8.770  -5.091  -0.126  1.00  0.00     0.076 C 
ENDBRANCH  13  15
ENDBRANCH  12  13
ENDBRANCH   3   5
ENDBRANCH   2   3
ENDBRANCH   1   2
BRANCH   1  29
ATOM     29  C   UNL     1       3.663  -4.031  -1.018  1.00  0.00     0.275 C 
BRANCH  29  30
ATOM     30  O   UNL     1       2.990  -4.137   0.252  1.00  0.00    -0.458 OA
BRANCH  30  31
ATOM     31  C   UNL     1       3.172  -3.120   1.125  1.00  0.00     0.338 C 
ATOM     32  O   UNL     1       4.031  -2.245   1.064  1.00  0.00    -0.246 OA
BRANCH  31  33
ATOM     33  C   UNL     1       1.975  -3.014   1.987  1.00  0.00     0.060 A 
ATOM     34  C   UNL     1       1.255  -4.130   2.412  1.00  0.00     0.016 A 
ATOM     35  C   UNL     1       1.470  -1.724   2.205  1.00  0.00     0.016 A 
ATOM     36  C   UNL     1      -0.003  -3.940   2.976  1.00  0.00     0.010 A 
ATOM     37  C   UNL     1       0.190  -1.536   2.700  1.00  0.00     0.010 A 
ATOM     38  C   UNL     1      -0.548  -2.648   3.078  1.00  0.00    -0.014 A 
BRANCH  38  39
ATOM     39  C   UNL     1      -1.792  -2.493   3.815  1.00  0.00     0.031 A 
ATOM     40  C   UNL     1      -1.615  -2.484   5.270  1.00  0.00     0.074 A 
ATOM     41  C   UNL     1      -3.011  -2.219   3.329  1.00  0.00     0.049 A 
ATOM     42  N   UNL     1      -1.863  -3.441   6.093  1.00  0.00    -0.248 NA
ATOM     43  C   UNL     1      -0.984  -1.298   5.863  1.00  0.00     0.031 C 
ATOM     44  C   UNL     1      -3.298  -1.659   2.032  1.00  0.00     0.029 A 
ATOM     45  N   UNL     1      -4.244  -2.328   3.909  1.00  0.00    -0.354 N 
ATOM     46  C   UNL     1      -1.641  -2.895   7.345  1.00  0.00     0.074 A 
ATOM     47  C   UNL     1      -0.921  -1.662   7.143  1.00  0.00     0.031 C 
ATOM     48  C   UNL     1      -4.617  -1.426   1.907  1.00  0.00     0.029 A 
ATOM     49  C   UNL     1      -5.279  -1.849   3.121  1.00  0.00     0.049 A 
ATOM     50  H   UNL     1      -4.384  -2.711   4.805  1.00  0.00     0.167 HD
ATOM     51  C   UNL     1      -2.333  -3.350   8.420  1.00  0.00     0.037 A 
ATOM     52  C   UNL     1      -6.595  -1.719   3.417  1.00  0.00     0.037 A 
ATOM     53  C   UNL     1      -2.877  -4.667   8.194  1.00  0.00     0.049 A 
ATOM     54  C   UNL     1      -6.880  -2.585   4.586  1.00  0.00     0.074 A 
ATOM     55  C   UNL     1      -2.325  -5.868   7.779  1.00  0.00     0.029 A 
ATOM     56  N   UNL     1      -4.229  -4.808   7.995  1.00  0.00    -0.354 N 
ATOM     57  N   UNL     1      -6.792  -3.892   4.558  1.00  0.00    -0.248 NA
ATOM     58  C   UNL     1      -6.727  -1.982   5.903  1.00  0.00     0.031 C 
ATOM     59  C   UNL     1      -3.292  -6.438   6.898  1.00  0.00     0.029 A 
ATOM     60  C   UNL     1      -4.392  -5.579   6.869  1.00  0.00     0.049 A 
ATOM     61  H   UNL     1      -4.945  -4.429   8.554  1.00  0.00     0.167 HD
ATOM     62  C   UNL     1      -6.173  -4.235   5.755  1.00  0.00     0.074 A 
ATOM     63  C   UNL     1      -6.207  -3.020   6.563  1.00  0.00     0.031 C 
ATOM     64  C   UNL     1      -5.434  -5.376   5.886  1.00  0.00     0.037 A 
BRANCH  51  65
ATOM     65  C   UNL     1      -2.777  -2.434   9.521  1.00  0.00     0.064 A 
ATOM     66  C   UNL     1      -3.186  -2.972  10.749  1.00  0.00     0.173 A 
ATOM     67  C   UNL     1      -3.032  -1.055   9.335  1.00  0.00     0.173 A 
ATOM     68  F   UNL     1      -3.055  -4.284  10.992  1.00  0.00    -0.203 F 
ATOM     69  C   UNL     1      -3.808  -2.185  11.721  1.00  0.00     0.198 A 
ATOM     70  C   UNL     1      -3.590  -0.260  10.330  1.00  0.00     0.198 A 
ATOM     71  F   UNL     1      -2.849  -0.452   8.153  1.00  0.00    -0.203 F 
ATOM     72  F   UNL     1      -4.272  -2.758  12.838  1.00  0.00    -0.200 F 
ATOM     73  C   UNL     1      -3.997  -0.829  11.517  1.00  0.00     0.200 A 
ATOM     74  F   UNL     1      -3.790   1.046  10.098  1.00  0.00    -0.200 F 
ATOM     75  F   UNL     1      -4.618  -0.081  12.438  1.00  0.00    -0.200 F 
ENDBRANCH  51  65
BRANCH  52  76
ATOM     76  C   UNL     1      -7.443  -0.642   2.844  1.00  0.00     0.064 A 
ATOM     77  C   UNL     1      -8.801  -0.776   2.544  1.00  0.00     0.173 A 
ATOM     78  C   UNL     1      -6.878   0.635   2.608  1.00  0.00     0.173 A 
ATOM     79  F   UNL     1      -9.447  -1.916   2.826  1.00  0.00    -0.203 F 
ATOM     80  C   UNL     1      -9.520   0.275   1.948  1.00  0.00     0.198 A 
ATOM     81  C   UNL     1      -7.578   1.663   1.985  1.00  0.00     0.198 A 
ATOM     82  F   UNL     1      -5.629   0.910   3.019  1.00  0.00    -0.203 F 
ATOM     83  F   UNL     1     -10.824   0.125   1.674  1.00  0.00    -0.200 F 
ATOM     84  C   UNL     1      -8.900   1.480   1.643  1.00  0.00     0.200 A 
ATOM     85  F   UNL     1      -6.969   2.832   1.737  1.00  0.00    -0.200 F 
ATOM     86  F   UNL     1      -9.583   2.470   1.050  1.00  0.00    -0.200 F 
ENDBRANCH  52  76
BRANCH  64  87
ATOM     87  C   UNL     1      -5.502  -6.396   4.788  1.00  0.00     0.064 A 
ATOM     88  C   UNL     1      -4.753  -6.286   3.604  1.00  0.00     0.173 A 
ATOM     89  C   UNL     1      -6.146  -7.614   5.038  1.00  0.00     0.173 A 
ATOM     90  F   UNL     1      -4.049  -5.179   3.336  1.00  0.00    -0.203 F 
ATOM     91  C   UNL     1      -4.651  -7.357   2.716  1.00  0.00     0.198 A 
ATOM     92  C   UNL     1      -6.032  -8.685   4.154  1.00  0.00     0.198 A 
ATOM     93  F   UNL     1      -6.829  -7.788   6.180  1.00  0.00    -0.203 F 
ATOM     94  F   UNL     1      -3.913  -7.240   1.601  1.00  0.00    -0.200 F 
ATOM     95  C   UNL     1      -5.282  -8.558   2.996  1.00  0.00     0.200 A 
ATOM     96  F   UNL     1      -6.612  -9.858   4.446  1.00  0.00    -0.200 F 
ATOM     97  F   UNL     1      -5.144  -9.599   2.163  1.00  0.00    -0.200 F 
ENDBRANCH  64  87
ENDBRANCH  38  39
ENDBRANCH  31  33
ENDBRANCH  30  31
ENDBRANCH  29  30
ENDBRANCH   1  29
TORSDOF 13
