REMARK SMILES O=C(C[C@H](Cc1ccc(Cl)cc1)C(=O)Nc1cc(Cl)ccc1Cl)OCCOC(=O)c1ccc(-c2c3nc(c(-c4c(F)c(F)c(F)c(F)c4F)c4ccc([nH]4)c(-c4c(F)c(F)c(F)c(F)c4F)c4nc(c(-c5c(F)c(F)c(F)c(F)c5F)c5ccc2[nH]5)C=C4)C=C3)cc1
REMARK SMILES IDX 25 1 24 2 2 3 1 4 3 5 4 6 13 7 14 8 15 9 16 11 17 12 22 13
REMARK SMILES IDX 18 14 21 15 23 16 19 17 20 18 5 19 6 20 7 21 12 22 8 23
REMARK SMILES IDX 11 24 9 25 10 26 26 27 27 28 28 29 29 30 30 31 31 32 92 33
REMARK SMILES IDX 32 34 91 35 33 36 34 37 35 38 85 39 36 40 90 41 84 42 86 43
REMARK SMILES IDX 37 44 89 45 83 46 82 47 38 49 70 50 50 51 69 52 51 53 54 54
REMARK SMILES IDX 68 55 87 56 52 57 53 58 67 60 88 61 55 62 39 63 40 64 48 65
REMARK SMILES IDX 41 66 42 67 46 68 49 69 43 70 44 71 47 72 45 73 71 74 72 75
REMARK SMILES IDX 80 76 73 77 74 78 78 79 81 80 75 81 76 82 79 83 77 84 56 85
REMARK SMILES IDX 57 86 65 87 58 88 59 89 63 90 66 91 60 92 61 93 64 94 62 95
REMARK H PARENT 15 10 86 48 54 59
REMARK Flexibility Score: inf
ROOT
ATOM      1  C   UNL     1       3.944  -2.978  -2.844  1.00  0.00     0.274 C 
ENDROOT
BRANCH   1   2
ATOM      2  O   UNL     1       3.405  -1.650  -2.857  1.00  0.00    -0.462 OA
BRANCH   2   3
ATOM      3  C   UNL     1       3.489  -0.818  -1.804  1.00  0.00     0.306 C 
ATOM      4  O   UNL     1       3.190   0.364  -1.939  1.00  0.00    -0.252 OA
BRANCH   3   5
ATOM      5  C   UNL     1       3.972  -1.372  -0.487  1.00  0.00     0.136 C 
BRANCH   5   6
ATOM      6  C   UNL     1       2.913  -1.925   0.492  1.00  0.00     0.094 C 
BRANCH   6   7
ATOM      7  C   UNL     1       3.755  -2.869   1.462  1.00  0.00     0.228 C 
ATOM      8  O   UNL     1       3.659  -4.096   1.351  1.00  0.00    -0.274 OA
ATOM      9  N   UNL     1       4.795  -2.385   2.230  1.00  0.00    -0.324 N 
ATOM     10  H   UNL     1       5.511  -3.016   2.474  1.00  0.00     0.169 HD
BRANCH   9  11
ATOM     11  C   UNL     1       4.913  -1.075   2.686  1.00  0.00     0.061 A 
ATOM     12  C   UNL     1       3.480  -0.203   2.781  1.00  0.00     0.048 A 
ATOM     13  C   UNL     1       6.360  -0.246   2.930  1.00  0.00     0.064 A 
ATOM     14  C   UNL     1       3.389   1.792   3.050  1.00  0.00     0.043 A 
ATOM     15  C   UNL     1       6.467   1.544   3.185  1.00  0.00     0.024 A 
ATOM     16  Cl  UNL     1       7.554  -1.493   2.867  1.00  0.00    -0.082 Cl
ATOM     17  Cl  UNL     1       2.112   3.037   3.176  1.00  0.00    -0.084 Cl
ATOM     18  C   UNL     1       5.010   2.610   3.255  1.00  0.00     0.022 A 
ENDBRANCH   9  11
ENDBRANCH   6   7
BRANCH   6  19
ATOM     19  C   UNL     1       1.631  -1.012   0.937  1.00  0.00     0.049 C 
BRANCH  19  20
ATOM     20  C   UNL     1       1.802   0.499   1.702  1.00  0.00    -0.047 A 
ATOM     21  C   UNL     1       3.318   0.996   1.015  1.00  0.00     0.005 A 
ATOM     22  C   UNL     1       1.537   0.353   3.489  1.00  0.00     0.005 A 
ATOM     23  C   UNL     1       4.753   0.969   2.049  1.00  0.00     0.021 A 
ATOM     24  C   UNL     1       2.872   0.422   4.668  1.00  0.00     0.021 A 
ATOM     25  C   UNL     1       4.554   0.671   4.042  1.00  0.00     0.041 A 
ATOM     26  Cl  UNL     1       5.530   0.792   5.562  1.00  0.00    -0.084 Cl
ENDBRANCH  19  20
ENDBRANCH   6  19
ENDBRANCH   5   6
ENDBRANCH   3   5
ENDBRANCH   2   3
ENDBRANCH   1   2
BRANCH   1  27
ATOM     27  C   UNL     1       5.453  -3.010  -3.163  1.00  0.00     0.275 C 
BRANCH  27  28
ATOM     28  O   UNL     1       6.331  -2.424  -2.149  1.00  0.00    -0.458 OA
BRANCH  28  29
ATOM     29  C   UNL     1       6.756  -1.139  -2.333  1.00  0.00     0.338 C 
ATOM     30  O   UNL     1       6.431  -0.427  -3.269  1.00  0.00    -0.246 OA
BRANCH  29  31
ATOM     31  C   UNL     1       7.578  -0.624  -1.171  1.00  0.00     0.060 A 
ATOM     32  C   UNL     1       7.448   0.716  -0.781  1.00  0.00     0.016 A 
ATOM     33  C   UNL     1       8.517  -1.395  -0.480  1.00  0.00     0.016 A 
ATOM     34  C   UNL     1       8.173   1.242   0.330  1.00  0.00     0.010 A 
ATOM     35  C   UNL     1       9.275  -0.848   0.607  1.00  0.00     0.010 A 
ATOM     36  C   UNL     1       9.066   0.461   1.104  1.00  0.00    -0.014 A 
BRANCH  36  37
ATOM     37  C   UNL     1       9.902   1.150   2.214  1.00  0.00     0.031 A 
ATOM     38  C   UNL     1      11.158   1.773   1.707  1.00  0.00     0.074 A 
ATOM     39  C   UNL     1       9.757   1.274   3.576  1.00  0.00     0.049 A 
ATOM     40  N   UNL     1      11.998   2.542   2.338  1.00  0.00    -0.248 NA
ATOM     41  C   UNL     1      11.582   1.357   0.364  1.00  0.00     0.031 C 
ATOM     42  C   UNL     1       9.006   0.447   4.493  1.00  0.00     0.029 A 
ATOM     43  N   UNL     1      10.146   2.295   4.458  1.00  0.00    -0.354 N 
ATOM     44  C   UNL     1      13.091   2.631   1.506  1.00  0.00     0.074 A 
ATOM     45  C   UNL     1      12.802   1.853   0.321  1.00  0.00     0.031 C 
ATOM     46  C   UNL     1       8.674   1.104   5.609  1.00  0.00     0.029 A 
ATOM     47  C   UNL     1       9.391   2.347   5.641  1.00  0.00     0.049 A 
ATOM     48  H   UNL     1      10.882   2.920   4.264  1.00  0.00     0.167 HD
ATOM     49  C   UNL     1      14.257   3.261   1.743  1.00  0.00     0.037 A 
ATOM     50  C   UNL     1       9.330   3.196   6.698  1.00  0.00     0.037 A 
ATOM     51  C   UNL     1      14.572   3.948   2.964  1.00  0.00     0.049 A 
ATOM     52  C   UNL     1      10.560   4.030   6.871  1.00  0.00     0.074 A 
ATOM     53  C   UNL     1      15.742   4.606   3.287  1.00  0.00     0.029 A 
ATOM     54  N   UNL     1      13.739   4.039   4.075  1.00  0.00    -0.354 N 
ATOM     55  N   UNL     1      11.569   4.148   6.049  1.00  0.00    -0.248 NA
ATOM     56  C   UNL     1      10.742   4.705   8.163  1.00  0.00     0.031 C 
ATOM     57  C   UNL     1      15.646   5.041   4.610  1.00  0.00     0.029 A 
ATOM     58  C   UNL     1      14.375   4.756   5.079  1.00  0.00     0.049 A 
ATOM     59  H   UNL     1      12.836   3.653   4.139  1.00  0.00     0.167 HD
ATOM     60  C   UNL     1      12.529   4.859   6.734  1.00  0.00     0.074 A 
ATOM     61  C   UNL     1      11.951   5.224   8.013  1.00  0.00     0.031 C 
ATOM     62  C   UNL     1      13.793   5.133   6.342  1.00  0.00     0.037 A 
BRANCH  49  63
ATOM     63  C   UNL     1      15.288   3.120   0.671  1.00  0.00     0.064 A 
ATOM     64  C   UNL     1      15.096   3.656  -0.612  1.00  0.00     0.173 A 
ATOM     65  C   UNL     1      16.434   2.347   0.903  1.00  0.00     0.173 A 
ATOM     66  F   UNL     1      13.982   4.351  -0.895  1.00  0.00    -0.203 F 
ATOM     67  C   UNL     1      15.991   3.381  -1.638  1.00  0.00     0.198 A 
ATOM     68  C   UNL     1      17.353   2.119  -0.113  1.00  0.00     0.198 A 
ATOM     69  F   UNL     1      16.642   1.785   2.103  1.00  0.00    -0.203 F 
ATOM     70  F   UNL     1      15.730   3.806  -2.882  1.00  0.00    -0.200 F 
ATOM     71  C   UNL     1      17.123   2.622  -1.385  1.00  0.00     0.200 A 
ATOM     72  F   UNL     1      18.447   1.386   0.133  1.00  0.00    -0.200 F 
ATOM     73  F   UNL     1      17.983   2.353  -2.376  1.00  0.00    -0.200 F 
ENDBRANCH  49  63
BRANCH  50  74
ATOM     74  C   UNL     1       8.243   3.234   7.758  1.00  0.00     0.064 A 
ATOM     75  C   UNL     1       7.600   4.456   8.063  1.00  0.00     0.173 A 
ATOM     76  C   UNL     1       7.851   2.139   8.546  1.00  0.00     0.173 A 
ATOM     77  F   UNL     1       7.966   5.581   7.428  1.00  0.00    -0.203 F 
ATOM     78  C   UNL     1       6.633   4.565   9.073  1.00  0.00     0.198 A 
ATOM     79  C   UNL     1       6.822   2.227   9.492  1.00  0.00     0.198 A 
ATOM     80  F   UNL     1       8.503   0.971   8.460  1.00  0.00    -0.203 F 
ATOM     81  F   UNL     1       6.128   5.765   9.395  1.00  0.00    -0.200 F 
ATOM     82  C   UNL     1       6.221   3.442   9.766  1.00  0.00     0.200 A 
ATOM     83  F   UNL     1       6.437   1.131  10.162  1.00  0.00    -0.200 F 
ATOM     84  F   UNL     1       5.284   3.536  10.720  1.00  0.00    -0.200 F 
ENDBRANCH  50  74
BRANCH  62  85
ATOM     85  C   UNL     1      14.599   5.979   7.273  1.00  0.00     0.064 A 
ATOM     86  C   UNL     1      15.038   5.523   8.524  1.00  0.00     0.173 A 
ATOM     87  C   UNL     1      14.907   7.294   6.898  1.00  0.00     0.173 A 
ATOM     88  F   UNL     1      14.745   4.279   8.935  1.00  0.00    -0.203 F 
ATOM     89  C   UNL     1      15.713   6.377   9.390  1.00  0.00     0.198 A 
ATOM     90  C   UNL     1      15.624   8.126   7.745  1.00  0.00     0.198 A 
ATOM     91  F   UNL     1      14.504   7.771   5.710  1.00  0.00    -0.203 F 
ATOM     92  F   UNL     1      16.044   5.957  10.618  1.00  0.00    -0.200 F 
ATOM     93  C   UNL     1      16.011   7.674   8.997  1.00  0.00     0.200 A 
ATOM     94  F   UNL     1      15.925   9.372   7.354  1.00  0.00    -0.200 F 
ATOM     95  F   UNL     1      16.657   8.497   9.833  1.00  0.00    -0.200 F 
ENDBRANCH  62  85
ENDBRANCH  36  37
ENDBRANCH  29  31
ENDBRANCH  28  29
ENDBRANCH  27  28
ENDBRANCH   1  27
TORSDOF 16
