REMARK SMILES CCn1nc(C)c(Br)c1C[C@H](C(=O)OCCOC(=O)c1ccc(-c2c3nc(c(-c4c(F)c(F)c(F)c(F)c4F)c4ccc([nH]4)c(-c4c(F)c(F)c(F)c(F)c4F)c4nc(c(-c5c(F)c(F)c(F)c(F)c5F)c5ccc2[nH]5)C=C4)C=C3)cc1)c1ccc(F)cc1
REMARK SMILES IDX 15 1 14 2 12 3 13 4 11 5 10 6 9 7 3 8 4 9 5 10 7 11 6 12
REMARK SMILES IDX 8 13 2 14 1 15 83 16 84 17 89 18 85 19 88 20 86 21 87 22
REMARK SMILES IDX 16 23 17 24 18 25 19 26 20 27 21 28 82 29 22 30 81 31 23 32
REMARK SMILES IDX 24 33 25 34 75 35 26 36 80 37 74 38 76 39 27 40 79 41 73 42
REMARK SMILES IDX 72 43 28 45 60 46 40 47 59 48 41 49 44 50 58 51 77 52 42 53
REMARK SMILES IDX 43 54 57 56 78 57 45 58 29 59 30 60 38 61 31 62 32 63 36 64
REMARK SMILES IDX 39 65 33 66 34 67 37 68 35 69 61 70 62 71 70 72 63 73 64 74
REMARK SMILES IDX 68 75 71 76 65 77 66 78 69 79 67 80 46 81 47 82 55 83 48 84
REMARK SMILES IDX 49 85 53 86 56 87 50 88 51 89 54 90 52 91
REMARK H PARENT 76 44 44 55
REMARK Flexibility Score: inf
ROOT
ATOM      1  C   UNL     1      -0.675  -3.315   1.548  1.00  0.00     0.274 C 
ENDROOT
BRANCH   1   2
ATOM      2  O   UNL     1       0.400  -4.202   1.922  1.00  0.00    -0.462 OA
BRANCH   2   3
ATOM      3  C   UNL     1       1.667  -3.788   1.668  1.00  0.00     0.313 C 
ATOM      4  O   UNL     1       1.945  -2.722   1.127  1.00  0.00    -0.252 OA
BRANCH   3   5
ATOM      5  C   UNL     1       2.735  -4.773   2.141  1.00  0.00     0.135 C 
BRANCH   5   6
ATOM      6  C   UNL     1       3.038  -4.620   3.661  1.00  0.00     0.077 C 
BRANCH   6   7
ATOM      7  C   UNL     1       2.809  -5.812   4.580  1.00  0.00     0.054 A 
ATOM      8  N   UNL     1       3.803  -6.404   5.346  1.00  0.00    -0.268 N 
ATOM      9  N   UNL     1       3.361  -7.417   6.119  1.00  0.00    -0.177 NA
ATOM     10  C   UNL     1       2.074  -7.553   5.803  1.00  0.00     0.074 A 
ATOM     11  C   UNL     1       1.683  -6.562   4.883  1.00  0.00     0.062 A 
ATOM     12  C   UNL     1       1.289  -8.660   6.405  1.00  0.00     0.070 C 
ATOM     13  Br  UNL     1      -0.078  -6.428   4.263  1.00  0.00    -0.047 Br
BRANCH   8  14
ATOM     14  C   UNL     1       5.219  -6.087   5.456  1.00  0.00     0.141 C 
ATOM     15  C   UNL     1       6.119  -7.303   5.266  1.00  0.00     0.029 C 
ENDBRANCH   8  14
ENDBRANCH   6   7
ENDBRANCH   5   6
BRANCH   5  16
ATOM     16  C   UNL     1       2.680  -6.221   1.667  1.00  0.00    -0.033 A 
ATOM     17  C   UNL     1       1.510  -6.874   1.254  1.00  0.00     0.007 A 
ATOM     18  C   UNL     1       3.856  -6.985   1.811  1.00  0.00     0.007 A 
ATOM     19  C   UNL     1       1.482  -8.264   1.135  1.00  0.00     0.039 A 
ATOM     20  C   UNL     1       3.827  -8.371   1.688  1.00  0.00     0.039 A 
ATOM     21  C   UNL     1       2.632  -9.000   1.380  1.00  0.00     0.123 A 
ATOM     22  F   UNL     1       2.582 -10.337   1.332  1.00  0.00    -0.207 F 
ENDBRANCH   5  16
ENDBRANCH   3   5
ENDBRANCH   2   3
ENDBRANCH   1   2
BRANCH   1  23
ATOM     23  C   UNL     1      -1.779  -3.446   2.592  1.00  0.00     0.275 C 
BRANCH  23  24
ATOM     24  O   UNL     1      -1.615  -2.631   3.768  1.00  0.00    -0.458 OA
BRANCH  24  25
ATOM     25  C   UNL     1      -0.413  -2.657   4.384  1.00  0.00     0.338 C 
ATOM     26  O   UNL     1       0.639  -2.243   3.925  1.00  0.00    -0.246 OA
BRANCH  25  27
ATOM     27  C   UNL     1      -0.533  -3.265   5.722  1.00  0.00     0.060 A 
ATOM     28  C   UNL     1       0.637  -3.564   6.436  1.00  0.00     0.016 A 
ATOM     29  C   UNL     1      -1.791  -3.578   6.249  1.00  0.00     0.016 A 
ATOM     30  C   UNL     1       0.556  -4.195   7.666  1.00  0.00     0.010 A 
ATOM     31  C   UNL     1      -1.878  -4.173   7.489  1.00  0.00     0.010 A 
ATOM     32  C   UNL     1      -0.706  -4.472   8.197  1.00  0.00    -0.014 A 
BRANCH  32  33
ATOM     33  C   UNL     1      -0.819  -4.707   9.638  1.00  0.00     0.031 A 
ATOM     34  C   UNL     1      -0.386  -3.514  10.445  1.00  0.00     0.074 A 
ATOM     35  C   UNL     1      -1.534  -5.753  10.107  1.00  0.00     0.049 A 
ATOM     36  N   UNL     1       0.340  -3.477  11.515  1.00  0.00    -0.248 NA
ATOM     37  C   UNL     1      -0.710  -2.164   9.923  1.00  0.00     0.031 C 
ATOM     38  C   UNL     1      -2.208  -6.770   9.288  1.00  0.00     0.029 A 
ATOM     39  N   UNL     1      -1.965  -6.050  11.368  1.00  0.00    -0.354 N 
ATOM     40  C   UNL     1       0.385  -2.132  11.901  1.00  0.00     0.074 A 
ATOM     41  C   UNL     1      -0.113  -1.363  10.802  1.00  0.00     0.031 C 
ATOM     42  C   UNL     1      -3.152  -7.389  10.028  1.00  0.00     0.029 A 
ATOM     43  C   UNL     1      -3.067  -6.903  11.393  1.00  0.00     0.049 A 
ATOM     44  H   UNL     1      -1.539  -5.695  12.181  1.00  0.00     0.167 HD
ATOM     45  C   UNL     1       0.516  -1.794  13.213  1.00  0.00     0.037 A 
ATOM     46  C   UNL     1      -3.898  -7.135  12.439  1.00  0.00     0.037 A 
ATOM     47  C   UNL     1       1.079  -2.885  13.957  1.00  0.00     0.049 A 
ATOM     48  C   UNL     1      -3.216  -6.675  13.668  1.00  0.00     0.074 A 
ATOM     49  C   UNL     1       2.327  -3.439  14.130  1.00  0.00     0.029 A 
ATOM     50  N   UNL     1       0.155  -3.808  14.358  1.00  0.00    -0.354 N 
ATOM     51  N   UNL     1      -2.153  -7.247  14.158  1.00  0.00    -0.248 NA
ATOM     52  C   UNL     1      -3.515  -5.348  14.199  1.00  0.00     0.031 C 
ATOM     53  C   UNL     1       2.107  -4.795  14.515  1.00  0.00     0.029 A 
ATOM     54  C   UNL     1       0.735  -5.019  14.610  1.00  0.00     0.049 A 
ATOM     55  H   UNL     1      -0.807  -3.624  14.454  1.00  0.00     0.167 HD
ATOM     56  C   UNL     1      -1.435  -6.208  14.711  1.00  0.00     0.074 A 
ATOM     57  C   UNL     1      -2.388  -5.118  14.876  1.00  0.00     0.031 C 
ATOM     58  C   UNL     1      -0.073  -6.211  14.665  1.00  0.00     0.037 A 
BRANCH  45  59
ATOM     59  C   UNL     1      -0.357  -0.757  13.907  1.00  0.00     0.064 A 
ATOM     60  C   UNL     1      -0.146  -0.507  15.281  1.00  0.00     0.173 A 
ATOM     61  C   UNL     1      -1.581  -0.273  13.392  1.00  0.00     0.173 A 
ATOM     62  F   UNL     1       0.975  -0.925  15.887  1.00  0.00    -0.203 F 
ATOM     63  C   UNL     1      -1.122   0.092  16.086  1.00  0.00     0.198 A 
ATOM     64  C   UNL     1      -2.533   0.364  14.190  1.00  0.00     0.198 A 
ATOM     65  F   UNL     1      -1.968  -0.489  12.131  1.00  0.00    -0.203 F 
ATOM     66  F   UNL     1      -0.927   0.192  17.408  1.00  0.00    -0.200 F 
ATOM     67  C   UNL     1      -2.319   0.516  15.541  1.00  0.00     0.200 A 
ATOM     68  F   UNL     1      -3.696   0.748  13.644  1.00  0.00    -0.200 F 
ATOM     69  F   UNL     1      -3.282   1.027  16.319  1.00  0.00    -0.200 F 
ENDBRANCH  45  59
BRANCH  46  70
ATOM     70  C   UNL     1      -5.339  -7.492  12.431  1.00  0.00     0.064 A 
ATOM     71  C   UNL     1      -5.953  -8.051  13.565  1.00  0.00     0.173 A 
ATOM     72  C   UNL     1      -6.200  -7.042  11.413  1.00  0.00     0.173 A 
ATOM     73  F   UNL     1      -5.208  -8.471  14.598  1.00  0.00    -0.203 F 
ATOM     74  C   UNL     1      -7.345  -8.123  13.687  1.00  0.00     0.198 A 
ATOM     75  C   UNL     1      -7.589  -7.123  11.531  1.00  0.00     0.198 A 
ATOM     76  F   UNL     1      -5.716  -6.428  10.324  1.00  0.00    -0.203 F 
ATOM     77  F   UNL     1      -7.895  -8.601  14.812  1.00  0.00    -0.200 F 
ATOM     78  C   UNL     1      -8.162  -7.648  12.674  1.00  0.00     0.200 A 
ATOM     79  F   UNL     1      -8.368  -6.628  10.558  1.00  0.00    -0.200 F 
ATOM     80  F   UNL     1      -9.495  -7.655  12.817  1.00  0.00    -0.200 F 
ENDBRANCH  46  70
BRANCH  58  81
ATOM     81  C   UNL     1       0.604  -7.532  14.492  1.00  0.00     0.064 A 
ATOM     82  C   UNL     1       0.532  -8.315  13.329  1.00  0.00     0.173 A 
ATOM     83  C   UNL     1       1.424  -7.983  15.533  1.00  0.00     0.173 A 
ATOM     84  F   UNL     1      -0.169  -7.908  12.265  1.00  0.00    -0.203 F 
ATOM     85  C   UNL     1       1.222  -9.522  13.235  1.00  0.00     0.198 A 
ATOM     86  C   UNL     1       2.142  -9.167  15.421  1.00  0.00     0.198 A 
ATOM     87  F   UNL     1       1.558  -7.248  16.648  1.00  0.00    -0.203 F 
ATOM     88  F   UNL     1       1.121 -10.269  12.126  1.00  0.00    -0.200 F 
ATOM     89  C   UNL     1       2.031  -9.942  14.278  1.00  0.00     0.200 A 
ATOM     90  F   UNL     1       2.956  -9.545  16.416  1.00  0.00    -0.200 F 
ATOM     91  F   UNL     1       2.722 -11.086  14.176  1.00  0.00    -0.200 F 
ENDBRANCH  58  81
ENDBRANCH  32  33
ENDBRANCH  25  27
ENDBRANCH  24  25
ENDBRANCH  23  24
ENDBRANCH   1  23
TORSDOF 15
