REMARK SMILES C[C@H](SCC[NH3+])c1ccc(C(=O)OCCOC(=O)c2ccc(-c3c4nc(c(-c5c(F)c(F)c(F)c(F)c5F)c5ccc([nH]5)c(-c5c(F)c(F)c(F)c(F)c5F)c5nc(c(-c6c(F)c(F)c(F)c(F)c6F)c6ccc3[nH]6)C=C5)C=C4)cc2)o1
REMARK SMILES IDX 13 1 11 2 12 3 10 4 7 5 8 6 82 7 9 8 2 9 1 10 3 11 4 12 5 13
REMARK SMILES IDX 6 14 14 18 15 19 16 20 17 21 18 22 19 23 20 24 81 25 21 26
REMARK SMILES IDX 80 27 22 28 23 29 24 30 74 31 25 32 79 33 73 34 75 35 26 36
REMARK SMILES IDX 78 37 72 38 71 39 27 41 59 42 39 43 58 44 40 45 43 46 57 47
REMARK SMILES IDX 76 48 41 49 42 50 56 52 77 53 44 54 28 55 29 56 37 57 30 58
REMARK SMILES IDX 31 59 35 60 38 61 32 62 33 63 36 64 34 65 60 66 61 67 69 68
REMARK SMILES IDX 62 69 63 70 67 71 70 72 64 73 65 74 68 75 66 76 45 77 46 78
REMARK SMILES IDX 54 79 47 80 48 81 52 82 55 83 49 84 50 85 53 86 51 87
REMARK H PARENT 6 15 6 16 6 17 75 40 43 51
REMARK Flexibility Score: inf
ROOT
ATOM      1  O   UNL     1      -5.475   1.442  -1.493  1.00  0.00    -0.456 OA
ENDROOT
BRANCH   1   2
ATOM      2  C   UNL     1      -4.279   1.747  -2.080  1.00  0.00     0.374 C 
ATOM      3  O   UNL     1      -4.065   2.765  -2.725  1.00  0.00    -0.242 OA
BRANCH   2   4
ATOM      4  C   UNL     1      -3.298   0.736  -1.763  1.00  0.00     0.211 A 
ATOM      5  C   UNL     1      -1.228   0.049  -1.390  1.00  0.00     0.117 A 
ATOM      6  C   UNL     1      -2.051  -1.031  -1.144  1.00  0.00     0.048 A 
ATOM      7  O   UNL     1      -1.979   1.096  -1.836  1.00  0.00    -0.453 OA
ATOM      8  C   UNL     1      -3.381  -0.578  -1.342  1.00  0.00     0.058 A 
BRANCH   5   9
ATOM      9  C   UNL     1       0.235   0.324  -1.281  1.00  0.00     0.110 C 
ATOM     10  C   UNL     1       0.951  -0.120  -2.559  1.00  0.00     0.028 C 
BRANCH   9  11
ATOM     11  S   UNL     1       1.061  -0.495   0.143  1.00  0.00    -0.145 SA
BRANCH  11  12
ATOM     12  C   UNL     1      -0.032  -0.065   1.550  1.00  0.00     0.131 C 
BRANCH  12  13
ATOM     13  C   UNL     1       0.165   1.325   2.163  1.00  0.00     0.269 C 
BRANCH  13  14
ATOM     14  N   UNL     1      -0.206   2.416   1.274  1.00  0.00    -0.357 N 
ATOM     15  H   UNL     1       0.387   2.396   0.444  1.00  0.00     0.344 HD
ATOM     16  H   UNL     1      -0.084   3.306   1.758  1.00  0.00     0.344 HD
ATOM     17  H   UNL     1      -1.183   2.312   0.997  1.00  0.00     0.344 HD
ENDBRANCH  13  14
ENDBRANCH  12  13
ENDBRANCH  11  12
ENDBRANCH   9  11
ENDBRANCH   5   9
ENDBRANCH   2   4
ENDBRANCH   1   2
BRANCH   1  18
ATOM     18  C   UNL     1      -6.486   2.463  -1.579  1.00  0.00     0.275 C 
BRANCH  18  19
ATOM     19  C   UNL     1      -6.466   3.379  -0.351  1.00  0.00     0.275 C 
BRANCH  19  20
ATOM     20  O   UNL     1      -5.310   4.240  -0.359  1.00  0.00    -0.458 OA
BRANCH  20  21
ATOM     21  C   UNL     1      -4.324   3.903   0.503  1.00  0.00     0.338 C 
ATOM     22  O   UNL     1      -4.318   2.982   1.301  1.00  0.00    -0.246 OA
BRANCH  21  23
ATOM     23  C   UNL     1      -3.177   4.804   0.309  1.00  0.00     0.060 A 
ATOM     24  C   UNL     1      -2.101   4.356  -0.454  1.00  0.00     0.016 A 
ATOM     25  C   UNL     1      -3.109   6.031   0.972  1.00  0.00     0.016 A 
ATOM     26  C   UNL     1      -0.931   5.109  -0.524  1.00  0.00     0.010 A 
ATOM     27  C   UNL     1      -1.942   6.801   0.877  1.00  0.00     0.010 A 
ATOM     28  C   UNL     1      -0.832   6.333   0.151  1.00  0.00    -0.014 A 
BRANCH  28  29
ATOM     29  C   UNL     1       0.451   7.083   0.124  1.00  0.00     0.031 A 
ATOM     30  C   UNL     1       1.284   7.216   1.370  1.00  0.00     0.074 A 
ATOM     31  C   UNL     1       0.897   7.605  -1.034  1.00  0.00     0.049 A 
ATOM     32  N   UNL     1       2.403   7.873   1.553  1.00  0.00    -0.248 NA
ATOM     33  C   UNL     1       0.796   6.518   2.569  1.00  0.00     0.031 C 
ATOM     34  C   UNL     1       0.210   7.507  -2.321  1.00  0.00     0.029 A 
ATOM     35  N   UNL     1       2.040   8.310  -1.317  1.00  0.00    -0.354 N 
ATOM     36  C   UNL     1       2.736   7.695   2.889  1.00  0.00     0.074 A 
ATOM     37  C   UNL     1       1.698   6.872   3.475  1.00  0.00     0.031 C 
ATOM     38  C   UNL     1       0.956   8.106  -3.262  1.00  0.00     0.029 A 
ATOM     39  C   UNL     1       2.145   8.676  -2.635  1.00  0.00     0.049 A 
ATOM     40  H   UNL     1       2.719   8.532  -0.639  1.00  0.00     0.167 HD
ATOM     41  C   UNL     1       3.808   8.175   3.564  1.00  0.00     0.037 A 
ATOM     42  C   UNL     1       3.082   9.408  -3.267  1.00  0.00     0.037 A 
ATOM     43  C   UNL     1       4.858   8.966   2.978  1.00  0.00     0.049 A 
ATOM     44  C   UNL     1       4.242   9.958  -2.487  1.00  0.00     0.074 A 
ATOM     45  C   UNL     1       5.995   9.478   3.581  1.00  0.00     0.029 A 
ATOM     46  N   UNL     1       4.903   9.357   1.648  1.00  0.00    -0.354 N 
ATOM     47  N   UNL     1       4.533   9.805  -1.219  1.00  0.00    -0.248 NA
ATOM     48  C   UNL     1       5.198  10.796  -3.226  1.00  0.00     0.031 C 
ATOM     49  C   UNL     1       6.711  10.206   2.624  1.00  0.00     0.029 A 
ATOM     50  C   UNL     1       6.038  10.118   1.416  1.00  0.00     0.049 A 
ATOM     51  H   UNL     1       4.228   9.128   0.969  1.00  0.00     0.167 HD
ATOM     52  C   UNL     1       5.703  10.519  -1.007  1.00  0.00     0.074 A 
ATOM     53  C   UNL     1       6.082  11.091  -2.282  1.00  0.00     0.031 C 
ATOM     54  C   UNL     1       6.397  10.688   0.144  1.00  0.00     0.037 A 
BRANCH  41  55
ATOM     55  C   UNL     1       3.888   7.881   5.033  1.00  0.00     0.064 A 
ATOM     56  C   UNL     1       4.245   6.614   5.515  1.00  0.00     0.173 A 
ATOM     57  C   UNL     1       3.640   8.897   5.970  1.00  0.00     0.173 A 
ATOM     58  F   UNL     1       4.478   5.608   4.659  1.00  0.00    -0.203 F 
ATOM     59  C   UNL     1       4.333   6.369   6.883  1.00  0.00     0.198 A 
ATOM     60  C   UNL     1       3.750   8.653   7.336  1.00  0.00     0.198 A 
ATOM     61  F   UNL     1       3.298  10.127   5.559  1.00  0.00    -0.203 F 
ATOM     62  F   UNL     1       4.641   5.141   7.323  1.00  0.00    -0.200 F 
ATOM     63  C   UNL     1       4.091   7.389   7.792  1.00  0.00     0.200 A 
ATOM     64  F   UNL     1       3.523   9.642   8.212  1.00  0.00    -0.200 F 
ATOM     65  F   UNL     1       4.180   7.152   9.108  1.00  0.00    -0.200 F 
ENDBRANCH  41  55
BRANCH  42  66
ATOM     66  C   UNL     1       2.945   9.675  -4.720  1.00  0.00     0.064 A 
ATOM     67  C   UNL     1       3.792   9.057  -5.649  1.00  0.00     0.173 A 
ATOM     68  C   UNL     1       1.951  10.535  -5.209  1.00  0.00     0.173 A 
ATOM     69  F   UNL     1       4.774   8.248  -5.224  1.00  0.00    -0.203 F 
ATOM     70  C   UNL     1       3.651   9.292  -7.015  1.00  0.00     0.198 A 
ATOM     71  C   UNL     1       1.796  10.750  -6.575  1.00  0.00     0.198 A 
ATOM     72  F   UNL     1       1.118  11.152  -4.357  1.00  0.00    -0.203 F 
ATOM     73  F   UNL     1       4.492   8.713  -7.882  1.00  0.00    -0.200 F 
ATOM     74  C   UNL     1       2.648  10.131  -7.477  1.00  0.00     0.200 A 
ATOM     75  F   UNL     1       0.819  11.554  -7.019  1.00  0.00    -0.200 F 
ATOM     76  F   UNL     1       2.506  10.348  -8.792  1.00  0.00    -0.200 F 
ENDBRANCH  42  66
BRANCH  54  77
ATOM     77  C   UNL     1       7.642  11.521   0.073  1.00  0.00     0.064 A 
ATOM     78  C   UNL     1       7.579  12.919  -0.014  1.00  0.00     0.173 A 
ATOM     79  C   UNL     1       8.907  10.918   0.122  1.00  0.00     0.173 A 
ATOM     80  F   UNL     1       6.391  13.538  -0.081  1.00  0.00    -0.203 F 
ATOM     81  C   UNL     1       8.741  13.684  -0.069  1.00  0.00     0.198 A 
ATOM     82  C   UNL     1      10.067  11.688   0.088  1.00  0.00     0.198 A 
ATOM     83  F   UNL     1       9.018   9.585   0.209  1.00  0.00    -0.203 F 
ATOM     84  F   UNL     1       8.659  15.016  -0.191  1.00  0.00    -0.200 F 
ATOM     85  C   UNL     1       9.983  13.069  -0.013  1.00  0.00     0.200 A 
ATOM     86  F   UNL     1      11.266  11.093   0.149  1.00  0.00    -0.200 F 
ATOM     87  F   UNL     1      11.100  13.807  -0.065  1.00  0.00    -0.200 F 
ENDBRANCH  54  77
ENDBRANCH  28  29
ENDBRANCH  21  23
ENDBRANCH  20  21
ENDBRANCH  19  20
ENDBRANCH  18  19
ENDBRANCH   1  18
TORSDOF 16
