REMARK SMILES O=C(OCCOC(=O)c1cc(Br)cc2c1N[C@H](c1cccc([N+](=O)[O-])c1)[C@H]1CC=C[C@@H]21)c1ccc(-c2c3nc(c(-c4c(F)c(F)c(F)c(F)c4F)c4ccc([nH]4)c(-c4c(F)c(F)c(F)c(F)c4F)c4nc(c(-c5c(F)c(F)c(F)c(F)c5F)c5ccc2[nH]5)C=C4)C=C3)cc1
REMARK SMILES IDX 4 1 3 2 2 3 1 4 32 5 33 6 94 7 34 8 93 9 35 10 36 11 37 12
REMARK SMILES IDX 87 13 38 14 92 15 86 16 88 17 39 18 91 19 85 20 84 21 40 23
REMARK SMILES IDX 72 24 52 25 71 26 53 27 56 28 70 29 89 30 54 31 55 32 69 34
REMARK SMILES IDX 90 35 57 36 41 37 42 38 50 39 43 40 44 41 48 42 51 43 45 44
REMARK SMILES IDX 46 45 49 46 47 47 73 48 74 49 82 50 75 51 76 52 80 53 83 54
REMARK SMILES IDX 77 55 78 56 81 57 79 58 58 59 59 60 67 61 60 62 61 63 65 64
REMARK SMILES IDX 68 65 62 66 63 67 66 68 64 69 5 70 6 71 7 72 8 73 9 74 10 75
REMARK SMILES IDX 15 76 11 77 14 78 16 79 12 80 13 81 31 82 17 83 27 85 30 86
REMARK SMILES IDX 28 87 29 88 18 89 19 90 26 91 20 92 22 93 21 94 23 95 24 96
REMARK SMILES IDX 25 97
REMARK H PARENT 88 22 56 33 16 84
REMARK Flexibility Score: inf
ROOT
ATOM      1  C   UNL     1       4.341  -1.366  -0.471  1.00  0.00     0.275 C 
ENDROOT
BRANCH   1   2
ATOM      2  O   UNL     1       3.151  -1.175   0.295  1.00  0.00    -0.458 OA
BRANCH   2   3
ATOM      3  C   UNL     1       2.761  -0.061   0.957  1.00  0.00     0.338 C 
ATOM      4  O   UNL     1       1.642  -0.065   1.471  1.00  0.00    -0.246 OA
BRANCH   3   5
ATOM      5  C   UNL     1       3.557   1.225   1.023  1.00  0.00     0.060 A 
ATOM      6  C   UNL     1       2.922   2.293   1.669  1.00  0.00     0.016 A 
ATOM      7  C   UNL     1       4.767   1.518   0.376  1.00  0.00     0.016 A 
ATOM      8  C   UNL     1       3.389   3.606   1.518  1.00  0.00     0.010 A 
ATOM      9  C   UNL     1       5.245   2.822   0.227  1.00  0.00     0.010 A 
ATOM     10  C   UNL     1       4.540   3.890   0.754  1.00  0.00    -0.014 A 
BRANCH  10  11
ATOM     11  C   UNL     1       5.055   5.278   0.542  1.00  0.00     0.031 A 
ATOM     12  C   UNL     1       4.974   5.987  -0.812  1.00  0.00     0.074 A 
ATOM     13  C   UNL     1       5.431   5.930   1.639  1.00  0.00     0.049 A 
ATOM     14  N   UNL     1       5.054   7.330  -1.169  1.00  0.00    -0.248 NA
ATOM     15  C   UNL     1       4.269   4.941  -1.838  1.00  0.00     0.031 C 
ATOM     16  C   UNL     1       5.432   5.369   2.989  1.00  0.00     0.029 A 
ATOM     17  N   UNL     1       5.871   7.207   1.775  1.00  0.00    -0.354 N 
ATOM     18  C   UNL     1       4.346   7.676  -2.693  1.00  0.00     0.074 A 
ATOM     19  C   UNL     1       3.517   5.794  -3.224  1.00  0.00     0.031 C 
ATOM     20  C   UNL     1       5.863   6.309   3.832  1.00  0.00     0.029 A 
ATOM     21  C   UNL     1       6.235   7.489   3.057  1.00  0.00     0.049 A 
ATOM     22  H   UNL     1       5.921   7.854   1.034  1.00  0.00     0.167 HD
ATOM     23  C   UNL     1       4.827   8.935  -3.420  1.00  0.00     0.037 A 
ATOM     24  C   UNL     1       6.853   8.567   3.549  1.00  0.00     0.037 A 
ATOM     25  C   UNL     1       5.655   9.995  -2.788  1.00  0.00     0.049 A 
ATOM     26  C   UNL     1       7.147   9.735   2.671  1.00  0.00     0.074 A 
ATOM     27  C   UNL     1       6.135  11.143  -3.427  1.00  0.00     0.029 A 
ATOM     28  N   UNL     1       6.141  10.079  -1.486  1.00  0.00    -0.354 N 
ATOM     29  N   UNL     1       6.870   9.915   1.404  1.00  0.00    -0.248 NA
ATOM     30  C   UNL     1       7.819  10.866   3.316  1.00  0.00     0.031 C 
ATOM     31  C   UNL     1       6.853  11.922  -2.536  1.00  0.00     0.029 A 
ATOM     32  C   UNL     1       6.790  11.305  -1.304  1.00  0.00     0.049 A 
ATOM     33  H   UNL     1       6.044   9.381  -0.798  1.00  0.00     0.167 HD
ATOM     34  C   UNL     1       7.306  11.197   1.112  1.00  0.00     0.074 A 
ATOM     35  C   UNL     1       7.836  11.756   2.337  1.00  0.00     0.031 C 
ATOM     36  C   UNL     1       7.284  11.853  -0.068  1.00  0.00     0.037 A 
BRANCH  23  37
ATOM     37  C   UNL     1       4.784   9.358  -5.101  1.00  0.00     0.064 A 
ATOM     38  C   UNL     1       3.647   9.691  -5.858  1.00  0.00     0.173 A 
ATOM     39  C   UNL     1       5.951   9.205  -5.913  1.00  0.00     0.173 A 
ATOM     40  F   UNL     1       2.587  10.289  -5.294  1.00  0.00    -0.203 F 
ATOM     41  C   UNL     1       3.532   9.304  -7.209  1.00  0.00     0.198 A 
ATOM     42  C   UNL     1       5.881   9.048  -7.312  1.00  0.00     0.198 A 
ATOM     43  F   UNL     1       7.159   9.082  -5.345  1.00  0.00    -0.203 F 
ATOM     44  F   UNL     1       2.319   9.173  -7.769  1.00  0.00    -0.200 F 
ATOM     45  C   UNL     1       4.653   8.968  -7.937  1.00  0.00     0.200 A 
ATOM     46  F   UNL     1       6.998   8.873  -8.033  1.00  0.00    -0.200 F 
ATOM     47  F   UNL     1       4.553   8.593  -9.221  1.00  0.00    -0.200 F 
ENDBRANCH  23  37
BRANCH  24  48
ATOM     48  C   UNL     1       7.187   8.550   4.981  1.00  0.00     0.064 A 
ATOM     49  C   UNL     1       6.483   9.367   5.867  1.00  0.00     0.173 A 
ATOM     50  C   UNL     1       8.113   7.630   5.497  1.00  0.00     0.173 A 
ATOM     51  F   UNL     1       5.580  10.241   5.398  1.00  0.00    -0.203 F 
ATOM     52  C   UNL     1       6.707   9.279   7.232  1.00  0.00     0.198 A 
ATOM     53  C   UNL     1       8.295   7.507   6.865  1.00  0.00     0.198 A 
ATOM     54  F   UNL     1       8.767   6.796   4.673  1.00  0.00    -0.203 F 
ATOM     55  F   UNL     1       6.046  10.093   8.065  1.00  0.00    -0.200 F 
ATOM     56  C   UNL     1       7.601   8.341   7.731  1.00  0.00     0.200 A 
ATOM     57  F   UNL     1       9.113   6.561   7.346  1.00  0.00    -0.200 F 
ATOM     58  F   UNL     1       7.785   8.232   9.052  1.00  0.00    -0.200 F 
ENDBRANCH  24  48
BRANCH  36  59
ATOM     59  C   UNL     1       7.818  13.264  -0.107  1.00  0.00     0.064 A 
ATOM     60  C   UNL     1       9.188  13.530   0.031  1.00  0.00     0.173 A 
ATOM     61  C   UNL     1       6.973  14.341  -0.426  1.00  0.00     0.173 A 
ATOM     62  F   UNL     1      10.042  12.537   0.325  1.00  0.00    -0.203 F 
ATOM     63  C   UNL     1       9.690  14.819  -0.130  1.00  0.00     0.198 A 
ATOM     64  C   UNL     1       7.484  15.620  -0.631  1.00  0.00     0.198 A 
ATOM     65  F   UNL     1       5.657  14.141  -0.599  1.00  0.00    -0.203 F 
ATOM     66  F   UNL     1      10.999  15.050   0.035  1.00  0.00    -0.200 F 
ATOM     67  C   UNL     1       8.840  15.859  -0.476  1.00  0.00     0.200 A 
ATOM     68  F   UNL     1       6.668  16.614  -1.010  1.00  0.00    -0.200 F 
ATOM     69  F   UNL     1       9.332  17.090  -0.671  1.00  0.00    -0.200 F 
ENDBRANCH  36  59
ENDBRANCH  10  11
ENDBRANCH   3   5
ENDBRANCH   2   3
ENDBRANCH   1   2
BRANCH   1  70
ATOM     70  C   UNL     1       4.258  -0.775  -1.895  1.00  0.00     0.275 C 
BRANCH  70  71
ATOM     71  O   UNL     1       3.681   0.555  -1.976  1.00  0.00    -0.458 OA
BRANCH  71  72
ATOM     72  C   UNL     1       2.328   0.692  -2.107  1.00  0.00     0.340 C 
ATOM     73  O   UNL     1       1.540  -0.224  -2.268  1.00  0.00    -0.246 OA
BRANCH  72  74
ATOM     74  C   UNL     1       1.921   2.106  -1.824  1.00  0.00     0.084 A 
ATOM     75  C   UNL     1       0.845   2.336  -0.927  1.00  0.00     0.033 A 
ATOM     76  C   UNL     1       2.597   3.260  -2.235  1.00  0.00     0.053 A 
ATOM     77  C   UNL     1       0.482   3.630  -0.383  1.00  0.00     0.019 A 
ATOM     78  C   UNL     1       2.116   4.817  -1.629  1.00  0.00    -0.016 A 
ATOM     79  N   UNL     1       3.985   2.991  -3.240  1.00  0.00    -0.377 N 
ATOM     80  Br  UNL     1      -0.874   3.669   0.964  1.00  0.00    -0.051 Br
ATOM     81  C   UNL     1       1.100   4.862  -0.692  1.00  0.00     0.022 A 
ATOM     82  C   UNL     1       3.183   6.482  -1.760  1.00  0.00     0.049 C 
ATOM     83  C   UNL     1       5.219   4.251  -3.759  1.00  0.00     0.114 C 
ATOM     84  H   UNL     1       4.125   2.072  -3.565  1.00  0.00     0.161 HD
ATOM     85  C   UNL     1       5.125   6.082  -3.011  1.00  0.00     0.031 C 
ATOM     86  C   UNL     1       2.142   7.477  -2.979  1.00  0.00    -0.023 C 
ATOM     87  C   UNL     1       4.375   6.796  -4.725  1.00  0.00     0.034 C 
ATOM     88  C   UNL     1       2.688   7.585  -4.293  1.00  0.00    -0.030 C 
BRANCH  83  89
ATOM     89  C   UNL     1       6.653   3.751  -3.867  1.00  0.00    -0.019 A 
ATOM     90  C   UNL     1       7.005   2.565  -4.520  1.00  0.00     0.006 A 
ATOM     91  C   UNL     1       7.711   4.577  -3.458  1.00  0.00     0.091 A 
ATOM     92  C   UNL     1       8.361   2.209  -4.681  1.00  0.00     0.007 A 
ATOM     93  C   UNL     1       9.047   4.181  -3.509  1.00  0.00     0.269 A 
ATOM     94  C   UNL     1       9.387   2.993  -4.138  1.00  0.00     0.085 A 
BRANCH  93  95
ATOM     95  N   UNL     1      10.049   5.026  -2.839  1.00  0.00     0.062 N 
ATOM     96  O   UNL     1      11.229   4.657  -2.872  1.00  0.00    -0.258 OA
ATOM     97  O   UNL     1       9.643   6.036  -2.244  1.00  0.00    -0.258 OA
ENDBRANCH  93  95
ENDBRANCH  83  89
ENDBRANCH  72  74
ENDBRANCH  71  72
ENDBRANCH  70  71
ENDBRANCH   1  70
TORSDOF 13
