REMARK SMILES O=C(OCCOC(=O)[C@@H](F)[C@H](O)c1cccc(Cl)c1)c1ccc(-c2c3nc(c(-c4c(F)c(F)c(F)c(F)c4F)c4ccc([nH]4)c(-c4c(F)c(F)c(F)c(F)c4F)c4nc(c(-c5c(F)c(F)c(F)c(F)c5F)c5ccc2[nH]5)C=C4)C=C3)cc1
REMARK SMILES IDX 4 1 3 2 2 3 1 4 20 5 21 6 82 7 22 8 81 9 23 10 24 11 25 12
REMARK SMILES IDX 75 13 26 14 80 15 74 16 76 17 27 18 79 19 73 20 72 21 28 23
REMARK SMILES IDX 60 24 40 25 59 26 41 27 44 28 58 29 77 30 42 31 43 32 57 34
REMARK SMILES IDX 78 35 45 36 29 37 30 38 38 39 31 40 32 41 36 42 39 43 33 44
REMARK SMILES IDX 34 45 37 46 35 47 61 48 62 49 70 50 63 51 64 52 68 53 71 54
REMARK SMILES IDX 65 55 66 56 69 57 67 58 46 59 47 60 55 61 48 62 49 63 53 64
REMARK SMILES IDX 56 65 50 66 51 67 54 68 52 69 5 70 6 71 7 72 8 73 9 74 10 75
REMARK SMILES IDX 11 76 13 77 14 78 19 79 15 80 17 81 16 82 18 83 12 84
REMARK H PARENT 76 22 44 33 12 85
REMARK Flexibility Score: inf
ROOT
ATOM      1  C   UNL     1      -0.934   2.426   0.201  1.00  0.00     0.275 C 
ENDROOT
BRANCH   1   2
ATOM      2  O   UNL     1      -0.579   3.764   0.599  1.00  0.00    -0.458 OA
BRANCH   2   3
ATOM      3  C   UNL     1      -0.851   4.369   1.784  1.00  0.00     0.338 C 
ATOM      4  O   UNL     1      -1.024   5.584   1.825  1.00  0.00    -0.246 OA
BRANCH   3   5
ATOM      5  C   UNL     1      -0.660   3.638   3.075  1.00  0.00     0.060 A 
ATOM      6  C   UNL     1      -1.072   2.332   3.338  1.00  0.00     0.016 A 
ATOM      7  C   UNL     1       0.011   4.334   4.093  1.00  0.00     0.016 A 
ATOM      8  C   UNL     1      -0.614   1.658   4.476  1.00  0.00     0.010 A 
ATOM      9  C   UNL     1       0.437   3.679   5.255  1.00  0.00     0.010 A 
ATOM     10  C   UNL     1       0.248   2.291   5.395  1.00  0.00    -0.014 A 
BRANCH  10  11
ATOM     11  C   UNL     1       0.937   1.348   6.656  1.00  0.00     0.031 A 
ATOM     12  C   UNL     1      -0.643   1.449   7.610  1.00  0.00     0.074 A 
ATOM     13  C   UNL     1       2.555   0.485   7.018  1.00  0.00     0.049 A 
ATOM     14  N   UNL     1      -1.059   0.618   8.549  1.00  0.00    -0.248 NA
ATOM     15  C   UNL     1      -1.585   2.584   7.476  1.00  0.00     0.031 C 
ATOM     16  C   UNL     1       4.080   0.347   6.369  1.00  0.00     0.029 A 
ATOM     17  N   UNL     1       3.022  -0.493   8.125  1.00  0.00    -0.354 N 
ATOM     18  C   UNL     1      -2.090   1.185   9.224  1.00  0.00     0.074 A 
ATOM     19  C   UNL     1      -2.476   2.338   8.442  1.00  0.00     0.031 C 
ATOM     20  C   UNL     1       4.820  -0.653   6.875  1.00  0.00     0.029 A 
ATOM     21  C   UNL     1       4.151  -1.228   7.994  1.00  0.00     0.049 A 
ATOM     22  H   UNL     1       2.483  -0.583   8.944  1.00  0.00     0.167 HD
ATOM     23  C   UNL     1      -2.516   0.824  10.458  1.00  0.00     0.037 A 
ATOM     24  C   UNL     1       4.491  -2.255   8.796  1.00  0.00     0.037 A 
ATOM     25  C   UNL     1      -1.821  -0.122  11.334  1.00  0.00     0.049 A 
ATOM     26  C   UNL     1       3.565  -2.585   9.969  1.00  0.00     0.074 A 
ATOM     27  C   UNL     1      -2.119  -0.408  12.655  1.00  0.00     0.029 A 
ATOM     28  N   UNL     1      -0.668  -0.877  11.034  1.00  0.00    -0.354 N 
ATOM     29  N   UNL     1       2.411  -2.040  10.314  1.00  0.00    -0.248 NA
ATOM     30  C   UNL     1       4.011  -3.645  10.873  1.00  0.00     0.031 C 
ATOM     31  C   UNL     1      -1.099  -1.207  13.182  1.00  0.00     0.029 A 
ATOM     32  C   UNL     1      -0.196  -1.535  12.175  1.00  0.00     0.049 A 
ATOM     33  H   UNL     1      -0.252  -0.934  10.143  1.00  0.00     0.167 HD
ATOM     34  C   UNL     1       1.993  -2.678  11.478  1.00  0.00     0.074 A 
ATOM     35  C   UNL     1       3.010  -3.692  11.742  1.00  0.00     0.031 C 
ATOM     36  C   UNL     1       0.926  -2.464  12.305  1.00  0.00     0.037 A 
BRANCH  23  37
ATOM     37  C   UNL     1      -3.701   1.583  10.974  1.00  0.00     0.064 A 
ATOM     38  C   UNL     1      -4.970   1.405  10.401  1.00  0.00     0.173 A 
ATOM     39  C   UNL     1      -3.585   2.496  12.033  1.00  0.00     0.173 A 
ATOM     40  F   UNL     1      -5.133   0.559   9.373  1.00  0.00    -0.203 F 
ATOM     41  C   UNL     1      -6.072   2.124  10.857  1.00  0.00     0.198 A 
ATOM     42  C   UNL     1      -4.695   3.193  12.505  1.00  0.00     0.198 A 
ATOM     43  F   UNL     1      -2.395   2.717  12.612  1.00  0.00    -0.203 F 
ATOM     44  F   UNL     1      -7.263   1.968  10.263  1.00  0.00    -0.200 F 
ATOM     45  C   UNL     1      -5.935   3.013  11.912  1.00  0.00     0.200 A 
ATOM     46  F   UNL     1      -4.562   4.048  13.529  1.00  0.00    -0.200 F 
ATOM     47  F   UNL     1      -6.997   3.704  12.350  1.00  0.00    -0.200 F 
ENDBRANCH  23  37
BRANCH  24  48
ATOM     48  C   UNL     1       5.704  -3.045   8.481  1.00  0.00     0.064 A 
ATOM     49  C   UNL     1       5.611  -4.396   8.121  1.00  0.00     0.173 A 
ATOM     50  C   UNL     1       6.973  -2.450   8.445  1.00  0.00     0.173 A 
ATOM     51  F   UNL     1       4.425  -5.022   8.159  1.00  0.00    -0.203 F 
ATOM     52  C   UNL     1       6.737  -5.116   7.725  1.00  0.00     0.198 A 
ATOM     53  C   UNL     1       8.090  -3.157   8.010  1.00  0.00     0.198 A 
ATOM     54  F   UNL     1       7.122  -1.162   8.789  1.00  0.00    -0.203 F 
ATOM     55  F   UNL     1       6.623  -6.413   7.407  1.00  0.00    -0.200 F 
ATOM     56  C   UNL     1       7.972  -4.490   7.651  1.00  0.00     0.200 A 
ATOM     57  F   UNL     1       9.275  -2.539   7.918  1.00  0.00    -0.200 F 
ATOM     58  F   UNL     1       9.047  -5.171   7.232  1.00  0.00    -0.200 F 
ENDBRANCH  24  48
BRANCH  36  59
ATOM     59  C   UNL     1       0.956  -3.274  13.591  1.00  0.00     0.064 A 
ATOM     60  C   UNL     1       1.903  -3.008  14.599  1.00  0.00     0.173 A 
ATOM     61  C   UNL     1       0.022  -4.293  13.830  1.00  0.00     0.173 A 
ATOM     62  F   UNL     1       2.818  -2.043  14.427  1.00  0.00    -0.203 F 
ATOM     63  C   UNL     1       1.946  -3.766  15.767  1.00  0.00     0.198 A 
ATOM     64  C   UNL     1       0.048  -5.028  15.015  1.00  0.00     0.198 A 
ATOM     65  F   UNL     1      -0.918  -4.576  12.916  1.00  0.00    -0.203 F 
ATOM     66  F   UNL     1       2.899  -3.535  16.681  1.00  0.00    -0.200 F 
ATOM     67  C   UNL     1       1.017  -4.774  15.976  1.00  0.00     0.200 A 
ATOM     68  F   UNL     1      -0.861  -5.990  15.227  1.00  0.00    -0.200 F 
ATOM     69  F   UNL     1       1.061  -5.506  17.098  1.00  0.00    -0.200 F 
ENDBRANCH  36  59
ENDBRANCH  10  11
ENDBRANCH   3   5
ENDBRANCH   2   3
ENDBRANCH   1   2
BRANCH   1  70
ATOM     70  C   UNL     1       0.250   1.460   0.213  1.00  0.00     0.274 C 
BRANCH  70  71
ATOM     71  O   UNL     1       0.996   1.516   1.443  1.00  0.00    -0.460 OA
BRANCH  71  72
ATOM     72  C   UNL     1       2.149   2.246   1.397  1.00  0.00     0.343 C 
ATOM     73  O   UNL     1       2.529   2.863   0.406  1.00  0.00    -0.249 OA
BRANCH  72  74
ATOM     74  C   UNL     1       2.904   2.272   2.716  1.00  0.00     0.308 C 
ATOM     75  F   UNL     1       2.623   3.386   3.443  1.00  0.00    -0.232 F 
BRANCH  74  76
ATOM     76  C   UNL     1       2.856   0.991   3.584  1.00  0.00     0.190 C 
BRANCH  76  77
ATOM     77  C   UNL     1       2.244   1.030   4.998  1.00  0.00    -0.015 A 
ATOM     78  C   UNL     1       2.701   2.399   6.189  1.00  0.00     0.006 A 
ATOM     79  C   UNL     1       1.317  -0.446   5.629  1.00  0.00     0.027 A 
ATOM     80  C   UNL     1       2.238   2.305   7.977  1.00  0.00     0.002 A 
ATOM     81  C   UNL     1       0.832  -0.560   7.412  1.00  0.00     0.041 A 
ATOM     82  C   UNL     1       1.317   0.833   8.617  1.00  0.00     0.020 A 
ATOM     83  Cl  UNL     1       0.157  -2.065   7.943  1.00  0.00    -0.084 Cl
ENDBRANCH  76  77
BRANCH  76  84
ATOM     84  O   UNL     1       2.380  -0.166   2.894  1.00  0.00    -0.385 OA
ATOM     85  H   UNL     1       1.427  -0.079   2.736  1.00  0.00     0.211 HD
ENDBRANCH  76  84
ENDBRANCH  74  76
ENDBRANCH  72  74
ENDBRANCH  71  72
ENDBRANCH  70  71
ENDBRANCH   1  70
TORSDOF 14
