REMARK SMILES Cc1cc(Br)cc([N+](=O)[O-])c1OCCC[C@@](C)([NH3+])C(=O)OCCOC(=O)c1ccc(-c2c3nc(c(-c4c(F)c(F)c(F)c(F)c4F)c4ccc([nH]4)c(-c4c(F)c(F)c(F)c(F)c4F)c4nc(c(-c5c(F)c(F)c(F)c(F)c5F)c5ccc2[nH]5)C=C4)C=C3)cc1
REMARK SMILES IDX 19 1 20 2 16 3 17 4 15 5 14 6 13 7 12 8 11 9 1 10 2 11 3 12
REMARK SMILES IDX 4 13 7 14 5 15 6 16 8 17 9 18 10 19 18 20 21 24 22 25 23 26
REMARK SMILES IDX 24 27 25 28 26 29 27 30 28 31 89 32 29 33 88 34 30 35 31 36
REMARK SMILES IDX 32 37 82 38 33 39 87 40 81 41 83 42 34 43 86 44 80 45 79 46
REMARK SMILES IDX 35 48 67 49 47 50 66 51 48 52 51 53 65 54 84 55 49 56 50 57
REMARK SMILES IDX 64 59 85 60 52 61 36 62 37 63 45 64 38 65 39 66 43 67 46 68
REMARK SMILES IDX 40 69 41 70 44 71 42 72 68 73 69 74 77 75 70 76 71 77 75 78
REMARK SMILES IDX 78 79 72 80 73 81 76 82 74 83 53 84 54 85 62 86 55 87 56 88
REMARK SMILES IDX 60 89 63 90 57 91 58 92 61 93 59 94
REMARK H PARENT 18 21 18 22 18 23 83 47 51 58
REMARK Flexibility Score: inf
ROOT
ATOM      1  C   UNL     1      -4.846  -2.927   1.768  1.00  0.00     0.367 C 
ATOM      2  O   UNL     1      -6.026  -2.701   2.014  1.00  0.00    -0.245 OA
ENDROOT
BRANCH   1   3
ATOM      3  C   UNL     1      -4.373  -3.899   0.603  1.00  0.00     0.190 C 
ATOM      4  C   UNL     1      -5.514  -4.910   0.347  1.00  0.00     0.092 C 
BRANCH   3   5
ATOM      5  C   UNL     1      -4.025  -3.246  -0.781  1.00  0.00     0.084 C 
BRANCH   5   6
ATOM      6  C   UNL     1      -4.082  -1.732  -0.941  1.00  0.00     0.049 C 
BRANCH   6   7
ATOM      7  C   UNL     1      -3.203  -0.970   0.037  1.00  0.00     0.230 C 
BRANCH   7   8
ATOM      8  O   UNL     1      -2.288  -0.046  -0.528  1.00  0.00    -0.487 OA
BRANCH   8   9
ATOM      9  C   UNL     1      -0.955  -0.141  -0.219  1.00  0.00     0.200 A 
ATOM     10  C   UNL     1      -0.703  -2.735  -0.075  1.00  0.00     0.049 C 
ATOM     11  C   UNL     1      -0.206  -1.330  -0.202  1.00  0.00    -0.001 A 
ATOM     12  C   UNL     1       1.196  -1.253  -0.348  1.00  0.00     0.023 A 
ATOM     13  C   UNL     1       1.870  -0.041  -0.387  1.00  0.00     0.025 A 
ATOM     14  C   UNL     1      -0.223   1.063  -0.140  1.00  0.00     0.312 A 
ATOM     15  Br  UNL     1       3.735  -0.009  -0.637  1.00  0.00    -0.051 Br
ATOM     16  C   UNL     1       1.172   1.131  -0.217  1.00  0.00     0.105 A 
BRANCH  14  17
ATOM     17  N   UNL     1      -0.847   2.320   0.182  1.00  0.00     0.066 N 
ATOM     18  O   UNL     1      -0.815   3.198  -0.690  1.00  0.00    -0.258 OA
ATOM     19  O   UNL     1      -1.201   2.472   1.358  1.00  0.00    -0.258 OA
ENDBRANCH  14  17
ENDBRANCH   8   9
ENDBRANCH   7   8
ENDBRANCH   6   7
ENDBRANCH   5   6
ENDBRANCH   3   5
BRANCH   3  20
ATOM     20  N   UNL     1      -3.252  -4.767   1.051  1.00  0.00    -0.344 N 
ATOM     21  H   UNL     1      -2.968  -5.379   0.285  1.00  0.00     0.345 HD
ATOM     22  H   UNL     1      -3.555  -5.333   1.843  1.00  0.00     0.345 HD
ATOM     23  H   UNL     1      -2.462  -4.186   1.331  1.00  0.00     0.345 HD
ENDBRANCH   3  20
ENDBRANCH   1   3
BRANCH   1  24
ATOM     24  O   UNL     1      -3.813  -2.307   2.433  1.00  0.00    -0.457 OA
BRANCH  24  25
ATOM     25  C   UNL     1      -4.139  -1.314   3.459  1.00  0.00     0.274 C 
BRANCH  25  26
ATOM     26  C   UNL     1      -3.599   0.136   3.220  1.00  0.00     0.275 C 
BRANCH  26  27
ATOM     27  O   UNL     1      -4.272   0.873   2.156  1.00  0.00    -0.458 OA
BRANCH  27  28
ATOM     28  C   UNL     1      -4.130   2.232   2.122  1.00  0.00     0.338 C 
ATOM     29  O   UNL     1      -3.882   2.926   3.112  1.00  0.00    -0.246 OA
BRANCH  28  30
ATOM     30  C   UNL     1      -4.144   2.795   0.717  1.00  0.00     0.060 A 
ATOM     31  C   UNL     1      -4.324   1.974  -0.395  1.00  0.00     0.016 A 
ATOM     32  C   UNL     1      -3.821   4.137   0.462  1.00  0.00     0.016 A 
ATOM     33  C   UNL     1      -3.956   2.367  -1.685  1.00  0.00     0.010 A 
ATOM     34  C   UNL     1      -3.653   4.604  -0.864  1.00  0.00     0.010 A 
ATOM     35  C   UNL     1      -3.694   3.710  -1.949  1.00  0.00    -0.014 A 
BRANCH  35  36
ATOM     36  C   UNL     1      -3.899   4.170  -3.346  1.00  0.00     0.031 A 
ATOM     37  C   UNL     1      -2.796   4.493  -4.307  1.00  0.00     0.074 A 
ATOM     38  C   UNL     1      -5.185   4.186  -3.752  1.00  0.00     0.049 A 
ATOM     39  N   UNL     1      -2.861   5.158  -5.434  1.00  0.00    -0.248 NA
ATOM     40  C   UNL     1      -1.462   3.955  -4.014  1.00  0.00     0.031 C 
ATOM     41  C   UNL     1      -6.313   3.656  -2.969  1.00  0.00     0.029 A 
ATOM     42  N   UNL     1      -5.779   4.672  -4.886  1.00  0.00    -0.354 N 
ATOM     43  C   UNL     1      -1.576   5.149  -5.968  1.00  0.00     0.074 A 
ATOM     44  C   UNL     1      -0.756   4.372  -5.063  1.00  0.00     0.031 C 
ATOM     45  C   UNL     1      -7.457   3.898  -3.610  1.00  0.00     0.029 A 
ATOM     46  C   UNL     1      -7.148   4.726  -4.758  1.00  0.00     0.049 A 
ATOM     47  H   UNL     1      -5.287   4.948  -5.692  1.00  0.00     0.167 HD
ATOM     48  C   UNL     1      -1.149   5.769  -7.098  1.00  0.00     0.037 A 
ATOM     49  C   UNL     1      -8.046   5.497  -5.389  1.00  0.00     0.037 A 
ATOM     50  C   UNL     1      -2.033   6.544  -7.939  1.00  0.00     0.049 A 
ATOM     51  C   UNL     1      -7.533   6.387  -6.470  1.00  0.00     0.074 A 
ATOM     52  C   UNL     1      -1.746   7.284  -9.072  1.00  0.00     0.029 A 
ATOM     53  N   UNL     1      -3.399   6.682  -7.710  1.00  0.00    -0.354 N 
ATOM     54  N   UNL     1      -6.305   6.500  -6.919  1.00  0.00    -0.248 NA
ATOM     55  C   UNL     1      -8.507   7.261  -7.122  1.00  0.00     0.031 C 
ATOM     56  C   UNL     1      -2.925   7.921  -9.485  1.00  0.00     0.029 A 
ATOM     57  C   UNL     1      -3.961   7.533  -8.646  1.00  0.00     0.049 A 
ATOM     58  H   UNL     1      -3.895   6.238  -6.985  1.00  0.00     0.167 HD
ATOM     59  C   UNL     1      -6.353   7.452  -7.919  1.00  0.00     0.074 A 
ATOM     60  C   UNL     1      -7.742   7.872  -8.015  1.00  0.00     0.031 C 
ATOM     61  C   UNL     1      -5.347   7.931  -8.690  1.00  0.00     0.037 A 
BRANCH  48  62
ATOM     62  C   UNL     1       0.321   5.737  -7.431  1.00  0.00     0.064 A 
ATOM     63  C   UNL     1       0.965   4.592  -7.923  1.00  0.00     0.173 A 
ATOM     64  C   UNL     1       1.095   6.903  -7.293  1.00  0.00     0.173 A 
ATOM     65  F   UNL     1       0.284   3.447  -8.077  1.00  0.00    -0.203 F 
ATOM     66  C   UNL     1       2.326   4.610  -8.242  1.00  0.00     0.198 A 
ATOM     67  C   UNL     1       2.448   6.924  -7.631  1.00  0.00     0.198 A 
ATOM     68  F   UNL     1       0.535   8.035  -6.839  1.00  0.00    -0.203 F 
ATOM     69  F   UNL     1       2.927   3.494  -8.680  1.00  0.00    -0.200 F 
ATOM     70  C   UNL     1       3.064   5.776  -8.099  1.00  0.00     0.200 A 
ATOM     71  F   UNL     1       3.154   8.056  -7.502  1.00  0.00    -0.200 F 
ATOM     72  F   UNL     1       4.370   5.790  -8.406  1.00  0.00    -0.200 F 
ENDBRANCH  48  62
BRANCH  49  73
ATOM     73  C   UNL     1      -9.441   5.542  -4.878  1.00  0.00     0.064 A 
ATOM     74  C   UNL     1     -10.499   4.997  -5.609  1.00  0.00     0.173 A 
ATOM     75  C   UNL     1      -9.724   6.043  -3.593  1.00  0.00     0.173 A 
ATOM     76  F   UNL     1     -10.281   4.514  -6.841  1.00  0.00    -0.203 F 
ATOM     77  C   UNL     1     -11.786   4.944  -5.075  1.00  0.00     0.198 A 
ATOM     78  C   UNL     1     -11.003   5.960  -3.048  1.00  0.00     0.198 A 
ATOM     79  F   UNL     1      -8.742   6.564  -2.841  1.00  0.00    -0.203 F 
ATOM     80  F   UNL     1     -12.787   4.427  -5.801  1.00  0.00    -0.200 F 
ATOM     81  C   UNL     1     -12.034   5.412  -3.792  1.00  0.00     0.200 A 
ATOM     82  F   UNL     1     -11.228   6.386  -1.798  1.00  0.00    -0.200 F 
ATOM     83  F   UNL     1     -13.267   5.331  -3.272  1.00  0.00    -0.200 F 
ENDBRANCH  49  73
BRANCH  61  84
ATOM     84  C   UNL     1      -5.740   8.947  -9.713  1.00  0.00     0.064 A 
ATOM     85  C   UNL     1      -6.048  10.264  -9.351  1.00  0.00     0.173 A 
ATOM     86  C   UNL     1      -5.799   8.595 -11.069  1.00  0.00     0.173 A 
ATOM     87  F   UNL     1      -6.033  10.631  -8.060  1.00  0.00    -0.203 F 
ATOM     88  C   UNL     1      -6.421  11.195 -10.313  1.00  0.00     0.198 A 
ATOM     89  C   UNL     1      -6.143   9.536 -12.031  1.00  0.00     0.198 A 
ATOM     90  F   UNL     1      -5.517   7.342 -11.456  1.00  0.00    -0.203 F 
ATOM     91  F   UNL     1      -6.763  12.437  -9.944  1.00  0.00    -0.200 F 
ATOM     92  C   UNL     1      -6.460  10.832 -11.652  1.00  0.00     0.200 A 
ATOM     93  F   UNL     1      -6.173   9.188 -13.325  1.00  0.00    -0.200 F 
ATOM     94  F   UNL     1      -6.815  11.732 -12.579  1.00  0.00    -0.200 F 
ENDBRANCH  61  84
ENDBRANCH  35  36
ENDBRANCH  28  30
ENDBRANCH  27  28
ENDBRANCH  26  27
ENDBRANCH  25  26
ENDBRANCH  24  25
ENDBRANCH   1  24
TORSDOF 18
