REMARK SMILES O=C(OCCOC(=O)c1nccnc1C(=O)N1CCC(Cc2ccccc2)CC1)c1ccc(-c2c3nc(c(-c4c(F)c(F)c(F)c(F)c4F)c4ccc([nH]4)c(-c4c(F)c(F)c(F)c(F)c4F)c4nc(c(-c5c(F)c(F)c(F)c(F)c5F)c5ccc2[nH]5)C=C4)C=C3)cc1
REMARK SMILES IDX 5 1 4 2 3 3 2 4 1 5 30 6 31 7 92 8 32 9 91 10 33 11 34 12
REMARK SMILES IDX 35 13 85 14 36 15 90 16 84 17 86 18 37 19 89 20 83 21 82 22
REMARK SMILES IDX 38 24 70 25 50 26 69 27 51 28 54 29 68 30 87 31 52 32 53 33
REMARK SMILES IDX 67 35 88 36 55 37 39 38 40 39 48 40 41 41 42 42 46 43 49 44
REMARK SMILES IDX 43 45 44 46 47 47 45 48 71 49 72 50 80 51 73 52 74 53 78 54
REMARK SMILES IDX 81 55 75 56 76 57 79 58 77 59 56 60 57 61 65 62 58 63 59 64
REMARK SMILES IDX 63 65 66 66 60 67 61 68 64 69 62 70 6 71 7 72 8 73 9 74
REMARK SMILES IDX 10 75 14 76 11 77 13 78 12 79 15 80 16 81 17 82 18 83 29 84
REMARK SMILES IDX 19 85 28 86 20 87 21 88 22 89 23 90 27 91 24 92 26 93 25 94
REMARK H PARENT 86 23 54 34
REMARK Flexibility Score: inf
ROOT
ATOM      1  C   UNL     1       3.888   3.058   0.062  1.00  0.00     0.275 C 
ENDROOT
BRANCH   1   2
ATOM      2  C   UNL     1       4.642   2.272  -1.025  1.00  0.00     0.275 C 
BRANCH   2   3
ATOM      3  O   UNL     1       5.317   1.143  -0.461  1.00  0.00    -0.458 OA
BRANCH   3   4
ATOM      4  C   UNL     1       4.478   0.104  -0.226  1.00  0.00     0.338 C 
ATOM      5  O   UNL     1       3.398  -0.070  -0.757  1.00  0.00    -0.246 OA
BRANCH   4   6
ATOM      6  C   UNL     1       4.889  -0.586   1.010  1.00  0.00     0.060 A 
ATOM      7  C   UNL     1       6.161  -0.400   1.542  1.00  0.00     0.016 A 
ATOM      8  C   UNL     1       3.905  -1.268   1.738  1.00  0.00     0.016 A 
ATOM      9  C   UNL     1       6.421  -0.840   2.827  1.00  0.00     0.010 A 
ATOM     10  C   UNL     1       4.146  -1.678   3.039  1.00  0.00     0.010 A 
ATOM     11  C   UNL     1       5.407  -1.449   3.581  1.00  0.00    -0.014 A 
BRANCH  11  12
ATOM     12  C   UNL     1       5.739  -1.859   4.947  1.00  0.00     0.031 A 
ATOM     13  C   UNL     1       6.182  -3.262   5.160  1.00  0.00     0.074 A 
ATOM     14  C   UNL     1       5.788  -0.913   5.897  1.00  0.00     0.049 A 
ATOM     15  N   UNL     1       6.902  -3.750   6.129  1.00  0.00    -0.248 NA
ATOM     16  C   UNL     1       5.801  -4.239   4.126  1.00  0.00     0.031 C 
ATOM     17  C   UNL     1       5.340   0.472   5.731  1.00  0.00     0.029 A 
ATOM     18  N   UNL     1       6.278  -0.957   7.171  1.00  0.00    -0.354 N 
ATOM     19  C   UNL     1       7.140  -5.068   5.774  1.00  0.00     0.074 A 
ATOM     20  C   UNL     1       6.405  -5.335   4.559  1.00  0.00     0.031 C 
ATOM     21  C   UNL     1       5.587   1.152   6.862  1.00  0.00     0.029 A 
ATOM     22  C   UNL     1       6.244   0.258   7.809  1.00  0.00     0.049 A 
ATOM     23  H   UNL     1       6.622  -1.779   7.590  1.00  0.00     0.167 HD
ATOM     24  C   UNL     1       7.955  -5.948   6.396  1.00  0.00     0.037 A 
ATOM     25  C   UNL     1       6.743   0.604   9.008  1.00  0.00     0.037 A 
ATOM     26  C   UNL     1       8.608  -5.649   7.640  1.00  0.00     0.049 A 
ATOM     27  C   UNL     1       7.581  -0.422   9.725  1.00  0.00     0.074 A 
ATOM     28  C   UNL     1       9.412  -6.454   8.421  1.00  0.00     0.029 A 
ATOM     29  N   UNL     1       8.499  -4.425   8.296  1.00  0.00    -0.354 N 
ATOM     30  N   UNL     1       7.890  -1.643   9.348  1.00  0.00    -0.248 NA
ATOM     31  C   UNL     1       8.176  -0.017  11.001  1.00  0.00     0.031 C 
ATOM     32  C   UNL     1       9.757  -5.729   9.569  1.00  0.00     0.029 A 
ATOM     33  C   UNL     1       9.205  -4.458   9.483  1.00  0.00     0.049 A 
ATOM     34  H   UNL     1       7.993  -3.650   7.962  1.00  0.00     0.167 HD
ATOM     35  C   UNL     1       8.737  -2.144  10.323  1.00  0.00     0.074 A 
ATOM     36  C   UNL     1       8.907  -1.082  11.299  1.00  0.00     0.031 C 
ATOM     37  C   UNL     1       9.327  -3.363  10.415  1.00  0.00     0.037 A 
BRANCH  24  38
ATOM     38  C   UNL     1       8.155  -7.273   5.728  1.00  0.00     0.064 A 
ATOM     39  C   UNL     1       8.889  -7.377   4.533  1.00  0.00     0.173 A 
ATOM     40  C   UNL     1       7.582  -8.440   6.247  1.00  0.00     0.173 A 
ATOM     41  F   UNL     1       9.434  -6.283   3.979  1.00  0.00    -0.203 F 
ATOM     42  C   UNL     1       9.015  -8.595   3.871  1.00  0.00     0.198 A 
ATOM     43  C   UNL     1       7.729  -9.662   5.593  1.00  0.00     0.198 A 
ATOM     44  F   UNL     1       6.860  -8.394   7.377  1.00  0.00    -0.203 F 
ATOM     45  F   UNL     1       9.672  -8.658   2.704  1.00  0.00    -0.200 F 
ATOM     46  C   UNL     1       8.438  -9.737   4.403  1.00  0.00     0.200 A 
ATOM     47  F   UNL     1       7.168 -10.766   6.106  1.00  0.00    -0.200 F 
ATOM     48  F   UNL     1       8.550 -10.908   3.760  1.00  0.00    -0.200 F 
ENDBRANCH  24  38
BRANCH  25  49
ATOM     49  C   UNL     1       6.514   1.970   9.546  1.00  0.00     0.064 A 
ATOM     50  C   UNL     1       7.556   2.894   9.697  1.00  0.00     0.173 A 
ATOM     51  C   UNL     1       5.221   2.387   9.904  1.00  0.00     0.173 A 
ATOM     52  F   UNL     1       8.810   2.549   9.370  1.00  0.00    -0.203 F 
ATOM     53  C   UNL     1       7.320   4.171  10.209  1.00  0.00     0.198 A 
ATOM     54  C   UNL     1       4.983   3.670  10.393  1.00  0.00     0.198 A 
ATOM     55  F   UNL     1       4.183   1.550   9.762  1.00  0.00    -0.203 F 
ATOM     56  F   UNL     1       8.342   5.021  10.378  1.00  0.00    -0.200 F 
ATOM     57  C   UNL     1       6.034   4.559  10.553  1.00  0.00     0.200 A 
ATOM     58  F   UNL     1       3.735   4.045  10.704  1.00  0.00    -0.200 F 
ATOM     59  F   UNL     1       5.808   5.786  11.041  1.00  0.00    -0.200 F 
ENDBRANCH  25  49
BRANCH  37  60
ATOM     60  C   UNL     1      10.203  -3.586  11.608  1.00  0.00     0.064 A 
ATOM     61  C   UNL     1       9.658  -3.770  12.886  1.00  0.00     0.173 A 
ATOM     62  C   UNL     1      11.596  -3.654  11.461  1.00  0.00     0.173 A 
ATOM     63  F   UNL     1       8.331  -3.697  13.071  1.00  0.00    -0.203 F 
ATOM     64  C   UNL     1      10.482  -3.985  13.985  1.00  0.00     0.198 A 
ATOM     65  C   UNL     1      12.414  -3.898  12.558  1.00  0.00     0.198 A 
ATOM     66  F   UNL     1      12.158  -3.491  10.255  1.00  0.00    -0.203 F 
ATOM     67  F   UNL     1       9.946  -4.107  15.207  1.00  0.00    -0.200 F 
ATOM     68  C   UNL     1      11.858  -4.056  13.819  1.00  0.00     0.200 A 
ATOM     69  F   UNL     1      13.742  -3.979  12.396  1.00  0.00    -0.200 F 
ATOM     70  F   UNL     1      12.649  -4.268  14.879  1.00  0.00    -0.200 F 
ENDBRANCH  37  60
ENDBRANCH  11  12
ENDBRANCH   4   6
ENDBRANCH   3   4
ENDBRANCH   2   3
ENDBRANCH   1   2
BRANCH   1  71
ATOM     71  O   UNL     1       3.278   2.215   1.063  1.00  0.00    -0.457 OA
BRANCH  71  72
ATOM     72  C   UNL     1       1.942   1.958   1.023  1.00  0.00     0.359 C 
ATOM     73  O   UNL     1       1.152   2.374   0.194  1.00  0.00    -0.244 OA
BRANCH  72  74
ATOM     74  C   UNL     1       1.605   1.172   2.242  1.00  0.00     0.179 A 
ATOM     75  N   UNL     1       2.210   1.659   3.388  1.00  0.00    -0.245 NA
ATOM     76  C   UNL     1       0.740   0.085   2.290  1.00  0.00     0.161 A 
ATOM     77  C   UNL     1       1.900   1.048   4.551  1.00  0.00     0.132 A 
ATOM     78  N   UNL     1       0.494  -0.554   3.488  1.00  0.00    -0.247 NA
ATOM     79  C   UNL     1       1.067  -0.045   4.599  1.00  0.00     0.132 A 
BRANCH  76  80
ATOM     80  C   UNL     1      -0.088  -0.481   1.179  1.00  0.00     0.274 C 
ATOM     81  O   UNL     1      -1.259  -0.783   1.420  1.00  0.00    -0.267 OA
ATOM     82  N   UNL     1       0.470  -0.751  -0.080  1.00  0.00    -0.337 N 
ATOM     83  C   UNL     1      -0.281  -0.152  -1.184  1.00  0.00     0.120 C 
ATOM     84  C   UNL     1       0.880  -2.134  -0.338  1.00  0.00     0.120 C 
ATOM     85  C   UNL     1      -0.167  -0.899  -2.512  1.00  0.00     0.025 C 
ATOM     86  C   UNL     1       1.697  -2.310  -1.632  1.00  0.00     0.025 C 
ATOM     87  C   UNL     1       1.283  -1.328  -2.754  1.00  0.00    -0.003 C 
BRANCH  87  88
ATOM     88  C   UNL     1       1.561  -1.927  -4.149  1.00  0.00     0.039 C 
BRANCH  88  89
ATOM     89  C   UNL     1       0.846  -1.216  -5.275  1.00  0.00    -0.048 A 
ATOM     90  C   UNL     1      -0.310  -1.787  -5.827  1.00  0.00     0.004 A 
ATOM     91  C   UNL     1       1.261   0.046  -5.719  1.00  0.00     0.004 A 
ATOM     92  C   UNL     1      -1.051  -1.101  -6.788  1.00  0.00     0.000 A 
ATOM     93  C   UNL     1       0.519   0.730  -6.686  1.00  0.00     0.000 A 
ATOM     94  C   UNL     1      -0.639   0.159  -7.215  1.00  0.00     0.000 A 
ENDBRANCH  88  89
ENDBRANCH  87  88
ENDBRANCH  76  80
ENDBRANCH  72  74
ENDBRANCH  71  72
ENDBRANCH   1  71
TORSDOF 14
