REMARK SMILES O=C(Nc1ccc(Cl)cc1C(=O)OCCOC(=O)c1ccc(-c2c3nc(c(-c4c(F)c(F)c(F)c(F)c4F)c4ccc([nH]4)c(-c4c(F)c(F)c(F)c(F)c4F)c4nc(c(-c5c(F)c(F)c(F)c(F)c5F)c5ccc2[nH]5)C=C4)C=C3)cc1)c1ccc2c(c1)C(=O)N(Cc1ccco1)C2=O
REMARK SMILES IDX 14 1 13 2 11 3 12 4 10 5 4 6 5 7 6 8 9 9 7 10 8 11 3 12 1 13
REMARK SMILES IDX 2 14 82 16 83 17 87 18 84 19 86 20 85 21 88 22 97 23 89 24
REMARK SMILES IDX 90 25 98 26 91 27 92 28 93 29 96 30 94 31 95 32 15 33 16 34
REMARK SMILES IDX 17 35 18 36 19 37 20 38 81 39 21 40 80 41 22 42 23 43 24 44
REMARK SMILES IDX 74 45 25 46 79 47 73 48 75 49 26 50 78 51 72 52 71 53 27 55
REMARK SMILES IDX 59 56 39 57 58 58 40 59 43 60 57 61 76 62 41 63 42 64 56 66
REMARK SMILES IDX 77 67 44 68 28 69 29 70 37 71 30 72 31 73 35 74 38 75 32 76
REMARK SMILES IDX 33 77 36 78 34 79 60 80 61 81 69 82 62 83 63 84 67 85 70 86
REMARK SMILES IDX 64 87 65 88 68 89 66 90 45 91 46 92 54 93 47 94 48 95 52 96
REMARK SMILES IDX 55 97 49 98 50 99 53 100 51 101
REMARK H PARENT 3 15 75 54 43 65
REMARK Flexibility Score: inf
ROOT
ATOM      1  C   UNL     1       2.702   4.130   2.270  1.00  0.00     0.275 C 
ENDROOT
BRANCH   1   2
ATOM      2  O   UNL     1       3.403   3.184   1.437  1.00  0.00    -0.458 OA
BRANCH   2   3
ATOM      3  C   UNL     1       4.492   3.609   0.752  1.00  0.00     0.340 C 
ATOM      4  O   UNL     1       4.963   4.733   0.782  1.00  0.00    -0.246 OA
BRANCH   3   5
ATOM      5  C   UNL     1       5.129   2.482   0.000  1.00  0.00     0.085 A 
ATOM      6  C   UNL     1       4.445   1.320  -0.408  1.00  0.00     0.056 A 
ATOM      7  C   UNL     1       5.165   0.353  -1.122  1.00  0.00     0.028 A 
ATOM      8  C   UNL     1       6.547   0.447  -1.303  1.00  0.00     0.023 A 
ATOM      9  C   UNL     1       6.514   2.595  -0.234  1.00  0.00     0.038 A 
ATOM     10  C   UNL     1       7.222   1.555  -0.825  1.00  0.00     0.042 A 
ATOM     11  Cl  UNL     1       8.934   1.635  -0.946  1.00  0.00    -0.084 Cl
BRANCH   6  12
ATOM     12  N   UNL     1       3.080   1.183  -0.074  1.00  0.00    -0.321 N 
ATOM     13  O   UNL     1       1.152   0.229   0.620  1.00  0.00    -0.269 OA
ATOM     14  C   UNL     1       2.295   0.096   0.194  1.00  0.00     0.255 C 
ATOM     15  H   UNL     1       2.598   2.040  -0.024  1.00  0.00     0.170 HD
BRANCH  14  16
ATOM     16  C   UNL     1       2.792  -1.255  -0.025  1.00  0.00     0.041 A 
ATOM     17  C   UNL     1       3.288  -2.060   1.024  1.00  0.00     0.015 A 
ATOM     18  C   UNL     1       2.662  -1.732  -1.320  1.00  0.00     0.028 A 
ATOM     19  C   UNL     1       3.645  -3.398   0.776  1.00  0.00     0.015 A 
ATOM     20  C   UNL     1       3.078  -3.018  -1.527  1.00  0.00     0.054 A 
ATOM     21  C   UNL     1       3.510  -3.858  -0.523  1.00  0.00     0.053 A 
ATOM     22  C   UNL     1       2.946  -3.761  -2.754  1.00  0.00     0.261 C 
ATOM     23  C   UNL     1       3.534  -5.205  -1.111  1.00  0.00     0.261 C 
ATOM     24  O   UNL     1       2.624  -3.215  -3.776  1.00  0.00    -0.269 OA
ATOM     25  N   UNL     1       3.170  -5.070  -2.431  1.00  0.00    -0.267 N 
ATOM     26  O   UNL     1       3.714  -6.216  -0.458  1.00  0.00    -0.269 OA
BRANCH  25  27
ATOM     27  C   UNL     1       2.640  -6.155  -3.230  1.00  0.00     0.204 C 
BRANCH  27  28
ATOM     28  C   UNL     1       3.143  -6.164  -4.629  1.00  0.00     0.123 A 
ATOM     29  C   UNL     1       2.981  -5.327  -5.718  1.00  0.00     0.047 A 
ATOM     30  O   UNL     1       3.864  -7.260  -5.005  1.00  0.00    -0.467 OA
ATOM     31  C   UNL     1       3.687  -5.910  -6.792  1.00  0.00     0.042 A 
ATOM     32  C   UNL     1       4.181  -7.099  -6.316  1.00  0.00     0.195 A 
ENDBRANCH  27  28
ENDBRANCH  25  27
ENDBRANCH  14  16
ENDBRANCH   6  12
ENDBRANCH   3   5
ENDBRANCH   2   3
ENDBRANCH   1   2
BRANCH   1  33
ATOM     33  C   UNL     1       2.881   3.788   3.750  1.00  0.00     0.275 C 
BRANCH  33  34
ATOM     34  O   UNL     1       4.243   4.019   4.155  1.00  0.00    -0.458 OA
BRANCH  34  35
ATOM     35  C   UNL     1       5.013   2.912   4.248  1.00  0.00     0.338 C 
ATOM     36  O   UNL     1       4.677   1.750   4.099  1.00  0.00    -0.246 OA
BRANCH  35  37
ATOM     37  C   UNL     1       6.420   3.314   4.377  1.00  0.00     0.060 A 
ATOM     38  C   UNL     1       7.153   3.397   3.199  1.00  0.00     0.016 A 
ATOM     39  C   UNL     1       7.050   3.468   5.606  1.00  0.00     0.016 A 
ATOM     40  C   UNL     1       8.528   3.576   3.225  1.00  0.00     0.010 A 
ATOM     41  C   UNL     1       8.431   3.713   5.635  1.00  0.00     0.010 A 
ATOM     42  C   UNL     1       9.188   3.743   4.446  1.00  0.00    -0.014 A 
BRANCH  42  43
ATOM     43  C   UNL     1      10.671   3.881   4.464  1.00  0.00     0.031 A 
ATOM     44  C   UNL     1      11.511   2.850   5.167  1.00  0.00     0.074 A 
ATOM     45  C   UNL     1      11.271   4.898   3.815  1.00  0.00     0.049 A 
ATOM     46  N   UNL     1      12.794   2.860   5.428  1.00  0.00    -0.248 NA
ATOM     47  C   UNL     1      10.812   1.649   5.651  1.00  0.00     0.031 C 
ATOM     48  C   UNL     1      10.585   5.927   3.031  1.00  0.00     0.029 A 
ATOM     49  N   UNL     1      12.600   5.228   3.699  1.00  0.00    -0.354 N 
ATOM     50  C   UNL     1      13.042   1.705   6.159  1.00  0.00     0.074 A 
ATOM     51  C   UNL     1      11.777   1.015   6.300  1.00  0.00     0.031 C 
ATOM     52  C   UNL     1      11.496   6.747   2.487  1.00  0.00     0.029 A 
ATOM     53  C   UNL     1      12.822   6.361   2.955  1.00  0.00     0.049 A 
ATOM     54  H   UNL     1      13.324   4.702   4.110  1.00  0.00     0.167 HD
ATOM     55  C   UNL     1      14.218   1.266   6.668  1.00  0.00     0.037 A 
ATOM     56  C   UNL     1      13.960   7.040   2.712  1.00  0.00     0.037 A 
ATOM     57  C   UNL     1      15.483   1.925   6.468  1.00  0.00     0.049 A 
ATOM     58  C   UNL     1      15.244   6.557   3.327  1.00  0.00     0.074 A 
ATOM     59  C   UNL     1      16.736   1.544   6.916  1.00  0.00     0.029 A 
ATOM     60  N   UNL     1      15.658   3.099   5.749  1.00  0.00    -0.354 N 
ATOM     61  N   UNL     1      15.463   5.492   4.059  1.00  0.00    -0.248 NA
ATOM     62  C   UNL     1      16.437   7.385   3.101  1.00  0.00     0.031 C 
ATOM     63  C   UNL     1      17.661   2.511   6.509  1.00  0.00     0.029 A 
ATOM     64  C   UNL     1      16.994   3.468   5.761  1.00  0.00     0.049 A 
ATOM     65  H   UNL     1      14.938   3.597   5.296  1.00  0.00     0.167 HD
ATOM     66  C   UNL     1      16.817   5.510   4.363  1.00  0.00     0.074 A 
ATOM     67  C   UNL     1      17.374   6.683   3.722  1.00  0.00     0.031 C 
ATOM     68  C   UNL     1      17.533   4.635   5.111  1.00  0.00     0.037 A 
BRANCH  55  69
ATOM     69  C   UNL     1      14.189   0.039   7.533  1.00  0.00     0.064 A 
ATOM     70  C   UNL     1      13.961  -1.242   7.012  1.00  0.00     0.173 A 
ATOM     71  C   UNL     1      14.426   0.152   8.913  1.00  0.00     0.173 A 
ATOM     72  F   UNL     1      13.715  -1.405   5.703  1.00  0.00    -0.203 F 
ATOM     73  C   UNL     1      13.941  -2.361   7.843  1.00  0.00     0.198 A 
ATOM     74  C   UNL     1      14.437  -0.971   9.735  1.00  0.00     0.198 A 
ATOM     75  F   UNL     1      14.655   1.353   9.464  1.00  0.00    -0.203 F 
ATOM     76  F   UNL     1      13.670  -3.569   7.330  1.00  0.00    -0.200 F 
ATOM     77  C   UNL     1      14.186  -2.225   9.201  1.00  0.00     0.200 A 
ATOM     78  F   UNL     1      14.687  -0.839  11.045  1.00  0.00    -0.200 F 
ATOM     79  F   UNL     1      14.173  -3.303   9.998  1.00  0.00    -0.200 F 
ENDBRANCH  55  69
BRANCH  56  80
ATOM     80  C   UNL     1      13.929   8.272   1.879  1.00  0.00     0.064 A 
ATOM     81  C   UNL     1      14.561   8.314   0.629  1.00  0.00     0.173 A 
ATOM     82  C   UNL     1      13.272   9.433   2.316  1.00  0.00     0.173 A 
ATOM     83  F   UNL     1      15.228   7.240   0.180  1.00  0.00    -0.203 F 
ATOM     84  C   UNL     1      14.546   9.471  -0.147  1.00  0.00     0.198 A 
ATOM     85  C   UNL     1      13.229  10.578   1.524  1.00  0.00     0.198 A 
ATOM     86  F   UNL     1      12.656   9.449   3.507  1.00  0.00    -0.203 F 
ATOM     87  F   UNL     1      15.196   9.498  -1.319  1.00  0.00    -0.200 F 
ATOM     88  C   UNL     1      13.873  10.599   0.297  1.00  0.00     0.200 A 
ATOM     89  F   UNL     1      12.566  11.661   1.952  1.00  0.00    -0.200 F 
ATOM     90  F   UNL     1      13.851  11.709  -0.454  1.00  0.00    -0.200 F 
ENDBRANCH  56  80
BRANCH  68  91
ATOM     91  C   UNL     1      19.006   4.891   5.240  1.00  0.00     0.064 A 
ATOM     92  C   UNL     1      19.505   5.942   6.024  1.00  0.00     0.173 A 
ATOM     93  C   UNL     1      19.930   4.055   4.596  1.00  0.00     0.173 A 
ATOM     94  F   UNL     1      18.662   6.780   6.645  1.00  0.00    -0.203 F 
ATOM     95  C   UNL     1      20.876   6.162   6.135  1.00  0.00     0.198 A 
ATOM     96  C   UNL     1      21.300   4.259   4.735  1.00  0.00     0.198 A 
ATOM     97  F   UNL     1      19.504   3.032   3.840  1.00  0.00    -0.203 F 
ATOM     98  F   UNL     1      21.329   7.202   6.848  1.00  0.00    -0.200 F 
ATOM     99  C   UNL     1      21.771   5.317   5.497  1.00  0.00     0.200 A 
ATOM    100  F   UNL     1      22.164   3.434   4.128  1.00  0.00    -0.200 F 
ATOM    101  F   UNL     1      23.090   5.527   5.610  1.00  0.00    -0.200 F 
ENDBRANCH  68  91
ENDBRANCH  42  43
ENDBRANCH  35  37
ENDBRANCH  34  35
ENDBRANCH  33  34
ENDBRANCH   1  33
TORSDOF 15
