REMARK SMILES Cc1cc(S(=O)(=O)Nc2ccc(Cl)cc2F)ccc1OCC(=O)OCCOC(=O)c1ccc(-c2c3nc(c(-c4c(F)c(F)c(F)c(F)c4F)c4ccc([nH]4)c(-c4c(F)c(F)c(F)c(F)c4F)c4nc(c(-c5c(F)c(F)c(F)c(F)c5F)c5ccc2[nH]5)C=C4)C=C3)cc1
REMARK SMILES IDX 24 1 22 2 23 3 21 4 20 5 19 6 1 7 2 8 3 9 4 10 18 11 17 12
REMARK SMILES IDX 5 13 6 14 7 15 8 16 9 18 10 19 15 20 11 21 14 22 16 23 12 24
REMARK SMILES IDX 13 25 25 26 26 27 27 28 28 29 29 30 30 31 31 32 92 33 32 34
REMARK SMILES IDX 91 35 33 36 34 37 35 38 85 39 36 40 90 41 84 42 86 43 37 44
REMARK SMILES IDX 89 45 83 46 82 47 38 49 70 50 50 51 69 52 51 53 54 54 68 55
REMARK SMILES IDX 87 56 52 57 53 58 67 60 88 61 55 62 39 63 40 64 48 65 41 66
REMARK SMILES IDX 42 67 46 68 49 69 43 70 44 71 47 72 45 73 71 74 72 75 80 76
REMARK SMILES IDX 73 77 74 78 78 79 81 80 75 81 76 82 79 83 77 84 56 85 57 86
REMARK SMILES IDX 65 87 58 88 59 89 63 90 66 91 60 92 61 93 64 94 62 95
REMARK H PARENT 8 17 86 48 54 59
REMARK Flexibility Score: inf
ROOT
ATOM      1  O   UNL     1       1.056   1.592   2.304  1.00  0.00    -0.460 OA
ENDROOT
BRANCH   1   2
ATOM      2  C   UNL     1       1.160   2.881   1.891  1.00  0.00     0.344 C 
ATOM      3  O   UNL     1       1.325   3.834   2.646  1.00  0.00    -0.248 OA
BRANCH   2   4
ATOM      4  C   UNL     1       0.995   3.026   0.368  1.00  0.00     0.351 C 
BRANCH   4   5
ATOM      5  O   UNL     1       1.129   1.904  -0.495  1.00  0.00    -0.482 OA
BRANCH   5   6
ATOM      6  C   UNL     1       0.236   0.872  -0.382  1.00  0.00     0.123 A 
ATOM      7  C   UNL     1       1.794  -0.501  -1.889  1.00  0.00     0.048 C 
ATOM      8  C   UNL     1       0.554  -0.326  -1.052  1.00  0.00    -0.008 A 
ATOM      9  C   UNL     1      -0.271  -1.452  -0.876  1.00  0.00     0.029 A 
ATOM     10  C   UNL     1      -1.394  -1.383  -0.052  1.00  0.00     0.088 A 
ATOM     11  C   UNL     1      -0.919   0.934   0.407  1.00  0.00     0.048 A 
ATOM     12  C   UNL     1      -1.685  -0.205   0.631  1.00  0.00     0.026 A 
BRANCH  10  13
ATOM     13  S   UNL     1      -2.396  -2.820   0.211  1.00  0.00     0.262 S 
ATOM     14  O   UNL     1      -1.866  -3.912  -0.579  1.00  0.00    -0.201 OA
ATOM     15  O   UNL     1      -2.565  -2.962   1.643  1.00  0.00    -0.201 OA
BRANCH  13  16
ATOM     16  N   UNL     1      -3.965  -2.525  -0.403  1.00  0.00    -0.277 N 
ATOM     17  H   UNL     1      -4.502  -3.262  -0.772  1.00  0.00     0.180 HD
BRANCH  16  18
ATOM     18  C   UNL     1      -4.489  -1.188  -0.374  1.00  0.00     0.085 A 
ATOM     19  C   UNL     1      -5.303  -0.766   0.680  1.00  0.00     0.031 A 
ATOM     20  C   UNL     1      -4.131  -0.274  -1.374  1.00  0.00     0.148 A 
ATOM     21  C   UNL     1      -5.747   0.562   0.724  1.00  0.00     0.023 A 
ATOM     22  C   UNL     1      -4.553   1.050  -1.326  1.00  0.00     0.062 A 
ATOM     23  F   UNL     1      -3.333  -0.658  -2.381  1.00  0.00    -0.205 F 
ATOM     24  C   UNL     1      -5.362   1.463  -0.273  1.00  0.00     0.044 A 
ATOM     25  Cl  UNL     1      -5.876   3.102  -0.186  1.00  0.00    -0.084 Cl
ENDBRANCH  16  18
ENDBRANCH  13  16
ENDBRANCH  10  13
ENDBRANCH   5   6
ENDBRANCH   4   5
ENDBRANCH   2   4
ENDBRANCH   1   2
BRANCH   1  26
ATOM     26  C   UNL     1       1.223   1.362   3.700  1.00  0.00     0.274 C 
BRANCH  26  27
ATOM     27  C   UNL     1       1.144  -0.139   4.022  1.00  0.00     0.275 C 
BRANCH  27  28
ATOM     28  O   UNL     1       1.838  -1.166   3.243  1.00  0.00    -0.458 OA
BRANCH  28  29
ATOM     29  C   UNL     1       2.535  -1.039   2.091  1.00  0.00     0.338 C 
ATOM     30  O   UNL     1       2.474  -1.850   1.174  1.00  0.00    -0.246 OA
BRANCH  29  31
ATOM     31  C   UNL     1       3.515   0.047   2.075  1.00  0.00     0.060 A 
ATOM     32  C   UNL     1       3.783   0.774   0.900  1.00  0.00     0.016 A 
ATOM     33  C   UNL     1       4.079   0.399   3.291  1.00  0.00     0.016 A 
ATOM     34  C   UNL     1       4.539   1.934   0.950  1.00  0.00     0.010 A 
ATOM     35  C   UNL     1       4.691   1.613   3.372  1.00  0.00     0.010 A 
ATOM     36  C   UNL     1       4.976   2.343   2.198  1.00  0.00    -0.014 A 
BRANCH  36  37
ATOM     37  C   UNL     1       5.963   3.375   2.430  1.00  0.00     0.031 A 
ATOM     38  C   UNL     1       5.581   4.779   2.613  1.00  0.00     0.074 A 
ATOM     39  C   UNL     1       7.084   2.795   2.912  1.00  0.00     0.049 A 
ATOM     40  N   UNL     1       6.401   5.694   2.981  1.00  0.00    -0.248 NA
ATOM     41  C   UNL     1       4.236   5.294   2.392  1.00  0.00     0.031 C 
ATOM     42  C   UNL     1       8.029   3.245   3.914  1.00  0.00     0.029 A 
ATOM     43  N   UNL     1       7.558   1.520   2.554  1.00  0.00    -0.354 N 
ATOM     44  C   UNL     1       5.663   6.788   3.385  1.00  0.00     0.074 A 
ATOM     45  C   UNL     1       4.336   6.535   2.885  1.00  0.00     0.031 C 
ATOM     46  C   UNL     1       9.113   2.443   3.865  1.00  0.00     0.029 A 
ATOM     47  C   UNL     1       8.947   1.577   2.702  1.00  0.00     0.049 A 
ATOM     48  H   UNL     1       7.023   0.748   2.259  1.00  0.00     0.167 HD
ATOM     49  C   UNL     1       6.271   7.673   4.230  1.00  0.00     0.037 A 
ATOM     50  C   UNL     1       9.684   1.651   1.551  1.00  0.00     0.037 A 
ATOM     51  C   UNL     1       7.678   7.292   4.386  1.00  0.00     0.049 A 
ATOM     52  C   UNL     1      10.354   3.001   1.469  1.00  0.00     0.074 A 
ATOM     53  C   UNL     1       8.343   6.567   5.361  1.00  0.00     0.029 A 
ATOM     54  N   UNL     1       8.505   7.301   3.265  1.00  0.00    -0.354 N 
ATOM     55  N   UNL     1       9.818   4.124   1.870  1.00  0.00    -0.248 NA
ATOM     56  C   UNL     1      11.750   3.136   1.077  1.00  0.00     0.031 C 
ATOM     57  C   UNL     1       9.541   6.063   4.782  1.00  0.00     0.029 A 
ATOM     58  C   UNL     1       9.602   6.484   3.462  1.00  0.00     0.049 A 
ATOM     59  H   UNL     1       8.333   7.819   2.446  1.00  0.00     0.167 HD
ATOM     60  C   UNL     1      10.793   5.087   1.907  1.00  0.00     0.074 A 
ATOM     61  C   UNL     1      11.972   4.428   1.368  1.00  0.00     0.031 C 
ATOM     62  C   UNL     1      10.617   6.338   2.430  1.00  0.00     0.037 A 
BRANCH  49  63
ATOM     63  C   UNL     1       5.599   8.700   5.127  1.00  0.00     0.064 A 
ATOM     64  C   UNL     1       6.291   9.220   6.250  1.00  0.00     0.173 A 
ATOM     65  C   UNL     1       4.285   9.186   4.988  1.00  0.00     0.173 A 
ATOM     66  F   UNL     1       7.571   8.907   6.492  1.00  0.00    -0.203 F 
ATOM     67  C   UNL     1       5.700  10.082   7.180  1.00  0.00     0.198 A 
ATOM     68  C   UNL     1       3.687  10.039   5.928  1.00  0.00     0.198 A 
ATOM     69  F   UNL     1       3.534   8.893   3.924  1.00  0.00    -0.203 F 
ATOM     70  F   UNL     1       6.411  10.516   8.230  1.00  0.00    -0.200 F 
ATOM     71  C   UNL     1       4.391  10.480   7.028  1.00  0.00     0.200 A 
ATOM     72  F   UNL     1       2.417  10.433   5.752  1.00  0.00    -0.200 F 
ATOM     73  F   UNL     1       3.818  11.297   7.922  1.00  0.00    -0.200 F 
ENDBRANCH  49  63
BRANCH  50  74
ATOM     74  C   UNL     1       9.028   0.895   0.426  1.00  0.00     0.064 A 
ATOM     75  C   UNL     1       8.807  -0.490   0.620  1.00  0.00     0.173 A 
ATOM     76  C   UNL     1       8.243   1.528  -0.549  1.00  0.00     0.173 A 
ATOM     77  F   UNL     1       9.520  -1.155   1.544  1.00  0.00    -0.203 F 
ATOM     78  C   UNL     1       7.758  -1.163  -0.010  1.00  0.00     0.198 A 
ATOM     79  C   UNL     1       7.206   0.842  -1.195  1.00  0.00     0.198 A 
ATOM     80  F   UNL     1       8.393   2.836  -0.798  1.00  0.00    -0.203 F 
ATOM     81  F   UNL     1       7.491  -2.437   0.314  1.00  0.00    -0.200 F 
ATOM     82  C   UNL     1       6.939  -0.487  -0.896  1.00  0.00     0.200 A 
ATOM     83  F   UNL     1       6.399   1.495  -2.046  1.00  0.00    -0.200 F 
ATOM     84  F   UNL     1       5.871  -1.100  -1.428  1.00  0.00    -0.200 F 
ENDBRANCH  50  74
BRANCH  62  85
ATOM     85  C   UNL     1      11.474   7.535   2.094  1.00  0.00     0.064 A 
ATOM     86  C   UNL     1      12.248   7.622   0.925  1.00  0.00     0.173 A 
ATOM     87  C   UNL     1      11.392   8.726   2.857  1.00  0.00     0.173 A 
ATOM     88  F   UNL     1      12.297   6.621   0.036  1.00  0.00    -0.203 F 
ATOM     89  C   UNL     1      12.953   8.777   0.590  1.00  0.00     0.198 A 
ATOM     90  C   UNL     1      12.030   9.903   2.473  1.00  0.00     0.198 A 
ATOM     91  F   UNL     1      10.657   8.806   3.975  1.00  0.00    -0.203 F 
ATOM     92  F   UNL     1      13.726   8.783  -0.505  1.00  0.00    -0.200 F 
ATOM     93  C   UNL     1      12.831   9.921   1.353  1.00  0.00     0.200 A 
ATOM     94  F   UNL     1      11.838  11.023   3.183  1.00  0.00    -0.200 F 
ATOM     95  F   UNL     1      13.463  11.046   0.993  1.00  0.00    -0.200 F 
ENDBRANCH  62  85
ENDBRANCH  36  37
ENDBRANCH  29  31
ENDBRANCH  28  29
ENDBRANCH  27  28
ENDBRANCH  26  27
ENDBRANCH   1  26
TORSDOF 16
