REMARK SMILES CCN(C(=O)Cc1c(C(=O)OCCOC(=O)c2ccc(-c3c4nc(c(-c5c(F)c(F)c(F)c(F)c5F)c5ccc([nH]5)c(-c5c(F)c(F)c(F)c(F)c5F)c5nc(c(-c6c(F)c(F)c(F)c(F)c6F)c6ccc3[nH]6)C=C5)C=C4)cc2)[nH]c2ccc(Cl)cc12)c1ccc(C)c(C)c1
REMARK SMILES IDX 12 1 11 2 9 3 10 4 8 5 7 6 87 7 80 8 81 9 86 10 82 12 84 13
REMARK SMILES IDX 83 14 85 15 6 16 4 17 5 18 3 19 2 20 1 21 88 22 89 23 95 24
REMARK SMILES IDX 90 25 93 26 91 27 94 28 92 29 13 30 14 31 15 32 16 33 17 34
REMARK SMILES IDX 18 35 79 36 19 37 78 38 20 39 21 40 22 41 72 42 23 43 77 44
REMARK SMILES IDX 71 45 73 46 24 47 76 48 70 49 69 50 25 52 57 53 37 54 56 55
REMARK SMILES IDX 38 56 41 57 55 58 74 59 39 60 40 61 54 63 75 64 42 65 26 66
REMARK SMILES IDX 27 67 35 68 28 69 29 70 33 71 36 72 30 73 31 74 34 75 32 76
REMARK SMILES IDX 58 77 59 78 67 79 60 80 61 81 65 82 68 83 62 84 63 85 66 86
REMARK SMILES IDX 64 87 43 88 44 89 52 90 45 91 46 92 50 93 53 94 47 95 48 96
REMARK SMILES IDX 51 97 49 98
REMARK H PARENT 80 11 73 51 41 62
REMARK Flexibility Score: inf
ROOT
ATOM      1  C   UNL     1      -1.253   5.707   2.469  1.00  0.00     0.275 C 
ENDROOT
BRANCH   1   2
ATOM      2  O   UNL     1      -1.481   4.322   2.151  1.00  0.00    -0.457 OA
BRANCH   2   3
ATOM      3  C   UNL     1      -2.414   4.062   1.210  1.00  0.00     0.355 C 
ATOM      4  O   UNL     1      -3.104   4.896   0.646  1.00  0.00    -0.244 OA
BRANCH   3   5
ATOM      5  C   UNL     1      -2.437   2.654   0.865  1.00  0.00     0.129 A 
ATOM      6  C   UNL     1      -1.974   1.483   1.470  1.00  0.00     0.002 A 
ATOM      7  C   UNL     1      -2.390   0.390   0.617  1.00  0.00     0.005 A 
ATOM      8  N   UNL     1      -3.046   2.278  -0.314  1.00  0.00    -0.349 N 
ATOM      9  C   UNL     1      -2.907   0.941  -0.550  1.00  0.00     0.046 A 
ATOM     10  C   UNL     1      -2.327  -1.018   0.702  1.00  0.00     0.031 A 
ATOM     11  H   UNL     1      -3.522   2.898  -0.912  1.00  0.00     0.167 HD
ATOM     12  C   UNL     1      -3.230   0.191  -1.686  1.00  0.00     0.028 A 
ATOM     13  C   UNL     1      -2.653  -1.788  -0.421  1.00  0.00     0.041 A 
ATOM     14  C   UNL     1      -3.068  -1.193  -1.608  1.00  0.00     0.022 A 
ATOM     15  Cl  UNL     1      -2.498  -3.501  -0.341  1.00  0.00    -0.084 Cl
BRANCH   6  16
ATOM     16  C   UNL     1      -1.255   1.332   2.787  1.00  0.00     0.139 C 
BRANCH  16  17
ATOM     17  C   UNL     1       0.197   1.833   2.834  1.00  0.00     0.231 C 
ATOM     18  O   UNL     1       0.431   2.843   3.512  1.00  0.00    -0.274 OA
BRANCH  17  19
ATOM     19  N   UNL     1       1.208   1.118   2.169  1.00  0.00    -0.312 N 
BRANCH  19  20
ATOM     20  C   UNL     1       0.997  -0.164   1.473  1.00  0.00     0.122 C 
ATOM     21  C   UNL     1       0.864  -0.078  -0.042  1.00  0.00     0.028 C 
ENDBRANCH  19  20
BRANCH  19  22
ATOM     22  C   UNL     1       2.585   1.517   2.313  1.00  0.00     0.044 A 
ATOM     23  C   UNL     1       3.111   1.881   3.553  1.00  0.00     0.026 A 
ATOM     24  C   UNL     1       3.460   1.472   1.221  1.00  0.00     0.030 A 
ATOM     25  C   UNL     1       4.479   2.141   3.699  1.00  0.00     0.006 A 
ATOM     26  C   UNL     1       4.837   1.732   1.345  1.00  0.00    -0.046 A 
ATOM     27  C   UNL     1       5.357   2.053   2.607  1.00  0.00    -0.048 A 
ATOM     28  C   UNL     1       5.695   1.658   0.112  1.00  0.00     0.044 C 
ATOM     29  C   UNL     1       6.814   2.335   2.845  1.00  0.00     0.044 C 
ENDBRANCH  19  22
ENDBRANCH  17  19
ENDBRANCH  16  17
ENDBRANCH   6  16
ENDBRANCH   3   5
ENDBRANCH   2   3
ENDBRANCH   1   2
BRANCH   1  30
ATOM     30  C   UNL     1      -0.086   6.282   1.663  1.00  0.00     0.275 C 
BRANCH  30  31
ATOM     31  O   UNL     1      -0.448   6.420   0.274  1.00  0.00    -0.458 OA
BRANCH  31  32
ATOM     32  C   UNL     1       0.226   5.634  -0.595  1.00  0.00     0.338 C 
ATOM     33  O   UNL     1       1.131   4.853  -0.363  1.00  0.00    -0.246 OA
BRANCH  32  34
ATOM     34  C   UNL     1      -0.372   5.761  -1.931  1.00  0.00     0.060 A 
ATOM     35  C   UNL     1      -1.382   4.864  -2.275  1.00  0.00     0.016 A 
ATOM     36  C   UNL     1       0.141   6.641  -2.881  1.00  0.00     0.016 A 
ATOM     37  C   UNL     1      -1.879   4.823  -3.573  1.00  0.00     0.010 A 
ATOM     38  C   UNL     1      -0.377   6.621  -4.183  1.00  0.00     0.010 A 
ATOM     39  C   UNL     1      -1.377   5.698  -4.544  1.00  0.00    -0.014 A 
BRANCH  39  40
ATOM     40  C   UNL     1      -1.852   5.580  -5.948  1.00  0.00     0.031 A 
ATOM     41  C   UNL     1      -0.917   5.087  -7.017  1.00  0.00     0.074 A 
ATOM     42  C   UNL     1      -3.132   5.860  -6.259  1.00  0.00     0.049 A 
ATOM     43  N   UNL     1      -1.100   5.013  -8.312  1.00  0.00    -0.248 NA
ATOM     44  C   UNL     1       0.402   4.614  -6.570  1.00  0.00     0.031 C 
ATOM     45  C   UNL     1      -4.158   6.286  -5.307  1.00  0.00     0.029 A 
ATOM     46  N   UNL     1      -3.792   5.819  -7.463  1.00  0.00    -0.354 N 
ATOM     47  C   UNL     1       0.091   4.529  -8.836  1.00  0.00     0.074 A 
ATOM     48  C   UNL     1       0.992   4.327  -7.721  1.00  0.00     0.031 C 
ATOM     49  C   UNL     1      -5.322   6.445  -5.958  1.00  0.00     0.029 A 
ATOM     50  C   UNL     1      -5.109   6.199  -7.381  1.00  0.00     0.049 A 
ATOM     51  H   UNL     1      -3.361   5.543  -8.304  1.00  0.00     0.167 HD
ATOM     52  C   UNL     1       0.403   4.278 -10.130  1.00  0.00     0.037 A 
ATOM     53  C   UNL     1      -6.032   6.364  -8.348  1.00  0.00     0.037 A 
ATOM     54  C   UNL     1      -0.509   4.440 -11.233  1.00  0.00     0.049 A 
ATOM     55  C   UNL     1      -5.648   6.118  -9.782  1.00  0.00     0.074 A 
ATOM     56  C   UNL     1      -0.287   4.207 -12.579  1.00  0.00     0.029 A 
ATOM     57  N   UNL     1      -1.824   4.864 -11.113  1.00  0.00    -0.354 N 
ATOM     58  N   UNL     1      -4.504   5.708 -10.274  1.00  0.00    -0.248 NA
ATOM     59  C   UNL     1      -6.679   6.375 -10.797  1.00  0.00     0.031 C 
ATOM     60  C   UNL     1      -1.457   4.522 -13.278  1.00  0.00     0.029 A 
ATOM     61  C   UNL     1      -2.421   4.911 -12.362  1.00  0.00     0.049 A 
ATOM     62  H   UNL     1      -2.267   5.097 -10.265  1.00  0.00     0.167 HD
ATOM     63  C   UNL     1      -4.680   5.647 -11.649  1.00  0.00     0.074 A 
ATOM     64  C   UNL     1      -6.048   6.041 -11.914  1.00  0.00     0.031 C 
ATOM     65  C   UNL     1      -3.786   5.301 -12.607  1.00  0.00     0.037 A 
BRANCH  52  66
ATOM     66  C   UNL     1       1.804   3.836 -10.432  1.00  0.00     0.064 A 
ATOM     67  C   UNL     1       2.257   2.545 -10.126  1.00  0.00     0.173 A 
ATOM     68  C   UNL     1       2.697   4.711 -11.070  1.00  0.00     0.173 A 
ATOM     69  F   UNL     1       1.447   1.675  -9.503  1.00  0.00    -0.203 F 
ATOM     70  C   UNL     1       3.559   2.153 -10.427  1.00  0.00     0.198 A 
ATOM     71  C   UNL     1       3.990   4.308 -11.393  1.00  0.00     0.198 A 
ATOM     72  F   UNL     1       2.311   5.956 -11.389  1.00  0.00    -0.203 F 
ATOM     73  F   UNL     1       3.985   0.928 -10.088  1.00  0.00    -0.200 F 
ATOM     74  C   UNL     1       4.422   3.033 -11.066  1.00  0.00     0.200 A 
ATOM     75  F   UNL     1       4.817   5.156 -12.020  1.00  0.00    -0.200 F 
ATOM     76  F   UNL     1       5.673   2.652 -11.360  1.00  0.00    -0.200 F 
ENDBRANCH  52  66
BRANCH  53  77
ATOM     77  C   UNL     1      -7.401   6.821  -7.995  1.00  0.00     0.064 A 
ATOM     78  C   UNL     1      -8.505   5.970  -8.134  1.00  0.00     0.173 A 
ATOM     79  C   UNL     1      -7.633   8.119  -7.516  1.00  0.00     0.173 A 
ATOM     80  F   UNL     1      -8.338   4.729  -8.616  1.00  0.00    -0.203 F 
ATOM     81  C   UNL     1      -9.791   6.402  -7.815  1.00  0.00     0.198 A 
ATOM     82  C   UNL     1      -8.915   8.540  -7.169  1.00  0.00     0.198 A 
ATOM     83  F   UNL     1      -6.610   8.974  -7.369  1.00  0.00    -0.203 F 
ATOM     84  F   UNL     1     -10.835   5.582  -7.995  1.00  0.00    -0.200 F 
ATOM     85  C   UNL     1      -9.994   7.684  -7.325  1.00  0.00     0.200 A 
ATOM     86  F   UNL     1      -9.103   9.775  -6.685  1.00  0.00    -0.200 F 
ATOM     87  F   UNL     1     -11.229   8.097  -7.011  1.00  0.00    -0.200 F 
ENDBRANCH  53  77
BRANCH  65  88
ATOM     88  C   UNL     1      -4.268   5.309 -14.027  1.00  0.00     0.064 A 
ATOM     89  C   UNL     1      -4.479   6.508 -14.723  1.00  0.00     0.173 A 
ATOM     90  C   UNL     1      -4.488   4.103 -14.709  1.00  0.00     0.173 A 
ATOM     91  F   UNL     1      -4.298   7.686 -14.107  1.00  0.00    -0.203 F 
ATOM     92  C   UNL     1      -4.915   6.500 -16.045  1.00  0.00     0.198 A 
ATOM     93  C   UNL     1      -4.900   4.098 -16.039  1.00  0.00     0.198 A 
ATOM     94  F   UNL     1      -4.294   2.930 -14.088  1.00  0.00    -0.203 F 
ATOM     95  F   UNL     1      -5.152   7.657 -16.678  1.00  0.00    -0.200 F 
ATOM     96  C   UNL     1      -5.119   5.296 -16.703  1.00  0.00     0.200 A 
ATOM     97  F   UNL     1      -5.088   2.935 -16.677  1.00  0.00    -0.200 F 
ATOM     98  F   UNL     1      -5.536   5.290 -17.977  1.00  0.00    -0.200 F 
ENDBRANCH  65  88
ENDBRANCH  39  40
ENDBRANCH  32  34
ENDBRANCH  31  32
ENDBRANCH  30  31
ENDBRANCH   1  30
TORSDOF 16
