REMARK SMILES C[N@H+](CC(=O)OCCOC(=O)c1ccc(-c2c3nc(c(-c4c(F)c(F)c(F)c(F)c4F)c4ccc([nH]4)c(-c4c(F)c(F)c(F)c(F)c4F)c4nc(c(-c5c(F)c(F)c(F)c(F)c5F)c5ccc2[nH]5)C=C4)C=C3)cc1)Cc1cccc2c1OCCO2
REMARK SMILES IDX 7 1 6 2 4 3 5 4 3 5 2 6 1 7 75 9 76 10 77 11 81 12 78 13
REMARK SMILES IDX 80 14 82 15 79 16 85 17 83 18 84 19 8 20 9 21 10 22 11 23
REMARK SMILES IDX 12 24 13 25 74 26 14 27 73 28 15 29 16 30 17 31 67 32 18 33
REMARK SMILES IDX 72 34 66 35 68 36 19 37 71 38 65 39 64 40 20 42 52 43 32 44
REMARK SMILES IDX 51 45 33 46 36 47 50 48 69 49 34 50 35 51 49 53 70 54 37 55
REMARK SMILES IDX 21 56 22 57 30 58 23 59 24 60 28 61 31 62 25 63 26 64 29 65
REMARK SMILES IDX 27 66 53 67 54 68 62 69 55 70 56 71 60 72 63 73 57 74 58 75
REMARK SMILES IDX 61 76 59 77 38 78 39 79 47 80 40 81 41 82 45 83 48 84 42 85
REMARK SMILES IDX 43 86 46 87 44 88
REMARK H PARENT 2 8 68 41 36 52
REMARK Flexibility Score: inf
ROOT
ATOM      1  C   UNL     1      -2.730  -0.068  -2.293  1.00  0.00     0.274 C 
ENDROOT
BRANCH   1   2
ATOM      2  O   UNL     1      -1.538  -0.165  -1.494  1.00  0.00    -0.458 OA
BRANCH   2   3
ATOM      3  C   UNL     1      -1.730  -0.421  -0.172  1.00  0.00     0.361 C 
ATOM      4  O   UNL     1      -2.831  -0.534   0.362  1.00  0.00    -0.245 OA
BRANCH   3   5
ATOM      5  C   UNL     1      -0.443  -0.521   0.641  1.00  0.00     0.386 C 
BRANCH   5   6
ATOM      6  N   UNL     1       0.779  -0.503  -0.181  1.00  0.00    -0.324 N 
ATOM      7  C   UNL     1       1.712   0.526   0.255  1.00  0.00     0.333 C 
ATOM      8  H   UNL     1       0.472  -0.251  -1.120  1.00  0.00     0.348 HD
BRANCH   6   9
ATOM      9  C   UNL     1       1.417  -1.823  -0.348  1.00  0.00     0.303 C 
BRANCH   9  10
ATOM     10  C   UNL     1       1.429  -2.297  -1.790  1.00  0.00     0.052 A 
ATOM     11  C   UNL     1       1.402  -1.377  -2.856  1.00  0.00     0.014 A 
ATOM     12  C   UNL     1       1.512  -3.666  -2.100  1.00  0.00     0.170 A 
ATOM     13  C   UNL     1       1.393  -1.805  -4.184  1.00  0.00     0.005 A 
ATOM     14  C   UNL     1       1.466  -4.091  -3.439  1.00  0.00     0.161 A 
ATOM     15  O   UNL     1       1.616  -4.556  -1.053  1.00  0.00    -0.486 OA
ATOM     16  C   UNL     1       1.417  -3.164  -4.476  1.00  0.00     0.050 A 
ATOM     17  O   UNL     1       1.453  -5.414  -3.814  1.00  0.00    -0.486 OA
ATOM     18  C   UNL     1       1.936  -5.878  -1.505  1.00  0.00     0.271 C 
ATOM     19  C   UNL     1       1.091  -6.245  -2.710  1.00  0.00     0.271 C 
ENDBRANCH   9  10
ENDBRANCH   6   9
ENDBRANCH   5   6
ENDBRANCH   3   5
ENDBRANCH   2   3
ENDBRANCH   1   2
BRANCH   1  20
ATOM     20  C   UNL     1      -3.081  -1.413  -2.919  1.00  0.00     0.275 C 
BRANCH  20  21
ATOM     21  O   UNL     1      -3.207  -2.415  -1.894  1.00  0.00    -0.458 OA
BRANCH  21  22
ATOM     22  C   UNL     1      -2.417  -3.497  -2.065  1.00  0.00     0.338 C 
ATOM     23  O   UNL     1      -1.712  -3.751  -3.025  1.00  0.00    -0.246 OA
BRANCH  22  24
ATOM     24  C   UNL     1      -2.582  -4.455  -0.960  1.00  0.00     0.060 A 
ATOM     25  C   UNL     1      -2.417  -4.096   0.379  1.00  0.00     0.016 A 
ATOM     26  C   UNL     1      -2.811  -5.788  -1.312  1.00  0.00     0.016 A 
ATOM     27  C   UNL     1      -2.440  -5.086   1.365  1.00  0.00     0.010 A 
ATOM     28  C   UNL     1      -2.877  -6.768  -0.327  1.00  0.00     0.010 A 
ATOM     29  C   UNL     1      -2.673  -6.426   1.017  1.00  0.00    -0.014 A 
BRANCH  29  30
ATOM     30  C   UNL     1      -2.780  -7.474   2.057  1.00  0.00     0.031 A 
ATOM     31  C   UNL     1      -1.696  -8.494   2.243  1.00  0.00     0.074 A 
ATOM     32  C   UNL     1      -3.901  -7.526   2.798  1.00  0.00     0.049 A 
ATOM     33  N   UNL     1      -1.661  -9.525   3.049  1.00  0.00    -0.248 NA
ATOM     34  C   UNL     1      -0.495  -8.342   1.408  1.00  0.00     0.031 C 
ATOM     35  C   UNL     1      -5.024  -6.595   2.685  1.00  0.00     0.029 A 
ATOM     36  N   UNL     1      -4.285  -8.400   3.780  1.00  0.00    -0.354 N 
ATOM     37  C   UNL     1      -0.444 -10.149   2.817  1.00  0.00     0.074 A 
ATOM     38  C   UNL     1       0.227  -9.392   1.780  1.00  0.00     0.031 C 
ATOM     39  C   UNL     1      -5.969  -6.941   3.571  1.00  0.00     0.029 A 
ATOM     40  C   UNL     1      -5.533  -8.136   4.285  1.00  0.00     0.049 A 
ATOM     41  H   UNL     1      -3.721  -9.144   4.093  1.00  0.00     0.167 HD
ATOM     42  C   UNL     1       0.062 -11.252   3.420  1.00  0.00     0.037 A 
ATOM     43  C   UNL     1      -6.252  -8.795   5.210  1.00  0.00     0.037 A 
ATOM     44  C   UNL     1      -0.611 -11.994   4.456  1.00  0.00     0.049 A 
ATOM     45  C   UNL     1      -5.668 -10.014   5.859  1.00  0.00     0.074 A 
ATOM     46  C   UNL     1      -0.169 -13.108   5.150  1.00  0.00     0.029 A 
ATOM     47  N   UNL     1      -1.875 -11.697   4.946  1.00  0.00    -0.354 N 
ATOM     48  N   UNL     1      -4.509 -10.587   5.644  1.00  0.00    -0.248 NA
ATOM     49  C   UNL     1      -6.491 -10.678   6.878  1.00  0.00     0.031 C 
ATOM     50  C   UNL     1      -1.177 -13.501   6.039  1.00  0.00     0.029 A 
ATOM     51  C   UNL     1      -2.234 -12.613   5.922  1.00  0.00     0.049 A 
ATOM     52  H   UNL     1      -2.434 -10.945   4.644  1.00  0.00     0.167 HD
ATOM     53  C   UNL     1      -4.459 -11.675   6.501  1.00  0.00     0.074 A 
ATOM     54  C   UNL     1      -5.697 -11.669   7.256  1.00  0.00     0.031 C 
ATOM     55  C   UNL     1      -3.478 -12.598   6.647  1.00  0.00     0.037 A 
BRANCH  42  56
ATOM     56  C   UNL     1       1.409 -11.735   2.974  1.00  0.00     0.064 A 
ATOM     57  C   UNL     1       2.588 -11.083   3.365  1.00  0.00     0.173 A 
ATOM     58  C   UNL     1       1.528 -12.901   2.201  1.00  0.00     0.173 A 
ATOM     59  F   UNL     1       2.526  -9.959   4.094  1.00  0.00    -0.203 F 
ATOM     60  C   UNL     1       3.836 -11.575   2.989  1.00  0.00     0.198 A 
ATOM     61  C   UNL     1       2.778 -13.399   1.843  1.00  0.00     0.198 A 
ATOM     62  F   UNL     1       0.431 -13.563   1.805  1.00  0.00    -0.203 F 
ATOM     63  F   UNL     1       4.949 -10.922   3.353  1.00  0.00    -0.200 F 
ATOM     64  C   UNL     1       3.930 -12.735   2.236  1.00  0.00     0.200 A 
ATOM     65  F   UNL     1       2.868 -14.525   1.121  1.00  0.00    -0.200 F 
ATOM     66  F   UNL     1       5.133 -13.211   1.883  1.00  0.00    -0.200 F 
ENDBRANCH  42  56
BRANCH  43  67
ATOM     67  C   UNL     1      -7.598  -8.292   5.573  1.00  0.00     0.064 A 
ATOM     68  C   UNL     1      -7.812  -7.632   6.789  1.00  0.00     0.173 A 
ATOM     69  C   UNL     1      -8.679  -8.412   4.689  1.00  0.00     0.173 A 
ATOM     70  F   UNL     1      -6.809  -7.510   7.670  1.00  0.00    -0.203 F 
ATOM     71  C   UNL     1      -9.063  -7.110   7.109  1.00  0.00     0.198 A 
ATOM     72  C   UNL     1      -9.923  -7.871   5.001  1.00  0.00     0.198 A 
ATOM     73  F   UNL     1      -8.517  -9.031   3.510  1.00  0.00    -0.203 F 
ATOM     74  F   UNL     1      -9.249  -6.499   8.287  1.00  0.00    -0.200 F 
ATOM     75  C   UNL     1     -10.114  -7.222   6.212  1.00  0.00     0.200 A 
ATOM     76  F   UNL     1     -10.933  -7.969   4.126  1.00  0.00    -0.200 F 
ATOM     77  F   UNL     1     -11.313  -6.705   6.514  1.00  0.00    -0.200 F 
ENDBRANCH  43  67
BRANCH  55  78
ATOM     78  C   UNL     1      -3.717 -13.674   7.661  1.00  0.00     0.064 A 
ATOM     79  C   UNL     1      -4.596 -14.735   7.401  1.00  0.00     0.173 A 
ATOM     80  C   UNL     1      -3.067 -13.641   8.903  1.00  0.00     0.173 A 
ATOM     81  F   UNL     1      -5.254 -14.795   6.233  1.00  0.00    -0.203 F 
ATOM     82  C   UNL     1      -4.837 -15.713   8.361  1.00  0.00     0.198 A 
ATOM     83  C   UNL     1      -3.295 -14.632   9.853  1.00  0.00     0.198 A 
ATOM     84  F   UNL     1      -2.218 -12.646   9.195  1.00  0.00    -0.203 F 
ATOM     85  F   UNL     1      -5.716 -16.694   8.111  1.00  0.00    -0.200 F 
ATOM     86  C   UNL     1      -4.185 -15.663   9.584  1.00  0.00     0.200 A 
ATOM     87  F   UNL     1      -2.664 -14.585  11.034  1.00  0.00    -0.200 F 
ATOM     88  F   UNL     1      -4.424 -16.601  10.511  1.00  0.00    -0.200 F 
ENDBRANCH  55  78
ENDBRANCH  29  30
ENDBRANCH  22  24
ENDBRANCH  21  22
ENDBRANCH  20  21
ENDBRANCH   1  20
TORSDOF 14
