REMARK SMILES CN(CC(C)(C)O)S(=O)(=O)CCCC(=O)OCCOC(=O)c1ccc(-c2c3nc(c(-c4c(F)c(F)c(F)c(F)c4F)c4ccc([nH]4)c(-c4c(F)c(F)c(F)c(F)c4F)c4nc(c(-c5c(F)c(F)c(F)c(F)c5F)c5ccc2[nH]5)C=C4)C=C3)cc1
REMARK SMILES IDX 14 1 15 2 13 3 12 4 11 5 8 6 9 7 10 8 2 9 1 10 3 11 4 12
REMARK SMILES IDX 5 13 6 14 7 15 16 17 17 18 18 19 19 20 20 21 21 22 22 23
REMARK SMILES IDX 23 24 84 25 24 26 83 27 25 28 26 29 27 30 77 31 28 32 82 33
REMARK SMILES IDX 76 34 78 35 29 36 81 37 75 38 74 39 30 41 62 42 42 43 61 44
REMARK SMILES IDX 43 45 46 46 60 47 79 48 44 49 45 50 59 52 80 53 47 54 31 55
REMARK SMILES IDX 32 56 40 57 33 58 34 59 38 60 41 61 35 62 36 63 39 64 37 65
REMARK SMILES IDX 63 66 64 67 72 68 65 69 66 70 70 71 73 72 67 73 68 74 71 75
REMARK SMILES IDX 69 76 48 77 49 78 57 79 50 80 51 81 55 82 58 83 52 84 53 85
REMARK SMILES IDX 56 86 54 87
REMARK H PARENT 7 16 78 40 46 51
REMARK Flexibility Score: inf
ROOT
ATOM      1  C   UNL     1      -0.910  -3.075   2.314  1.00  0.00     0.305 C 
ATOM      2  O   UNL     1      -1.385  -2.398   3.217  1.00  0.00    -0.252 OA
ENDROOT
BRANCH   1   3
ATOM      3  C   UNL     1       0.586  -3.166   2.077  1.00  0.00     0.124 C 
BRANCH   3   4
ATOM      4  C   UNL     1       1.082  -4.180   1.047  1.00  0.00     0.029 C 
BRANCH   4   5
ATOM      5  C   UNL     1       0.829  -3.862  -0.423  1.00  0.00     0.155 C 
BRANCH   5   6
ATOM      6  S   UNL     1       1.599  -2.366  -1.041  1.00  0.00     0.213 S 
ATOM      7  O   UNL     1       1.429  -2.345  -2.475  1.00  0.00    -0.212 OA
ATOM      8  O   UNL     1       2.931  -2.293  -0.472  1.00  0.00    -0.212 OA
BRANCH   6   9
ATOM      9  N   UNL     1       0.702  -1.105  -0.386  1.00  0.00    -0.202 NA
ATOM     10  C   UNL     1       1.351   0.222  -0.402  1.00  0.00     0.124 C 
BRANCH   9  11
ATOM     11  C   UNL     1      -0.781  -1.060  -0.396  1.00  0.00     0.136 C 
BRANCH  11  12
ATOM     12  C   UNL     1      -1.524  -0.512  -1.634  1.00  0.00     0.073 C 
ATOM     13  C   UNL     1      -1.406  -1.419  -2.859  1.00  0.00     0.043 C 
ATOM     14  C   UNL     1      -3.012  -0.390  -1.259  1.00  0.00     0.043 C 
BRANCH  12  15
ATOM     15  O   UNL     1      -1.074   0.805  -1.952  1.00  0.00    -0.389 OA
ATOM     16  H   UNL     1      -0.135   0.777  -2.196  1.00  0.00     0.211 HD
ENDBRANCH  12  15
ENDBRANCH  11  12
ENDBRANCH   9  11
ENDBRANCH   6   9
ENDBRANCH   5   6
ENDBRANCH   4   5
ENDBRANCH   3   4
ENDBRANCH   1   3
BRANCH   1  17
ATOM     17  O   UNL     1      -1.642  -3.773   1.408  1.00  0.00    -0.462 OA
BRANCH  17  18
ATOM     18  C   UNL     1      -3.079  -3.654   1.491  1.00  0.00     0.274 C 
BRANCH  18  19
ATOM     19  C   UNL     1      -3.734  -4.990   1.841  1.00  0.00     0.275 C 
BRANCH  19  20
ATOM     20  O   UNL     1      -3.320  -5.430   3.143  1.00  0.00    -0.458 OA
BRANCH  20  21
ATOM     21  C   UNL     1      -2.207  -6.196   3.143  1.00  0.00     0.338 C 
ATOM     22  O   UNL     1      -1.604  -6.638   2.177  1.00  0.00    -0.246 OA
BRANCH  21  23
ATOM     23  C   UNL     1      -1.676  -6.259   4.508  1.00  0.00     0.060 A 
ATOM     24  C   UNL     1      -0.413  -5.706   4.726  1.00  0.00     0.016 A 
ATOM     25  C   UNL     1      -2.369  -6.893   5.539  1.00  0.00     0.016 A 
ATOM     26  C   UNL     1       0.176  -5.782   5.979  1.00  0.00     0.010 A 
ATOM     27  C   UNL     1      -1.770  -6.987   6.797  1.00  0.00     0.010 A 
ATOM     28  C   UNL     1      -0.489  -6.446   7.015  1.00  0.00    -0.014 A 
BRANCH  28  29
ATOM     29  C   UNL     1       0.225  -6.679   8.287  1.00  0.00     0.031 A 
ATOM     30  C   UNL     1       0.819  -8.031   8.546  1.00  0.00     0.074 A 
ATOM     31  C   UNL     1       0.389  -5.673   9.163  1.00  0.00     0.049 A 
ATOM     32  N   UNL     1       1.407  -8.488   9.620  1.00  0.00    -0.248 NA
ATOM     33  C   UNL     1       0.738  -9.002   7.442  1.00  0.00     0.031 C 
ATOM     34  C   UNL     1      -0.083  -4.303   8.972  1.00  0.00     0.029 A 
ATOM     35  N   UNL     1       1.003  -5.652  10.389  1.00  0.00    -0.354 N 
ATOM     36  C   UNL     1       1.750  -9.802   9.329  1.00  0.00     0.074 A 
ATOM     37  C   UNL     1       1.290 -10.076   7.985  1.00  0.00     0.031 C 
ATOM     38  C   UNL     1       0.254  -3.572  10.048  1.00  0.00     0.029 A 
ATOM     39  C   UNL     1       0.923  -4.434  11.018  1.00  0.00     0.049 A 
ATOM     40  H   UNL     1       1.457  -6.433  10.779  1.00  0.00     0.167 HD
ATOM     41  C   UNL     1       2.393 -10.694  10.118  1.00  0.00     0.037 A 
ATOM     42  C   UNL     1       1.321  -4.073  12.252  1.00  0.00     0.037 A 
ATOM     43  C   UNL     1       2.852 -10.403  11.450  1.00  0.00     0.049 A 
ATOM     44  C   UNL     1       1.986  -5.101  13.129  1.00  0.00     0.074 A 
ATOM     45  C   UNL     1       3.482 -11.241  12.353  1.00  0.00     0.029 A 
ATOM     46  N   UNL     1       2.736  -9.164  12.066  1.00  0.00    -0.354 N 
ATOM     47  N   UNL     1       2.263  -6.356  12.870  1.00  0.00    -0.248 NA
ATOM     48  C   UNL     1       2.388  -4.663  14.472  1.00  0.00     0.031 C 
ATOM     49  C   UNL     1       3.721 -10.516  13.526  1.00  0.00     0.029 A 
ATOM     50  C   UNL     1       3.278  -9.216  13.339  1.00  0.00     0.049 A 
ATOM     51  H   UNL     1       2.327  -8.367  11.657  1.00  0.00     0.167 HD
ATOM     52  C   UNL     1       2.885  -6.853  14.006  1.00  0.00     0.074 A 
ATOM     53  C   UNL     1       2.964  -5.757  14.950  1.00  0.00     0.031 C 
ATOM     54  C   UNL     1       3.346  -8.105  14.252  1.00  0.00     0.037 A 
BRANCH  41  55
ATOM     55  C   UNL     1       2.605 -12.072   9.567  1.00  0.00     0.064 A 
ATOM     56  C   UNL     1       3.547 -12.327   8.559  1.00  0.00     0.173 A 
ATOM     57  C   UNL     1       1.864 -13.156  10.062  1.00  0.00     0.173 A 
ATOM     58  F   UNL     1       4.265 -11.321   8.037  1.00  0.00    -0.203 F 
ATOM     59  C   UNL     1       3.722 -13.612   8.051  1.00  0.00     0.198 A 
ATOM     60  C   UNL     1       2.060 -14.443   9.570  1.00  0.00     0.198 A 
ATOM     61  F   UNL     1       0.949 -12.966  11.024  1.00  0.00    -0.203 F 
ATOM     62  F   UNL     1       4.594 -13.824   7.056  1.00  0.00    -0.200 F 
ATOM     63  C   UNL     1       2.983 -14.669   8.561  1.00  0.00     0.200 A 
ATOM     64  F   UNL     1       1.349 -15.465  10.068  1.00  0.00    -0.200 F 
ATOM     65  F   UNL     1       3.155 -15.905   8.072  1.00  0.00    -0.200 F 
ENDBRANCH  41  55
BRANCH  42  66
ATOM     66  C   UNL     1       1.074  -2.692  12.739  1.00  0.00     0.064 A 
ATOM     67  C   UNL     1       2.132  -1.803  12.969  1.00  0.00     0.173 A 
ATOM     68  C   UNL     1      -0.228  -2.236  12.995  1.00  0.00     0.173 A 
ATOM     69  F   UNL     1       3.397  -2.199  12.764  1.00  0.00    -0.203 F 
ATOM     70  C   UNL     1       1.899  -0.516  13.453  1.00  0.00     0.198 A 
ATOM     71  C   UNL     1      -0.462  -0.941  13.451  1.00  0.00     0.198 A 
ATOM     72  F   UNL     1      -1.276  -3.049  12.794  1.00  0.00    -0.203 F 
ATOM     73  F   UNL     1       2.932   0.298  13.709  1.00  0.00    -0.200 F 
ATOM     74  C   UNL     1       0.602  -0.085  13.688  1.00  0.00     0.200 A 
ATOM     75  F   UNL     1      -1.718  -0.525  13.666  1.00  0.00    -0.200 F 
ATOM     76  F   UNL     1       0.379   1.153  14.151  1.00  0.00    -0.200 F 
ENDBRANCH  42  66
BRANCH  54  77
ATOM     77  C   UNL     1       3.999  -8.337  15.581  1.00  0.00     0.064 A 
ATOM     78  C   UNL     1       3.248  -8.421  16.762  1.00  0.00     0.173 A 
ATOM     79  C   UNL     1       5.389  -8.505  15.669  1.00  0.00     0.173 A 
ATOM     80  F   UNL     1       1.917  -8.251  16.729  1.00  0.00    -0.203 F 
ATOM     81  C   UNL     1       3.869  -8.637  17.989  1.00  0.00     0.198 A 
ATOM     82  C   UNL     1       6.003  -8.747  16.893  1.00  0.00     0.198 A 
ATOM     83  F   UNL     1       6.149  -8.440  14.565  1.00  0.00    -0.203 F 
ATOM     84  F   UNL     1       3.138  -8.666  19.112  1.00  0.00    -0.200 F 
ATOM     85  C   UNL     1       5.244  -8.805  18.053  1.00  0.00     0.200 A 
ATOM     86  F   UNL     1       7.331  -8.920  16.953  1.00  0.00    -0.200 F 
ATOM     87  F   UNL     1       5.840  -9.015  19.235  1.00  0.00    -0.200 F 
ENDBRANCH  54  77
ENDBRANCH  28  29
ENDBRANCH  21  23
ENDBRANCH  20  21
ENDBRANCH  19  20
ENDBRANCH  18  19
ENDBRANCH  17  18
ENDBRANCH   1  17
TORSDOF 18
