REMARK SMILES C[C@H](NC(=O)N[C@](C)(C(=O)OCCOC(=O)c1ccc(-c2c3nc(c(-c4c(F)c(F)c(F)c(F)c4F)c4ccc([nH]4)c(-c4c(F)c(F)c(F)c(F)c4F)c4nc(c(-c5c(F)c(F)c(F)c(F)c5F)c5ccc2[nH]5)C=C4)C=C3)cc1)C(F)(F)F)C(N)=O
REMARK SMILES IDX 12 1 11 2 9 3 10 4 7 5 8 6 6 7 3 8 4 9 5 11 2 13 1 14 84 15
REMARK SMILES IDX 85 16 86 17 80 20 81 21 82 22 83 23 13 24 14 25 15 26 16 27
REMARK SMILES IDX 17 28 18 29 79 30 19 31 78 32 20 33 21 34 22 35 72 36 23 37
REMARK SMILES IDX 77 38 71 39 73 40 24 41 76 42 70 43 69 44 25 46 57 47 37 48
REMARK SMILES IDX 56 49 38 50 41 51 55 52 74 53 39 54 40 55 54 57 75 58 42 59
REMARK SMILES IDX 26 60 27 61 35 62 28 63 29 64 33 65 36 66 30 67 31 68 34 69
REMARK SMILES IDX 32 70 58 71 59 72 67 73 60 74 61 75 65 76 68 77 62 78 63 79
REMARK SMILES IDX 66 80 64 81 43 82 44 83 52 84 45 85 46 86 50 87 53 88 47 89
REMARK SMILES IDX 48 90 51 91 49 92
REMARK H PARENT 3 10 6 12 85 18 85 19 73 45 41 56
REMARK Flexibility Score: inf
ROOT
ATOM      1  C   UNL     1       3.180   2.870  -2.800  1.00  0.00     0.274 C 
ENDROOT
BRANCH   1   2
ATOM      2  O   UNL     1       1.911   3.516  -2.550  1.00  0.00    -0.460 OA
BRANCH   2   3
ATOM      3  C   UNL     1       0.795   2.771  -2.834  1.00  0.00     0.341 C 
ATOM      4  O   UNL     1       0.796   1.897  -3.687  1.00  0.00    -0.249 OA
BRANCH   3   5
ATOM      5  C   UNL     1      -0.392   3.185  -1.923  1.00  0.00     0.232 C 
ATOM      6  C   UNL     1       0.237   3.450  -0.540  1.00  0.00     0.058 C 
BRANCH   5   7
ATOM      7  N   UNL     1      -1.026   4.432  -2.436  1.00  0.00    -0.315 N 
ATOM      8  N   UNL     1      -2.825   4.988  -0.967  1.00  0.00    -0.327 N 
ATOM      9  C   UNL     1      -2.167   5.062  -2.126  1.00  0.00     0.316 C 
ATOM     10  H   UNL     1      -3.759   5.279  -1.077  1.00  0.00     0.166 HD
ATOM     11  O   UNL     1      -2.656   5.767  -3.012  1.00  0.00    -0.249 OA
ATOM     12  H   UNL     1      -0.504   4.881  -3.140  1.00  0.00     0.166 HD
BRANCH   8  13
ATOM     13  C   UNL     1      -2.563   4.599   0.425  1.00  0.00     0.169 C 
ATOM     14  C   UNL     1      -3.278   5.551   1.385  1.00  0.00     0.041 C 
BRANCH  13  15
ATOM     15  C   UNL     1      -3.053   3.181   0.791  1.00  0.00     0.239 C 
ATOM     16  N   UNL     1      -2.286   2.489   1.689  1.00  0.00    -0.368 N 
ATOM     17  O   UNL     1      -4.103   2.693   0.387  1.00  0.00    -0.273 OA
ATOM     18  H   UNL     1      -1.442   2.876   2.016  1.00  0.00     0.159 HD
ATOM     19  H   UNL     1      -2.578   1.604   2.007  1.00  0.00     0.159 HD
ENDBRANCH  13  15
ENDBRANCH   8  13
ENDBRANCH   5   7
BRANCH   5  20
ATOM     20  C   UNL     1      -1.391   1.991  -1.904  1.00  0.00     0.422 C 
ATOM     21  F   UNL     1      -1.191   1.217  -0.811  1.00  0.00    -0.168 F 
ATOM     22  F   UNL     1      -2.675   2.404  -1.837  1.00  0.00    -0.168 F 
ATOM     23  F   UNL     1      -1.347   1.177  -2.977  1.00  0.00    -0.168 F 
ENDBRANCH   5  20
ENDBRANCH   3   5
ENDBRANCH   2   3
ENDBRANCH   1   2
BRANCH   1  24
ATOM     24  C   UNL     1       3.612   2.122  -1.532  1.00  0.00     0.275 C 
BRANCH  24  25
ATOM     25  O   UNL     1       2.764   0.967  -1.341  1.00  0.00    -0.458 OA
BRANCH  25  26
ATOM     26  C   UNL     1       2.625   0.535  -0.064  1.00  0.00     0.338 C 
ATOM     27  O   UNL     1       3.118   1.050   0.933  1.00  0.00    -0.246 OA
BRANCH  26  28
ATOM     28  C   UNL     1       1.744  -0.655  -0.003  1.00  0.00     0.060 A 
ATOM     29  C   UNL     1       0.643  -0.770  -0.845  1.00  0.00     0.016 A 
ATOM     30  C   UNL     1       1.959  -1.633   0.970  1.00  0.00     0.016 A 
ATOM     31  C   UNL     1      -0.302  -1.780  -0.641  1.00  0.00     0.010 A 
ATOM     32  C   UNL     1       1.087  -2.731   1.071  1.00  0.00     0.010 A 
ATOM     33  C   UNL     1      -0.076  -2.810   0.284  1.00  0.00    -0.014 A 
BRANCH  33  34
ATOM     34  C   UNL     1      -1.026  -3.965   0.403  1.00  0.00     0.031 A 
ATOM     35  C   UNL     1      -1.579  -4.388   1.745  1.00  0.00     0.074 A 
ATOM     36  C   UNL     1      -1.389  -4.669  -0.693  1.00  0.00     0.049 A 
ATOM     37  N   UNL     1      -2.228  -5.481   2.071  1.00  0.00    -0.248 NA
ATOM     38  C   UNL     1      -1.360  -3.472   2.874  1.00  0.00     0.031 C 
ATOM     39  C   UNL     1      -0.965  -4.384  -2.065  1.00  0.00     0.029 A 
ATOM     40  N   UNL     1      -2.199  -5.774  -0.828  1.00  0.00    -0.354 N 
ATOM     41  C   UNL     1      -2.432  -5.415   3.444  1.00  0.00     0.074 A 
ATOM     42  C   UNL     1      -1.844  -4.170   3.893  1.00  0.00     0.031 C 
ATOM     43  C   UNL     1      -1.552  -5.250  -2.902  1.00  0.00     0.029 A 
ATOM     44  C   UNL     1      -2.303  -6.226  -2.123  1.00  0.00     0.049 A 
ATOM     45  H   UNL     1      -2.661  -6.200  -0.070  1.00  0.00     0.167 HD
ATOM     46  C   UNL     1      -3.049  -6.310   4.255  1.00  0.00     0.037 A 
ATOM     47  C   UNL     1      -2.883  -7.328  -2.636  1.00  0.00     0.037 A 
ATOM     48  C   UNL     1      -3.704  -7.512   3.802  1.00  0.00     0.049 A 
ATOM     49  C   UNL     1      -3.554  -8.306  -1.715  1.00  0.00     0.074 A 
ATOM     50  C   UNL     1      -4.392  -8.454   4.550  1.00  0.00     0.029 A 
ATOM     51  N   UNL     1      -3.770  -7.929   2.482  1.00  0.00    -0.354 N 
ATOM     52  N   UNL     1      -3.694  -8.253  -0.414  1.00  0.00    -0.248 NA
ATOM     53  C   UNL     1      -4.130  -9.509  -2.333  1.00  0.00     0.031 C 
ATOM     54  C   UNL     1      -4.838  -9.461   3.689  1.00  0.00     0.029 A 
ATOM     55  C   UNL     1      -4.471  -9.123   2.398  1.00  0.00     0.049 A 
ATOM     56  H   UNL     1      -3.378  -7.449   1.717  1.00  0.00     0.167 HD
ATOM     57  C   UNL     1      -4.377  -9.408  -0.059  1.00  0.00     0.074 A 
ATOM     58  C   UNL     1      -4.649 -10.129  -1.284  1.00  0.00     0.031 C 
ATOM     59  C   UNL     1      -4.736  -9.835   1.175  1.00  0.00     0.037 A 
BRANCH  46  60
ATOM     60  C   UNL     1      -3.028  -6.054   5.736  1.00  0.00     0.064 A 
ATOM     61  C   UNL     1      -3.821  -5.066   6.335  1.00  0.00     0.173 A 
ATOM     62  C   UNL     1      -2.255  -6.873   6.577  1.00  0.00     0.173 A 
ATOM     63  F   UNL     1      -4.570  -4.250   5.578  1.00  0.00    -0.203 F 
ATOM     64  C   UNL     1      -3.829  -4.895   7.719  1.00  0.00     0.198 A 
ATOM     65  C   UNL     1      -2.287  -6.717   7.960  1.00  0.00     0.198 A 
ATOM     66  F   UNL     1      -1.486  -7.841   6.057  1.00  0.00    -0.203 F 
ATOM     67  F   UNL     1      -4.568  -3.921   8.268  1.00  0.00    -0.200 F 
ATOM     68  C   UNL     1      -3.070  -5.726   8.530  1.00  0.00     0.200 A 
ATOM     69  F   UNL     1      -1.563  -7.531   8.742  1.00  0.00    -0.200 F 
ATOM     70  F   UNL     1      -3.090  -5.568   9.861  1.00  0.00    -0.200 F 
ENDBRANCH  46  60
BRANCH  47  71
ATOM     71  C   UNL     1      -2.793  -7.599  -4.097  1.00  0.00     0.064 A 
ATOM     72  C   UNL     1      -3.933  -7.571  -4.911  1.00  0.00     0.173 A 
ATOM     73  C   UNL     1      -1.564  -7.895  -4.706  1.00  0.00     0.173 A 
ATOM     74  F   UNL     1      -5.136  -7.325  -4.371  1.00  0.00    -0.203 F 
ATOM     75  C   UNL     1      -3.848  -7.839  -6.276  1.00  0.00     0.198 A 
ATOM     76  C   UNL     1      -1.475  -8.126  -6.076  1.00  0.00     0.198 A 
ATOM     77  F   UNL     1      -0.442  -7.938  -3.972  1.00  0.00    -0.203 F 
ATOM     78  F   UNL     1      -4.960  -7.855  -7.024  1.00  0.00    -0.200 F 
ATOM     79  C   UNL     1      -2.618  -8.107  -6.859  1.00  0.00     0.200 A 
ATOM     80  F   UNL     1      -0.282  -8.368  -6.636  1.00  0.00    -0.200 F 
ATOM     81  F   UNL     1      -2.537  -8.356  -8.173  1.00  0.00    -0.200 F 
ENDBRANCH  47  71
BRANCH  59  82
ATOM     82  C   UNL     1      -5.484 -11.132   1.257  1.00  0.00     0.064 A 
ATOM     83  C   UNL     1      -4.847 -12.362   1.036  1.00  0.00     0.173 A 
ATOM     84  C   UNL     1      -6.851 -11.147   1.573  1.00  0.00     0.173 A 
ATOM     85  F   UNL     1      -3.545 -12.399   0.713  1.00  0.00    -0.203 F 
ATOM     86  C   UNL     1      -5.557 -13.558   1.102  1.00  0.00     0.198 A 
ATOM     87  C   UNL     1      -7.552 -12.346   1.665  1.00  0.00     0.198 A 
ATOM     88  F   UNL     1      -7.506  -9.998   1.797  1.00  0.00    -0.203 F 
ATOM     89  F   UNL     1      -4.939 -14.717   0.838  1.00  0.00    -0.200 F 
ATOM     90  C   UNL     1      -6.906 -13.549   1.422  1.00  0.00     0.200 A 
ATOM     91  F   UNL     1      -8.853 -12.338   1.984  1.00  0.00    -0.200 F 
ATOM     92  F   UNL     1      -7.588 -14.701   1.485  1.00  0.00    -0.200 F 
ENDBRANCH  59  82
ENDBRANCH  33  34
ENDBRANCH  26  28
ENDBRANCH  25  26
ENDBRANCH  24  25
ENDBRANCH   1  24
TORSDOF 15
