REMARK SMILES COc1cccc(-c2nn(-c3cc4c(cc3C(N)=O)OCO4)cc2C(=O)OCCOC(=O)c2ccc(-c3c4nc(c(-c5c(F)c(F)c(F)c(F)c5F)c5ccc([nH]5)c(-c5c(F)c(F)c(F)c(F)c5F)c5nc(c(-c6c(F)c(F)c(F)c(F)c6F)c6ccc3[nH]6)C=C5)C=C4)cc2)c1
REMARK SMILES IDX 28 1 27 2 25 3 26 4 24 5 8 6 9 7 10 8 23 9 7 10 3 11 4 12
REMARK SMILES IDX 96 13 5 14 6 15 2 16 1 17 11 18 12 19 16 20 13 21 15 22
REMARK SMILES IDX 14 23 22 24 20 25 21 26 17 27 18 28 19 29 29 32 30 33 31 34
REMARK SMILES IDX 32 35 33 36 34 37 95 38 35 39 94 40 36 41 37 42 38 43 88 44
REMARK SMILES IDX 39 45 93 46 87 47 89 48 40 49 92 50 86 51 85 52 41 54 73 55
REMARK SMILES IDX 53 56 72 57 54 58 57 59 71 60 90 61 55 62 56 63 70 65 91 66
REMARK SMILES IDX 58 67 42 68 43 69 51 70 44 71 45 72 49 73 52 74 46 75 47 76
REMARK SMILES IDX 50 77 48 78 74 79 75 80 83 81 76 82 77 83 81 84 84 85 78 86
REMARK SMILES IDX 79 87 82 88 80 89 59 90 60 91 68 92 61 93 62 94 66 95 69 96
REMARK SMILES IDX 63 97 64 98 67 99 65 100
REMARK H PARENT 18 30 18 31 89 53 57 64
REMARK Flexibility Score: inf
ROOT
ATOM      1  C   UNL     1       4.008   7.241   2.055  1.00  0.00     0.275 C 
ENDROOT
BRANCH   1   2
ATOM      2  O   UNL     1       4.621   6.442   1.029  1.00  0.00    -0.458 OA
BRANCH   2   3
ATOM      3  C   UNL     1       3.861   5.464   0.429  1.00  0.00     0.342 C 
ATOM      4  O   UNL     1       2.710   5.212   0.728  1.00  0.00    -0.246 OA
BRANCH   3   5
ATOM      5  C   UNL     1       4.606   4.771  -0.609  1.00  0.00     0.106 A 
ATOM      6  C   UNL     1       4.215   3.762  -1.540  1.00  0.00     0.107 A 
ATOM      7  N   UNL     1       5.264   3.351  -2.281  1.00  0.00    -0.167 NA
ATOM      8  N   UNL     1       6.328   3.927  -1.673  1.00  0.00    -0.239 N 
ATOM      9  C   UNL     1       5.939   4.980  -0.895  1.00  0.00     0.131 A 
BRANCH   6  10
ATOM     10  C   UNL     1       2.880   3.222  -1.779  1.00  0.00     0.007 A 
ATOM     11  C   UNL     1       1.083   1.687  -1.233  1.00  0.00     0.119 A 
ATOM     12  C   UNL     1       0.281   2.304  -2.199  1.00  0.00     0.046 A 
ATOM     13  C   UNL     1       2.379   2.162  -1.007  1.00  0.00     0.056 A 
ATOM     14  C   UNL     1       0.781   3.341  -2.983  1.00  0.00     0.005 A 
ATOM     15  C   UNL     1       2.091   3.776  -2.793  1.00  0.00     0.011 A 
BRANCH  11  16
ATOM     16  O   UNL     1       0.474   0.636  -0.602  1.00  0.00    -0.497 OA
ATOM     17  C   UNL     1       1.230  -0.082   0.362  1.00  0.00     0.278 C 
ENDBRANCH  11  16
ENDBRANCH   6  10
BRANCH   8  18
ATOM     18  C   UNL     1       7.660   3.510  -1.912  1.00  0.00     0.081 A 
ATOM     19  C   UNL     1       8.005   3.154  -3.231  1.00  0.00     0.079 A 
ATOM     20  C   UNL     1       8.629   3.467  -0.862  1.00  0.00     0.069 A 
ATOM     21  C   UNL     1       9.321   2.831  -3.478  1.00  0.00     0.167 A 
ATOM     22  C   UNL     1       9.975   3.242  -1.196  1.00  0.00     0.066 A 
ATOM     23  C   UNL     1      10.278   2.902  -2.495  1.00  0.00     0.166 A 
ATOM     24  O   UNL     1       9.842   2.406  -4.661  1.00  0.00    -0.454 OA
ATOM     25  O   UNL     1      11.511   2.531  -2.936  1.00  0.00    -0.454 OA
ATOM     26  C   UNL     1      11.168   2.020  -4.241  1.00  0.00     0.468 C 
BRANCH  20  27
ATOM     27  C   UNL     1       8.239   3.406   0.596  1.00  0.00     0.251 C 
ATOM     28  N   UNL     1       9.180   3.021   1.512  1.00  0.00    -0.366 N 
ATOM     29  O   UNL     1       7.106   3.589   1.018  1.00  0.00    -0.269 OA
ATOM     30  H   UNL     1      10.108   2.860   1.225  1.00  0.00     0.159 HD
ATOM     31  H   UNL     1       8.929   2.905   2.457  1.00  0.00     0.159 HD
ENDBRANCH  20  27
ENDBRANCH   8  18
ENDBRANCH   3   5
ENDBRANCH   2   3
ENDBRANCH   1   2
BRANCH   1  32
ATOM     32  C   UNL     1       3.409   8.534   1.509  1.00  0.00     0.275 C 
BRANCH  32  33
ATOM     33  O   UNL     1       2.242   8.268   0.738  1.00  0.00    -0.458 OA
BRANCH  33  34
ATOM     34  C   UNL     1       2.505   8.000  -0.557  1.00  0.00     0.338 C 
ATOM     35  O   UNL     1       3.598   7.914  -1.094  1.00  0.00    -0.246 OA
BRANCH  34  36
ATOM     36  C   UNL     1       1.261   7.911  -1.310  1.00  0.00     0.060 A 
ATOM     37  C   UNL     1       1.340   7.297  -2.562  1.00  0.00     0.016 A 
ATOM     38  C   UNL     1       0.141   8.643  -0.900  1.00  0.00     0.016 A 
ATOM     39  C   UNL     1       0.357   7.547  -3.484  1.00  0.00     0.010 A 
ATOM     40  C   UNL     1      -0.841   8.902  -1.824  1.00  0.00     0.010 A 
ATOM     41  C   UNL     1      -0.670   8.419  -3.122  1.00  0.00    -0.014 A 
BRANCH  41  42
ATOM     42  C   UNL     1      -1.577   8.839  -4.167  1.00  0.00     0.031 A 
ATOM     43  C   UNL     1      -2.527   7.774  -4.569  1.00  0.00     0.074 A 
ATOM     44  C   UNL     1      -1.526  10.116  -4.601  1.00  0.00     0.049 A 
ATOM     45  N   UNL     1      -2.719   7.279  -5.745  1.00  0.00    -0.248 NA
ATOM     46  C   UNL     1      -3.247   7.058  -3.499  1.00  0.00     0.031 C 
ATOM     47  C   UNL     1      -0.736  11.215  -4.022  1.00  0.00     0.029 A 
ATOM     48  N   UNL     1      -2.258  10.742  -5.563  1.00  0.00    -0.354 N 
ATOM     49  C   UNL     1      -3.739   6.338  -5.595  1.00  0.00     0.074 A 
ATOM     50  C   UNL     1      -3.900   6.122  -4.186  1.00  0.00     0.031 C 
ATOM     51  C   UNL     1      -1.215  12.396  -4.465  1.00  0.00     0.029 A 
ATOM     52  C   UNL     1      -2.233  12.132  -5.460  1.00  0.00     0.049 A 
ATOM     53  H   UNL     1      -2.756  10.261  -6.262  1.00  0.00     0.167 HD
ATOM     54  C   UNL     1      -4.566   6.056  -6.636  1.00  0.00     0.037 A 
ATOM     55  C   UNL     1      -3.088  12.976  -6.085  1.00  0.00     0.037 A 
ATOM     56  C   UNL     1      -3.959   6.438  -7.883  1.00  0.00     0.049 A 
ATOM     57  C   UNL     1      -3.675  12.232  -7.226  1.00  0.00     0.074 A 
ATOM     58  C   UNL     1      -2.991   5.923  -8.715  1.00  0.00     0.029 A 
ATOM     59  N   UNL     1      -4.104   7.765  -8.186  1.00  0.00    -0.354 N 
ATOM     60  N   UNL     1      -2.977  11.822  -8.250  1.00  0.00    -0.248 NA
ATOM     61  C   UNL     1      -4.973  11.588  -7.057  1.00  0.00     0.031 C 
ATOM     62  C   UNL     1      -2.427   7.041  -9.399  1.00  0.00     0.029 A 
ATOM     63  C   UNL     1      -3.098   8.198  -9.005  1.00  0.00     0.049 A 
ATOM     64  H   UNL     1      -4.836   8.334  -7.857  1.00  0.00     0.167 HD
ATOM     65  C   UNL     1      -3.550  10.612  -8.599  1.00  0.00     0.074 A 
ATOM     66  C   UNL     1      -4.855  10.602  -7.950  1.00  0.00     0.031 C 
ATOM     67  C   UNL     1      -2.789   9.606  -9.119  1.00  0.00     0.037 A 
BRANCH  54  68
ATOM     68  C   UNL     1      -6.073   5.951  -6.501  1.00  0.00     0.064 A 
ATOM     69  C   UNL     1      -6.840   5.628  -7.640  1.00  0.00     0.173 A 
ATOM     70  C   UNL     1      -6.806   6.470  -5.410  1.00  0.00     0.173 A 
ATOM     71  F   UNL     1      -6.251   5.149  -8.746  1.00  0.00    -0.203 F 
ATOM     72  C   UNL     1      -8.216   5.875  -7.702  1.00  0.00     0.198 A 
ATOM     73  C   UNL     1      -8.185   6.670  -5.459  1.00  0.00     0.198 A 
ATOM     74  F   UNL     1      -6.217   6.913  -4.295  1.00  0.00    -0.203 F 
ATOM     75  F   UNL     1      -8.880   5.661  -8.846  1.00  0.00    -0.200 F 
ATOM     76  C   UNL     1      -8.886   6.401  -6.614  1.00  0.00     0.200 A 
ATOM     77  F   UNL     1      -8.810   7.206  -4.400  1.00  0.00    -0.200 F 
ATOM     78  F   UNL     1     -10.190   6.695  -6.689  1.00  0.00    -0.200 F 
ENDBRANCH  54  68
BRANCH  55  79
ATOM     79  C   UNL     1      -3.699  14.204  -5.523  1.00  0.00     0.064 A 
ATOM     80  C   UNL     1      -4.266  15.183  -6.352  1.00  0.00     0.173 A 
ATOM     81  C   UNL     1      -3.981  14.307  -4.146  1.00  0.00     0.173 A 
ATOM     82  F   UNL     1      -4.083  15.128  -7.679  1.00  0.00    -0.203 F 
ATOM     83  C   UNL     1      -5.084  16.195  -5.836  1.00  0.00     0.198 A 
ATOM     84  C   UNL     1      -4.793  15.317  -3.632  1.00  0.00     0.198 A 
ATOM     85  F   UNL     1      -3.553  13.372  -3.285  1.00  0.00    -0.203 F 
ATOM     86  F   UNL     1      -5.656  17.081  -6.663  1.00  0.00    -0.200 F 
ATOM     87  C   UNL     1      -5.355  16.254  -4.478  1.00  0.00     0.200 A 
ATOM     88  F   UNL     1      -5.079  15.339  -2.322  1.00  0.00    -0.200 F 
ATOM     89  F   UNL     1      -6.188  17.185  -3.991  1.00  0.00    -0.200 F 
ENDBRANCH  55  79
BRANCH  67  90
ATOM     90  C   UNL     1      -1.465   9.979  -9.712  1.00  0.00     0.064 A 
ATOM     91  C   UNL     1      -0.366  10.446  -8.973  1.00  0.00     0.173 A 
ATOM     92  C   UNL     1      -1.279   9.755 -11.082  1.00  0.00     0.173 A 
ATOM     93  F   UNL     1      -0.448  10.606  -7.646  1.00  0.00    -0.203 F 
ATOM     94  C   UNL     1       0.855  10.710  -9.593  1.00  0.00     0.198 A 
ATOM     95  C   UNL     1      -0.050   9.984 -11.690  1.00  0.00     0.198 A 
ATOM     96  F   UNL     1      -2.285   9.266 -11.824  1.00  0.00    -0.203 F 
ATOM     97  F   UNL     1       1.889  11.171  -8.873  1.00  0.00    -0.200 F 
ATOM     98  C   UNL     1       1.013  10.472 -10.949  1.00  0.00     0.200 A 
ATOM     99  F   UNL     1       0.108   9.707 -12.992  1.00  0.00    -0.200 F 
ATOM    100  F   UNL     1       2.197  10.690 -11.538  1.00  0.00    -0.200 F 
ENDBRANCH  67  90
ENDBRANCH  41  42
ENDBRANCH  34  36
ENDBRANCH  33  34
ENDBRANCH  32  33
ENDBRANCH   1  32
TORSDOF 15
