REMARK SMILES Nc1ccc(O)c(C(=O)OCCOC(=O)c2ccc(-c3c4nc(c(-c5c(F)c(F)c(F)c(F)c5F)c5ccc([nH]5)c(-c5c(F)c(F)c(F)c(F)c5F)c5nc(c(-c6c(F)c(F)c(F)c(F)c6F)c6ccc3[nH]6)C=C5)C=C4)cc2)c1
REMARK SMILES IDX 12 1 11 2 10 3 8 4 9 5 7 6 2 7 3 8 79 9 4 10 5 11 1 12 6 15
REMARK SMILES IDX 13 17 14 18 15 19 16 20 17 21 78 22 18 23 77 24 19 25 20 26
REMARK SMILES IDX 21 27 71 28 22 29 76 30 70 31 72 32 23 33 75 34 69 35 68 36
REMARK SMILES IDX 24 38 56 39 36 40 55 41 37 42 40 43 54 44 73 45 38 46 39 47
REMARK SMILES IDX 53 49 74 50 41 51 25 52 26 53 34 54 27 55 28 56 32 57 35 58
REMARK SMILES IDX 29 59 30 60 33 61 31 62 57 63 58 64 66 65 59 66 60 67 64 68
REMARK SMILES IDX 67 69 61 70 62 71 65 72 63 73 42 74 43 75 51 76 44 77 45 78
REMARK SMILES IDX 49 79 52 80 46 81 47 82 50 83 48 84
REMARK H PARENT 1 13 1 14 6 16 72 37 40 48
REMARK Flexibility Score: inf
ROOT
ATOM      1  C   UNL     1       2.188  -4.896  -1.060  1.00  0.00     0.275 C 
ENDROOT
BRANCH   1   2
ATOM      2  C   UNL     1       1.134  -4.618   0.016  1.00  0.00     0.275 C 
BRANCH   2   3
ATOM      3  O   UNL     1       0.365  -3.429  -0.267  1.00  0.00    -0.458 OA
BRANCH   3   4
ATOM      4  C   UNL     1       0.712  -2.326   0.438  1.00  0.00     0.342 C 
ATOM      5  O   UNL     1       1.625  -2.246   1.247  1.00  0.00    -0.246 OA
BRANCH   4   6
ATOM      6  C   UNL     1      -0.169  -1.189   0.107  1.00  0.00     0.103 A 
ATOM      7  C   UNL     1      -2.382  -0.195   0.187  1.00  0.00     0.032 A 
ATOM      8  C   UNL     1      -1.811   1.057  -0.063  1.00  0.00     0.029 A 
ATOM      9  C   UNL     1      -1.546  -1.308   0.326  1.00  0.00     0.045 A 
ATOM     10  C   UNL     1      -0.445   1.180  -0.304  1.00  0.00     0.049 A 
ATOM     11  C   UNL     1       0.360   0.050  -0.263  1.00  0.00     0.130 A 
BRANCH   7  12
ATOM     12  N   UNL     1      -3.741  -0.296   0.442  1.00  0.00    -0.399 N 
ATOM     13  H   UNL     1      -4.321   0.493   0.341  1.00  0.00     0.156 HD
ATOM     14  H   UNL     1      -4.125  -1.157   0.725  1.00  0.00     0.156 HD
ENDBRANCH   7  12
BRANCH  11  15
ATOM     15  O   UNL     1       1.650   0.232  -0.659  1.00  0.00    -0.507 OA
ATOM     16  H   UNL     1       1.951   1.087  -0.896  1.00  0.00     0.293 HD
ENDBRANCH  11  15
ENDBRANCH   4   6
ENDBRANCH   3   4
ENDBRANCH   2   3
ENDBRANCH   1   2
BRANCH   1  17
ATOM     17  O   UNL     1       3.332  -4.026  -0.938  1.00  0.00    -0.458 OA
BRANCH  17  18
ATOM     18  C   UNL     1       3.281  -2.914  -1.700  1.00  0.00     0.338 C 
ATOM     19  O   UNL     1       2.382  -2.557  -2.445  1.00  0.00    -0.246 OA
BRANCH  18  20
ATOM     20  C   UNL     1       4.423  -2.030  -1.434  1.00  0.00     0.060 A 
ATOM     21  C   UNL     1       4.270  -1.102  -0.412  1.00  0.00     0.016 A 
ATOM     22  C   UNL     1       5.460  -1.896  -2.357  1.00  0.00     0.016 A 
ATOM     23  C   UNL     1       5.047   0.048  -0.404  1.00  0.00     0.010 A 
ATOM     24  C   UNL     1       6.334  -0.802  -2.257  1.00  0.00     0.010 A 
ATOM     25  C   UNL     1       6.105   0.212  -1.309  1.00  0.00    -0.014 A 
BRANCH  25  26
ATOM     26  C   UNL     1       6.922   1.461  -1.264  1.00  0.00     0.031 A 
ATOM     27  C   UNL     1       7.066   2.339  -2.481  1.00  0.00     0.074 A 
ATOM     28  C   UNL     1       7.494   1.850  -0.105  1.00  0.00     0.049 A 
ATOM     29  N   UNL     1       7.864   3.361  -2.674  1.00  0.00    -0.248 NA
ATOM     30  C   UNL     1       6.213   2.026  -3.638  1.00  0.00     0.031 C 
ATOM     31  C   UNL     1       7.396   1.134   1.169  1.00  0.00     0.029 A 
ATOM     32  N   UNL     1       8.247   2.957   0.200  1.00  0.00    -0.354 N 
ATOM     33  C   UNL     1       7.661   3.764  -3.988  1.00  0.00     0.074 A 
ATOM     34  C   UNL     1       6.653   2.889  -4.545  1.00  0.00     0.031 C 
ATOM     35  C   UNL     1       7.995   1.853   2.127  1.00  0.00     0.029 A 
ATOM     36  C   UNL     1       8.621   3.020   1.520  1.00  0.00     0.049 A 
ATOM     37  H   UNL     1       8.494   3.641  -0.465  1.00  0.00     0.167 HD
ATOM     38  C   UNL     1       8.269   4.769  -4.665  1.00  0.00     0.037 A 
ATOM     39  C   UNL     1       9.419   3.887   2.169  1.00  0.00     0.037 A 
ATOM     40  C   UNL     1       9.214   5.689  -4.084  1.00  0.00     0.049 A 
ATOM     41  C   UNL     1      10.079   4.991   1.397  1.00  0.00     0.074 A 
ATOM     42  C   UNL     1       9.888   6.736  -4.691  1.00  0.00     0.029 A 
ATOM     43  N   UNL     1       9.595   5.691  -2.751  1.00  0.00    -0.354 N 
ATOM     44  N   UNL     1       9.966   5.292   0.128  1.00  0.00    -0.248 NA
ATOM     45  C   UNL     1      11.006   5.854   2.142  1.00  0.00     0.031 C 
ATOM     46  C   UNL     1      10.694   7.357  -3.730  1.00  0.00     0.029 A 
ATOM     47  C   UNL     1      10.495   6.719  -2.517  1.00  0.00     0.049 A 
ATOM     48  H   UNL     1       9.274   5.056  -2.070  1.00  0.00     0.167 HD
ATOM     49  C   UNL     1      10.810   6.370  -0.083  1.00  0.00     0.074 A 
ATOM     50  C   UNL     1      11.405   6.694   1.197  1.00  0.00     0.031 C 
ATOM     51  C   UNL     1      11.081   7.023  -1.239  1.00  0.00     0.037 A 
BRANCH  38  52
ATOM     52  C   UNL     1       7.966   4.913  -6.128  1.00  0.00     0.064 A 
ATOM     53  C   UNL     1       6.762   5.460  -6.590  1.00  0.00     0.173 A 
ATOM     54  C   UNL     1       8.934   4.555  -7.081  1.00  0.00     0.173 A 
ATOM     55  F   UNL     1       5.802   5.808  -5.721  1.00  0.00    -0.203 F 
ATOM     56  C   UNL     1       6.531   5.631  -7.953  1.00  0.00     0.198 A 
ATOM     57  C   UNL     1       8.709   4.749  -8.441  1.00  0.00     0.198 A 
ATOM     58  F   UNL     1      10.107   4.034  -6.691  1.00  0.00    -0.203 F 
ATOM     59  F   UNL     1       5.360   6.129  -8.376  1.00  0.00    -0.200 F 
ATOM     60  C   UNL     1       7.507   5.284  -8.877  1.00  0.00     0.200 A 
ATOM     61  F   UNL     1       9.658   4.424  -9.330  1.00  0.00    -0.200 F 
ATOM     62  F   UNL     1       7.287   5.461 -10.187  1.00  0.00    -0.200 F 
ENDBRANCH  38  52
BRANCH  39  63
ATOM     63  C   UNL     1       9.681   3.700   3.619  1.00  0.00     0.064 A 
ATOM     64  C   UNL     1       9.188   4.607   4.566  1.00  0.00     0.173 A 
ATOM     65  C   UNL     1      10.411   2.597   4.088  1.00  0.00     0.173 A 
ATOM     66  F   UNL     1       8.510   5.692   4.164  1.00  0.00    -0.203 F 
ATOM     67  C   UNL     1       9.415   4.417   5.928  1.00  0.00     0.198 A 
ATOM     68  C   UNL     1      10.609   2.391   5.451  1.00  0.00     0.198 A 
ATOM     69  F   UNL     1      10.907   1.702   3.222  1.00  0.00    -0.203 F 
ATOM     70  F   UNL     1       8.963   5.317   6.812  1.00  0.00    -0.200 F 
ATOM     71  C   UNL     1      10.115   3.304   6.369  1.00  0.00     0.200 A 
ATOM     72  F   UNL     1      11.272   1.306   5.872  1.00  0.00    -0.200 F 
ATOM     73  F   UNL     1      10.320   3.115   7.680  1.00  0.00    -0.200 F 
ENDBRANCH  39  63
BRANCH  51  74
ATOM     74  C   UNL     1      12.057   8.157  -1.161  1.00  0.00     0.064 A 
ATOM     75  C   UNL     1      13.434   7.923  -1.039  1.00  0.00     0.173 A 
ATOM     76  C   UNL     1      11.613   9.485  -1.224  1.00  0.00     0.173 A 
ATOM     77  F   UNL     1      13.902   6.669  -0.957  1.00  0.00    -0.203 F 
ATOM     78  C   UNL     1      14.332   8.983  -0.959  1.00  0.00     0.198 A 
ATOM     79  C   UNL     1      12.517  10.542  -1.165  1.00  0.00     0.198 A 
ATOM     80  F   UNL     1      10.305   9.757  -1.343  1.00  0.00    -0.203 F 
ATOM     81  F   UNL     1      15.641   8.740  -0.798  1.00  0.00    -0.200 F 
ATOM     82  C   UNL     1      13.874  10.291  -1.026  1.00  0.00     0.200 A 
ATOM     83  F   UNL     1      12.074  11.805  -1.234  1.00  0.00    -0.200 F 
ATOM     84  F   UNL     1      14.740  11.310  -0.945  1.00  0.00    -0.200 F 
ENDBRANCH  51  74
ENDBRANCH  25  26
ENDBRANCH  18  20
ENDBRANCH  17  18
ENDBRANCH   1  17
TORSDOF 13
