REMARK SMILES CC[C@](C)(NC(=O)NC[C@@H](C)[NH+](C)C)C(=O)OCCOC(=O)c1ccc(-c2c3nc(c(-c4c(F)c(F)c(F)c(F)c4F)c4ccc([nH]4)c(-c4c(F)c(F)c(F)c(F)c4F)c4nc(c(-c5c(F)c(F)c(F)c(F)c5F)c5ccc2[nH]5)C=C4)C=C3)cc1
REMARK SMILES IDX 18 1 17 2 15 3 16 4 3 5 4 6 2 7 1 8 5 9 6 10 7 12 8 13 9 15
REMARK SMILES IDX 10 16 11 17 12 18 13 19 14 20 19 22 20 23 21 24 22 25 23 26
REMARK SMILES IDX 24 27 85 28 25 29 84 30 26 31 27 32 28 33 78 34 29 35 83 36
REMARK SMILES IDX 77 37 79 38 30 39 82 40 76 41 75 42 31 44 63 45 43 46 62 47
REMARK SMILES IDX 44 48 47 49 61 50 80 51 45 52 46 53 60 55 81 56 48 57 32 58
REMARK SMILES IDX 33 59 41 60 34 61 35 62 39 63 42 64 36 65 37 66 40 67 38 68
REMARK SMILES IDX 64 69 65 70 73 71 66 72 67 73 71 74 74 75 68 76 69 77 72 78
REMARK SMILES IDX 70 79 49 80 50 81 58 82 51 83 52 84 56 85 59 86 53 87 54 88
REMARK SMILES IDX 57 89 55 90
REMARK H PARENT 5 11 8 14 12 21 79 43 47 54
REMARK Flexibility Score: inf
ROOT
ATOM      1  C   UNL     1       4.518  -1.386  -1.798  1.00  0.00     0.274 C 
ENDROOT
BRANCH   1   2
ATOM      2  O   UNL     1       3.144  -1.845  -1.768  1.00  0.00    -0.460 OA
BRANCH   2   3
ATOM      3  C   UNL     1       2.381  -1.529  -0.680  1.00  0.00     0.331 C 
ATOM      4  O   UNL     1       2.721  -0.691   0.147  1.00  0.00    -0.249 OA
BRANCH   3   5
ATOM      5  C   UNL     1       1.032  -2.349  -0.635  1.00  0.00     0.136 C 
ATOM      6  C   UNL     1      -0.090  -1.292  -0.825  1.00  0.00     0.047 C 
BRANCH   5   7
ATOM      7  C   UNL     1       0.712  -3.075   0.710  1.00  0.00     0.037 C 
ATOM      8  C   UNL     1       1.134  -2.368   1.986  1.00  0.00     0.007 C 
ENDBRANCH   5   7
BRANCH   5   9
ATOM      9  N   UNL     1       0.915  -3.338  -1.748  1.00  0.00    -0.322 N 
ATOM     10  C   UNL     1       1.420  -4.562  -1.993  1.00  0.00     0.315 C 
ATOM     11  H   UNL     1       0.332  -3.019  -2.475  1.00  0.00     0.166 HD
ATOM     12  O   UNL     1       0.892  -5.234  -2.881  1.00  0.00    -0.249 OA
ATOM     13  N   UNL     1       2.458  -5.101  -1.320  1.00  0.00    -0.332 N 
ATOM     14  H   UNL     1       2.498  -6.085  -1.313  1.00  0.00     0.165 HD
BRANCH  13  15
ATOM     15  C   UNL     1       3.516  -4.424  -0.609  1.00  0.00     0.182 C 
BRANCH  15  16
ATOM     16  C   UNL     1       4.487  -5.242   0.270  1.00  0.00     0.200 C 
ATOM     17  C   UNL     1       5.685  -5.665  -0.595  1.00  0.00     0.077 C 
BRANCH  16  18
ATOM     18  N   UNL     1       4.859  -4.495   1.508  1.00  0.00    -0.336 N 
ATOM     19  C   UNL     1       5.805  -5.212   2.357  1.00  0.00     0.332 C 
ATOM     20  C   UNL     1       5.310  -3.116   1.337  1.00  0.00     0.332 C 
ATOM     21  H   UNL     1       3.954  -4.435   1.974  1.00  0.00     0.347 HD
ENDBRANCH  16  18
ENDBRANCH  15  16
ENDBRANCH  13  15
ENDBRANCH   5   9
ENDBRANCH   3   5
ENDBRANCH   2   3
ENDBRANCH   1   2
BRANCH   1  22
ATOM     22  C   UNL     1       5.157  -1.776  -3.141  1.00  0.00     0.275 C 
BRANCH  22  23
ATOM     23  O   UNL     1       4.870  -0.766  -4.115  1.00  0.00    -0.458 OA
BRANCH  23  24
ATOM     24  C   UNL     1       3.564  -0.757  -4.473  1.00  0.00     0.338 C 
ATOM     25  O   UNL     1       2.858  -1.716  -4.712  1.00  0.00    -0.246 OA
BRANCH  24  26
ATOM     26  C   UNL     1       3.064   0.583  -4.122  1.00  0.00     0.060 A 
ATOM     27  C   UNL     1       1.911   0.633  -3.333  1.00  0.00     0.016 A 
ATOM     28  C   UNL     1       3.758   1.743  -4.457  1.00  0.00     0.016 A 
ATOM     29  C   UNL     1       1.416   1.847  -2.887  1.00  0.00     0.010 A 
ATOM     30  C   UNL     1       3.246   2.968  -4.048  1.00  0.00     0.010 A 
ATOM     31  C   UNL     1       2.053   3.017  -3.300  1.00  0.00    -0.014 A 
BRANCH  31  32
ATOM     32  C   UNL     1       1.319   4.290  -3.235  1.00  0.00     0.031 A 
ATOM     33  C   UNL     1       0.651   4.734  -4.502  1.00  0.00     0.074 A 
ATOM     34  C   UNL     1       1.259   5.003  -2.102  1.00  0.00     0.049 A 
ATOM     35  N   UNL     1       0.175   5.902  -4.828  1.00  0.00    -0.248 NA
ATOM     36  C   UNL     1       0.530   3.716  -5.563  1.00  0.00     0.031 C 
ATOM     37  C   UNL     1       1.791   4.584  -0.807  1.00  0.00     0.029 A 
ATOM     38  N   UNL     1       0.740   6.248  -1.872  1.00  0.00    -0.354 N 
ATOM     39  C   UNL     1      -0.248   5.773  -6.145  1.00  0.00     0.074 A 
ATOM     40  C   UNL     1       0.025   4.419  -6.562  1.00  0.00     0.031 C 
ATOM     41  C   UNL     1       1.597   5.574   0.082  1.00  0.00     0.029 A 
ATOM     42  C   UNL     1       0.990   6.711  -0.604  1.00  0.00     0.049 A 
ATOM     43  H   UNL     1       0.237   6.759  -2.546  1.00  0.00     0.167 HD
ATOM     44  C   UNL     1      -0.805   6.722  -6.930  1.00  0.00     0.037 A 
ATOM     45  C   UNL     1       0.796   7.942  -0.095  1.00  0.00     0.037 A 
ATOM     46  C   UNL     1      -1.080   8.051  -6.461  1.00  0.00     0.049 A 
ATOM     47  C   UNL     1       0.217   8.998  -1.002  1.00  0.00     0.074 A 
ATOM     48  C   UNL     1      -1.634   9.116  -7.144  1.00  0.00     0.029 A 
ATOM     49  N   UNL     1      -0.821   8.488  -5.167  1.00  0.00    -0.354 N 
ATOM     50  N   UNL     1      -0.134   8.903  -2.265  1.00  0.00    -0.248 NA
ATOM     51  C   UNL     1       0.019  10.331  -0.423  1.00  0.00     0.031 C 
ATOM     52  C   UNL     1      -1.672  10.210  -6.273  1.00  0.00     0.029 A 
ATOM     53  C   UNL     1      -1.194   9.811  -5.032  1.00  0.00     0.049 A 
ATOM     54  H   UNL     1      -0.430   7.936  -4.452  1.00  0.00     0.167 HD
ATOM     55  C   UNL     1      -0.618  10.153  -2.625  1.00  0.00     0.074 A 
ATOM     56  C   UNL     1      -0.527  10.984  -1.439  1.00  0.00     0.031 C 
ATOM     57  C   UNL     1      -1.093  10.586  -3.820  1.00  0.00     0.037 A 
BRANCH  44  58
ATOM     58  C   UNL     1      -1.092   6.365  -8.359  1.00  0.00     0.064 A 
ATOM     59  C   UNL     1      -2.100   5.457  -8.715  1.00  0.00     0.173 A 
ATOM     60  C   UNL     1      -0.338   6.942  -9.393  1.00  0.00     0.173 A 
ATOM     61  F   UNL     1      -2.832   4.854  -7.766  1.00  0.00    -0.203 F 
ATOM     62  C   UNL     1      -2.328   5.123 -10.049  1.00  0.00     0.198 A 
ATOM     63  C   UNL     1      -0.588   6.629 -10.727  1.00  0.00     0.198 A 
ATOM     64  F   UNL     1       0.647   7.807  -9.110  1.00  0.00    -0.203 F 
ATOM     65  F   UNL     1      -3.261   4.213 -10.361  1.00  0.00    -0.200 F 
ATOM     66  C   UNL     1      -1.578   5.716 -11.054  1.00  0.00     0.200 A 
ATOM     67  F   UNL     1       0.135   7.208 -11.696  1.00  0.00    -0.200 F 
ATOM     68  F   UNL     1      -1.802   5.398 -12.336  1.00  0.00    -0.200 F 
ENDBRANCH  44  58
BRANCH  45  69
ATOM     69  C   UNL     1       1.189   8.244   1.307  1.00  0.00     0.064 A 
ATOM     70  C   UNL     1       0.227   8.553   2.279  1.00  0.00     0.173 A 
ATOM     71  C   UNL     1       2.534   8.228   1.710  1.00  0.00     0.173 A 
ATOM     72  F   UNL     1      -1.070   8.605   1.942  1.00  0.00    -0.203 F 
ATOM     73  C   UNL     1       0.594   8.849   3.591  1.00  0.00     0.198 A 
ATOM     74  C   UNL     1       2.898   8.492   3.030  1.00  0.00     0.198 A 
ATOM     75  F   UNL     1       3.498   7.939   0.823  1.00  0.00    -0.203 F 
ATOM     76  F   UNL     1      -0.344   9.185   4.487  1.00  0.00    -0.200 F 
ATOM     77  C   UNL     1       1.928   8.810   3.967  1.00  0.00     0.200 A 
ATOM     78  F   UNL     1       4.187   8.438   3.391  1.00  0.00    -0.200 F 
ATOM     79  F   UNL     1       2.280   9.086   5.231  1.00  0.00    -0.200 F 
ENDBRANCH  45  69
BRANCH  57  80
ATOM     80  C   UNL     1      -1.589  11.999  -3.878  1.00  0.00     0.064 A 
ATOM     81  C   UNL     1      -0.708  13.089  -3.864  1.00  0.00     0.173 A 
ATOM     82  C   UNL     1      -2.962  12.257  -3.998  1.00  0.00     0.173 A 
ATOM     83  F   UNL     1       0.613  12.889  -3.738  1.00  0.00    -0.203 F 
ATOM     84  C   UNL     1      -1.189  14.392  -3.938  1.00  0.00     0.198 A 
ATOM     85  C   UNL     1      -3.436  13.559  -4.106  1.00  0.00     0.198 A 
ATOM     86  F   UNL     1      -3.841  11.243  -4.028  1.00  0.00    -0.203 F 
ATOM     87  F   UNL     1      -0.336  15.423  -3.872  1.00  0.00    -0.200 F 
ATOM     88  C   UNL     1      -2.551  14.625  -4.067  1.00  0.00     0.200 A 
ATOM     89  F   UNL     1      -4.750  13.782  -4.248  1.00  0.00    -0.200 F 
ATOM     90  F   UNL     1      -3.010  15.881  -4.147  1.00  0.00    -0.200 F 
ENDBRANCH  57  80
ENDBRANCH  31  32
ENDBRANCH  24  26
ENDBRANCH  23  24
ENDBRANCH  22  23
ENDBRANCH   1  22
TORSDOF 16
