REMARK SMILES C[C@H]1CC[C@H](CNC(=O)NCc2ccc(C(=O)OCCOC(=O)c3ccc(-c4c5nc(c(-c6c(F)c(F)c(F)c(F)c6F)c6ccc([nH]6)c(-c6c(F)c(F)c(F)c(F)c6F)c6nc(c(-c7c(F)c(F)c(F)c(F)c7F)c7ccc4[nH]7)C=C6)C=C5)cc3)o2)CC1
REMARK SMILES IDX 19 1 18 2 16 3 17 4 15 5 12 6 13 7 87 8 14 9 11 10 10 11
REMARK SMILES IDX 7 12 8 13 9 15 6 17 5 18 1 19 2 20 89 21 3 22 88 23 4 24
REMARK SMILES IDX 20 25 21 26 22 27 23 28 24 29 25 30 86 31 26 32 85 33 27 34
REMARK SMILES IDX 28 35 29 36 79 37 30 38 84 39 78 40 80 41 31 42 83 43 77 44
REMARK SMILES IDX 76 45 32 47 64 48 44 49 63 50 45 51 48 52 62 53 81 54 46 55
REMARK SMILES IDX 47 56 61 58 82 59 49 60 33 61 34 62 42 63 35 64 36 65 40 66
REMARK SMILES IDX 43 67 37 68 38 69 41 70 39 71 65 72 66 73 74 74 67 75 68 76
REMARK SMILES IDX 72 77 75 78 69 79 70 80 73 81 71 82 50 83 51 84 59 85 52 86
REMARK SMILES IDX 53 87 57 88 60 89 54 90 55 91 58 92 56 93
REMARK H PARENT 7 14 10 16 80 46 48 57
REMARK Flexibility Score: inf
ROOT
ATOM      1  C   UNL     1     -10.253  -3.880   3.172  1.00  0.00     0.275 C 
ENDROOT
BRANCH   1   2
ATOM      2  O   UNL     1      -9.142  -4.111   2.285  1.00  0.00    -0.456 OA
BRANCH   2   3
ATOM      3  C   UNL     1      -8.987  -3.215   1.265  1.00  0.00     0.374 C 
ATOM      4  O   UNL     1      -9.793  -2.332   0.993  1.00  0.00    -0.242 OA
BRANCH   3   5
ATOM      5  C   UNL     1      -7.703  -3.408   0.626  1.00  0.00     0.211 A 
ATOM      6  C   UNL     1      -5.980  -2.749  -0.603  1.00  0.00     0.124 A 
ATOM      7  C   UNL     1      -5.629  -3.962  -0.050  1.00  0.00     0.048 A 
ATOM      8  O   UNL     1      -7.261  -2.439  -0.240  1.00  0.00    -0.452 OA
ATOM      9  C   UNL     1      -6.729  -4.382   0.741  1.00  0.00     0.058 A 
BRANCH   6  10
ATOM     10  C   UNL     1      -5.261  -1.793  -1.492  1.00  0.00     0.193 C 
BRANCH  10  11
ATOM     11  N   UNL     1      -5.827  -0.468  -1.375  1.00  0.00    -0.331 N 
ATOM     12  N   UNL     1      -4.161   0.925  -0.452  1.00  0.00    -0.338 N 
ATOM     13  C   UNL     1      -5.307   0.733  -1.113  1.00  0.00     0.315 C 
ATOM     14  H   UNL     1      -3.801   1.836  -0.552  1.00  0.00     0.165 HD
ATOM     15  O   UNL     1      -5.937   1.729  -1.474  1.00  0.00    -0.249 OA
ATOM     16  H   UNL     1      -6.800  -0.447  -1.519  1.00  0.00     0.165 HD
BRANCH  12  17
ATOM     17  C   UNL     1      -3.337   0.070   0.382  1.00  0.00     0.121 C 
BRANCH  17  18
ATOM     18  C   UNL     1      -1.892   0.021  -0.145  1.00  0.00     0.008 C 
ATOM     19  C   UNL     1       2.496  -0.049  -0.177  1.00  0.00     0.007 C 
ATOM     20  C   UNL     1       1.052  -0.002   0.320  1.00  0.00    -0.014 C 
ATOM     21  C   UNL     1       0.290  -1.266  -0.093  1.00  0.00     0.003 C 
ATOM     22  C   UNL     1       0.339   1.251  -0.203  1.00  0.00     0.003 C 
ATOM     23  C   UNL     1      -1.163  -1.224   0.378  1.00  0.00     0.006 C 
ATOM     24  C   UNL     1      -1.121   1.298   0.243  1.00  0.00     0.006 C 
ENDBRANCH  17  18
ENDBRANCH  12  17
ENDBRANCH  10  11
ENDBRANCH   6  10
ENDBRANCH   3   5
ENDBRANCH   2   3
ENDBRANCH   1   2
BRANCH   1  25
ATOM     25  C   UNL     1      -9.809  -3.141   4.440  1.00  0.00     0.275 C 
BRANCH  25  26
ATOM     26  O   UNL     1      -9.526  -1.754   4.177  1.00  0.00    -0.458 OA
BRANCH  26  27
ATOM     27  C   UNL     1      -8.241  -1.472   3.859  1.00  0.00     0.338 C 
ATOM     28  O   UNL     1      -7.306  -2.253   3.809  1.00  0.00    -0.246 OA
BRANCH  27  29
ATOM     29  C   UNL     1      -8.138  -0.065   3.440  1.00  0.00     0.060 A 
ATOM     30  C   UNL     1      -7.630   0.206   2.168  1.00  0.00     0.016 A 
ATOM     31  C   UNL     1      -8.482   0.979   4.302  1.00  0.00     0.016 A 
ATOM     32  C   UNL     1      -7.462   1.523   1.753  1.00  0.00     0.010 A 
ATOM     33  C   UNL     1      -8.301   2.303   3.885  1.00  0.00     0.010 A 
ATOM     34  C   UNL     1      -7.777   2.580   2.612  1.00  0.00    -0.014 A 
BRANCH  34  35
ATOM     35  C   UNL     1      -7.483   3.971   2.194  1.00  0.00     0.031 A 
ATOM     36  C   UNL     1      -6.285   4.675   2.759  1.00  0.00     0.074 A 
ATOM     37  C   UNL     1      -8.265   4.587   1.290  1.00  0.00     0.049 A 
ATOM     38  N   UNL     1      -5.901   5.917   2.610  1.00  0.00    -0.248 NA
ATOM     39  C   UNL     1      -5.396   3.868   3.611  1.00  0.00     0.031 C 
ATOM     40  C   UNL     1      -9.409   3.981   0.613  1.00  0.00     0.029 A 
ATOM     41  N   UNL     1      -8.212   5.863   0.787  1.00  0.00    -0.354 N 
ATOM     42  C   UNL     1      -4.744   6.048   3.365  1.00  0.00     0.074 A 
ATOM     43  C   UNL     1      -4.492   4.763   3.982  1.00  0.00     0.031 C 
ATOM     44  C   UNL     1      -9.956   4.886  -0.215  1.00  0.00     0.029 A 
ATOM     45  C   UNL     1      -9.227   6.146  -0.092  1.00  0.00     0.049 A 
ATOM     46  H   UNL     1      -7.514   6.512   1.034  1.00  0.00     0.167 HD
ATOM     47  C   UNL     1      -3.967   7.145   3.526  1.00  0.00     0.037 A 
ATOM     48  C   UNL     1      -9.546   7.302  -0.705  1.00  0.00     0.037 A 
ATOM     49  C   UNL     1      -4.213   8.415   2.894  1.00  0.00     0.049 A 
ATOM     50  C   UNL     1      -8.700   8.522  -0.462  1.00  0.00     0.074 A 
ATOM     51  C   UNL     1      -3.486   9.588   2.997  1.00  0.00     0.029 A 
ATOM     52  N   UNL     1      -5.271   8.674   2.034  1.00  0.00    -0.354 N 
ATOM     53  N   UNL     1      -7.625   8.651   0.276  1.00  0.00    -0.248 NA
ATOM     54  C   UNL     1      -9.117   9.762  -1.133  1.00  0.00     0.031 C 
ATOM     55  C   UNL     1      -4.125  10.568   2.228  1.00  0.00     0.029 A 
ATOM     56  C   UNL     1      -5.225   9.993   1.613  1.00  0.00     0.049 A 
ATOM     57  H   UNL     1      -5.954   8.018   1.764  1.00  0.00     0.167 HD
ATOM     58  C   UNL     1      -7.222   9.972   0.140  1.00  0.00     0.074 A 
ATOM     59  C   UNL     1      -8.165  10.605  -0.759  1.00  0.00     0.031 C 
ATOM     60  C   UNL     1      -6.167  10.603   0.709  1.00  0.00     0.037 A 
BRANCH  47  61
ATOM     61  C   UNL     1      -2.793   7.029   4.452  1.00  0.00     0.064 A 
ATOM     62  C   UNL     1      -1.639   6.316   4.098  1.00  0.00     0.173 A 
ATOM     63  C   UNL     1      -2.816   7.666   5.702  1.00  0.00     0.173 A 
ATOM     64  F   UNL     1      -1.575   5.675   2.921  1.00  0.00    -0.203 F 
ATOM     65  C   UNL     1      -0.558   6.227   4.971  1.00  0.00     0.198 A 
ATOM     66  C   UNL     1      -1.724   7.596   6.562  1.00  0.00     0.198 A 
ATOM     67  F   UNL     1      -3.896   8.362   6.088  1.00  0.00    -0.203 F 
ATOM     68  F   UNL     1       0.519   5.505   4.630  1.00  0.00    -0.200 F 
ATOM     69  C   UNL     1      -0.599   6.872   6.199  1.00  0.00     0.200 A 
ATOM     70  F   UNL     1      -1.762   8.225   7.745  1.00  0.00    -0.200 F 
ATOM     71  F   UNL     1       0.445   6.788   7.036  1.00  0.00    -0.200 F 
ENDBRANCH  47  61
BRANCH  48  72
ATOM     72  C   UNL     1     -10.739   7.363  -1.588  1.00  0.00     0.064 A 
ATOM     73  C   UNL     1     -10.607   7.526  -2.974  1.00  0.00     0.173 A 
ATOM     74  C   UNL     1     -12.036   7.268  -1.062  1.00  0.00     0.173 A 
ATOM     75  F   UNL     1      -9.389   7.654  -3.520  1.00  0.00    -0.203 F 
ATOM     76  C   UNL     1     -11.728   7.602  -3.798  1.00  0.00     0.198 A 
ATOM     77  C   UNL     1     -13.155   7.319  -1.889  1.00  0.00     0.198 A 
ATOM     78  F   UNL     1     -12.216   7.121   0.259  1.00  0.00    -0.203 F 
ATOM     79  F   UNL     1     -11.577   7.803  -5.114  1.00  0.00    -0.200 F 
ATOM     80  C   UNL     1     -13.000   7.492  -3.256  1.00  0.00     0.200 A 
ATOM     81  F   UNL     1     -14.382   7.205  -1.363  1.00  0.00    -0.200 F 
ATOM     82  F   UNL     1     -14.077   7.564  -4.050  1.00  0.00    -0.200 F 
ENDBRANCH  48  72
BRANCH  60  83
ATOM     83  C   UNL     1      -5.952  12.043   0.348  1.00  0.00     0.064 A 
ATOM     84  C   UNL     1      -6.767  13.059   0.866  1.00  0.00     0.173 A 
ATOM     85  C   UNL     1      -4.889  12.412  -0.491  1.00  0.00     0.173 A 
ATOM     86  F   UNL     1      -7.804  12.754   1.660  1.00  0.00    -0.203 F 
ATOM     87  C   UNL     1      -6.537  14.393   0.541  1.00  0.00     0.198 A 
ATOM     88  C   UNL     1      -4.648  13.748  -0.793  1.00  0.00     0.198 A 
ATOM     89  F   UNL     1      -4.078  11.476  -1.006  1.00  0.00    -0.203 F 
ATOM     90  F   UNL     1      -7.350  15.347   1.017  1.00  0.00    -0.200 F 
ATOM     91  C   UNL     1      -5.474  14.737  -0.281  1.00  0.00     0.200 A 
ATOM     92  F   UNL     1      -3.614  14.080  -1.579  1.00  0.00    -0.200 F 
ATOM     93  F   UNL     1      -5.250  16.023  -0.586  1.00  0.00    -0.200 F 
ENDBRANCH  60  83
ENDBRANCH  34  35
ENDBRANCH  27  29
ENDBRANCH  26  27
ENDBRANCH  25  26
ENDBRANCH   1  25
TORSDOF 15
