REMARK SMILES COc1cccc(O[C@@H](C)c2nnc(SCC(=O)OCCOC(=O)c3ccc(-c4c5nc(c(-c6c(F)c(F)c(F)c(F)c6F)c6ccc([nH]6)c(-c6c(F)c(F)c(F)c(F)c6F)c6nc(c(-c7c(F)c(F)c(F)c(F)c7F)c7ccc4[nH]7)C=C6)C=C5)cc3)n2C)c1
REMARK SMILES IDX 17 1 18 2 16 3 15 4 14 5 11 6 12 7 88 8 13 9 89 10 9 11
REMARK SMILES IDX 10 12 8 13 7 14 3 15 4 16 90 17 5 18 6 19 2 20 1 21 19 22
REMARK SMILES IDX 20 23 21 24 22 25 23 26 24 27 25 28 26 29 87 30 27 31 86 32
REMARK SMILES IDX 28 33 29 34 30 35 80 36 31 37 85 38 79 39 81 40 32 41 84 42
REMARK SMILES IDX 78 43 77 44 33 46 65 47 45 48 64 49 46 50 49 51 63 52 82 53
REMARK SMILES IDX 47 54 48 55 62 57 83 58 50 59 34 60 35 61 43 62 36 63 37 64
REMARK SMILES IDX 41 65 44 66 38 67 39 68 42 69 40 70 66 71 67 72 75 73 68 74
REMARK SMILES IDX 69 75 73 76 76 77 70 78 71 79 74 80 72 81 51 82 52 83 60 84
REMARK SMILES IDX 53 85 54 86 58 87 61 88 55 89 56 90 59 91 57 92
REMARK H PARENT 81 45 49 56
REMARK Flexibility Score: inf
ROOT
ATOM      1  C   UNL     1       5.210  -3.363   0.358  1.00  0.00     0.316 C 
ATOM      2  O   UNL     1       4.419  -3.447   1.293  1.00  0.00    -0.251 OA
ENDROOT
BRANCH   1   3
ATOM      3  C   UNL     1       4.768  -3.574  -1.082  1.00  0.00     0.200 C 
BRANCH   3   4
ATOM      4  S   UNL     1       5.946  -3.006  -2.309  1.00  0.00    -0.074 SA
BRANCH   4   5
ATOM      5  C   UNL     1       5.459  -1.502  -3.010  1.00  0.00     0.191 A 
ATOM      6  C   UNL     1       5.019   0.631  -3.356  1.00  0.00     0.174 A 
ATOM      7  N   UNL     1       5.600   0.135  -4.432  1.00  0.00    -0.130 NA
ATOM      8  N   UNL     1       4.817  -0.415  -2.465  1.00  0.00    -0.306 N 
ATOM      9  N   UNL     1       5.873  -1.182  -4.214  1.00  0.00    -0.123 NA
ATOM     10  C   UNL     1       4.010  -0.362  -1.288  1.00  0.00     0.154 C 
BRANCH   6  11
ATOM     11  C   UNL     1       4.731   2.103  -3.205  1.00  0.00     0.238 C 
ATOM     12  C   UNL     1       4.479   2.704  -1.831  1.00  0.00     0.062 C 
BRANCH  11  13
ATOM     13  O   UNL     1       3.803   2.551  -4.213  1.00  0.00    -0.483 OA
BRANCH  13  14
ATOM     14  C   UNL     1       2.462   2.443  -3.998  1.00  0.00     0.124 A 
ATOM     15  C   UNL     1       0.428   1.251  -3.491  1.00  0.00     0.122 A 
ATOM     16  C   UNL     1      -0.330   2.373  -3.805  1.00  0.00     0.046 A 
ATOM     17  C   UNL     1       1.815   1.266  -3.638  1.00  0.00     0.092 A 
ATOM     18  C   UNL     1       0.314   3.529  -4.238  1.00  0.00     0.008 A 
ATOM     19  C   UNL     1       1.706   3.572  -4.313  1.00  0.00     0.047 A 
BRANCH  15  20
ATOM     20  O   UNL     1      -0.206   0.086  -3.158  1.00  0.00    -0.497 OA
ATOM     21  C   UNL     1      -0.348  -0.016  -1.742  1.00  0.00     0.278 C 
ENDBRANCH  15  20
ENDBRANCH  13  14
ENDBRANCH  11  13
ENDBRANCH   6  11
ENDBRANCH   4   5
ENDBRANCH   3   4
ENDBRANCH   1   3
BRANCH   1  22
ATOM     22  O   UNL     1       6.540  -3.133   0.505  1.00  0.00    -0.461 OA
BRANCH  22  23
ATOM     23  C   UNL     1       7.066  -3.089   1.846  1.00  0.00     0.274 C 
BRANCH  23  24
ATOM     24  C   UNL     1       7.211  -1.657   2.355  1.00  0.00     0.275 C 
BRANCH  24  25
ATOM     25  O   UNL     1       5.918  -1.062   2.591  1.00  0.00    -0.458 OA
BRANCH  25  26
ATOM     26  C   UNL     1       5.585  -0.066   1.751  1.00  0.00     0.338 C 
ATOM     27  O   UNL     1       6.247   0.366   0.810  1.00  0.00    -0.246 OA
BRANCH  26  28
ATOM     28  C   UNL     1       4.246   0.478   2.033  1.00  0.00     0.060 A 
ATOM     29  C   UNL     1       3.110  -0.312   1.842  1.00  0.00     0.016 A 
ATOM     30  C   UNL     1       4.114   1.856   2.227  1.00  0.00     0.016 A 
ATOM     31  C   UNL     1       1.851   0.293   1.767  1.00  0.00     0.010 A 
ATOM     32  C   UNL     1       2.844   2.445   2.236  1.00  0.00     0.010 A 
ATOM     33  C   UNL     1       1.698   1.676   1.977  1.00  0.00    -0.014 A 
BRANCH  33  34
ATOM     34  C   UNL     1       0.341   2.293   2.011  1.00  0.00     0.031 A 
ATOM     35  C   UNL     1      -0.094   3.350   1.026  1.00  0.00     0.074 A 
ATOM     36  C   UNL     1      -0.520   1.911   2.975  1.00  0.00     0.049 A 
ATOM     37  N   UNL     1      -1.230   4.003   0.968  1.00  0.00    -0.248 NA
ATOM     38  C   UNL     1       0.853   3.716  -0.036  1.00  0.00     0.031 C 
ATOM     39  C   UNL     1      -0.245   0.906   4.002  1.00  0.00     0.029 A 
ATOM     40  N   UNL     1      -1.798   2.332   3.255  1.00  0.00    -0.354 N 
ATOM     41  C   UNL     1      -1.138   4.845  -0.133  1.00  0.00     0.074 A 
ATOM     42  C   UNL     1       0.176   4.642  -0.705  1.00  0.00     0.031 C 
ATOM     43  C   UNL     1      -1.319   0.781   4.794  1.00  0.00     0.029 A 
ATOM     44  C   UNL     1      -2.333   1.743   4.373  1.00  0.00     0.049 A 
ATOM     45  H   UNL     1      -2.282   2.991   2.707  1.00  0.00     0.167 HD
ATOM     46  C   UNL     1      -2.069   5.694  -0.631  1.00  0.00     0.037 A 
ATOM     47  C   UNL     1      -3.487   1.975   5.026  1.00  0.00     0.037 A 
ATOM     48  C   UNL     1      -3.383   5.902  -0.084  1.00  0.00     0.049 A 
ATOM     49  C   UNL     1      -4.438   3.019   4.526  1.00  0.00     0.074 A 
ATOM     50  C   UNL     1      -4.415   6.675  -0.593  1.00  0.00     0.029 A 
ATOM     51  N   UNL     1      -3.840   5.358   1.102  1.00  0.00    -0.354 N 
ATOM     52  N   UNL     1      -4.359   3.757   3.448  1.00  0.00    -0.248 NA
ATOM     53  C   UNL     1      -5.631   3.275   5.346  1.00  0.00     0.031 C 
ATOM     54  C   UNL     1      -5.484   6.631   0.307  1.00  0.00     0.029 A 
ATOM     55  C   UNL     1      -5.122   5.816   1.366  1.00  0.00     0.049 A 
ATOM     56  H   UNL     1      -3.332   4.739   1.674  1.00  0.00     0.167 HD
ATOM     57  C   UNL     1      -5.494   4.554   3.452  1.00  0.00     0.074 A 
ATOM     58  C   UNL     1      -6.252   4.207   4.634  1.00  0.00     0.031 C 
ATOM     59  C   UNL     1      -5.869   5.490   2.549  1.00  0.00     0.037 A 
BRANCH  46  60
ATOM     60  C   UNL     1      -1.740   6.473  -1.865  1.00  0.00     0.064 A 
ATOM     61  C   UNL     1      -2.099   5.982  -3.127  1.00  0.00     0.173 A 
ATOM     62  C   UNL     1      -1.224   7.772  -1.782  1.00  0.00     0.173 A 
ATOM     63  F   UNL     1      -2.617   4.750  -3.248  1.00  0.00    -0.203 F 
ATOM     64  C   UNL     1      -1.941   6.762  -4.269  1.00  0.00     0.198 A 
ATOM     65  C   UNL     1      -1.076   8.554  -2.926  1.00  0.00     0.198 A 
ATOM     66  F   UNL     1      -0.894   8.292  -0.591  1.00  0.00    -0.203 F 
ATOM     67  F   UNL     1      -2.281   6.267  -5.467  1.00  0.00    -0.200 F 
ATOM     68  C   UNL     1      -1.435   8.049  -4.168  1.00  0.00     0.200 A 
ATOM     69  F   UNL     1      -0.603   9.804  -2.826  1.00  0.00    -0.200 F 
ATOM     70  F   UNL     1      -1.299   8.804  -5.266  1.00  0.00    -0.200 F 
ENDBRANCH  46  60
BRANCH  47  71
ATOM     71  C   UNL     1      -3.774   1.224   6.271  1.00  0.00     0.064 A 
ATOM     72  C   UNL     1      -4.758   0.230   6.304  1.00  0.00     0.173 A 
ATOM     73  C   UNL     1      -3.049   1.476   7.446  1.00  0.00     0.173 A 
ATOM     74  F   UNL     1      -5.489  -0.025   5.209  1.00  0.00    -0.203 F 
ATOM     75  C   UNL     1      -5.007  -0.490   7.469  1.00  0.00     0.198 A 
ATOM     76  C   UNL     1      -3.282   0.739   8.602  1.00  0.00     0.198 A 
ATOM     77  F   UNL     1      -2.098   2.421   7.458  1.00  0.00    -0.203 F 
ATOM     78  F   UNL     1      -5.970  -1.421   7.486  1.00  0.00    -0.200 F 
ATOM     79  C   UNL     1      -4.263  -0.241   8.614  1.00  0.00     0.200 A 
ATOM     80  F   UNL     1      -2.551   0.973   9.701  1.00  0.00    -0.200 F 
ATOM     81  F   UNL     1      -4.494  -0.944   9.731  1.00  0.00    -0.200 F 
ENDBRANCH  47  71
BRANCH  59  82
ATOM     82  C   UNL     1      -7.155   6.212   2.799  1.00  0.00     0.064 A 
ATOM     83  C   UNL     1      -7.241   7.222   3.767  1.00  0.00     0.173 A 
ATOM     84  C   UNL     1      -8.304   5.912   2.053  1.00  0.00     0.173 A 
ATOM     85  F   UNL     1      -6.171   7.532   4.516  1.00  0.00    -0.203 F 
ATOM     86  C   UNL     1      -8.439   7.894   3.994  1.00  0.00     0.198 A 
ATOM     87  C   UNL     1      -9.495   6.600   2.268  1.00  0.00     0.198 A 
ATOM     88  F   UNL     1      -8.269   4.957   1.113  1.00  0.00    -0.203 F 
ATOM     89  F   UNL     1      -8.510   8.830   4.950  1.00  0.00    -0.200 F 
ATOM     90  C   UNL     1      -9.563   7.586   3.241  1.00  0.00     0.200 A 
ATOM     91  F   UNL     1     -10.578   6.307   1.536  1.00  0.00    -0.200 F 
ATOM     92  F   UNL     1     -10.716   8.233   3.461  1.00  0.00    -0.200 F 
ENDBRANCH  59  82
ENDBRANCH  33  34
ENDBRANCH  26  28
ENDBRANCH  25  26
ENDBRANCH  24  25
ENDBRANCH  23  24
ENDBRANCH  22  23
ENDBRANCH   1  22
TORSDOF 17
