REMARK SMILES C[NH2+][C@]1(C(=O)OCCOC(=O)c2ccc(-c3c4nc(c(-c5c(F)c(F)c(F)c(F)c5F)c5ccc([nH]5)c(-c5c(F)c(F)c(F)c(F)c5F)c5nc(c(-c6c(F)c(F)c(F)c(F)c6F)c6ccc3[nH]6)C=C5)C=C4)cc2)CCC[C@H](Sc2n[nH]c(=O)n2C)C1
REMARK SMILES IDX 7 1 6 2 4 3 5 4 3 5 75 6 87 7 76 8 78 9 77 10 2 11 1 12
REMARK SMILES IDX 79 15 80 16 81 17 85 18 82 19 83 20 86 21 84 23 8 24 9 25
REMARK SMILES IDX 10 26 11 27 12 28 13 29 74 30 14 31 73 32 15 33 16 34 17 35
REMARK SMILES IDX 67 36 18 37 72 38 66 39 68 40 19 41 71 42 65 43 64 44 20 46
REMARK SMILES IDX 52 47 32 48 51 49 33 50 36 51 50 52 69 53 34 54 35 55 49 57
REMARK SMILES IDX 70 58 37 59 21 60 22 61 30 62 23 63 24 64 28 65 31 66 25 67
REMARK SMILES IDX 26 68 29 69 27 70 53 71 54 72 62 73 55 74 56 75 60 76 63 77
REMARK SMILES IDX 57 78 58 79 61 80 59 81 38 82 39 83 47 84 40 85 41 86 45 87
REMARK SMILES IDX 48 88 42 89 43 90 46 91 44 92
REMARK H PARENT 2 13 2 14 82 22 68 45 36 56
REMARK Flexibility Score: inf
ROOT
ATOM      1  C   UNL     1       2.616   0.604   2.524  1.00  0.00     0.274 C 
ENDROOT
BRANCH   1   2
ATOM      2  O   UNL     1       1.179   0.558   2.447  1.00  0.00    -0.457 OA
BRANCH   2   3
ATOM      3  C   UNL     1       0.599   1.334   1.488  1.00  0.00     0.368 C 
ATOM      4  O   UNL     1       1.225   2.141   0.807  1.00  0.00    -0.245 OA
BRANCH   3   5
ATOM      5  C   UNL     1      -0.951   1.131   1.406  1.00  0.00     0.195 C 
ATOM      6  C   UNL     1      -1.400  -0.133   2.191  1.00  0.00     0.081 C 
ATOM      7  C   UNL     1      -1.640   2.352   2.081  1.00  0.00     0.096 C 
ATOM      8  C   UNL     1      -2.915  -0.314   2.224  1.00  0.00     0.008 C 
ATOM      9  C   UNL     1      -3.183   2.248   2.232  1.00  0.00     0.061 C 
ATOM     10  C   UNL     1      -3.578   0.900   2.860  1.00  0.00     0.015 C 
BRANCH   5  11
ATOM     11  N   UNL     1      -1.397   0.925  -0.013  1.00  0.00    -0.335 N 
ATOM     12  C   UNL     1      -0.825   1.816  -1.018  1.00  0.00     0.331 C 
ATOM     13  H   UNL     1      -1.159  -0.031  -0.276  1.00  0.00     0.347 HD
ATOM     14  H   UNL     1      -2.397   1.131  -0.012  1.00  0.00     0.347 HD
ENDBRANCH   5  11
BRANCH   9  15
ATOM     15  S   UNL     1      -3.930   2.630   0.606  1.00  0.00    -0.082 SA
BRANCH  15  16
ATOM     16  C   UNL     1      -5.606   2.302   0.785  1.00  0.00     0.191 A 
ATOM     17  N   UNL     1      -6.273   2.351   1.900  1.00  0.00    -0.146 NA
ATOM     18  N   UNL     1      -6.336   1.980  -0.309  1.00  0.00    -0.273 N 
ATOM     19  N   UNL     1      -7.546   2.019   1.524  1.00  0.00    -0.226 N 
ATOM     20  C   UNL     1      -7.610   1.795   0.154  1.00  0.00     0.343 A 
ATOM     21  C   UNL     1      -5.970   1.868  -1.704  1.00  0.00     0.157 C 
ATOM     22  H   UNL     1      -8.312   1.950   2.139  1.00  0.00     0.195 HD
ATOM     23  O   UNL     1      -8.606   1.502  -0.484  1.00  0.00    -0.246 OA
ENDBRANCH  15  16
ENDBRANCH   9  15
ENDBRANCH   3   5
ENDBRANCH   2   3
ENDBRANCH   1   2
BRANCH   1  24
ATOM     24  C   UNL     1       3.212  -0.754   2.154  1.00  0.00     0.275 C 
BRANCH  24  25
ATOM     25  O   UNL     1       2.796  -1.170   0.838  1.00  0.00    -0.458 OA
BRANCH  25  26
ATOM     26  C   UNL     1       1.784  -2.071   0.819  1.00  0.00     0.338 C 
ATOM     27  O   UNL     1       1.232  -2.585   1.776  1.00  0.00    -0.246 OA
BRANCH  26  28
ATOM     28  C   UNL     1       1.338  -2.297  -0.565  1.00  0.00     0.060 A 
ATOM     29  C   UNL     1       0.041  -1.910  -0.902  1.00  0.00     0.016 A 
ATOM     30  C   UNL     1       2.130  -2.971  -1.494  1.00  0.00     0.016 A 
ATOM     31  C   UNL     1      -0.477  -2.169  -2.163  1.00  0.00     0.010 A 
ATOM     32  C   UNL     1       1.603  -3.258  -2.760  1.00  0.00     0.010 A 
ATOM     33  C   UNL     1       0.295  -2.864  -3.094  1.00  0.00    -0.014 A 
BRANCH  33  34
ATOM     34  C   UNL     1      -0.324  -3.247  -4.380  1.00  0.00     0.031 A 
ATOM     35  C   UNL     1      -0.921  -4.613  -4.530  1.00  0.00     0.074 A 
ATOM     36  C   UNL     1      -0.416  -2.348  -5.375  1.00  0.00     0.049 A 
ATOM     37  N   UNL     1      -1.460  -5.171  -5.583  1.00  0.00    -0.248 NA
ATOM     38  C   UNL     1      -0.925  -5.460  -3.327  1.00  0.00     0.031 C 
ATOM     39  C   UNL     1       0.037  -0.960  -5.300  1.00  0.00     0.029 A 
ATOM     40  N   UNL     1      -0.922  -2.471  -6.643  1.00  0.00    -0.354 N 
ATOM     41  C   UNL     1      -1.861  -6.435  -5.174  1.00  0.00     0.074 A 
ATOM     42  C   UNL     1      -1.493  -6.568  -3.780  1.00  0.00     0.031 C 
ATOM     43  C   UNL     1      -0.192  -0.364  -6.482  1.00  0.00     0.029 A 
ATOM     44  C   UNL     1      -0.764  -1.341  -7.405  1.00  0.00     0.049 A 
ATOM     45  H   UNL     1      -1.355  -3.291  -6.975  1.00  0.00     0.167 HD
ATOM     46  C   UNL     1      -2.478  -7.396  -5.901  1.00  0.00     0.037 A 
ATOM     47  C   UNL     1      -1.020  -1.137  -8.711  1.00  0.00     0.037 A 
ATOM     48  C   UNL     1      -2.828  -7.258  -7.291  1.00  0.00     0.049 A 
ATOM     49  C   UNL     1      -1.599  -2.261  -9.528  1.00  0.00     0.074 A 
ATOM     50  C   UNL     1      -3.431  -8.180  -8.127  1.00  0.00     0.029 A 
ATOM     51  N   UNL     1      -2.597  -6.120  -8.051  1.00  0.00    -0.354 N 
ATOM     52  N   UNL     1      -1.953  -3.465  -9.148  1.00  0.00    -0.248 NA
ATOM     53  C   UNL     1      -1.809  -2.001 -10.959  1.00  0.00     0.031 C 
ATOM     54  C   UNL     1      -3.519  -7.619  -9.406  1.00  0.00     0.029 A 
ATOM     55  C   UNL     1      -3.021  -6.327  -9.354  1.00  0.00     0.049 A 
ATOM     56  H   UNL     1      -2.191  -5.288  -7.715  1.00  0.00     0.167 HD
ATOM     57  C   UNL     1      -2.450  -4.095 -10.280  1.00  0.00     0.074 A 
ATOM     58  C   UNL     1      -2.364  -3.135 -11.362  1.00  0.00     0.031 C 
ATOM     59  C   UNL     1      -2.933  -5.355 -10.415  1.00  0.00     0.037 A 
BRANCH  46  60
ATOM     60  C   UNL     1      -2.767  -8.698  -5.217  1.00  0.00     0.064 A 
ATOM     61  C   UNL     1      -3.778  -8.820  -4.253  1.00  0.00     0.173 A 
ATOM     62  C   UNL     1      -2.030  -9.847  -5.545  1.00  0.00     0.173 A 
ATOM     63  F   UNL     1      -4.500  -7.748  -3.892  1.00  0.00    -0.203 F 
ATOM     64  C   UNL     1      -4.026 -10.039  -3.625  1.00  0.00     0.198 A 
ATOM     65  C   UNL     1      -2.297 -11.069  -4.934  1.00  0.00     0.198 A 
ATOM     66  F   UNL     1      -1.052  -9.784  -6.461  1.00  0.00    -0.203 F 
ATOM     67  F   UNL     1      -4.966 -10.122  -2.674  1.00  0.00    -0.200 F 
ATOM     68  C   UNL     1      -3.289 -11.162  -3.970  1.00  0.00     0.200 A 
ATOM     69  F   UNL     1      -1.591 -12.155  -5.276  1.00  0.00    -0.200 F 
ATOM     70  F   UNL     1      -3.530 -12.335  -3.367  1.00  0.00    -0.200 F 
ENDBRANCH  46  60
BRANCH  47  71
ATOM     71  C   UNL     1      -0.688   0.169  -9.337  1.00  0.00     0.064 A 
ATOM     72  C   UNL     1      -1.692   1.023  -9.813  1.00  0.00     0.173 A 
ATOM     73  C   UNL     1       0.645   0.580  -9.491  1.00  0.00     0.173 A 
ATOM     74  F   UNL     1      -2.979   0.663  -9.713  1.00  0.00    -0.203 F 
ATOM     75  C   UNL     1      -1.375   2.229 -10.435  1.00  0.00     0.198 A 
ATOM     76  C   UNL     1       0.960   1.799 -10.086  1.00  0.00     0.198 A 
ATOM     77  F   UNL     1       1.645  -0.202  -9.057  1.00  0.00    -0.203 F 
ATOM     78  F   UNL     1      -2.352   3.005 -10.925  1.00  0.00    -0.200 F 
ATOM     79  C   UNL     1      -0.050   2.619 -10.566  1.00  0.00     0.200 A 
ATOM     80  F   UNL     1       2.241   2.176 -10.200  1.00  0.00    -0.200 F 
ATOM     81  F   UNL     1       0.254   3.780 -11.162  1.00  0.00    -0.200 F 
ENDBRANCH  47  71
BRANCH  59  82
ATOM     82  C   UNL     1      -3.441  -5.756 -11.770  1.00  0.00     0.064 A 
ATOM     83  C   UNL     1      -2.569  -6.000 -12.841  1.00  0.00     0.173 A 
ATOM     84  C   UNL     1      -4.815  -5.940 -11.985  1.00  0.00     0.173 A 
ATOM     85  F   UNL     1      -1.248  -5.822 -12.689  1.00  0.00    -0.203 F 
ATOM     86  C   UNL     1      -3.056  -6.391 -14.085  1.00  0.00     0.198 A 
ATOM     87  C   UNL     1      -5.296  -6.360 -13.222  1.00  0.00     0.198 A 
ATOM     88  F   UNL     1      -5.690  -5.727 -10.992  1.00  0.00    -0.203 F 
ATOM     89  F   UNL     1      -2.209  -6.574 -15.107  1.00  0.00    -0.200 F 
ATOM     90  C   UNL     1      -4.418  -6.579 -14.272  1.00  0.00     0.200 A 
ATOM     91  F   UNL     1      -6.611  -6.554 -13.397  1.00  0.00    -0.200 F 
ATOM     92  F   UNL     1      -4.884  -6.963 -15.468  1.00  0.00    -0.200 F 
ENDBRANCH  59  82
ENDBRANCH  33  34
ENDBRANCH  26  28
ENDBRANCH  25  26
ENDBRANCH  24  25
ENDBRANCH   1  24
TORSDOF 14
