REMARK SMILES CC(C)[NH2+][C@@]1(C(=O)OCCOC(=O)c2ccc(-c3c4nc(c(-c5c(F)c(F)c(F)c(F)c5F)c5ccc([nH]5)c(-c5c(F)c(F)c(F)c(F)c5F)c5nc(c(-c6c(F)c(F)c(F)c(F)c6F)c6ccc3[nH]6)C=C5)C=C4)cc2)CCC[C@H](SC2CCCCC2)C1
REMARK SMILES IDX 9 1 8 2 6 3 7 4 5 5 77 6 88 7 78 8 80 9 79 10 4 11 2 14 1 15
REMARK SMILES IDX 3 16 81 17 82 18 83 19 87 20 84 21 86 22 85 23 10 24 11 25
REMARK SMILES IDX 12 26 13 27 14 28 15 29 76 30 16 31 75 32 17 33 18 34 19 35
REMARK SMILES IDX 69 36 20 37 74 38 68 39 70 40 21 41 73 42 67 43 66 44 22 46
REMARK SMILES IDX 54 47 34 48 53 49 35 50 38 51 52 52 71 53 36 54 37 55 51 57
REMARK SMILES IDX 72 58 39 59 23 60 24 61 32 62 25 63 26 64 30 65 33 66 27 67
REMARK SMILES IDX 28 68 31 69 29 70 55 71 56 72 64 73 57 74 58 75 62 76 65 77
REMARK SMILES IDX 59 78 60 79 63 80 61 81 40 82 41 83 49 84 42 85 43 86 47 87
REMARK SMILES IDX 50 88 44 89 45 90 48 91 46 92
REMARK H PARENT 4 12 4 13 70 45 38 56
REMARK Flexibility Score: inf
ROOT
ATOM      1  C   UNL     1      -1.979  -3.773  -4.129  1.00  0.00     0.274 C 
ENDROOT
BRANCH   1   2
ATOM      2  O   UNL     1      -1.788  -3.946  -2.708  1.00  0.00    -0.457 OA
BRANCH   2   3
ATOM      3  C   UNL     1      -1.004  -3.052  -2.056  1.00  0.00     0.368 C 
ATOM      4  O   UNL     1      -0.343  -2.198  -2.638  1.00  0.00    -0.245 OA
BRANCH   3   5
ATOM      5  C   UNL     1      -1.023  -3.283  -0.490  1.00  0.00     0.195 C 
ATOM      6  C   UNL     1      -0.293  -4.592  -0.134  1.00  0.00     0.081 C 
ATOM      7  C   UNL     1      -2.487  -3.242   0.087  1.00  0.00     0.095 C 
ATOM      8  C   UNL     1      -1.154  -5.846  -0.233  1.00  0.00     0.008 C 
ATOM      9  C   UNL     1      -3.301  -4.566   0.162  1.00  0.00     0.053 C 
ATOM     10  C   UNL     1      -2.392  -5.692   0.638  1.00  0.00     0.015 C 
BRANCH   5  11
ATOM     11  N   UNL     1      -0.332  -2.108   0.162  1.00  0.00    -0.330 N 
ATOM     12  H   UNL     1      -0.785  -1.262  -0.183  1.00  0.00     0.347 HD
ATOM     13  H   UNL     1      -0.421  -2.288   1.162  1.00  0.00     0.347 HD
BRANCH  11  14
ATOM     14  C   UNL     1       1.116  -1.942  -0.048  1.00  0.00     0.176 C 
ATOM     15  C   UNL     1       1.389  -0.440  -0.191  1.00  0.00     0.075 C 
ATOM     16  C   UNL     1       1.929  -2.471   1.140  1.00  0.00     0.075 C 
ENDBRANCH  11  14
ENDBRANCH   5  11
BRANCH   9  17
ATOM     17  S   UNL     1      -4.239  -4.789  -1.404  1.00  0.00    -0.155 SA
BRANCH  17  18
ATOM     18  C   UNL     1      -4.966  -6.462  -1.405  1.00  0.00     0.047 C 
ATOM     19  C   UNL     1      -3.962  -7.580  -1.706  1.00  0.00     0.014 C 
ATOM     20  C   UNL     1      -5.868  -6.751  -0.207  1.00  0.00     0.014 C 
ATOM     21  C   UNL     1      -4.652  -8.939  -1.818  1.00  0.00     0.001 C 
ATOM     22  C   UNL     1      -6.557  -8.107  -0.383  1.00  0.00     0.001 C 
ATOM     23  C   UNL     1      -5.541  -9.223  -0.610  1.00  0.00     0.000 C 
ENDBRANCH  17  18
ENDBRANCH   9  17
ENDBRANCH   3   5
ENDBRANCH   2   3
ENDBRANCH   1   2
BRANCH   1  24
ATOM     24  C   UNL     1      -3.189  -2.886  -4.441  1.00  0.00     0.275 C 
BRANCH  24  25
ATOM     25  O   UNL     1      -2.880  -1.520  -4.123  1.00  0.00    -0.458 OA
BRANCH  25  26
ATOM     26  C   UNL     1      -3.674  -0.916  -3.214  1.00  0.00     0.338 C 
ATOM     27  O   UNL     1      -4.699  -1.325  -2.701  1.00  0.00    -0.246 OA
BRANCH  26  28
ATOM     28  C   UNL     1      -3.048   0.361  -2.861  1.00  0.00     0.060 A 
ATOM     29  C   UNL     1      -2.195   0.400  -1.758  1.00  0.00     0.016 A 
ATOM     30  C   UNL     1      -3.334   1.516  -3.588  1.00  0.00     0.016 A 
ATOM     31  C   UNL     1      -1.611   1.600  -1.374  1.00  0.00     0.010 A 
ATOM     32  C   UNL     1      -2.741   2.722  -3.207  1.00  0.00     0.010 A 
ATOM     33  C   UNL     1      -1.882   2.768  -2.094  1.00  0.00    -0.014 A 
BRANCH  33  34
ATOM     34  C   UNL     1      -1.333   4.054  -1.618  1.00  0.00     0.031 A 
ATOM     35  C   UNL     1      -2.219   4.980  -0.843  1.00  0.00     0.074 A 
ATOM     36  C   UNL     1      -0.043   4.362  -1.839  1.00  0.00     0.049 A 
ATOM     37  N   UNL     1      -1.978   6.189  -0.408  1.00  0.00    -0.248 NA
ATOM     38  C   UNL     1      -3.558   4.471  -0.508  1.00  0.00     0.031 C 
ATOM     39  C   UNL     1       0.928   3.499  -2.510  1.00  0.00     0.029 A 
ATOM     40  N   UNL     1       0.670   5.489  -1.520  1.00  0.00    -0.354 N 
ATOM     41  C   UNL     1      -3.139   6.593   0.234  1.00  0.00     0.074 A 
ATOM     42  C   UNL     1      -4.087   5.505   0.128  1.00  0.00     0.031 C 
ATOM     43  C   UNL     1       2.113   4.131  -2.556  1.00  0.00     0.029 A 
ATOM     44  C   UNL     1       1.969   5.457  -1.958  1.00  0.00     0.049 A 
ATOM     45  H   UNL     1       0.286   6.248  -1.023  1.00  0.00     0.167 HD
ATOM     46  C   UNL     1      -3.387   7.771   0.854  1.00  0.00     0.037 A 
ATOM     47  C   UNL     1       2.922   6.406  -1.906  1.00  0.00     0.037 A 
ATOM     48  C   UNL     1      -2.437   8.845   0.955  1.00  0.00     0.049 A 
ATOM     49  C   UNL     1       2.598   7.733  -1.272  1.00  0.00     0.074 A 
ATOM     50  C   UNL     1      -2.599  10.094   1.528  1.00  0.00     0.029 A 
ATOM     51  N   UNL     1      -1.138   8.792   0.470  1.00  0.00    -0.354 N 
ATOM     52  N   UNL     1       1.485   8.129  -0.704  1.00  0.00    -0.248 NA
ATOM     53  C   UNL     1       3.661   8.748  -1.281  1.00  0.00     0.031 C 
ATOM     54  C   UNL     1      -1.407  10.808   1.363  1.00  0.00     0.029 A 
ATOM     55  C   UNL     1      -0.490   9.990   0.722  1.00  0.00     0.049 A 
ATOM     56  H   UNL     1      -0.737   8.018   0.014  1.00  0.00     0.167 HD
ATOM     57  C   UNL     1       1.717   9.427  -0.270  1.00  0.00     0.074 A 
ATOM     58  C   UNL     1       3.084   9.748  -0.629  1.00  0.00     0.031 C 
ATOM     59  C   UNL     1       0.875  10.279   0.365  1.00  0.00     0.037 A 
BRANCH  46  60
ATOM     60  C   UNL     1      -4.758   7.964   1.425  1.00  0.00     0.064 A 
ATOM     61  C   UNL     1      -5.165   7.317   2.601  1.00  0.00     0.173 A 
ATOM     62  C   UNL     1      -5.677   8.810   0.786  1.00  0.00     0.173 A 
ATOM     63  F   UNL     1      -4.329   6.482   3.236  1.00  0.00    -0.203 F 
ATOM     64  C   UNL     1      -6.452   7.492   3.103  1.00  0.00     0.198 A 
ATOM     65  C   UNL     1      -6.955   9.000   1.304  1.00  0.00     0.198 A 
ATOM     66  F   UNL     1      -5.335   9.450  -0.342  1.00  0.00    -0.203 F 
ATOM     67  F   UNL     1      -6.836   6.829   4.203  1.00  0.00    -0.200 F 
ATOM     68  C   UNL     1      -7.343   8.336   2.458  1.00  0.00     0.200 A 
ATOM     69  F   UNL     1      -7.813   9.821   0.682  1.00  0.00    -0.200 F 
ATOM     70  F   UNL     1      -8.582   8.503   2.942  1.00  0.00    -0.200 F 
ENDBRANCH  46  60
BRANCH  47  71
ATOM     71  C   UNL     1       4.263   6.147  -2.491  1.00  0.00     0.064 A 
ATOM     72  C   UNL     1       5.396   6.023  -1.676  1.00  0.00     0.173 A 
ATOM     73  C   UNL     1       4.440   6.034  -3.878  1.00  0.00     0.173 A 
ATOM     74  F   UNL     1       5.281   6.152  -0.346  1.00  0.00    -0.203 F 
ATOM     75  C   UNL     1       6.657   5.808  -2.227  1.00  0.00     0.198 A 
ATOM     76  C   UNL     1       5.698   5.792  -4.426  1.00  0.00     0.198 A 
ATOM     77  F   UNL     1       3.389   6.152  -4.702  1.00  0.00    -0.203 F 
ATOM     78  F   UNL     1       7.731   5.736  -1.428  1.00  0.00    -0.200 F 
ATOM     79  C   UNL     1       6.807   5.686  -3.601  1.00  0.00     0.200 A 
ATOM     80  F   UNL     1       5.836   5.669  -5.753  1.00  0.00    -0.200 F 
ATOM     81  F   UNL     1       8.020   5.479  -4.129  1.00  0.00    -0.200 F 
ENDBRANCH  47  71
BRANCH  59  82
ATOM     82  C   UNL     1       1.422  11.623   0.744  1.00  0.00     0.064 A 
ATOM     83  C   UNL     1       1.627  12.627  -0.212  1.00  0.00     0.173 A 
ATOM     84  C   UNL     1       1.705  11.919   2.085  1.00  0.00     0.173 A 
ATOM     85  F   UNL     1       1.384  12.385  -1.509  1.00  0.00    -0.203 F 
ATOM     86  C   UNL     1       2.118  13.875   0.159  1.00  0.00     0.198 A 
ATOM     87  C   UNL     1       2.174  13.176   2.456  1.00  0.00     0.198 A 
ATOM     88  F   UNL     1       1.520  10.991   3.037  1.00  0.00    -0.203 F 
ATOM     89  F   UNL     1       2.346  14.809  -0.775  1.00  0.00    -0.200 F 
ATOM     90  C   UNL     1       2.385  14.150   1.492  1.00  0.00     0.200 A 
ATOM     91  F   UNL     1       2.422  13.443   3.745  1.00  0.00    -0.200 F 
ATOM     92  F   UNL     1       2.854  15.354   1.848  1.00  0.00    -0.200 F 
ENDBRANCH  59  82
ENDBRANCH  33  34
ENDBRANCH  26  28
ENDBRANCH  25  26
ENDBRANCH  24  25
ENDBRANCH   1  24
TORSDOF 15
