REMARK SMILES CNC(=O)c1cccc(-c2cnc(O)c(C(=O)OCCOC(=O)c3ccc(-c4c5nc(c(-c6c(F)c(F)c(F)c(F)c6F)c6ccc([nH]6)c(-c6c(F)c(F)c(F)c(F)c6F)c6nc(c(-c7c(F)c(F)c(F)c(F)c7F)c7ccc4[nH]7)C=C6)C=C5)cc3)c2)c1
REMARK SMILES IDX 19 1 18 2 16 3 17 4 15 5 10 6 11 7 87 8 12 9 13 10 9 11 5 12
REMARK SMILES IDX 6 13 88 14 7 15 8 16 3 17 1 18 2 19 4 21 14 22 20 24 21 25
REMARK SMILES IDX 22 26 23 27 24 28 25 29 86 30 26 31 85 32 27 33 28 34 29 35
REMARK SMILES IDX 79 36 30 37 84 38 78 39 80 40 31 41 83 42 77 43 76 44 32 46
REMARK SMILES IDX 64 47 44 48 63 49 45 50 48 51 62 52 81 53 46 54 47 55 61 57
REMARK SMILES IDX 82 58 49 59 33 60 34 61 42 62 35 63 36 64 40 65 43 66 37 67
REMARK SMILES IDX 38 68 41 69 39 70 65 71 66 72 74 73 67 74 68 75 72 76 75 77
REMARK SMILES IDX 69 78 70 79 73 80 71 81 50 82 51 83 59 84 52 85 53 86 57 87
REMARK SMILES IDX 60 88 54 89 55 90 58 91 56 92
REMARK H PARENT 2 20 14 23 80 45 48 56
REMARK Flexibility Score: inf
ROOT
ATOM      1  C   UNL     1      -6.086   2.598   1.567  1.00  0.00     0.275 C 
ENDROOT
BRANCH   1   2
ATOM      2  O   UNL     1      -5.208   1.596   2.117  1.00  0.00    -0.458 OA
BRANCH   2   3
ATOM      3  C   UNL     1      -4.102   2.055   2.756  1.00  0.00     0.343 C 
ATOM      4  O   UNL     1      -3.762   3.218   2.866  1.00  0.00    -0.246 OA
BRANCH   3   5
ATOM      5  C   UNL     1      -3.333   0.917   3.283  1.00  0.00     0.122 A 
ATOM      6  C   UNL     1      -2.181  -1.183   2.958  1.00  0.00     0.001 A 
ATOM      7  C   UNL     1      -1.715  -1.063   4.267  1.00  0.00     0.124 A 
ATOM      8  C   UNL     1      -3.046  -0.183   2.485  1.00  0.00     0.031 A 
ATOM      9  N   UNL     1      -2.043  -0.051   5.095  1.00  0.00    -0.221 NA
ATOM     10  C   UNL     1      -2.807   0.919   4.560  1.00  0.00     0.225 A 
BRANCH   6  11
ATOM     11  C   UNL     1      -1.673  -2.213   2.057  1.00  0.00    -0.016 A 
ATOM     12  C   UNL     1      -0.539  -2.728  -0.035  1.00  0.00     0.040 A 
ATOM     13  C   UNL     1      -0.552  -4.085   0.290  1.00  0.00     0.014 A 
ATOM     14  C   UNL     1      -1.136  -1.812   0.825  1.00  0.00     0.022 A 
ATOM     15  C   UNL     1      -1.106  -4.507   1.502  1.00  0.00     0.001 A 
ATOM     16  C   UNL     1      -1.650  -3.573   2.389  1.00  0.00     0.009 A 
BRANCH  12  17
ATOM     17  C   UNL     1       0.042  -2.274  -1.318  1.00  0.00     0.251 C 
ATOM     18  C   UNL     1       1.299  -0.276  -0.327  1.00  0.00     0.143 C 
ATOM     19  N   UNL     1       0.768  -1.109  -1.387  1.00  0.00    -0.355 N 
ATOM     20  H   UNL     1       0.958  -0.791  -2.300  1.00  0.00     0.163 HD
ATOM     21  O   UNL     1      -0.143  -2.942  -2.331  1.00  0.00    -0.269 OA
ENDBRANCH  12  17
ENDBRANCH   6  11
BRANCH  10  22
ATOM     22  O   UNL     1      -3.090   1.884   5.452  1.00  0.00    -0.493 OA
ATOM     23  H   UNL     1      -2.715   1.854   6.310  1.00  0.00     0.295 HD
ENDBRANCH  10  22
ENDBRANCH   3   5
ENDBRANCH   2   3
ENDBRANCH   1   2
BRANCH   1  24
ATOM     24  C   UNL     1      -7.334   2.773   2.433  1.00  0.00     0.275 C 
BRANCH  24  25
ATOM     25  O   UNL     1      -7.034   3.496   3.644  1.00  0.00    -0.458 OA
BRANCH  25  26
ATOM     26  C   UNL     1      -6.807   2.712   4.720  1.00  0.00     0.338 C 
ATOM     27  O   UNL     1      -6.847   1.492   4.770  1.00  0.00    -0.246 OA
BRANCH  26  28
ATOM     28  C   UNL     1      -6.376   3.500   5.883  1.00  0.00     0.060 A 
ATOM     29  C   UNL     1      -5.026   3.785   5.965  1.00  0.00     0.016 A 
ATOM     30  C   UNL     1      -7.175   3.605   7.019  1.00  0.00     0.016 A 
ATOM     31  C   UNL     1      -4.431   3.913   7.215  1.00  0.00     0.010 A 
ATOM     32  C   UNL     1      -6.589   3.938   8.252  1.00  0.00     0.010 A 
ATOM     33  C   UNL     1      -5.191   4.014   8.388  1.00  0.00    -0.014 A 
BRANCH  33  34
ATOM     34  C   UNL     1      -4.507   4.141   9.719  1.00  0.00     0.031 A 
ATOM     35  C   UNL     1      -4.904   3.268  10.891  1.00  0.00     0.074 A 
ATOM     36  C   UNL     1      -3.484   5.008   9.884  1.00  0.00     0.049 A 
ATOM     37  N   UNL     1      -4.575   3.375  12.157  1.00  0.00    -0.248 NA
ATOM     38  C   UNL     1      -5.803   2.138  10.612  1.00  0.00     0.031 C 
ATOM     39  C   UNL     1      -2.938   5.888   8.848  1.00  0.00     0.029 A 
ATOM     40  N   UNL     1      -2.701   5.285  10.982  1.00  0.00    -0.354 N 
ATOM     41  C   UNL     1      -5.295   2.393  12.829  1.00  0.00     0.074 A 
ATOM     42  C   UNL     1      -6.072   1.690  11.831  1.00  0.00     0.031 C 
ATOM     43  C   UNL     1      -1.868   6.533   9.325  1.00  0.00     0.029 A 
ATOM     44  C   UNL     1      -1.748   6.248  10.746  1.00  0.00     0.049 A 
ATOM     45  H   UNL     1      -2.812   4.836  11.851  1.00  0.00     0.167 HD
ATOM     46  C   UNL     1      -5.311   2.112  14.157  1.00  0.00     0.037 A 
ATOM     47  C   UNL     1      -0.916   6.901  11.578  1.00  0.00     0.037 A 
ATOM     48  C   UNL     1      -4.468   2.759  15.133  1.00  0.00     0.049 A 
ATOM     49  C   UNL     1      -0.965   6.591  13.043  1.00  0.00     0.074 A 
ATOM     50  C   UNL     1      -4.384   2.523  16.495  1.00  0.00     0.029 A 
ATOM     51  N   UNL     1      -3.548   3.759  14.848  1.00  0.00    -0.354 N 
ATOM     52  N   UNL     1      -1.710   5.719  13.678  1.00  0.00    -0.248 NA
ATOM     53  C   UNL     1      -0.077   7.373  13.912  1.00  0.00     0.031 C 
ATOM     54  C   UNL     1      -3.457   3.417  17.042  1.00  0.00     0.029 A 
ATOM     55  C   UNL     1      -2.911   4.165  16.012  1.00  0.00     0.049 A 
ATOM     56  H   UNL     1      -3.373   4.126  13.951  1.00  0.00     0.167 HD
ATOM     57  C   UNL     1      -1.375   5.839  15.018  1.00  0.00     0.074 A 
ATOM     58  C   UNL     1      -0.340   6.850  15.100  1.00  0.00     0.031 C 
ATOM     59  C   UNL     1      -1.884   5.174  16.083  1.00  0.00     0.037 A 
BRANCH  46  60
ATOM     60  C   UNL     1      -6.311   1.099  14.653  1.00  0.00     0.064 A 
ATOM     61  C   UNL     1      -6.210  -0.270  14.368  1.00  0.00     0.173 A 
ATOM     62  C   UNL     1      -7.380   1.516  15.466  1.00  0.00     0.173 A 
ATOM     63  F   UNL     1      -5.215  -0.727  13.593  1.00  0.00    -0.203 F 
ATOM     64  C   UNL     1      -7.159  -1.175  14.843  1.00  0.00     0.198 A 
ATOM     65  C   UNL     1      -8.305   0.605  15.969  1.00  0.00     0.198 A 
ATOM     66  F   UNL     1      -7.522   2.812  15.784  1.00  0.00    -0.203 F 
ATOM     67  F   UNL     1      -7.074  -2.470  14.508  1.00  0.00    -0.200 F 
ATOM     68  C   UNL     1      -8.201  -0.739  15.648  1.00  0.00     0.200 A 
ATOM     69  F   UNL     1      -9.299   1.029  16.762  1.00  0.00    -0.200 F 
ATOM     70  F   UNL     1      -9.108  -1.611  16.107  1.00  0.00    -0.200 F 
ENDBRANCH  46  60
BRANCH  47  71
ATOM     71  C   UNL     1      -0.030   7.969  11.040  1.00  0.00     0.064 A 
ATOM     72  C   UNL     1       1.363   7.824  11.032  1.00  0.00     0.173 A 
ATOM     73  C   UNL     1      -0.565   9.147  10.491  1.00  0.00     0.173 A 
ATOM     74  F   UNL     1       1.925   6.731  11.569  1.00  0.00    -0.203 F 
ATOM     75  C   UNL     1       2.185   8.814  10.498  1.00  0.00     0.198 A 
ATOM     76  C   UNL     1       0.255  10.115   9.920  1.00  0.00     0.198 A 
ATOM     77  F   UNL     1      -1.893   9.338  10.474  1.00  0.00    -0.203 F 
ATOM     78  F   UNL     1       3.517   8.668  10.538  1.00  0.00    -0.200 F 
ATOM     79  C   UNL     1       1.631   9.951   9.930  1.00  0.00     0.200 A 
ATOM     80  F   UNL     1      -0.289  11.200   9.351  1.00  0.00    -0.200 F 
ATOM     81  F   UNL     1       2.422  10.892   9.397  1.00  0.00    -0.200 F 
ENDBRANCH  47  71
BRANCH  59  82
ATOM     82  C   UNL     1      -1.295   5.492  17.427  1.00  0.00     0.064 A 
ATOM     83  C   UNL     1      -1.522   6.723  18.061  1.00  0.00     0.173 A 
ATOM     84  C   UNL     1      -0.495   4.549  18.089  1.00  0.00     0.173 A 
ATOM     85  F   UNL     1      -2.263   7.666  17.461  1.00  0.00    -0.203 F 
ATOM     86  C   UNL     1      -0.940   7.010  19.293  1.00  0.00     0.198 A 
ATOM     87  C   UNL     1       0.057   4.827  19.336  1.00  0.00     0.198 A 
ATOM     88  F   UNL     1      -0.250   3.356  17.527  1.00  0.00    -0.203 F 
ATOM     89  F   UNL     1      -1.118   8.216  19.851  1.00  0.00    -0.200 F 
ATOM     90  C   UNL     1      -0.157   6.060  19.932  1.00  0.00     0.200 A 
ATOM     91  F   UNL     1       0.802   3.902  19.958  1.00  0.00    -0.200 F 
ATOM     92  F   UNL     1       0.402   6.338  21.118  1.00  0.00    -0.200 F 
ENDBRANCH  59  82
ENDBRANCH  33  34
ENDBRANCH  26  28
ENDBRANCH  25  26
ENDBRANCH  24  25
ENDBRANCH   1  24
TORSDOF 14
