REMARK SMILES C[C@H](C[NH3+])CS/C=C/C(=O)OCCOC(=O)c1ccc(-c2c3nc(c(-c4c(F)c(F)c(F)c(F)c4F)c4ccc([nH]4)c(-c4c(F)c(F)c(F)c(F)c4F)c4nc(c(-c5c(F)c(F)c(F)c(F)c5F)c5ccc2[nH]5)C=C4)C=C3)cc1
REMARK SMILES IDX 11 1 9 2 10 3 8 4 7 5 6 6 5 7 2 8 1 9 3 10 4 11 12 15 13 16
REMARK SMILES IDX 14 17 15 18 16 19 17 20 18 21 79 22 19 23 78 24 20 25 21 26
REMARK SMILES IDX 22 27 72 28 23 29 77 30 71 31 73 32 24 33 76 34 70 35 69 36
REMARK SMILES IDX 25 38 57 39 37 40 56 41 38 42 41 43 55 44 74 45 39 46 40 47
REMARK SMILES IDX 54 49 75 50 42 51 26 52 27 53 35 54 28 55 29 56 33 57 36 58
REMARK SMILES IDX 30 59 31 60 34 61 32 62 58 63 59 64 67 65 60 66 61 67 65 68
REMARK SMILES IDX 68 69 62 70 63 71 66 72 64 73 43 74 44 75 52 76 45 77 46 78
REMARK SMILES IDX 50 79 53 80 47 81 48 82 51 83 49 84
REMARK H PARENT 4 12 4 13 4 14 73 37 41 48
REMARK Flexibility Score: inf
ROOT
ATOM      1  O   UNL     1      -0.628   4.369  -0.325  1.00  0.00    -0.459 OA
ENDROOT
BRANCH   1   2
ATOM      2  C   UNL     1      -0.019   3.166  -0.379  1.00  0.00     0.331 C 
ATOM      3  O   UNL     1       1.154   2.917  -0.160  1.00  0.00    -0.247 OA
BRANCH   2   4
ATOM      4  C   UNL     1      -1.018   2.121  -0.626  1.00  0.00     0.100 C 
ATOM      5  C   UNL     1      -0.837   1.336  -1.692  1.00  0.00     0.048 C 
BRANCH   5   6
ATOM      6  S   UNL     1      -1.649  -0.178  -1.860  1.00  0.00    -0.133 SA
BRANCH   6   7
ATOM      7  C   UNL     1      -0.888  -1.135  -0.484  1.00  0.00     0.083 C 
BRANCH   7   8
ATOM      8  C   UNL     1       0.526  -1.686  -0.772  1.00  0.00     0.051 C 
ATOM      9  C   UNL     1       0.786  -2.897   0.138  1.00  0.00     0.014 C 
BRANCH   8  10
ATOM     10  C   UNL     1       1.673  -0.655  -0.664  1.00  0.00     0.262 C 
BRANCH  10  11
ATOM     11  N   UNL     1       2.240  -0.479   0.671  1.00  0.00    -0.357 N 
ATOM     12  H   UNL     1       1.523  -0.115   1.299  1.00  0.00     0.344 HD
ATOM     13  H   UNL     1       3.018   0.179   0.626  1.00  0.00     0.344 HD
ATOM     14  H   UNL     1       2.573  -1.377   1.020  1.00  0.00     0.344 HD
ENDBRANCH  10  11
ENDBRANCH   8  10
ENDBRANCH   7   8
ENDBRANCH   6   7
ENDBRANCH   5   6
ENDBRANCH   2   4
ENDBRANCH   1   2
BRANCH   1  15
ATOM     15  C   UNL     1       0.187   5.445   0.168  1.00  0.00     0.275 C 
BRANCH  15  16
ATOM     16  C   UNL     1      -0.145   5.733   1.634  1.00  0.00     0.275 C 
BRANCH  16  17
ATOM     17  O   UNL     1       0.323   4.690   2.518  1.00  0.00    -0.458 OA
BRANCH  17  18
ATOM     18  C   UNL     1      -0.566   3.702   2.766  1.00  0.00     0.338 C 
ATOM     19  O   UNL     1      -1.702   3.601   2.322  1.00  0.00    -0.246 OA
BRANCH  18  20
ATOM     20  C   UNL     1       0.042   2.632   3.574  1.00  0.00     0.060 A 
ATOM     21  C   UNL     1       0.043   1.343   3.038  1.00  0.00     0.016 A 
ATOM     22  C   UNL     1       0.478   2.851   4.883  1.00  0.00     0.016 A 
ATOM     23  C   UNL     1       0.454   0.262   3.813  1.00  0.00     0.010 A 
ATOM     24  C   UNL     1       0.907   1.762   5.658  1.00  0.00     0.010 A 
ATOM     25  C   UNL     1       0.882   0.458   5.132  1.00  0.00    -0.014 A 
BRANCH  25  26
ATOM     26  C   UNL     1       1.242  -0.732   5.944  1.00  0.00     0.031 A 
ATOM     27  C   UNL     1       0.291  -1.258   6.981  1.00  0.00     0.074 A 
ATOM     28  C   UNL     1       2.382  -1.399   5.680  1.00  0.00     0.049 A 
ATOM     29  N   UNL     1       0.393  -2.323   7.737  1.00  0.00    -0.248 NA
ATOM     30  C   UNL     1      -0.946  -0.491   7.187  1.00  0.00     0.031 C 
ATOM     31  C   UNL     1       3.362  -1.019   4.664  1.00  0.00     0.029 A 
ATOM     32  N   UNL     1       2.895  -2.548   6.229  1.00  0.00    -0.354 N 
ATOM     33  C   UNL     1      -0.762  -2.355   8.507  1.00  0.00     0.074 A 
ATOM     34  C   UNL     1      -1.537  -1.185   8.150  1.00  0.00     0.031 C 
ATOM     35  C   UNL     1       4.350  -1.928   4.649  1.00  0.00     0.029 A 
ATOM     36  C   UNL     1       4.093  -2.932   5.677  1.00  0.00     0.049 A 
ATOM     37  H   UNL     1       2.447  -3.049   6.949  1.00  0.00     0.167 HD
ATOM     38  C   UNL     1      -1.146  -3.281   9.419  1.00  0.00     0.037 A 
ATOM     39  C   UNL     1       4.896  -3.972   5.974  1.00  0.00     0.037 A 
ATOM     40  C   UNL     1      -0.373  -4.444   9.777  1.00  0.00     0.049 A 
ATOM     41  C   UNL     1       4.476  -4.947   7.042  1.00  0.00     0.074 A 
ATOM     42  C   UNL     1      -0.677  -5.435  10.695  1.00  0.00     0.029 A 
ATOM     43  N   UNL     1       0.864  -4.769   9.238  1.00  0.00    -0.354 N 
ATOM     44  N   UNL     1       3.377  -4.974   7.755  1.00  0.00    -0.248 NA
ATOM     45  C   UNL     1       5.410  -6.043   7.338  1.00  0.00     0.031 C 
ATOM     46  C   UNL     1       0.397  -6.331  10.749  1.00  0.00     0.029 A 
ATOM     47  C   UNL     1       1.344  -5.933   9.820  1.00  0.00     0.049 A 
ATOM     48  H   UNL     1       1.331  -4.251   8.544  1.00  0.00     0.167 HD
ATOM     49  C   UNL     1       3.471  -6.103   8.560  1.00  0.00     0.074 A 
ATOM     50  C   UNL     1       4.729  -6.743   8.233  1.00  0.00     0.031 C 
ATOM     51  C   UNL     1       2.595  -6.567   9.484  1.00  0.00     0.037 A 
BRANCH  38  52
ATOM     52  C   UNL     1      -2.453  -3.055  10.124  1.00  0.00     0.064 A 
ATOM     53  C   UNL     1      -3.683  -3.201   9.464  1.00  0.00     0.173 A 
ATOM     54  C   UNL     1      -2.476  -2.717  11.485  1.00  0.00     0.173 A 
ATOM     55  F   UNL     1      -3.717  -3.510   8.159  1.00  0.00    -0.203 F 
ATOM     56  C   UNL     1      -4.886  -2.990  10.135  1.00  0.00     0.198 A 
ATOM     57  C   UNL     1      -3.680  -2.536  12.160  1.00  0.00     0.198 A 
ATOM     58  F   UNL     1      -1.329  -2.571  12.165  1.00  0.00    -0.203 F 
ATOM     59  F   UNL     1      -6.047  -3.086   9.473  1.00  0.00    -0.200 F 
ATOM     60  C   UNL     1      -4.883  -2.663  11.483  1.00  0.00     0.200 A 
ATOM     61  F   UNL     1      -3.676  -2.233  13.466  1.00  0.00    -0.200 F 
ATOM     62  F   UNL     1      -6.041  -2.464  12.129  1.00  0.00    -0.200 F 
ENDBRANCH  38  52
BRANCH  39  63
ATOM     63  C   UNL     1       6.186  -4.143   5.254  1.00  0.00     0.064 A 
ATOM     64  C   UNL     1       6.404  -5.231   4.398  1.00  0.00     0.173 A 
ATOM     65  C   UNL     1       7.239  -3.233   5.434  1.00  0.00     0.173 A 
ATOM     66  F   UNL     1       5.438  -6.144   4.216  1.00  0.00    -0.203 F 
ATOM     67  C   UNL     1       7.632  -5.415   3.766  1.00  0.00     0.198 A 
ATOM     68  C   UNL     1       8.456  -3.401   4.777  1.00  0.00     0.198 A 
ATOM     69  F   UNL     1       7.085  -2.178   6.247  1.00  0.00    -0.203 F 
ATOM     70  F   UNL     1       7.833  -6.495   2.999  1.00  0.00    -0.200 F 
ATOM     71  C   UNL     1       8.655  -4.497   3.952  1.00  0.00     0.200 A 
ATOM     72  F   UNL     1       9.438  -2.506   4.952  1.00  0.00    -0.200 F 
ATOM     73  F   UNL     1       9.837  -4.676   3.347  1.00  0.00    -0.200 F 
ENDBRANCH  39  63
BRANCH  51  74
ATOM     74  C   UNL     1       2.945  -7.854  10.177  1.00  0.00     0.064 A 
ATOM     75  C   UNL     1       4.001  -7.939  11.097  1.00  0.00     0.173 A 
ATOM     76  C   UNL     1       2.205  -9.020   9.922  1.00  0.00     0.173 A 
ATOM     77  F   UNL     1       4.749  -6.858  11.367  1.00  0.00    -0.203 F 
ATOM     78  C   UNL     1       4.328  -9.149  11.704  1.00  0.00     0.198 A 
ATOM     79  C   UNL     1       2.513 -10.220  10.556  1.00  0.00     0.198 A 
ATOM     80  F   UNL     1       1.179  -8.995   9.058  1.00  0.00    -0.203 F 
ATOM     81  F   UNL     1       5.381  -9.219  12.530  1.00  0.00    -0.200 F 
ATOM     82  C   UNL     1       3.581 -10.287  11.437  1.00  0.00     0.200 A 
ATOM     83  F   UNL     1       1.780 -11.315  10.309  1.00  0.00    -0.200 F 
ATOM     84  F   UNL     1       3.898 -11.450  12.021  1.00  0.00    -0.200 F 
ENDBRANCH  51  74
ENDBRANCH  25  26
ENDBRANCH  18  20
ENDBRANCH  17  18
ENDBRANCH  16  17
ENDBRANCH  15  16
ENDBRANCH   1  15
TORSDOF 16
