REMARK SMILES O=C(OCCOC(=O)[C@]12CCC[NH2+][C@@H]1CCN(C(=O)Cc1c(F)cccc1Cl)C2)c1ccc(-c2c3nc(c(-c4c(F)c(F)c(F)c(F)c4F)c4ccc([nH]4)c(-c4c(F)c(F)c(F)c(F)c4F)c4nc(c(-c5c(F)c(F)c(F)c(F)c5F)c5ccc2[nH]5)C=C4)C=C3)cc1
REMARK SMILES IDX 5 1 4 2 3 3 2 4 1 5 30 6 31 7 92 8 32 9 91 10 33 11 34 12
REMARK SMILES IDX 35 13 85 14 36 15 90 16 84 17 86 18 37 19 89 20 83 21 82 22
REMARK SMILES IDX 38 24 70 25 50 26 69 27 51 28 54 29 68 30 87 31 52 32 53 33
REMARK SMILES IDX 67 35 88 36 55 37 39 38 40 39 48 40 41 41 42 42 46 43 49 44
REMARK SMILES IDX 43 45 44 46 47 47 45 48 71 49 72 50 80 51 73 52 74 53 78 54
REMARK SMILES IDX 81 55 75 56 76 57 79 58 77 59 56 60 57 61 65 62 58 63 59 64
REMARK SMILES IDX 63 65 66 66 60 67 61 68 64 69 62 70 6 71 7 72 8 73 9 74
REMARK SMILES IDX 10 75 14 76 29 77 11 78 13 79 15 80 17 81 12 82 16 85 18 86
REMARK SMILES IDX 19 87 20 88 21 89 22 90 27 91 23 92 24 93 26 94 28 95 25 96
REMARK H PARENT 86 23 54 34 13 83 13 84
REMARK Flexibility Score: inf
ROOT
ATOM      1  C   UNL     1       3.002   2.445  -0.323  1.00  0.00     0.274 C 
ENDROOT
BRANCH   1   2
ATOM      2  C   UNL     1       3.554   1.466  -1.370  1.00  0.00     0.275 C 
BRANCH   2   3
ATOM      3  O   UNL     1       2.584   0.510  -1.774  1.00  0.00    -0.458 OA
BRANCH   3   4
ATOM      4  C   UNL     1       2.631  -0.749  -1.284  1.00  0.00     0.338 C 
ATOM      5  O   UNL     1       1.785  -1.593  -1.526  1.00  0.00    -0.246 OA
BRANCH   4   6
ATOM      6  C   UNL     1       3.763  -1.016  -0.362  1.00  0.00     0.060 A 
ATOM      7  C   UNL     1       3.588  -0.476   1.193  1.00  0.00     0.016 A 
ATOM      8  C   UNL     1       4.817  -2.271  -0.520  1.00  0.00     0.016 A 
ATOM      9  C   UNL     1       4.265  -1.385   2.762  1.00  0.00     0.010 A 
ATOM     10  C   UNL     1       5.656  -3.122   0.830  1.00  0.00     0.010 A 
ATOM     11  C   UNL     1       5.282  -2.814   2.514  1.00  0.00    -0.014 A 
BRANCH  11  12
ATOM     12  C   UNL     1       5.833  -3.716   3.563  1.00  0.00     0.031 A 
ATOM     13  C   UNL     1       6.371  -5.087   3.277  1.00  0.00     0.074 A 
ATOM     14  C   UNL     1       5.901  -3.360   4.849  1.00  0.00     0.049 A 
ATOM     15  N   UNL     1       7.580  -5.557   3.424  1.00  0.00    -0.248 NA
ATOM     16  C   UNL     1       5.406  -6.089   2.803  1.00  0.00     0.031 C 
ATOM     17  C   UNL     1       5.164  -2.298   5.488  1.00  0.00     0.029 A 
ATOM     18  N   UNL     1       6.762  -3.788   5.817  1.00  0.00    -0.354 N 
ATOM     19  C   UNL     1       7.564  -6.808   2.817  1.00  0.00     0.074 A 
ATOM     20  C   UNL     1       6.208  -7.073   2.397  1.00  0.00     0.031 C 
ATOM     21  C   UNL     1       5.800  -1.915   6.593  1.00  0.00     0.029 A 
ATOM     22  C   UNL     1       6.825  -2.907   6.868  1.00  0.00     0.049 A 
ATOM     23  H   UNL     1       7.277  -4.626   5.767  1.00  0.00     0.167 HD
ATOM     24  C   UNL     1       8.548  -7.735   2.776  1.00  0.00     0.037 A 
ATOM     25  C   UNL     1       7.583  -2.949   7.971  1.00  0.00     0.037 A 
ATOM     26  C   UNL     1       9.411  -7.907   3.914  1.00  0.00     0.049 A 
ATOM     27  C   UNL     1       8.519  -4.111   8.088  1.00  0.00     0.074 A 
ATOM     28  C   UNL     1      10.239  -8.966   4.233  1.00  0.00     0.029 A 
ATOM     29  N   UNL     1       9.372  -7.073   5.028  1.00  0.00    -0.354 N 
ATOM     30  N   UNL     1       8.804  -5.040   7.203  1.00  0.00    -0.248 NA
ATOM     31  C   UNL     1       9.201  -4.261   9.371  1.00  0.00     0.031 C 
ATOM     32  C   UNL     1      10.569  -8.847   5.591  1.00  0.00     0.029 A 
ATOM     33  C   UNL     1      10.068  -7.645   6.073  1.00  0.00     0.049 A 
ATOM     34  H   UNL     1       8.915  -6.202   5.064  1.00  0.00     0.167 HD
ATOM     35  C   UNL     1       9.687  -5.902   7.830  1.00  0.00     0.074 A 
ATOM     36  C   UNL     1       9.929  -5.344   9.149  1.00  0.00     0.031 C 
ATOM     37  C   UNL     1      10.240  -7.057   7.379  1.00  0.00     0.037 A 
BRANCH  24  38
ATOM     38  C   UNL     1       8.551  -8.724   1.647  1.00  0.00     0.064 A 
ATOM     39  C   UNL     1       9.040  -8.333   0.387  1.00  0.00     0.173 A 
ATOM     40  C   UNL     1       8.134 -10.053   1.789  1.00  0.00     0.173 A 
ATOM     41  F   UNL     1       9.486  -7.081   0.194  1.00  0.00    -0.203 F 
ATOM     42  C   UNL     1       9.084  -9.224  -0.687  1.00  0.00     0.198 A 
ATOM     43  C   UNL     1       8.188 -10.947   0.716  1.00  0.00     0.198 A 
ATOM     44  F   UNL     1       7.673 -10.492   2.969  1.00  0.00    -0.203 F 
ATOM     45  F   UNL     1       9.540  -8.814  -1.880  1.00  0.00    -0.200 F 
ATOM     46  C   UNL     1       8.656 -10.530  -0.522  1.00  0.00     0.200 A 
ATOM     47  F   UNL     1       7.787 -12.215   0.882  1.00  0.00    -0.200 F 
ATOM     48  F   UNL     1       8.696 -11.388  -1.552  1.00  0.00    -0.200 F 
ENDBRANCH  24  38
BRANCH  25  49
ATOM     49  C   UNL     1       7.372  -1.952   9.053  1.00  0.00     0.064 A 
ATOM     50  C   UNL     1       8.405  -1.132   9.517  1.00  0.00     0.173 A 
ATOM     51  C   UNL     1       6.105  -1.794   9.645  1.00  0.00     0.173 A 
ATOM     52  F   UNL     1       9.636  -1.243   8.997  1.00  0.00    -0.203 F 
ATOM     53  C   UNL     1       8.186  -0.215  10.546  1.00  0.00     0.198 A 
ATOM     54  C   UNL     1       5.872  -0.834  10.622  1.00  0.00     0.198 A 
ATOM     55  F   UNL     1       5.070  -2.549   9.243  1.00  0.00    -0.203 F 
ATOM     56  F   UNL     1       9.208   0.507  11.023  1.00  0.00    -0.200 F 
ATOM     57  C   UNL     1       6.918  -0.059  11.088  1.00  0.00     0.200 A 
ATOM     58  F   UNL     1       4.634  -0.664  11.105  1.00  0.00    -0.200 F 
ATOM     59  F   UNL     1       6.707   0.829  12.068  1.00  0.00    -0.200 F 
ENDBRANCH  25  49
BRANCH  37  60
ATOM     60  C   UNL     1      11.170  -7.754   8.321  1.00  0.00     0.064 A 
ATOM     61  C   UNL     1      10.726  -8.338   9.517  1.00  0.00     0.173 A 
ATOM     62  C   UNL     1      12.535  -7.830   8.010  1.00  0.00     0.173 A 
ATOM     63  F   UNL     1       9.430  -8.278   9.861  1.00  0.00    -0.203 F 
ATOM     64  C   UNL     1      11.630  -8.921  10.397  1.00  0.00     0.198 A 
ATOM     65  C   UNL     1      13.425  -8.460   8.867  1.00  0.00     0.198 A 
ATOM     66  F   UNL     1      13.001  -7.293   6.872  1.00  0.00    -0.203 F 
ATOM     67  F   UNL     1      11.202  -9.391  11.577  1.00  0.00    -0.200 F 
ATOM     68  C   UNL     1      12.976  -8.988  10.068  1.00  0.00     0.200 A 
ATOM     69  F   UNL     1      14.720  -8.544   8.536  1.00  0.00    -0.200 F 
ATOM     70  F   UNL     1      13.846  -9.550  10.918  1.00  0.00    -0.200 F 
ENDBRANCH  37  60
ENDBRANCH  11  12
ENDBRANCH   4   6
ENDBRANCH   3   4
ENDBRANCH   2   3
ENDBRANCH   1   2
BRANCH   1  71
ATOM     71  O   UNL     1       2.188   2.046   0.859  1.00  0.00    -0.461 OA
BRANCH  71  72
ATOM     72  C   UNL     1       1.428   0.925   1.155  1.00  0.00     0.320 C 
ATOM     73  O   UNL     1       0.441   0.596   0.520  1.00  0.00    -0.251 OA
BRANCH  72  74
ATOM     74  C   UNL     1       1.994   0.136   2.529  1.00  0.00     0.137 C 
ATOM     75  C   UNL     1       0.998   0.471   3.648  1.00  0.00     0.033 C 
ATOM     76  C   UNL     1       3.518   0.980   3.091  1.00  0.00     0.203 C 
ATOM     77  C   UNL     1       2.132  -1.732   2.125  1.00  0.00     0.144 C 
ATOM     78  C   UNL     1       0.773   1.993   3.703  1.00  0.00     0.063 C 
ATOM     79  N   UNL     1       3.336   2.437   3.208  1.00  0.00    -0.343 N 
ATOM     80  C   UNL     1       5.166   0.592   2.268  1.00  0.00     0.088 C 
ATOM     81  N   UNL     1       3.688  -2.377   1.247  1.00  0.00    -0.341 N 
ATOM     82  C   UNL     1       2.037   2.884   3.748  1.00  0.00     0.260 C 
ATOM     83  H   UNL     1       4.069   2.795   3.822  1.00  0.00     0.346 HD
ATOM     84  H   UNL     1       3.378   2.797   2.255  1.00  0.00     0.346 HD
ATOM     85  C   UNL     1       5.363  -1.072   1.228  1.00  0.00     0.125 C 
BRANCH  81  86
ATOM     86  C   UNL     1       3.345  -3.887   0.765  1.00  0.00     0.227 C 
ATOM     87  O   UNL     1       2.326  -4.379   1.300  1.00  0.00    -0.275 OA
BRANCH  86  88
ATOM     88  C   UNL     1       4.303  -5.074  -0.179  1.00  0.00     0.140 C 
BRANCH  88  89
ATOM     89  C   UNL     1       5.376  -4.998  -1.382  1.00  0.00     0.016 A 
ATOM     90  C   UNL     1       6.506  -5.835  -1.385  1.00  0.00     0.128 A 
ATOM     91  C   UNL     1       5.462  -4.072  -2.421  1.00  0.00     0.047 A 
ATOM     92  F   UNL     1       6.476  -7.008  -0.739  1.00  0.00    -0.207 F 
ATOM     93  C   UNL     1       7.699  -5.485  -2.057  1.00  0.00     0.039 A 
ATOM     94  C   UNL     1       6.689  -3.468  -2.743  1.00  0.00     0.021 A 
ATOM     95  Cl  UNL     1       4.119  -3.705  -3.452  1.00  0.00    -0.084 Cl
ATOM     96  C   UNL     1       7.839  -4.209  -2.586  1.00  0.00     0.005 A 
ENDBRANCH  88  89
ENDBRANCH  86  88
ENDBRANCH  81  86
ENDBRANCH  72  74
ENDBRANCH  71  72
ENDBRANCH   1  71
TORSDOF 14
