REMARK SMILES COc1cc(/C=C2/SC(=O)N(c3ccc(C)c(C)c3)C2=O)ccc1OCCC(=O)OCCOC(=O)c1ccc(-c2c3nc(c(-c4c(F)c(F)c(F)c(F)c4F)c4ccc([nH]4)c(-c4c(F)c(F)c(F)c(F)c4F)c4nc(c(-c5c(F)c(F)c(F)c(F)c5F)c5ccc2[nH]5)C=C4)C=C3)cc1
REMARK SMILES IDX 30 1 28 2 29 3 27 4 26 5 25 6 24 7 3 8 4 9 5 10 23 11 22 12
REMARK SMILES IDX 2 13 1 14 6 15 7 16 8 17 20 18 9 19 11 20 21 21 10 22 12 23
REMARK SMILES IDX 13 24 19 25 14 26 17 27 15 28 18 29 16 30 31 31 32 32 33 33
REMARK SMILES IDX 34 34 35 35 36 36 37 37 98 38 38 39 97 40 39 41 40 42 41 43
REMARK SMILES IDX 91 44 42 45 96 46 90 47 92 48 43 49 95 50 89 51 88 52 44 54
REMARK SMILES IDX 76 55 56 56 75 57 57 58 60 59 74 60 93 61 58 62 59 63 73 65
REMARK SMILES IDX 94 66 61 67 45 68 46 69 54 70 47 71 48 72 52 73 55 74 49 75
REMARK SMILES IDX 50 76 53 77 51 78 77 79 78 80 86 81 79 82 80 83 84 84 87 85
REMARK SMILES IDX 81 86 82 87 85 88 83 89 62 90 63 91 71 92 64 93 65 94 69 95
REMARK SMILES IDX 72 96 66 97 67 98 70 99 68 100
REMARK H PARENT 92 53 60 64
REMARK Flexibility Score: inf
ROOT
ATOM      1  O   UNL     1       0.028  -2.446   1.513  1.00  0.00    -0.462 OA
ENDROOT
BRANCH   1   2
ATOM      2  C   UNL     1       0.312  -2.489   0.189  1.00  0.00     0.309 C 
ATOM      3  O   UNL     1      -0.525  -2.452  -0.705  1.00  0.00    -0.252 OA
BRANCH   2   4
ATOM      4  C   UNL     1       1.786  -2.721  -0.075  1.00  0.00     0.164 C 
BRANCH   4   5
ATOM      5  C   UNL     1       2.685  -1.494   0.042  1.00  0.00     0.241 C 
BRANCH   5   6
ATOM      6  O   UNL     1       3.440  -1.380   1.262  1.00  0.00    -0.489 OA
BRANCH   6   7
ATOM      7  C   UNL     1       2.647  -1.260   2.368  1.00  0.00     0.161 A 
ATOM      8  C   UNL     1       2.018  -0.069   2.734  1.00  0.00     0.161 A 
ATOM      9  C   UNL     1       1.118  -0.070   3.802  1.00  0.00     0.058 A 
ATOM     10  C   UNL     1       0.920  -1.238   4.564  1.00  0.00    -0.020 A 
ATOM     11  C   UNL     1       2.515  -2.398   3.167  1.00  0.00     0.051 A 
ATOM     12  C   UNL     1       1.649  -2.392   4.260  1.00  0.00     0.012 A 
BRANCH   8  13
ATOM     13  O   UNL     1       2.463   1.136   2.259  1.00  0.00    -0.493 OA
ATOM     14  C   UNL     1       1.761   1.617   1.125  1.00  0.00     0.278 C 
ENDBRANCH   8  13
BRANCH  10  15
ATOM     15  C   UNL     1       0.074  -1.237   5.766  1.00  0.00     0.029 C 
ATOM     16  C   UNL     1       0.396  -0.559   6.876  1.00  0.00     0.083 C 
ATOM     17  S   UNL     1      -0.518  -0.551   8.335  1.00  0.00    -0.022 SA
ATOM     18  C   UNL     1       1.611   0.275   7.043  1.00  0.00     0.272 C 
ATOM     19  C   UNL     1       0.609   0.556   9.132  1.00  0.00     0.298 C 
ATOM     20  N   UNL     1       1.550   0.974   8.230  1.00  0.00    -0.236 N 
ATOM     21  O   UNL     1       2.571   0.245   6.284  1.00  0.00    -0.268 OA
ATOM     22  O   UNL     1       0.488   0.852  10.312  1.00  0.00    -0.260 OA
BRANCH  20  23
ATOM     23  C   UNL     1       2.604   1.869   8.516  1.00  0.00     0.053 A 
ATOM     24  C   UNL     1       2.929   2.845   7.566  1.00  0.00     0.027 A 
ATOM     25  C   UNL     1       3.449   1.654   9.604  1.00  0.00     0.030 A 
ATOM     26  C   UNL     1       4.103   3.578   7.683  1.00  0.00     0.006 A 
ATOM     27  C   UNL     1       4.676   2.336   9.689  1.00  0.00    -0.046 A 
ATOM     28  C   UNL     1       5.000   3.316   8.726  1.00  0.00    -0.048 A 
ATOM     29  C   UNL     1       5.648   1.933  10.763  1.00  0.00     0.044 C 
ATOM     30  C   UNL     1       6.308   4.059   8.705  1.00  0.00     0.044 C 
ENDBRANCH  20  23
ENDBRANCH  10  15
ENDBRANCH   6   7
ENDBRANCH   5   6
ENDBRANCH   4   5
ENDBRANCH   2   4
ENDBRANCH   1   2
BRANCH   1  31
ATOM     31  C   UNL     1      -1.342  -2.635   1.920  1.00  0.00     0.274 C 
BRANCH  31  32
ATOM     32  C   UNL     1      -2.075  -1.326   2.189  1.00  0.00     0.275 C 
BRANCH  32  33
ATOM     33  O   UNL     1      -2.199  -0.593   0.965  1.00  0.00    -0.458 OA
BRANCH  33  34
ATOM     34  C   UNL     1      -1.731   0.671   0.985  1.00  0.00     0.338 C 
ATOM     35  O   UNL     1      -1.288   1.300   1.929  1.00  0.00    -0.246 OA
BRANCH  34  36
ATOM     36  C   UNL     1      -1.919   1.248  -0.350  1.00  0.00     0.060 A 
ATOM     37  C   UNL     1      -1.236   0.741  -1.460  1.00  0.00     0.016 A 
ATOM     38  C   UNL     1      -2.809   2.314  -0.476  1.00  0.00     0.016 A 
ATOM     39  C   UNL     1      -1.474   1.282  -2.720  1.00  0.00     0.010 A 
ATOM     40  C   UNL     1      -3.075   2.828  -1.740  1.00  0.00     0.010 A 
ATOM     41  C   UNL     1      -2.427   2.300  -2.869  1.00  0.00    -0.014 A 
BRANCH  41  42
ATOM     42  C   UNL     1      -2.874   2.738  -4.209  1.00  0.00     0.031 A 
ATOM     43  C   UNL     1      -2.555   4.111  -4.707  1.00  0.00     0.074 A 
ATOM     44  C   UNL     1      -3.675   1.911  -4.905  1.00  0.00     0.049 A 
ATOM     45  N   UNL     1      -3.026   4.739  -5.752  1.00  0.00    -0.248 NA
ATOM     46  C   UNL     1      -1.587   4.888  -3.918  1.00  0.00     0.031 C 
ATOM     47  C   UNL     1      -4.045   0.555  -4.492  1.00  0.00     0.029 A 
ATOM     48  N   UNL     1      -4.352   2.098  -6.082  1.00  0.00    -0.354 N 
ATOM     49  C   UNL     1      -2.427   5.990  -5.742  1.00  0.00     0.074 A 
ATOM     50  C   UNL     1      -1.568   6.039  -4.577  1.00  0.00     0.031 C 
ATOM     51  C   UNL     1      -4.892   0.037  -5.393  1.00  0.00     0.029 A 
ATOM     52  C   UNL     1      -5.169   1.043  -6.411  1.00  0.00     0.049 A 
ATOM     53  H   UNL     1      -4.262   2.906  -6.636  1.00  0.00     0.167 HD
ATOM     54  C   UNL     1      -2.590   7.000  -6.630  1.00  0.00     0.037 A 
ATOM     55  C   UNL     1      -6.074   0.921  -7.398  1.00  0.00     0.037 A 
ATOM     56  C   UNL     1      -3.459   6.926  -7.777  1.00  0.00     0.049 A 
ATOM     57  C   UNL     1      -6.273   2.076  -8.336  1.00  0.00     0.074 A 
ATOM     58  C   UNL     1      -3.675   7.874  -8.762  1.00  0.00     0.029 A 
ATOM     59  N   UNL     1      -4.267   5.839  -8.085  1.00  0.00    -0.354 N 
ATOM     60  N   UNL     1      -5.683   3.246  -8.340  1.00  0.00    -0.248 NA
ATOM     61  C   UNL     1      -7.269   1.899  -9.401  1.00  0.00     0.031 C 
ATOM     62  C   UNL     1      -4.648   7.379  -9.638  1.00  0.00     0.029 A 
ATOM     63  C   UNL     1      -5.004   6.104  -9.228  1.00  0.00     0.049 A 
ATOM     64  H   UNL     1      -4.310   5.003  -7.567  1.00  0.00     0.167 HD
ATOM     65  C   UNL     1      -6.220   3.941  -9.412  1.00  0.00     0.074 A 
ATOM     66  C   UNL     1      -7.174   3.053 -10.046  1.00  0.00     0.031 C 
ATOM     67  C   UNL     1      -5.952   5.201  -9.833  1.00  0.00     0.037 A 
BRANCH  54  68
ATOM     68  C   UNL     1      -1.837   8.275  -6.385  1.00  0.00     0.064 A 
ATOM     69  C   UNL     1      -0.447   8.356  -6.562  1.00  0.00     0.173 A 
ATOM     70  C   UNL     1      -2.518   9.442  -6.006  1.00  0.00     0.173 A 
ATOM     71  F   UNL     1       0.254   7.268  -6.913  1.00  0.00    -0.203 F 
ATOM     72  C   UNL     1       0.234   9.553  -6.348  1.00  0.00     0.198 A 
ATOM     73  C   UNL     1      -1.837  10.642  -5.818  1.00  0.00     0.198 A 
ATOM     74  F   UNL     1      -3.847   9.421  -5.828  1.00  0.00    -0.203 F 
ATOM     75  F   UNL     1       1.567   9.597  -6.485  1.00  0.00    -0.200 F 
ATOM     76  C   UNL     1      -0.461  10.696  -5.983  1.00  0.00     0.200 A 
ATOM     77  F   UNL     1      -2.512  11.748  -5.476  1.00  0.00    -0.200 F 
ATOM     78  F   UNL     1       0.195  11.847  -5.783  1.00  0.00    -0.200 F 
ENDBRANCH  54  68
BRANCH  55  79
ATOM     79  C   UNL     1      -6.858  -0.333  -7.526  1.00  0.00     0.064 A 
ATOM     80  C   UNL     1      -6.629  -1.217  -8.588  1.00  0.00     0.173 A 
ATOM     81  C   UNL     1      -7.822  -0.693  -6.572  1.00  0.00     0.173 A 
ATOM     82  F   UNL     1      -5.729  -0.907  -9.534  1.00  0.00    -0.203 F 
ATOM     83  C   UNL     1      -7.339  -2.410  -8.696  1.00  0.00     0.198 A 
ATOM     84  C   UNL     1      -8.512  -1.899  -6.666  1.00  0.00     0.198 A 
ATOM     85  F   UNL     1      -8.074   0.116  -5.532  1.00  0.00    -0.203 F 
ATOM     86  F   UNL     1      -7.123  -3.223  -9.739  1.00  0.00    -0.200 F 
ATOM     87  C   UNL     1      -8.274  -2.755  -7.731  1.00  0.00     0.200 A 
ATOM     88  F   UNL     1      -9.402  -2.236  -5.722  1.00  0.00    -0.200 F 
ATOM     89  F   UNL     1      -8.947  -3.909  -7.829  1.00  0.00    -0.200 F 
ENDBRANCH  55  79
BRANCH  67  90
ATOM     90  C   UNL     1      -6.691   5.680 -11.046  1.00  0.00     0.064 A 
ATOM     91  C   UNL     1      -8.047   6.029 -10.985  1.00  0.00     0.173 A 
ATOM     92  C   UNL     1      -6.026   5.821 -12.273  1.00  0.00     0.173 A 
ATOM     93  F   UNL     1      -8.729   5.891  -9.838  1.00  0.00    -0.203 F 
ATOM     94  C   UNL     1      -8.717   6.487 -12.116  1.00  0.00     0.198 A 
ATOM     95  C   UNL     1      -6.692   6.304 -13.395  1.00  0.00     0.198 A 
ATOM     96  F   UNL     1      -4.727   5.501 -12.379  1.00  0.00    -0.203 F 
ATOM     97  F   UNL     1     -10.024   6.774 -12.048  1.00  0.00    -0.200 F 
ATOM     98  C   UNL     1      -8.037   6.631 -13.317  1.00  0.00     0.200 A 
ATOM     99  F   UNL     1      -6.032   6.453 -14.552  1.00  0.00    -0.200 F 
ATOM    100  F   UNL     1      -8.682   7.078 -14.403  1.00  0.00    -0.200 F 
ENDBRANCH  67  90
ENDBRANCH  41  42
ENDBRANCH  34  36
ENDBRANCH  33  34
ENDBRANCH  32  33
ENDBRANCH  31  32
ENDBRANCH   1  31
TORSDOF 17
