REMARK SMILES CS(=O)(=O)NCCC(=O)N1CCC(Cc2cccc(C(=O)OCCOC(=O)c3ccc(-c4c5nc(c(-c6c(F)c(F)c(F)c(F)c6F)c6ccc([nH]6)c(-c6c(F)c(F)c(F)c(F)c6F)c6nc(c(-c7c(F)c(F)c(F)c(F)c7F)c7ccc4[nH]7)C=C6)C=C5)cc3)c2)CC1
REMARK SMILES IDX 20 1 21 2 19 3 15 4 16 5 91 6 17 7 18 8 14 9 13 10 8 11 9 12
REMARK SMILES IDX 10 13 11 14 93 15 12 16 92 17 7 18 6 19 5 20 2 22 1 23 3 24
REMARK SMILES IDX 4 25 22 26 23 27 24 28 25 29 26 30 27 31 28 32 29 33 90 34
REMARK SMILES IDX 30 35 89 36 31 37 32 38 33 39 83 40 34 41 88 42 82 43 84 44
REMARK SMILES IDX 35 45 87 46 81 47 80 48 36 50 68 51 48 52 67 53 49 54 52 55
REMARK SMILES IDX 66 56 85 57 50 58 51 59 65 61 86 62 53 63 37 64 38 65 46 66
REMARK SMILES IDX 39 67 40 68 44 69 47 70 41 71 42 72 45 73 43 74 69 75 70 76
REMARK SMILES IDX 78 77 71 78 72 79 76 80 79 81 73 82 74 83 77 84 75 85 54 86
REMARK SMILES IDX 55 87 63 88 56 89 57 90 61 91 64 92 58 93 59 94 62 95 60 96
REMARK H PARENT 5 21 84 49 52 60
REMARK Flexibility Score: inf
ROOT
ATOM      1  C   UNL     1      -4.838   3.510   8.423  1.00  0.00     0.338 C 
ATOM      2  O   UNL     1      -4.988   4.649   8.834  1.00  0.00    -0.246 OA
ENDROOT
BRANCH   1   3
ATOM      3  C   UNL     1      -3.793   2.595   8.953  1.00  0.00     0.060 A 
ATOM      4  C   UNL     1      -2.410   0.606   8.823  1.00  0.00    -0.047 A 
ATOM      5  C   UNL     1      -1.887   0.892  10.091  1.00  0.00     0.004 A 
ATOM      6  C   UNL     1      -3.409   1.432   8.282  1.00  0.00     0.019 A 
ATOM      7  C   UNL     1      -2.275   2.044  10.768  1.00  0.00     0.001 A 
ATOM      8  C   UNL     1      -3.188   2.916  10.178  1.00  0.00     0.016 A 
BRANCH   4   9
ATOM      9  C   UNL     1      -1.791  -0.488   7.987  1.00  0.00     0.039 C 
BRANCH   9  10
ATOM     10  C   UNL     1      -1.103   0.087   6.731  1.00  0.00    -0.003 C 
ATOM     11  C   UNL     1       2.478   0.717   4.752  1.00  0.00     0.223 C 
ATOM     12  O   UNL     1       3.259   1.022   5.658  1.00  0.00    -0.275 OA
ATOM     13  N   UNL     1       1.117   0.692   4.970  1.00  0.00    -0.343 N 
ATOM     14  C   UNL     1       0.522   1.752   5.769  1.00  0.00     0.119 C 
ATOM     15  C   UNL     1       0.272  -0.458   4.689  1.00  0.00     0.119 C 
ATOM     16  C   UNL     1      -0.099   1.215   7.050  1.00  0.00     0.025 C 
ATOM     17  C   UNL     1      -0.372  -1.017   5.958  1.00  0.00     0.025 C 
BRANCH  11  18
ATOM     18  C   UNL     1       2.983   0.680   3.314  1.00  0.00     0.116 C 
BRANCH  18  19
ATOM     19  C   UNL     1       2.554  -0.423   2.365  1.00  0.00     0.108 C 
BRANCH  19  20
ATOM     20  N   UNL     1       1.198  -0.256   1.836  1.00  0.00    -0.215 NA
ATOM     21  H   UNL     1       0.916  -1.176   1.498  1.00  0.00     0.140 HD
BRANCH  20  22
ATOM     22  S   UNL     1       0.804   0.813   0.621  1.00  0.00     0.208 S 
ATOM     23  C   UNL     1       1.427  -0.001  -0.833  1.00  0.00     0.176 C 
ATOM     24  O   UNL     1       1.532   2.039   0.814  1.00  0.00    -0.213 OA
ATOM     25  O   UNL     1      -0.644   0.783   0.552  1.00  0.00    -0.213 OA
ENDBRANCH  20  22
ENDBRANCH  19  20
ENDBRANCH  18  19
ENDBRANCH  11  18
ENDBRANCH   9  10
ENDBRANCH   4   9
ENDBRANCH   1   3
BRANCH   1  26
ATOM     26  O   UNL     1      -5.635   2.862   7.537  1.00  0.00    -0.458 OA
BRANCH  26  27
ATOM     27  C   UNL     1      -6.806   3.577   7.094  1.00  0.00     0.275 C 
BRANCH  27  28
ATOM     28  C   UNL     1      -8.056   3.018   7.772  1.00  0.00     0.275 C 
BRANCH  28  29
ATOM     29  O   UNL     1      -7.989   3.262   9.191  1.00  0.00    -0.458 OA
BRANCH  29  30
ATOM     30  C   UNL     1      -7.981   2.165   9.980  1.00  0.00     0.338 C 
ATOM     31  O   UNL     1      -8.109   0.999   9.650  1.00  0.00    -0.246 OA
BRANCH  30  32
ATOM     32  C   UNL     1      -7.702   2.574  11.365  1.00  0.00     0.060 A 
ATOM     33  C   UNL     1      -6.384   2.859  11.707  1.00  0.00     0.016 A 
ATOM     34  C   UNL     1      -8.688   2.546  12.346  1.00  0.00     0.016 A 
ATOM     35  C   UNL     1      -6.022   3.072  13.033  1.00  0.00     0.010 A 
ATOM     36  C   UNL     1      -8.337   2.819  13.676  1.00  0.00     0.010 A 
ATOM     37  C   UNL     1      -6.996   3.055  14.038  1.00  0.00    -0.014 A 
BRANCH  37  38
ATOM     38  C   UNL     1      -6.590   3.195  15.464  1.00  0.00     0.031 A 
ATOM     39  C   UNL     1      -6.814   2.056  16.421  1.00  0.00     0.074 A 
ATOM     40  C   UNL     1      -5.981   4.315  15.901  1.00  0.00     0.049 A 
ATOM     41  N   UNL     1      -6.669   2.020  17.722  1.00  0.00    -0.248 NA
ATOM     42  C   UNL     1      -7.272   0.786  15.835  1.00  0.00     0.031 C 
ATOM     43  C   UNL     1      -5.641   5.473  15.073  1.00  0.00     0.029 A 
ATOM     44  N   UNL     1      -5.530   4.660  17.153  1.00  0.00    -0.354 N 
ATOM     45  C   UNL     1      -7.072   0.750  18.114  1.00  0.00     0.074 A 
ATOM     46  C   UNL     1      -7.469   0.044  16.915  1.00  0.00     0.031 C 
ATOM     47  C   UNL     1      -5.016   6.387  15.831  1.00  0.00     0.029 A 
ATOM     48  C   UNL     1      -4.977   5.915  17.212  1.00  0.00     0.049 A 
ATOM     49  H   UNL     1      -5.598   4.063  17.933  1.00  0.00     0.167 HD
ATOM     50  C   UNL     1      -7.108   0.223  19.362  1.00  0.00     0.037 A 
ATOM     51  C   UNL     1      -4.525   6.625  18.265  1.00  0.00     0.037 A 
ATOM     52  C   UNL     1      -6.656   0.905  20.547  1.00  0.00     0.049 A 
ATOM     53  C   UNL     1      -4.599   6.027  19.643  1.00  0.00     0.074 A 
ATOM     54  C   UNL     1      -6.636   0.446  21.852  1.00  0.00     0.029 A 
ATOM     55  N   UNL     1      -6.128   2.187  20.566  1.00  0.00    -0.354 N 
ATOM     56  N   UNL     1      -5.031   4.846  20.012  1.00  0.00    -0.248 NA
ATOM     57  C   UNL     1      -4.136   6.869  20.756  1.00  0.00     0.031 C 
ATOM     58  C   UNL     1      -6.130   1.464  22.668  1.00  0.00     0.029 A 
ATOM     59  C   UNL     1      -5.792   2.540  21.864  1.00  0.00     0.049 A 
ATOM     60  H   UNL     1      -6.010   2.762  19.776  1.00  0.00     0.167 HD
ATOM     61  C   UNL     1      -4.882   4.797  21.391  1.00  0.00     0.074 A 
ATOM     62  C   UNL     1      -4.298   6.060  21.793  1.00  0.00     0.031 C 
ATOM     63  C   UNL     1      -5.207   3.799  22.248  1.00  0.00     0.037 A 
BRANCH  50  64
ATOM     64  C   UNL     1      -7.694  -1.150  19.517  1.00  0.00     0.064 A 
ATOM     65  C   UNL     1      -7.021  -2.302  19.086  1.00  0.00     0.173 A 
ATOM     66  C   UNL     1      -8.943  -1.314  20.138  1.00  0.00     0.173 A 
ATOM     67  F   UNL     1      -5.832  -2.200  18.473  1.00  0.00    -0.203 F 
ATOM     68  C   UNL     1      -7.588  -3.564  19.246  1.00  0.00     0.198 A 
ATOM     69  C   UNL     1      -9.493  -2.579  20.323  1.00  0.00     0.198 A 
ATOM     70  F   UNL     1      -9.626  -0.245  20.575  1.00  0.00    -0.203 F 
ATOM     71  F   UNL     1      -6.949  -4.648  18.783  1.00  0.00    -0.200 F 
ATOM     72  C   UNL     1      -8.820  -3.702  19.869  1.00  0.00     0.200 A 
ATOM     73  F   UNL     1     -10.677  -2.710  20.937  1.00  0.00    -0.200 F 
ATOM     74  F   UNL     1      -9.361  -4.918  20.027  1.00  0.00    -0.200 F 
ENDBRANCH  50  64
BRANCH  51  75
ATOM     75  C   UNL     1      -3.998   8.000  18.060  1.00  0.00     0.064 A 
ATOM     76  C   UNL     1      -2.642   8.293  18.255  1.00  0.00     0.173 A 
ATOM     77  C   UNL     1      -4.843   9.050  17.670  1.00  0.00     0.173 A 
ATOM     78  F   UNL     1      -1.800   7.330  18.657  1.00  0.00    -0.203 F 
ATOM     79  C   UNL     1      -2.153   9.586  18.078  1.00  0.00     0.198 A 
ATOM     80  C   UNL     1      -4.347  10.335  17.463  1.00  0.00     0.198 A 
ATOM     81  F   UNL     1      -6.151   8.824  17.476  1.00  0.00    -0.203 F 
ATOM     82  F   UNL     1      -0.860   9.849  18.314  1.00  0.00    -0.200 F 
ATOM     83  C   UNL     1      -3.004  10.604  17.673  1.00  0.00     0.200 A 
ATOM     84  F   UNL     1      -5.171  11.312  17.061  1.00  0.00    -0.200 F 
ATOM     85  F   UNL     1      -2.531  11.845  17.496  1.00  0.00    -0.200 F 
ENDBRANCH  51  75
BRANCH  63  86
ATOM     86  C   UNL     1      -4.909   4.020  23.702  1.00  0.00     0.064 A 
ATOM     87  C   UNL     1      -5.672   4.900  24.483  1.00  0.00     0.173 A 
ATOM     88  C   UNL     1      -3.866   3.320  24.328  1.00  0.00     0.173 A 
ATOM     89  F   UNL     1      -6.669   5.604  23.927  1.00  0.00    -0.203 F 
ATOM     90  C   UNL     1      -5.386   5.090  25.832  1.00  0.00     0.198 A 
ATOM     91  C   UNL     1      -3.601   3.492  25.683  1.00  0.00     0.198 A 
ATOM     92  F   UNL     1      -3.111   2.462  23.626  1.00  0.00    -0.203 F 
ATOM     93  F   UNL     1      -6.098   5.970  26.549  1.00  0.00    -0.200 F 
ATOM     94  C   UNL     1      -4.356   4.382  26.433  1.00  0.00     0.200 A 
ATOM     95  F   UNL     1      -2.612   2.799  26.264  1.00  0.00    -0.200 F 
ATOM     96  F   UNL     1      -4.084   4.563  27.732  1.00  0.00    -0.200 F 
ENDBRANCH  63  86
ENDBRANCH  37  38
ENDBRANCH  30  32
ENDBRANCH  29  30
ENDBRANCH  28  29
ENDBRANCH  27  28
ENDBRANCH  26  27
ENDBRANCH   1  26
TORSDOF 17
