REMARK SMILES CCC(CC)([NH2+]Cc1ccc(I)cc1)C(=O)OCCOC(=O)c1ccc(-c2c3nc(c(-c4c(F)c(F)c(F)c(F)c4F)c4ccc([nH]4)c(-c4c(F)c(F)c(F)c(F)c4F)c4nc(c(-c5c(F)c(F)c(F)c(F)c5F)c5ccc2[nH]5)C=C4)C=C3)cc1
REMARK SMILES IDX 18 1 17 2 15 3 16 4 3 5 2 6 1 7 4 8 5 9 6 10 7 13 8 14 9 15
REMARK SMILES IDX 14 16 10 17 13 18 11 19 12 20 19 21 20 22 21 23 22 24 23 25
REMARK SMILES IDX 24 26 85 27 25 28 84 29 26 30 27 31 28 32 78 33 29 34 83 35
REMARK SMILES IDX 77 36 79 37 30 38 82 39 76 40 75 41 31 43 63 44 43 45 62 46
REMARK SMILES IDX 44 47 47 48 61 49 80 50 45 51 46 52 60 54 81 55 48 56 32 57
REMARK SMILES IDX 33 58 41 59 34 60 35 61 39 62 42 63 36 64 37 65 40 66 38 67
REMARK SMILES IDX 64 68 65 69 73 70 66 71 67 72 71 73 74 74 68 75 69 76 72 77
REMARK SMILES IDX 70 78 49 79 50 80 58 81 51 82 52 83 56 84 59 85 53 86 54 87
REMARK SMILES IDX 57 88 55 89
REMARK H PARENT 6 11 6 12 79 42 47 53
REMARK Flexibility Score: inf
ROOT
ATOM      1  C   UNL     1       4.335   2.651  -1.066  1.00  0.00     0.274 C 
ENDROOT
BRANCH   1   2
ATOM      2  O   UNL     1       2.929   2.762  -0.751  1.00  0.00    -0.457 OA
BRANCH   2   3
ATOM      3  C   UNL     1       2.109   1.825  -1.303  1.00  0.00     0.368 C 
ATOM      4  O   UNL     1       2.529   0.806  -1.843  1.00  0.00    -0.245 OA
BRANCH   3   5
ATOM      5  C   UNL     1       0.587   2.170  -1.190  1.00  0.00     0.194 C 
BRANCH   5   6
ATOM      6  C   UNL     1       0.019   1.540   0.119  1.00  0.00     0.077 C 
ATOM      7  C   UNL     1       0.038   0.015   0.203  1.00  0.00     0.011 C 
ENDBRANCH   5   6
BRANCH   5   8
ATOM      8  C   UNL     1      -0.119   1.546  -2.431  1.00  0.00     0.077 C 
ATOM      9  C   UNL     1      -1.625   1.741  -2.527  1.00  0.00     0.011 C 
ENDBRANCH   5   8
BRANCH   5  10
ATOM     10  N   UNL     1       0.314   3.629  -1.010  1.00  0.00    -0.328 N 
ATOM     11  H   UNL     1       0.530   3.844  -0.037  1.00  0.00     0.347 HD
ATOM     12  H   UNL     1      -0.652   3.711  -1.327  1.00  0.00     0.347 HD
BRANCH  10  13
ATOM     13  C   UNL     1       0.993   4.641  -1.815  1.00  0.00     0.298 C 
BRANCH  13  14
ATOM     14  C   UNL     1       0.625   4.653  -3.272  1.00  0.00     0.006 A 
ATOM     15  C   UNL     1      -0.547   5.288  -3.705  1.00  0.00     0.010 A 
ATOM     16  C   UNL     1       1.432   3.996  -4.213  1.00  0.00     0.010 A 
ATOM     17  C   UNL     1      -0.932   5.224  -5.045  1.00  0.00     0.015 A 
ATOM     18  C   UNL     1       1.035   3.908  -5.547  1.00  0.00     0.015 A 
ATOM     19  C   UNL     1      -0.150   4.516  -5.956  1.00  0.00     0.013 A 
ATOM     20  I   UNL     1      -0.768   4.342  -7.931  1.00  0.00    -0.044 I 
ENDBRANCH  13  14
ENDBRANCH  10  13
ENDBRANCH   5  10
ENDBRANCH   3   5
ENDBRANCH   2   3
ENDBRANCH   1   2
BRANCH   1  21
ATOM     21  C   UNL     1       5.148   3.160   0.117  1.00  0.00     0.275 C 
BRANCH  21  22
ATOM     22  O   UNL     1       4.917   2.236   1.191  1.00  0.00    -0.458 OA
BRANCH  22  23
ATOM     23  C   UNL     1       4.504   2.773   2.357  1.00  0.00     0.338 C 
ATOM     24  O   UNL     1       4.562   3.934   2.715  1.00  0.00    -0.246 OA
BRANCH  23  25
ATOM     25  C   UNL     1       3.863   1.702   3.137  1.00  0.00     0.060 A 
ATOM     26  C   UNL     1       2.795   1.005   2.570  1.00  0.00     0.016 A 
ATOM     27  C   UNL     1       4.229   1.474   4.460  1.00  0.00     0.016 A 
ATOM     28  C   UNL     1       2.023   0.152   3.354  1.00  0.00     0.010 A 
ATOM     29  C   UNL     1       3.505   0.550   5.221  1.00  0.00     0.010 A 
ATOM     30  C   UNL     1       2.359  -0.077   4.693  1.00  0.00    -0.014 A 
BRANCH  30  31
ATOM     31  C   UNL     1       1.439  -0.847   5.577  1.00  0.00     0.031 A 
ATOM     32  C   UNL     1       0.827  -0.161   6.772  1.00  0.00     0.074 A 
ATOM     33  C   UNL     1       1.094  -2.122   5.308  1.00  0.00     0.049 A 
ATOM     34  N   UNL     1       0.173  -0.673   7.784  1.00  0.00    -0.248 NA
ATOM     35  C   UNL     1       0.987   1.300   6.841  1.00  0.00     0.031 C 
ATOM     36  C   UNL     1       1.526  -2.895   4.144  1.00  0.00     0.029 A 
ATOM     37  N   UNL     1       0.280  -2.989   5.998  1.00  0.00    -0.354 N 
ATOM     38  C   UNL     1      -0.080   0.388   8.645  1.00  0.00     0.074 A 
ATOM     39  C   UNL     1       0.477   1.574   8.032  1.00  0.00     0.031 C 
ATOM     40  C   UNL     1       0.941  -4.103   4.178  1.00  0.00     0.029 A 
ATOM     41  C   UNL     1       0.160  -4.222   5.406  1.00  0.00     0.049 A 
ATOM     42  H   UNL     1      -0.174  -2.748   6.837  1.00  0.00     0.167 HD
ATOM     43  C   UNL     1      -0.713   0.372   9.842  1.00  0.00     0.037 A 
ATOM     44  C   UNL     1      -0.478  -5.333   5.823  1.00  0.00     0.037 A 
ATOM     45  C   UNL     1      -1.344  -0.788  10.411  1.00  0.00     0.049 A 
ATOM     46  C   UNL     1      -1.180  -5.328   7.155  1.00  0.00     0.074 A 
ATOM     47  C   UNL     1      -2.000  -0.910  11.624  1.00  0.00     0.029 A 
ATOM     48  N   UNL     1      -1.429  -2.022   9.785  1.00  0.00    -0.354 N 
ATOM     49  N   UNL     1      -1.320  -4.349   8.014  1.00  0.00    -0.248 NA
ATOM     50  C   UNL     1      -1.792  -6.594   7.584  1.00  0.00     0.031 C 
ATOM     51  C   UNL     1      -2.470  -2.223  11.738  1.00  0.00     0.029 A 
ATOM     52  C   UNL     1      -2.133  -2.909  10.582  1.00  0.00     0.049 A 
ATOM     53  H   UNL     1      -1.045  -2.236   8.904  1.00  0.00     0.167 HD
ATOM     54  C   UNL     1      -2.047  -4.874   9.075  1.00  0.00     0.074 A 
ATOM     55  C   UNL     1      -2.336  -6.253   8.743  1.00  0.00     0.031 C 
ATOM     56  C   UNL     1      -2.431  -4.270  10.226  1.00  0.00     0.037 A 
BRANCH  43  57
ATOM     57  C   UNL     1      -0.712   1.642  10.637  1.00  0.00     0.064 A 
ATOM     58  C   UNL     1      -1.522   2.735  10.298  1.00  0.00     0.173 A 
ATOM     59  C   UNL     1       0.110   1.758  11.769  1.00  0.00     0.173 A 
ATOM     60  F   UNL     1      -2.309   2.680   9.213  1.00  0.00    -0.203 F 
ATOM     61  C   UNL     1      -1.490   3.907  11.049  1.00  0.00     0.198 A 
ATOM     62  C   UNL     1       0.120   2.921  12.532  1.00  0.00     0.198 A 
ATOM     63  F   UNL     1       0.902   0.739  12.135  1.00  0.00    -0.203 F 
ATOM     64  F   UNL     1      -2.236   4.958  10.681  1.00  0.00    -0.200 F 
ATOM     65  C   UNL     1      -0.674   3.997  12.168  1.00  0.00     0.200 A 
ATOM     66  F   UNL     1       0.903   3.002  13.617  1.00  0.00    -0.200 F 
ATOM     67  F   UNL     1      -0.646   5.126  12.890  1.00  0.00    -0.200 F 
ENDBRANCH  43  57
BRANCH  44  68
ATOM     68  C   UNL     1      -0.462  -6.561   4.986  1.00  0.00     0.064 A 
ATOM     69  C   UNL     1      -1.634  -7.030   4.376  1.00  0.00     0.173 A 
ATOM     70  C   UNL     1       0.714  -7.301   4.796  1.00  0.00     0.173 A 
ATOM     71  F   UNL     1      -2.790  -6.373   4.554  1.00  0.00    -0.203 F 
ATOM     72  C   UNL     1      -1.633  -8.199   3.619  1.00  0.00     0.198 A 
ATOM     73  C   UNL     1       0.720  -8.455   4.015  1.00  0.00     0.198 A 
ATOM     74  F   UNL     1       1.860  -6.899   5.364  1.00  0.00    -0.203 F 
ATOM     75  F   UNL     1      -2.776  -8.650   3.085  1.00  0.00    -0.200 F 
ATOM     76  C   UNL     1      -0.455  -8.907   3.433  1.00  0.00     0.200 A 
ATOM     77  F   UNL     1       1.862  -9.130   3.831  1.00  0.00    -0.200 F 
ATOM     78  F   UNL     1      -0.454 -10.031   2.703  1.00  0.00    -0.200 F 
ENDBRANCH  44  68
BRANCH  56  79
ATOM     79  C   UNL     1      -3.244  -5.083  11.188  1.00  0.00     0.064 A 
ATOM     80  C   UNL     1      -2.661  -6.082  11.980  1.00  0.00     0.173 A 
ATOM     81  C   UNL     1      -4.617  -4.837  11.339  1.00  0.00     0.173 A 
ATOM     82  F   UNL     1      -1.355  -6.363  11.858  1.00  0.00    -0.203 F 
ATOM     83  C   UNL     1      -3.429  -6.823  12.873  1.00  0.00     0.198 A 
ATOM     84  C   UNL     1      -5.377  -5.565  12.250  1.00  0.00     0.198 A 
ATOM     85  F   UNL     1      -5.218  -3.888  10.607  1.00  0.00    -0.203 F 
ATOM     86  F   UNL     1      -2.861  -7.802  13.591  1.00  0.00    -0.200 F 
ATOM     87  C   UNL     1      -4.784  -6.561  13.011  1.00  0.00     0.200 A 
ATOM     88  F   UNL     1      -6.685  -5.306  12.387  1.00  0.00    -0.200 F 
ATOM     89  F   UNL     1      -5.522  -7.276  13.873  1.00  0.00    -0.200 F 
ENDBRANCH  56  79
ENDBRANCH  30  31
ENDBRANCH  23  25
ENDBRANCH  22  23
ENDBRANCH  21  22
ENDBRANCH   1  21
TORSDOF 16
