REMARK SMILES O=C(OCCOC(=O)[C@H]1CC=CC[C@H]1C(=O)N[C@H]1CCCOc2c1ccc1ccccc21)c1ccc(-c2c3nc(c(-c4c(F)c(F)c(F)c(F)c4F)c4ccc([nH]4)c(-c4c(F)c(F)c(F)c(F)c4F)c4nc(c(-c5c(F)c(F)c(F)c(F)c5F)c5ccc2[nH]5)C=C4)C=C3)cc1
REMARK SMILES IDX 6 1 5 2 4 3 3 4 2 5 1 6 33 7 34 8 95 9 35 10 94 11 36 12
REMARK SMILES IDX 37 13 38 14 88 15 39 16 93 17 87 18 89 19 40 20 92 21 86 22
REMARK SMILES IDX 85 23 41 25 73 26 53 27 72 28 54 29 57 30 71 31 90 32 55 33
REMARK SMILES IDX 56 34 70 36 91 37 58 38 42 39 43 40 51 41 44 42 45 43 49 44
REMARK SMILES IDX 52 45 46 46 47 47 50 48 48 49 74 50 75 51 83 52 76 53 77 54
REMARK SMILES IDX 81 55 84 56 78 57 79 58 82 59 80 60 59 61 60 62 68 63 61 64
REMARK SMILES IDX 62 65 66 66 69 67 63 68 64 69 67 70 65 71 7 72 8 73 9 74
REMARK SMILES IDX 10 75 14 76 11 77 13 78 12 79 15 80 16 81 17 82 18 84 19 85
REMARK SMILES IDX 20 86 24 88 23 89 25 90 32 91 26 92 27 93 31 94 28 95 30 96
REMARK SMILES IDX 29 97 22 98 21 99
REMARK H PARENT 89 24 57 35 17 83
REMARK Flexibility Score: 90.00
ROOT
ATOM      1  O   UNL     1       4.089  -0.014   1.987  1.00  0.00    -0.462 OA
ENDROOT
BRANCH   1   2
ATOM      2  C   UNL     1       4.708   0.607   0.847  1.00  0.00     0.274 C 
BRANCH   2   3
ATOM      3  C   UNL     1       4.874  -0.087  -0.519  1.00  0.00     0.275 C 
BRANCH   3   4
ATOM      4  O   UNL     1       3.768  -0.793  -1.114  1.00  0.00    -0.458 OA
BRANCH   4   5
ATOM      5  C   UNL     1       3.460  -2.101  -0.907  1.00  0.00     0.338 C 
ATOM      6  O   UNL     1       2.707  -2.735  -1.633  1.00  0.00    -0.246 OA
BRANCH   5   7
ATOM      7  C   UNL     1       3.971  -2.693   0.339  1.00  0.00     0.060 A 
ATOM      8  C   UNL     1       3.048  -3.073   1.319  1.00  0.00     0.016 A 
ATOM      9  C   UNL     1       5.343  -2.763   0.579  1.00  0.00     0.016 A 
ATOM     10  C   UNL     1       3.504  -3.385   2.596  1.00  0.00     0.010 A 
ATOM     11  C   UNL     1       5.797  -2.997   1.863  1.00  0.00     0.010 A 
ATOM     12  C   UNL     1       4.880  -3.319   2.874  1.00  0.00    -0.014 A 
BRANCH  12  13
ATOM     13  C   UNL     1       5.421  -3.981   4.066  1.00  0.00     0.031 A 
ATOM     14  C   UNL     1       5.825  -3.270   5.307  1.00  0.00     0.074 A 
ATOM     15  C   UNL     1       5.660  -5.291   3.896  1.00  0.00     0.049 A 
ATOM     16  N   UNL     1       6.012  -3.785   6.492  1.00  0.00    -0.248 NA
ATOM     17  C   UNL     1       6.019  -1.817   5.254  1.00  0.00     0.031 C 
ATOM     18  C   UNL     1       5.391  -6.040   2.661  1.00  0.00     0.029 A 
ATOM     19  N   UNL     1       6.257  -6.196   4.716  1.00  0.00    -0.354 N 
ATOM     20  C   UNL     1       6.167  -2.708   7.349  1.00  0.00     0.074 A 
ATOM     21  C   UNL     1       6.154  -1.511   6.542  1.00  0.00     0.031 C 
ATOM     22  C   UNL     1       5.916  -7.263   2.772  1.00  0.00     0.029 A 
ATOM     23  C   UNL     1       6.505  -7.389   4.095  1.00  0.00     0.049 A 
ATOM     24  H   UNL     1       6.486  -6.012   5.655  1.00  0.00     0.167 HD
ATOM     25  C   UNL     1       6.298  -2.758   8.693  1.00  0.00     0.037 A 
ATOM     26  C   UNL     1       7.148  -8.469   4.559  1.00  0.00     0.037 A 
ATOM     27  C   UNL     1       6.613  -3.981   9.384  1.00  0.00     0.049 A 
ATOM     28  C   UNL     1       7.532  -8.462   6.002  1.00  0.00     0.074 A 
ATOM     29  C   UNL     1       6.819  -4.193  10.733  1.00  0.00     0.029 A 
ATOM     30  N   UNL     1       6.886  -5.182   8.739  1.00  0.00    -0.354 N 
ATOM     31  N   UNL     1       7.366  -7.506   6.887  1.00  0.00    -0.248 NA
ATOM     32  C   UNL     1       8.141  -9.682   6.529  1.00  0.00     0.031 C 
ATOM     33  C   UNL     1       7.333  -5.487  10.885  1.00  0.00     0.029 A 
ATOM     34  C   UNL     1       7.375  -6.104   9.642  1.00  0.00     0.049 A 
ATOM     35  H   UNL     1       6.749  -5.351   7.778  1.00  0.00     0.167 HD
ATOM     36  C   UNL     1       7.820  -8.015   8.089  1.00  0.00     0.074 A 
ATOM     37  C   UNL     1       8.273  -9.369   7.813  1.00  0.00     0.031 C 
ATOM     38  C   UNL     1       7.846  -7.428   9.311  1.00  0.00     0.037 A 
BRANCH  25  39
ATOM     39  C   UNL     1       6.132  -1.503   9.491  1.00  0.00     0.064 A 
ATOM     40  C   UNL     1       4.846  -1.020   9.786  1.00  0.00     0.173 A 
ATOM     41  C   UNL     1       7.224  -0.867  10.095  1.00  0.00     0.173 A 
ATOM     42  F   UNL     1       3.766  -1.594   9.235  1.00  0.00    -0.203 F 
ATOM     43  C   UNL     1       4.661   0.039  10.674  1.00  0.00     0.198 A 
ATOM     44  C   UNL     1       7.035   0.188  10.987  1.00  0.00     0.198 A 
ATOM     45  F   UNL     1       8.472  -1.291   9.847  1.00  0.00    -0.203 F 
ATOM     46  F   UNL     1       3.424   0.470  10.957  1.00  0.00    -0.200 F 
ATOM     47  C   UNL     1       5.755   0.635  11.282  1.00  0.00     0.200 A 
ATOM     48  F   UNL     1       8.093   0.760  11.579  1.00  0.00    -0.200 F 
ATOM     49  F   UNL     1       5.577   1.634  12.158  1.00  0.00    -0.200 F 
ENDBRANCH  25  39
BRANCH  26  50
ATOM     50  C   UNL     1       7.335  -9.610   3.639  1.00  0.00     0.064 A 
ATOM     51  C   UNL     1       6.502 -10.730   3.717  1.00  0.00     0.173 A 
ATOM     52  C   UNL     1       8.210  -9.513   2.544  1.00  0.00     0.173 A 
ATOM     53  F   UNL     1       5.636 -10.848   4.734  1.00  0.00    -0.203 F 
ATOM     54  C   UNL     1       6.530 -11.711   2.730  1.00  0.00     0.198 A 
ATOM     55  C   UNL     1       8.224 -10.486   1.548  1.00  0.00     0.198 A 
ATOM     56  F   UNL     1       8.996  -8.434   2.404  1.00  0.00    -0.203 F 
ATOM     57  F   UNL     1       5.711 -12.768   2.818  1.00  0.00    -0.200 F 
ATOM     58  C   UNL     1       7.381 -11.583   1.641  1.00  0.00     0.200 A 
ATOM     59  F   UNL     1       9.021 -10.340   0.480  1.00  0.00    -0.200 F 
ATOM     60  F   UNL     1       7.377 -12.509   0.672  1.00  0.00    -0.200 F 
ENDBRANCH  26  50
BRANCH  38  61
ATOM     61  C   UNL     1       8.421  -8.235  10.429  1.00  0.00     0.064 A 
ATOM     62  C   UNL     1       9.803  -8.438  10.533  1.00  0.00     0.173 A 
ATOM     63  C   UNL     1       7.593  -8.731  11.445  1.00  0.00     0.173 A 
ATOM     64  F   UNL     1      10.626  -7.990   9.573  1.00  0.00    -0.203 F 
ATOM     65  C   UNL     1      10.338  -9.120  11.618  1.00  0.00     0.198 A 
ATOM     66  C   UNL     1       8.135  -9.386  12.544  1.00  0.00     0.198 A 
ATOM     67  F   UNL     1       6.265  -8.549  11.386  1.00  0.00    -0.203 F 
ATOM     68  F   UNL     1      11.660  -9.330  11.688  1.00  0.00    -0.200 F 
ATOM     69  C   UNL     1       9.506  -9.582  12.628  1.00  0.00     0.200 A 
ATOM     70  F   UNL     1       7.333  -9.816  13.527  1.00  0.00    -0.200 F 
ATOM     71  F   UNL     1      10.027 -10.218  13.685  1.00  0.00    -0.200 F 
ENDBRANCH  38  61
ENDBRANCH  12  13
ENDBRANCH   5   7
ENDBRANCH   4   5
ENDBRANCH   3   4
ENDBRANCH   2   3
ENDBRANCH   1   2
BRANCH   1  72
ATOM     72  C   UNL     1       2.738  -0.126   1.986  1.00  0.00     0.310 C 
ATOM     73  O   UNL     1       2.071  -0.216   0.963  1.00  0.00    -0.252 OA
BRANCH  72  74
ATOM     74  C   UNL     1       2.073  -0.157   3.346  1.00  0.00     0.115 C 
ATOM     75  C   UNL     1       3.019  -0.381   4.530  1.00  0.00     0.043 C 
ATOM     76  C   UNL     1       1.086   1.002   3.592  1.00  0.00     0.097 C 
ATOM     77  C   UNL     1       3.428   0.845   5.282  1.00  0.00    -0.030 C 
ATOM     78  C   UNL     1       1.661   2.266   4.240  1.00  0.00     0.041 C 
ATOM     79  C   UNL     1       2.823   2.029   5.149  1.00  0.00    -0.030 C 
BRANCH  76  80
ATOM     80  C   UNL     1       0.119   1.330   2.452  1.00  0.00     0.224 C 
ATOM     81  O   UNL     1      -1.022   0.854   2.488  1.00  0.00    -0.275 OA
ATOM     82  N   UNL     1       0.402   2.139   1.397  1.00  0.00    -0.349 N 
ATOM     83  H   UNL     1      -0.398   2.402   0.887  1.00  0.00     0.164 HD
BRANCH  82  84
ATOM     84  C   UNL     1       1.644   2.705   0.854  1.00  0.00     0.116 C 
BRANCH  84  85
ATOM     85  C   UNL     1       1.813   2.261  -0.632  1.00  0.00     0.033 C 
BRANCH  85  86
ATOM     86  C   UNL     1       2.636   3.146  -1.578  1.00  0.00     0.044 CG0
ATOM     87  G   UNL     1       3.989   3.642  -1.062  1.00  0.00     0.000 G0
ENDBRANCH  85  86
ENDBRANCH  84  85
BRANCH  84  88
ATOM     88  C   UNL     1       1.748   4.211   0.958  1.00  0.00     0.017 A 
ATOM     89  C   UNL     1       2.998   4.797   0.663  1.00  0.00     0.132 A 
ATOM     90  C   UNL     1       0.671   5.051   1.223  1.00  0.00     0.010 A 
ATOM     91  C   UNL     1       3.197   6.186   0.609  1.00  0.00     0.024 A 
ATOM     92  C   UNL     1       0.834   6.437   1.140  1.00  0.00     0.009 A 
ATOM     93  C   UNL     1       2.077   7.015   0.813  1.00  0.00    -0.015 A 
ATOM     94  C   UNL     1       4.446   6.769   0.308  1.00  0.00     0.012 A 
ATOM     95  C   UNL     1       2.224   8.402   0.656  1.00  0.00     0.009 A 
ATOM     96  C   UNL     1       4.574   8.146   0.155  1.00  0.00     0.001 A 
ATOM     97  C   UNL     1       3.459   8.961   0.316  1.00  0.00     0.001 A 
BRANCH  89  98
ATOM     98  O   UNL     1       4.034   3.951   0.337  1.00  0.00    -0.493 OA
BRANCH  98  99
ATOM     99  C   UNL     1       3.989   3.642  -1.062  1.00  0.00     0.229 CG0
ATOM    100  G   UNL     1       2.636   3.146  -1.578  1.00  0.00     0.000 G0
ENDBRANCH  98  99
ENDBRANCH  89  98
ENDBRANCH  84  88
ENDBRANCH  82  84
ENDBRANCH  76  80
ENDBRANCH  72  74
ENDBRANCH   1  72
TORSDOF 13
