REMARK SMILES COc1ccc(-n2ccnc2C[N@@H+]2Cc3[nH]cnc3C[C@H]2C(=O)OCCOC(=O)c2ccc(-c3c4nc(c(-c5c(F)c(F)c(F)c(F)c5F)c5ccc([nH]5)c(-c5c(F)c(F)c(F)c(F)c5F)c5nc(c(-c6c(F)c(F)c(F)c(F)c6F)c6ccc3[nH]6)C=C5)C=C4)cc2)cc1
REMARK SMILES IDX 25 1 24 2 22 3 23 4 21 5 13 6 14 7 15 9 20 10 16 11 19 12
REMARK SMILES IDX 17 13 18 15 12 16 11 17 7 18 8 19 9 20 10 21 6 22 3 23 4 24
REMARK SMILES IDX 94 25 5 26 93 27 2 28 1 29 26 30 27 31 28 32 29 33 30 34
REMARK SMILES IDX 31 35 92 36 32 37 91 38 33 39 34 40 35 41 85 42 36 43 90 44
REMARK SMILES IDX 84 45 86 46 37 47 89 48 83 49 82 50 38 52 70 53 50 54 69 55
REMARK SMILES IDX 51 56 54 57 68 58 87 59 52 60 53 61 67 63 88 64 55 65 39 66
REMARK SMILES IDX 40 67 48 68 41 69 42 70 46 71 49 72 43 73 44 74 47 75 45 76
REMARK SMILES IDX 71 77 72 78 80 79 73 80 74 81 78 82 81 83 75 84 76 85 79 86
REMARK SMILES IDX 77 87 56 88 57 89 65 90 58 91 59 92 63 93 66 94 60 95 61 96
REMARK SMILES IDX 64 97 62 98
REMARK H PARENT 13 8 16 14 86 51 54 62
REMARK Flexibility Score: inf
ROOT
ATOM      1  C   UNL     1       1.262  -8.411   5.445  1.00  0.00     0.274 C 
ENDROOT
BRANCH   1   2
ATOM      2  O   UNL     1       1.029  -7.012   5.211  1.00  0.00    -0.458 OA
BRANCH   2   3
ATOM      3  C   UNL     1      -0.152  -6.497   5.658  1.00  0.00     0.365 C 
ATOM      4  O   UNL     1      -1.036  -7.154   6.203  1.00  0.00    -0.245 OA
BRANCH   3   5
ATOM      5  C   UNL     1      -0.318  -5.015   5.306  1.00  0.00     0.301 C 
ATOM      6  N   UNL     1       0.712  -4.143   5.994  1.00  0.00    -0.312 N 
ATOM      7  C   UNL     1       2.000  -4.117   5.274  1.00  0.00     0.320 C 
ATOM      8  H   UNL     1       0.920  -4.561   6.901  1.00  0.00     0.349 HD
ATOM      9  C   UNL     1       1.748  -3.812   3.853  1.00  0.00     0.093 A 
ATOM     10  C   UNL     1      -0.476  -4.947   3.755  1.00  0.00     0.136 C 
ATOM     11  N   UNL     1       2.478  -3.045   2.998  1.00  0.00    -0.344 N 
ATOM     12  C   UNL     1       0.636  -4.189   3.147  1.00  0.00     0.074 A 
ATOM     13  C   UNL     1       1.778  -2.996   1.821  1.00  0.00     0.197 A 
ATOM     14  H   UNL     1       3.341  -2.610   3.188  1.00  0.00     0.167 HD
ATOM     15  N   UNL     1       0.659  -3.687   1.879  1.00  0.00    -0.241 NA
BRANCH   6  16
ATOM     16  C   UNL     1       0.165  -2.787   6.248  1.00  0.00     0.340 C 
BRANCH  16  17
ATOM     17  C   UNL     1       1.137  -1.820   6.895  1.00  0.00     0.168 A 
ATOM     18  N   UNL     1       1.767  -0.763   6.235  1.00  0.00    -0.299 N 
ATOM     19  C   UNL     1       2.815  -0.375   7.043  1.00  0.00     0.113 A 
ATOM     20  C   UNL     1       2.676  -1.086   8.208  1.00  0.00     0.132 A 
ATOM     21  N   UNL     1       1.632  -1.960   8.116  1.00  0.00    -0.236 NA
BRANCH  18  22
ATOM     22  C   UNL     1       1.470  -0.202   4.966  1.00  0.00     0.047 A 
ATOM     23  C   UNL     1       0.888   0.773   2.418  1.00  0.00     0.119 A 
ATOM     24  C   UNL     1      -0.148   0.471   3.297  1.00  0.00     0.048 A 
ATOM     25  C   UNL     1       2.216   0.665   2.831  1.00  0.00     0.048 A 
ATOM     26  C   UNL     1       0.140  -0.024   4.570  1.00  0.00     0.030 A 
ATOM     27  C   UNL     1       2.511   0.191   4.112  1.00  0.00     0.030 A 
BRANCH  23  28
ATOM     28  O   UNL     1       0.555   1.271   1.188  1.00  0.00    -0.497 OA
ATOM     29  C   UNL     1       0.971   0.400   0.136  1.00  0.00     0.278 C 
ENDBRANCH  23  28
ENDBRANCH  18  22
ENDBRANCH  16  17
ENDBRANCH   6  16
ENDBRANCH   3   5
ENDBRANCH   2   3
ENDBRANCH   1   2
BRANCH   1  30
ATOM     30  C   UNL     1       1.957  -8.649   6.776  1.00  0.00     0.275 C 
BRANCH  30  31
ATOM     31  O   UNL     1       1.041  -8.426   7.842  1.00  0.00    -0.458 OA
BRANCH  31  32
ATOM     32  C   UNL     1       1.057  -7.176   8.359  1.00  0.00     0.338 C 
ATOM     33  O   UNL     1       1.704  -6.228   7.961  1.00  0.00    -0.246 OA
BRANCH  32  34
ATOM     34  C   UNL     1       0.335  -7.191   9.635  1.00  0.00     0.060 A 
ATOM     35  C   UNL     1       0.210  -5.976  10.319  1.00  0.00     0.016 A 
ATOM     36  C   UNL     1       0.129  -8.426  10.261  1.00  0.00     0.016 A 
ATOM     37  C   UNL     1       0.084  -6.009  11.692  1.00  0.00     0.010 A 
ATOM     38  C   UNL     1       0.060  -8.458  11.627  1.00  0.00     0.010 A 
ATOM     39  C   UNL     1       0.112  -7.252  12.326  1.00  0.00    -0.014 A 
BRANCH  39  40
ATOM     40  C   UNL     1       0.199  -7.309  13.768  1.00  0.00     0.031 A 
ATOM     41  C   UNL     1      -1.107  -7.246  14.462  1.00  0.00     0.074 A 
ATOM     42  C   UNL     1       1.363  -7.636  14.360  1.00  0.00     0.049 A 
ATOM     43  N   UNL     1      -1.482  -6.442  15.401  1.00  0.00    -0.248 NA
ATOM     44  C   UNL     1      -2.175  -8.137  13.975  1.00  0.00     0.031 C 
ATOM     45  C   UNL     1       2.605  -8.069  13.708  1.00  0.00     0.029 A 
ATOM     46  N   UNL     1       1.640  -7.792  15.681  1.00  0.00    -0.354 N 
ATOM     47  C   UNL     1      -2.773  -6.841  15.737  1.00  0.00     0.074 A 
ATOM     48  C   UNL     1      -3.208  -7.750  14.716  1.00  0.00     0.031 C 
ATOM     49  C   UNL     1       3.410  -8.646  14.627  1.00  0.00     0.029 A 
ATOM     50  C   UNL     1       2.789  -8.526  15.936  1.00  0.00     0.049 A 
ATOM     51  H   UNL     1       1.075  -7.417  16.395  1.00  0.00     0.167 HD
ATOM     52  C   UNL     1      -3.279  -6.607  16.977  1.00  0.00     0.037 A 
ATOM     53  C   UNL     1       3.137  -9.078  17.124  1.00  0.00     0.037 A 
ATOM     54  C   UNL     1      -2.598  -5.508  17.614  1.00  0.00     0.049 A 
ATOM     55  C   UNL     1       2.307  -8.439  18.178  1.00  0.00     0.074 A 
ATOM     56  C   UNL     1      -2.389  -4.182  17.284  1.00  0.00     0.029 A 
ATOM     57  N   UNL     1      -1.697  -5.784  18.612  1.00  0.00    -0.354 N 
ATOM     58  N   UNL     1       2.425  -7.198  18.561  1.00  0.00    -0.248 NA
ATOM     59  C   UNL     1       1.046  -9.079  18.524  1.00  0.00     0.031 C 
ATOM     60  C   UNL     1      -1.077  -3.881  17.756  1.00  0.00     0.029 A 
ATOM     61  C   UNL     1      -0.580  -5.026  18.379  1.00  0.00     0.049 A 
ATOM     62  H   UNL     1      -1.829  -6.412  19.359  1.00  0.00     0.167 HD
ATOM     63  C   UNL     1       1.125  -6.780  18.813  1.00  0.00     0.074 A 
ATOM     64  C   UNL     1       0.337  -8.005  18.880  1.00  0.00     0.031 C 
ATOM     65  C   UNL     1       0.764  -5.473  18.655  1.00  0.00     0.037 A 
BRANCH  52  66
ATOM     66  C   UNL     1      -4.097  -7.625  17.742  1.00  0.00     0.064 A 
ATOM     67  C   UNL     1      -4.602  -7.268  19.008  1.00  0.00     0.173 A 
ATOM     68  C   UNL     1      -4.148  -9.008  17.442  1.00  0.00     0.173 A 
ATOM     69  F   UNL     1      -4.608  -5.987  19.404  1.00  0.00    -0.203 F 
ATOM     70  C   UNL     1      -5.011  -8.227  19.938  1.00  0.00     0.198 A 
ATOM     71  C   UNL     1      -4.611  -9.955  18.353  1.00  0.00     0.198 A 
ATOM     72  F   UNL     1      -3.657  -9.524  16.311  1.00  0.00    -0.203 F 
ATOM     73  F   UNL     1      -5.341  -7.846  21.179  1.00  0.00    -0.200 F 
ATOM     74  C   UNL     1      -5.003  -9.570  19.614  1.00  0.00     0.200 A 
ATOM     75  F   UNL     1      -4.587 -11.254  18.019  1.00  0.00    -0.200 F 
ATOM     76  F   UNL     1      -5.324 -10.495  20.528  1.00  0.00    -0.200 F 
ENDBRANCH  52  66
BRANCH  53  77
ATOM     77  C   UNL     1       3.903 -10.325  17.366  1.00  0.00     0.064 A 
ATOM     78  C   UNL     1       4.465 -10.593  18.624  1.00  0.00     0.173 A 
ATOM     79  C   UNL     1       3.886 -11.395  16.449  1.00  0.00     0.173 A 
ATOM     80  F   UNL     1       4.477  -9.645  19.572  1.00  0.00    -0.203 F 
ATOM     81  C   UNL     1       4.964 -11.858  18.951  1.00  0.00     0.198 A 
ATOM     82  C   UNL     1       4.398 -12.653  16.770  1.00  0.00     0.198 A 
ATOM     83  F   UNL     1       3.290 -11.274  15.255  1.00  0.00    -0.203 F 
ATOM     84  F   UNL     1       5.435 -12.093  20.183  1.00  0.00    -0.200 F 
ATOM     85  C   UNL     1       4.924 -12.889  18.026  1.00  0.00     0.200 A 
ATOM     86  F   UNL     1       4.322 -13.649  15.877  1.00  0.00    -0.200 F 
ATOM     87  F   UNL     1       5.352 -14.115  18.356  1.00  0.00    -0.200 F 
ENDBRANCH  53  77
BRANCH  65  88
ATOM     88  C   UNL     1       1.861  -4.460  18.495  1.00  0.00     0.064 A 
ATOM     89  C   UNL     1       2.763  -4.447  17.416  1.00  0.00     0.173 A 
ATOM     90  C   UNL     1       1.913  -3.385  19.392  1.00  0.00     0.173 A 
ATOM     91  F   UNL     1       2.706  -5.380  16.459  1.00  0.00    -0.203 F 
ATOM     92  C   UNL     1       3.705  -3.431  17.275  1.00  0.00     0.198 A 
ATOM     93  C   UNL     1       2.830  -2.351  19.227  1.00  0.00     0.198 A 
ATOM     94  F   UNL     1       1.038  -3.314  20.408  1.00  0.00    -0.203 F 
ATOM     95  F   UNL     1       4.567  -3.451  16.247  1.00  0.00    -0.200 F 
ATOM     96  C   UNL     1       3.733  -2.380  18.176  1.00  0.00     0.200 A 
ATOM     97  F   UNL     1       2.820  -1.311  20.072  1.00  0.00    -0.200 F 
ATOM     98  F   UNL     1       4.613  -1.381  18.018  1.00  0.00    -0.200 F 
ENDBRANCH  65  88
ENDBRANCH  39  40
ENDBRANCH  32  34
ENDBRANCH  31  32
ENDBRANCH  30  31
ENDBRANCH   1  30
TORSDOF 15
