REMARK SMILES O=C(OCCOC(=O)c1nccnc1C(=O)Nc1n[nH]c2ncccc12)c1ccc(-c2c3nc(c(-c4c(F)c(F)c(F)c(F)c4F)c4ccc([nH]4)c(-c4c(F)c(F)c(F)c(F)c4F)c4nc(c(-c5c(F)c(F)c(F)c(F)c5F)c5ccc2[nH]5)C=C4)C=C3)cc1
REMARK SMILES IDX 4 1 3 2 2 3 1 4 27 5 28 6 89 7 29 8 88 9 30 10 31 11 32 12
REMARK SMILES IDX 82 13 33 14 87 15 81 16 83 17 34 18 86 19 80 20 79 21 35 23
REMARK SMILES IDX 67 24 47 25 66 26 48 27 51 28 65 29 84 30 49 31 50 32 64 34
REMARK SMILES IDX 85 35 52 36 36 37 37 38 45 39 38 40 39 41 43 42 46 43 40 44
REMARK SMILES IDX 41 45 44 46 42 47 68 48 69 49 77 50 70 51 71 52 75 53 78 54
REMARK SMILES IDX 72 55 73 56 76 57 74 58 53 59 54 60 62 61 55 62 56 63 60 64
REMARK SMILES IDX 63 65 57 66 58 67 61 68 59 69 5 70 6 71 7 72 8 73 9 74 10 75
REMARK SMILES IDX 14 76 11 77 13 78 12 79 15 80 16 81 17 82 18 84 19 85 26 86
REMARK SMILES IDX 20 87 21 88 25 89 22 91 24 92 23 93
REMARK H PARENT 83 22 51 33 17 83 20 90
REMARK Flexibility Score: inf
ROOT
ATOM      1  C   UNL     1       4.503  -1.044   0.218  1.00  0.00     0.275 C 
ENDROOT
BRANCH   1   2
ATOM      2  O   UNL     1       3.275  -0.469   0.864  1.00  0.00    -0.458 OA
BRANCH   2   3
ATOM      3  C   UNL     1       2.945  -0.336   2.194  1.00  0.00     0.338 C 
ATOM      4  O   UNL     1       2.866  -1.244   2.999  1.00  0.00    -0.246 OA
BRANCH   3   5
ATOM      5  C   UNL     1       2.735   1.139   2.538  1.00  0.00     0.060 A 
ATOM      6  C   UNL     1       2.570   2.030   1.511  1.00  0.00     0.016 A 
ATOM      7  C   UNL     1       2.873   1.746   3.770  1.00  0.00     0.016 A 
ATOM      8  C   UNL     1       3.169   3.296   1.522  1.00  0.00     0.010 A 
ATOM      9  C   UNL     1       3.244   3.124   3.827  1.00  0.00     0.010 A 
ATOM     10  C   UNL     1       3.690   3.816   2.673  1.00  0.00    -0.014 A 
BRANCH  10  11
ATOM     11  C   UNL     1       4.793   4.878   2.699  1.00  0.00     0.031 A 
ATOM     12  C   UNL     1       5.751   4.784   3.861  1.00  0.00     0.074 A 
ATOM     13  C   UNL     1       5.218   5.761   1.752  1.00  0.00     0.049 A 
ATOM     14  N   UNL     1       6.391   5.708   4.520  1.00  0.00    -0.248 NA
ATOM     15  C   UNL     1       5.990   3.420   4.359  1.00  0.00     0.031 C 
ATOM     16  C   UNL     1       4.878   5.793   0.336  1.00  0.00     0.029 A 
ATOM     17  N   UNL     1       6.094   6.835   1.856  1.00  0.00    -0.354 N 
ATOM     18  C   UNL     1       6.921   5.054   5.625  1.00  0.00     0.074 A 
ATOM     19  C   UNL     1       6.534   3.667   5.536  1.00  0.00     0.031 C 
ATOM     20  C   UNL     1       5.436   6.853  -0.270  1.00  0.00     0.029 A 
ATOM     21  C   UNL     1       6.176   7.613   0.716  1.00  0.00     0.049 A 
ATOM     22  H   UNL     1       6.612   7.024   2.671  1.00  0.00     0.167 HD
ATOM     23  C   UNL     1       7.664   5.580   6.625  1.00  0.00     0.037 A 
ATOM     24  C   UNL     1       6.754   8.811   0.479  1.00  0.00     0.037 A 
ATOM     25  C   UNL     1       8.234   6.896   6.559  1.00  0.00     0.049 A 
ATOM     26  C   UNL     1       7.514   9.460   1.602  1.00  0.00     0.074 A 
ATOM     27  C   UNL     1       8.979   7.573   7.503  1.00  0.00     0.029 A 
ATOM     28  N   UNL     1       8.181   7.704   5.430  1.00  0.00    -0.354 N 
ATOM     29  N   UNL     1       7.766   8.986   2.798  1.00  0.00    -0.248 NA
ATOM     30  C   UNL     1       8.072  10.796   1.352  1.00  0.00     0.031 C 
ATOM     31  C   UNL     1       9.355   8.805   6.954  1.00  0.00     0.029 A 
ATOM     32  C   UNL     1       8.884   8.873   5.651  1.00  0.00     0.049 A 
ATOM     33  H   UNL     1       7.711   7.477   4.595  1.00  0.00     0.167 HD
ATOM     34  C   UNL     1       8.546   9.942   3.430  1.00  0.00     0.074 A 
ATOM     35  C   UNL     1       8.726  11.025   2.483  1.00  0.00     0.031 C 
ATOM     36  C   UNL     1       9.070   9.920   4.679  1.00  0.00     0.037 A 
BRANCH  23  37
ATOM     37  C   UNL     1       7.781   4.762   7.877  1.00  0.00     0.064 A 
ATOM     38  C   UNL     1       8.478   3.547   7.947  1.00  0.00     0.173 A 
ATOM     39  C   UNL     1       7.063   5.167   9.015  1.00  0.00     0.173 A 
ATOM     40  F   UNL     1       9.155   3.094   6.880  1.00  0.00    -0.203 F 
ATOM     41  C   UNL     1       8.390   2.735   9.076  1.00  0.00     0.198 A 
ATOM     42  C   UNL     1       7.016   4.376  10.159  1.00  0.00     0.198 A 
ATOM     43  F   UNL     1       6.374   6.318   9.005  1.00  0.00    -0.203 F 
ATOM     44  F   UNL     1       8.967   1.525   9.074  1.00  0.00    -0.200 F 
ATOM     45  C   UNL     1       7.661   3.150  10.181  1.00  0.00     0.200 A 
ATOM     46  F   UNL     1       6.316   4.785  11.225  1.00  0.00    -0.200 F 
ATOM     47  F   UNL     1       7.560   2.358  11.256  1.00  0.00    -0.200 F 
ENDBRANCH  23  37
BRANCH  24  48
ATOM     48  C   UNL     1       6.608   9.495  -0.845  1.00  0.00     0.064 A 
ATOM     49  C   UNL     1       7.712   9.743  -1.675  1.00  0.00     0.173 A 
ATOM     50  C   UNL     1       5.356   9.949  -1.296  1.00  0.00     0.173 A 
ATOM     51  F   UNL     1       8.937   9.359  -1.290  1.00  0.00    -0.203 F 
ATOM     52  C   UNL     1       7.573  10.424  -2.888  1.00  0.00     0.198 A 
ATOM     53  C   UNL     1       5.214  10.606  -2.519  1.00  0.00     0.198 A 
ATOM     54  F   UNL     1       4.260   9.748  -0.548  1.00  0.00    -0.203 F 
ATOM     55  F   UNL     1       8.655  10.682  -3.637  1.00  0.00    -0.200 F 
ATOM     56  C   UNL     1       6.324  10.851  -3.312  1.00  0.00     0.200 A 
ATOM     57  F   UNL     1       4.001  11.006  -2.926  1.00  0.00    -0.200 F 
ATOM     58  F   UNL     1       6.191  11.503  -4.475  1.00  0.00    -0.200 F 
ENDBRANCH  24  48
BRANCH  36  59
ATOM     59  C   UNL     1       9.947  11.068   5.068  1.00  0.00     0.064 A 
ATOM     60  C   UNL     1       9.422  12.336   5.347  1.00  0.00     0.173 A 
ATOM     61  C   UNL     1      11.329  10.875   5.206  1.00  0.00     0.173 A 
ATOM     62  F   UNL     1       8.108  12.569   5.209  1.00  0.00    -0.203 F 
ATOM     63  C   UNL     1      10.256  13.381   5.733  1.00  0.00     0.198 A 
ATOM     64  C   UNL     1      12.155  11.913   5.621  1.00  0.00     0.198 A 
ATOM     65  F   UNL     1      11.874   9.676   4.950  1.00  0.00    -0.203 F 
ATOM     66  F   UNL     1       9.742  14.599   5.952  1.00  0.00    -0.200 F 
ATOM     67  C   UNL     1      11.619  13.166   5.878  1.00  0.00     0.200 A 
ATOM     68  F   UNL     1      13.470  11.701   5.773  1.00  0.00    -0.200 F 
ATOM     69  F   UNL     1      12.419  14.171   6.260  1.00  0.00    -0.200 F 
ENDBRANCH  36  59
ENDBRANCH  10  11
ENDBRANCH   3   5
ENDBRANCH   2   3
ENDBRANCH   1   2
BRANCH   1  70
ATOM     70  C   UNL     1       5.053  -0.473  -1.448  1.00  0.00     0.275 C 
BRANCH  70  71
ATOM     71  O   UNL     1       4.250   1.025  -2.597  1.00  0.00    -0.457 OA
BRANCH  71  72
ATOM     72  C   UNL     1       3.239   2.024  -2.993  1.00  0.00     0.359 C 
ATOM     73  O   UNL     1       3.039   2.197  -4.199  1.00  0.00    -0.244 OA
BRANCH  72  74
ATOM     74  C   UNL     1       2.421   2.960  -2.064  1.00  0.00     0.179 A 
ATOM     75  N   UNL     1       2.927   4.246  -2.200  1.00  0.00    -0.245 NA
ATOM     76  C   UNL     1       1.238   2.776  -1.312  1.00  0.00     0.161 A 
ATOM     77  C   UNL     1       2.265   5.281  -1.620  1.00  0.00     0.132 A 
ATOM     78  N   UNL     1       0.676   3.866  -0.655  1.00  0.00    -0.247 NA
ATOM     79  C   UNL     1       1.175   5.093  -0.821  1.00  0.00     0.132 A 
BRANCH  76  80
ATOM     80  C   UNL     1       0.353   1.594  -0.910  1.00  0.00     0.278 C 
ATOM     81  O   UNL     1      -0.762   1.826  -0.419  1.00  0.00    -0.267 OA
ATOM     82  N   UNL     1       0.649   0.268  -0.969  1.00  0.00    -0.303 N 
ATOM     83  H   UNL     1       0.007  -0.339  -0.535  1.00  0.00     0.172 HD
BRANCH  82  84
ATOM     84  C   UNL     1       1.713  -0.314  -1.548  1.00  0.00     0.164 A 
ATOM     85  N   UNL     1       1.445  -1.309  -2.404  1.00  0.00    -0.155 NA
ATOM     86  C   UNL     1       3.045   0.114  -1.505  1.00  0.00     0.063 A 
ATOM     87  N   UNL     1       2.429  -1.354  -3.332  1.00  0.00    -0.259 N 
ATOM     88  C   UNL     1       3.540  -0.669  -2.987  1.00  0.00     0.157 A 
ATOM     89  C   UNL     1       4.264   1.298  -0.745  1.00  0.00     0.017 A 
ATOM     90  H   UNL     1       2.342  -1.843  -4.182  1.00  0.00     0.192 HD
ATOM     91  N   UNL     1       5.013  -0.398  -3.767  1.00  0.00    -0.237 NA
ATOM     92  C   UNL     1       5.798   1.624  -1.569  1.00  0.00     0.021 A 
ATOM     93  C   UNL     1       6.078   0.754  -3.036  1.00  0.00     0.113 A 
ENDBRANCH  82  84
ENDBRANCH  76  80
ENDBRANCH  72  74
ENDBRANCH  71  72
ENDBRANCH  70  71
ENDBRANCH   1  70
TORSDOF 13
