REMARK SMILES C[NH2+][C@@]1(C(=O)OCCOC(=O)c2ccc(-c3c4nc(c(-c5c(F)c(F)c(F)c(F)c5F)c5ccc([nH]5)c(-c5c(F)c(F)c(F)c(F)c5F)c5nc(c(-c6c(F)c(F)c(F)c(F)c6F)c6ccc3[nH]6)C=C5)C=C4)cc2)CC[C@H]([NH+]2CC[NH+](C)CC2)C1
REMARK SMILES IDX 8 1 7 2 6 3 4 4 5 5 3 6 75 7 85 8 76 9 77 10 2 11 1 12 78 15
REMARK SMILES IDX 79 16 84 17 80 19 83 20 81 21 82 22 9 24 10 25 11 26 12 27
REMARK SMILES IDX 13 28 74 29 14 30 73 31 15 32 16 33 17 34 67 35 18 36 72 37
REMARK SMILES IDX 66 38 68 39 19 40 71 41 65 42 64 43 20 45 52 46 32 47 51 48
REMARK SMILES IDX 33 49 36 50 50 51 69 52 34 53 35 54 49 56 70 57 37 58 21 59
REMARK SMILES IDX 22 60 30 61 23 62 24 63 28 64 31 65 25 66 26 67 29 68 27 69
REMARK SMILES IDX 53 70 54 71 62 72 55 73 56 74 60 75 63 76 57 77 58 78 61 79
REMARK SMILES IDX 59 80 38 81 39 82 47 83 40 84 41 85 45 86 48 87 42 88 43 89
REMARK SMILES IDX 46 90 44 91
REMARK H PARENT 2 13 2 14 78 18 81 23 68 44 36 55
REMARK Flexibility Score: inf
ROOT
ATOM      1  C   UNL     1      -1.811  -2.229   3.217  1.00  0.00     0.275 C 
ENDROOT
BRANCH   1   2
ATOM      2  C   UNL     1      -1.839  -0.864   2.521  1.00  0.00     0.274 C 
BRANCH   2   3
ATOM      3  O   UNL     1      -1.484  -1.045   1.137  1.00  0.00    -0.457 OA
BRANCH   3   4
ATOM      4  C   UNL     1      -1.378   0.072   0.371  1.00  0.00     0.368 C 
ATOM      5  O   UNL     1      -1.542   1.208   0.804  1.00  0.00    -0.245 OA
BRANCH   4   6
ATOM      6  C   UNL     1      -0.962  -0.264  -1.097  1.00  0.00     0.200 C 
ATOM      7  C   UNL     1      -1.546   0.742  -2.100  1.00  0.00     0.087 C 
ATOM      8  C   UNL     1      -1.569  -1.598  -1.593  1.00  0.00     0.146 C 
ATOM      9  C   UNL     1      -2.970   0.269  -2.348  1.00  0.00     0.072 C 
ATOM     10  C   UNL     1      -2.950  -1.261  -2.209  1.00  0.00     0.191 C 
BRANCH   6  11
ATOM     11  N   UNL     1       0.523  -0.315  -1.214  1.00  0.00    -0.334 N 
ATOM     12  C   UNL     1       1.209   0.857  -0.681  1.00  0.00     0.331 C 
ATOM     13  H   UNL     1       0.855  -1.136  -0.709  1.00  0.00     0.347 HD
ATOM     14  H   UNL     1       0.735  -0.349  -2.211  1.00  0.00     0.347 HD
ENDBRANCH   6  11
BRANCH  10  15
ATOM     15  N   UNL     1      -4.125  -1.950  -1.653  1.00  0.00    -0.323 N 
ATOM     16  C   UNL     1      -5.412  -1.584  -2.273  1.00  0.00     0.324 C 
ATOM     17  C   UNL     1      -4.316  -1.945  -0.198  1.00  0.00     0.324 C 
ATOM     18  H   UNL     1      -3.855  -2.900  -1.907  1.00  0.00     0.348 HD
ATOM     19  C   UNL     1      -6.093  -0.302  -1.723  1.00  0.00     0.324 C 
ATOM     20  C   UNL     1      -4.822  -0.608   0.370  1.00  0.00     0.324 C 
ATOM     21  N   UNL     1      -6.058  -0.115  -0.258  1.00  0.00    -0.328 N 
ATOM     22  C   UNL     1      -6.261   1.296   0.083  1.00  0.00     0.333 C 
ATOM     23  H   UNL     1      -6.821  -0.679   0.116  1.00  0.00     0.348 HD
ENDBRANCH  10  15
ENDBRANCH   4   6
ENDBRANCH   3   4
ENDBRANCH   2   3
ENDBRANCH   1   2
BRANCH   1  24
ATOM     24  O   UNL     1      -0.456  -2.708   3.221  1.00  0.00    -0.458 OA
BRANCH  24  25
ATOM     25  C   UNL     1      -0.106  -3.404   2.107  1.00  0.00     0.338 C 
ATOM     26  O   UNL     1      -0.840  -3.962   1.322  1.00  0.00    -0.246 OA
BRANCH  25  27
ATOM     27  C   UNL     1       1.329  -3.149   1.870  1.00  0.00     0.060 A 
ATOM     28  C   UNL     1       1.715  -2.771   0.581  1.00  0.00     0.016 A 
ATOM     29  C   UNL     1       2.268  -3.219   2.900  1.00  0.00     0.016 A 
ATOM     30  C   UNL     1       3.040  -2.437   0.316  1.00  0.00     0.010 A 
ATOM     31  C   UNL     1       3.602  -2.916   2.630  1.00  0.00     0.010 A 
ATOM     32  C   UNL     1       3.992  -2.530   1.337  1.00  0.00    -0.014 A 
BRANCH  32  33
ATOM     33  C   UNL     1       5.428  -2.380   1.025  1.00  0.00     0.031 A 
ATOM     34  C   UNL     1       6.204  -3.610   0.663  1.00  0.00     0.074 A 
ATOM     35  C   UNL     1       6.026  -1.179   1.089  1.00  0.00     0.049 A 
ATOM     36  N   UNL     1       7.486  -3.753   0.457  1.00  0.00    -0.248 NA
ATOM     37  C   UNL     1       5.423  -4.849   0.514  1.00  0.00     0.031 C 
ATOM     38  C   UNL     1       5.353   0.086   1.378  1.00  0.00     0.029 A 
ATOM     39  N   UNL     1       7.344  -0.834   0.934  1.00  0.00    -0.354 N 
ATOM     40  C   UNL     1       7.667  -5.095   0.155  1.00  0.00     0.074 A 
ATOM     41  C   UNL     1       6.368  -5.729   0.224  1.00  0.00     0.031 C 
ATOM     42  C   UNL     1       6.271   1.069   1.408  1.00  0.00     0.029 A 
ATOM     43  C   UNL     1       7.595   0.494   1.177  1.00  0.00     0.049 A 
ATOM     44  H   UNL     1       8.043  -1.477   0.674  1.00  0.00     0.167 HD
ATOM     45  C   UNL     1       8.817  -5.739  -0.150  1.00  0.00     0.037 A 
ATOM     46  C   UNL     1       8.768   1.153   1.237  1.00  0.00     0.037 A 
ATOM     47  C   UNL     1      10.107  -5.104  -0.183  1.00  0.00     0.049 A 
ATOM     48  C   UNL     1      10.048   0.392   0.991  1.00  0.00     0.074 A 
ATOM     49  C   UNL     1      11.339  -5.665  -0.466  1.00  0.00     0.029 A 
ATOM     50  N   UNL     1      10.328  -3.763   0.093  1.00  0.00    -0.354 N 
ATOM     51  N   UNL     1      10.216  -0.874   0.691  1.00  0.00    -0.248 NA
ATOM     52  C   UNL     1      11.301   1.152   1.095  1.00  0.00     0.031 C 
ATOM     53  C   UNL     1      12.313  -4.673  -0.310  1.00  0.00     0.029 A 
ATOM     54  C   UNL     1      11.682  -3.482   0.013  1.00  0.00     0.049 A 
ATOM     55  H   UNL     1       9.627  -3.108   0.314  1.00  0.00     0.167 HD
ATOM     56  C   UNL     1      11.585  -1.056   0.540  1.00  0.00     0.074 A 
ATOM     57  C   UNL     1      12.202   0.234   0.772  1.00  0.00     0.031 C 
ATOM     58  C   UNL     1      12.271  -2.185   0.237  1.00  0.00     0.037 A 
BRANCH  45  59
ATOM     59  C   UNL     1       8.727  -7.210  -0.426  1.00  0.00     0.064 A 
ATOM     60  C   UNL     1       8.137  -7.705  -1.599  1.00  0.00     0.173 A 
ATOM     61  C   UNL     1       9.240  -8.136   0.494  1.00  0.00     0.173 A 
ATOM     62  F   UNL     1       7.613  -6.860  -2.499  1.00  0.00    -0.203 F 
ATOM     63  C   UNL     1       8.042  -9.075  -1.828  1.00  0.00     0.198 A 
ATOM     64  C   UNL     1       9.168  -9.504   0.248  1.00  0.00     0.198 A 
ATOM     65  F   UNL     1       9.811  -7.715   1.632  1.00  0.00    -0.203 F 
ATOM     66  F   UNL     1       7.431  -9.527  -2.932  1.00  0.00    -0.200 F 
ATOM     67  C   UNL     1       8.563  -9.973  -0.908  1.00  0.00     0.200 A 
ATOM     68  F   UNL     1       9.679 -10.370   1.134  1.00  0.00    -0.200 F 
ATOM     69  F   UNL     1       8.473 -11.291  -1.132  1.00  0.00    -0.200 F 
ENDBRANCH  45  59
BRANCH  46  70
ATOM     70  C   UNL     1       8.797   2.602   1.566  1.00  0.00     0.064 A 
ATOM     71  C   UNL     1       9.202   3.551   0.617  1.00  0.00     0.173 A 
ATOM     72  C   UNL     1       8.450   3.067   2.844  1.00  0.00     0.173 A 
ATOM     73  F   UNL     1       9.571   3.155  -0.610  1.00  0.00    -0.203 F 
ATOM     74  C   UNL     1       9.278   4.905   0.939  1.00  0.00     0.198 A 
ATOM     75  C   UNL     1       8.498   4.424   3.155  1.00  0.00     0.198 A 
ATOM     76  F   UNL     1       8.060   2.201   3.791  1.00  0.00    -0.203 F 
ATOM     77  F   UNL     1       9.717   5.785   0.028  1.00  0.00    -0.200 F 
ATOM     78  C   UNL     1       8.920   5.341   2.206  1.00  0.00     0.200 A 
ATOM     79  F   UNL     1       8.142   4.842   4.378  1.00  0.00    -0.200 F 
ATOM     80  F   UNL     1       8.993   6.643   2.514  1.00  0.00    -0.200 F 
ENDBRANCH  46  70
BRANCH  58  81
ATOM     81  C   UNL     1      13.761  -2.070   0.093  1.00  0.00     0.064 A 
ATOM     82  C   UNL     1      14.598  -1.886   1.203  1.00  0.00     0.173 A 
ATOM     83  C   UNL     1      14.361  -2.198  -1.169  1.00  0.00     0.173 A 
ATOM     84  F   UNL     1      14.072  -1.743   2.429  1.00  0.00    -0.203 F 
ATOM     85  C   UNL     1      15.980  -1.811   1.052  1.00  0.00     0.198 A 
ATOM     86  C   UNL     1      15.745  -2.155  -1.313  1.00  0.00     0.198 A 
ATOM     87  F   UNL     1      13.605  -2.384  -2.261  1.00  0.00    -0.203 F 
ATOM     88  F   UNL     1      16.758  -1.589   2.120  1.00  0.00    -0.200 F 
ATOM     89  C   UNL     1      16.552  -1.954  -0.204  1.00  0.00     0.200 A 
ATOM     90  F   UNL     1      16.296  -2.309  -2.524  1.00  0.00    -0.200 F 
ATOM     91  F   UNL     1      17.884  -1.893  -0.346  1.00  0.00    -0.200 F 
ENDBRANCH  58  81
ENDBRANCH  32  33
ENDBRANCH  25  27
ENDBRANCH  24  25
ENDBRANCH   1  24
TORSDOF 13
