REMARK SMILES Cc1ccc(C(=O)OCCOC(=O)c2ccc(-c3c4nc(c(-c5c(F)c(F)c(F)c(F)c5F)c5ccc([nH]5)c(-c5c(F)c(F)c(F)c(F)c5F)c5nc(c(-c6c(F)c(F)c(F)c(F)c6F)c6ccc3[nH]6)C=C5)C=C4)cc2)cc1S(=O)(=O)N(C)[C@H]1CCSC1
REMARK SMILES IDX 9 1 8 2 6 3 7 4 5 5 1 6 2 7 3 8 78 9 4 10 77 11 79 12 80 13
REMARK SMILES IDX 81 14 82 15 83 16 84 17 85 18 88 19 86 20 87 21 10 22 11 23
REMARK SMILES IDX 12 24 13 25 14 26 15 27 76 28 16 29 75 30 17 31 18 32 19 33
REMARK SMILES IDX 69 34 20 35 74 36 68 37 70 38 21 39 73 40 67 41 66 42 22 44
REMARK SMILES IDX 54 45 34 46 53 47 35 48 38 49 52 50 71 51 36 52 37 53 51 55
REMARK SMILES IDX 72 56 39 57 23 58 24 59 32 60 25 61 26 62 30 63 33 64 27 65
REMARK SMILES IDX 28 66 31 67 29 68 55 69 56 70 64 71 57 72 58 73 62 74 65 75
REMARK SMILES IDX 59 76 60 77 63 78 61 79 40 80 41 81 49 82 42 83 43 84 47 85
REMARK SMILES IDX 50 86 44 87 45 88 48 89 46 90
REMARK H PARENT 70 43 38 54
REMARK Flexibility Score: inf
ROOT
ATOM      1  C   UNL     1      -4.116   4.175  -4.307  1.00  0.00     0.275 C 
ENDROOT
BRANCH   1   2
ATOM      2  O   UNL     1      -2.937   3.414  -4.031  1.00  0.00    -0.458 OA
BRANCH   2   3
ATOM      3  C   UNL     1      -2.194   3.989  -3.054  1.00  0.00     0.338 C 
ATOM      4  O   UNL     1      -2.464   5.026  -2.462  1.00  0.00    -0.246 OA
BRANCH   3   5
ATOM      5  C   UNL     1      -0.939   3.273  -2.783  1.00  0.00     0.061 A 
ATOM      6  C   UNL     1       2.611   1.428  -1.179  1.00  0.00     0.046 C 
ATOM      7  C   UNL     1       1.486   2.172  -1.831  1.00  0.00    -0.031 A 
ATOM      8  C   UNL     1       0.373   1.361  -2.160  1.00  0.00     0.006 A 
ATOM      9  C   UNL     1       1.379   3.552  -2.077  1.00  0.00     0.086 A 
ATOM     10  C   UNL     1      -0.808   1.896  -2.683  1.00  0.00     0.016 A 
ATOM     11  C   UNL     1       0.152   4.082  -2.504  1.00  0.00     0.037 A 
BRANCH   9  12
ATOM     12  S   UNL     1       2.612   4.840  -2.007  1.00  0.00     0.243 S 
ATOM     13  O   UNL     1       3.000   5.082  -3.373  1.00  0.00    -0.207 OA
ATOM     14  O   UNL     1       2.019   5.897  -1.200  1.00  0.00    -0.207 OA
BRANCH  12  15
ATOM     15  N   UNL     1       3.943   4.277  -1.167  1.00  0.00    -0.197 NA
ATOM     16  C   UNL     1       5.062   3.750  -1.952  1.00  0.00     0.125 C 
BRANCH  15  17
ATOM     17  C   UNL     1       3.919   4.358   0.306  1.00  0.00     0.083 C 
ATOM     18  C   UNL     1       4.794   3.351   1.040  1.00  0.00     0.032 C 
ATOM     19  C   UNL     1       4.355   5.732   0.824  1.00  0.00     0.089 C 
ATOM     20  C   UNL     1       4.583   3.659   2.514  1.00  0.00     0.071 C 
ATOM     21  S   UNL     1       4.663   5.470   2.602  1.00  0.00    -0.160 SA
ENDBRANCH  15  17
ENDBRANCH  12  15
ENDBRANCH   9  12
ENDBRANCH   3   5
ENDBRANCH   2   3
ENDBRANCH   1   2
BRANCH   1  22
ATOM     22  C   UNL     1      -5.233   3.360  -4.967  1.00  0.00     0.275 C 
BRANCH  22  23
ATOM     23  O   UNL     1      -5.472   1.965  -4.617  1.00  0.00    -0.458 OA
BRANCH  23  24
ATOM     24  C   UNL     1      -4.873   1.242  -3.646  1.00  0.00     0.338 C 
ATOM     25  O   UNL     1      -4.458   0.106  -3.824  1.00  0.00    -0.246 OA
BRANCH  24  26
ATOM     26  C   UNL     1      -4.792   1.868  -2.318  1.00  0.00     0.060 A 
ATOM     27  C   UNL     1      -3.791   1.438  -1.427  1.00  0.00     0.016 A 
ATOM     28  C   UNL     1      -5.628   2.934  -2.006  1.00  0.00     0.016 A 
ATOM     29  C   UNL     1      -3.543   2.147  -0.265  1.00  0.00     0.010 A 
ATOM     30  C   UNL     1      -5.312   3.715  -0.929  1.00  0.00     0.010 A 
ATOM     31  C   UNL     1      -4.323   3.273  -0.034  1.00  0.00    -0.014 A 
BRANCH  31  32
ATOM     32  C   UNL     1      -4.541   3.787   1.300  1.00  0.00     0.031 A 
ATOM     33  C   UNL     1      -3.773   4.925   1.810  1.00  0.00     0.074 A 
ATOM     34  C   UNL     1      -5.687   3.257   1.787  1.00  0.00     0.049 A 
ATOM     35  N   UNL     1      -3.697   5.240   3.053  1.00  0.00    -0.248 NA
ATOM     36  C   UNL     1      -2.958   5.789   0.958  1.00  0.00     0.031 C 
ATOM     37  C   UNL     1      -6.627   3.717   2.785  1.00  0.00     0.029 A 
ATOM     38  N   UNL     1      -6.207   2.003   1.396  1.00  0.00    -0.354 N 
ATOM     39  C   UNL     1      -3.219   6.536   3.100  1.00  0.00     0.074 A 
ATOM     40  C   UNL     1      -2.591   6.747   1.820  1.00  0.00     0.031 C 
ATOM     41  C   UNL     1      -7.392   2.670   3.162  1.00  0.00     0.029 A 
ATOM     42  C   UNL     1      -6.848   1.477   2.515  1.00  0.00     0.049 A 
ATOM     43  H   UNL     1      -6.131   1.583   0.508  1.00  0.00     0.167 HD
ATOM     44  C   UNL     1      -3.653   7.343   4.114  1.00  0.00     0.037 A 
ATOM     45  C   UNL     1      -6.234   0.434   3.151  1.00  0.00     0.037 A 
ATOM     46  C   UNL     1      -4.547   6.574   4.984  1.00  0.00     0.049 A 
ATOM     47  C   UNL     1      -5.759   0.882   4.509  1.00  0.00     0.074 A 
ATOM     48  C   UNL     1      -5.930   6.473   4.999  1.00  0.00     0.029 A 
ATOM     49  N   UNL     1      -4.061   5.469   5.677  1.00  0.00    -0.354 N 
ATOM     50  N   UNL     1      -5.285   2.073   4.766  1.00  0.00    -0.248 NA
ATOM     51  C   UNL     1      -5.897   0.048   5.694  1.00  0.00     0.031 C 
ATOM     52  C   UNL     1      -6.271   5.257   5.642  1.00  0.00     0.029 A 
ATOM     53  C   UNL     1      -5.098   4.614   6.002  1.00  0.00     0.049 A 
ATOM     54  H   UNL     1      -3.115   5.319   5.903  1.00  0.00     0.167 HD
ATOM     55  C   UNL     1      -5.167   2.213   6.123  1.00  0.00     0.074 A 
ATOM     56  C   UNL     1      -5.523   0.907   6.656  1.00  0.00     0.031 C 
ATOM     57  C   UNL     1      -4.851   3.389   6.740  1.00  0.00     0.037 A 
BRANCH  44  58
ATOM     58  C   UNL     1      -3.619   8.863   4.114  1.00  0.00     0.064 A 
ATOM     59  C   UNL     1      -4.572   9.597   4.863  1.00  0.00     0.173 A 
ATOM     60  C   UNL     1      -2.718   9.660   3.384  1.00  0.00     0.173 A 
ATOM     61  F   UNL     1      -5.429   8.993   5.696  1.00  0.00    -0.203 F 
ATOM     62  C   UNL     1      -4.684  10.988   4.796  1.00  0.00     0.198 A 
ATOM     63  C   UNL     1      -2.844  11.055   3.299  1.00  0.00     0.198 A 
ATOM     64  F   UNL     1      -1.654   9.130   2.772  1.00  0.00    -0.203 F 
ATOM     65  F   UNL     1      -5.628  11.613   5.514  1.00  0.00    -0.200 F 
ATOM     66  C   UNL     1      -3.836  11.717   3.994  1.00  0.00     0.200 A 
ATOM     67  F   UNL     1      -1.990  11.756   2.538  1.00  0.00    -0.200 F 
ATOM     68  F   UNL     1      -3.954  13.050   3.915  1.00  0.00    -0.200 F 
ENDBRANCH  44  58
BRANCH  45  69
ATOM     69  C   UNL     1      -5.497  -0.499   2.231  1.00  0.00     0.064 A 
ATOM     70  C   UNL     1      -6.196  -1.071   1.141  1.00  0.00     0.173 A 
ATOM     71  C   UNL     1      -4.102  -0.627   2.215  1.00  0.00     0.173 A 
ATOM     72  F   UNL     1      -7.536  -0.988   1.087  1.00  0.00    -0.203 F 
ATOM     73  C   UNL     1      -5.534  -1.645   0.054  1.00  0.00     0.198 A 
ATOM     74  C   UNL     1      -3.441  -1.221   1.129  1.00  0.00     0.198 A 
ATOM     75  F   UNL     1      -3.358  -0.116   3.205  1.00  0.00    -0.203 F 
ATOM     76  F   UNL     1      -6.235  -2.075  -1.006  1.00  0.00    -0.200 F 
ATOM     77  C   UNL     1      -4.154  -1.707   0.043  1.00  0.00     0.200 A 
ATOM     78  F   UNL     1      -2.100  -1.250   1.097  1.00  0.00    -0.200 F 
ATOM     79  F   UNL     1      -3.506  -2.185  -1.030  1.00  0.00    -0.200 F 
ENDBRANCH  45  69
BRANCH  57  80
ATOM     80  C   UNL     1      -4.390   3.509   8.165  1.00  0.00     0.064 A 
ATOM     81  C   UNL     1      -3.690   2.489   8.827  1.00  0.00     0.173 A 
ATOM     82  C   UNL     1      -4.479   4.744   8.851  1.00  0.00     0.173 A 
ATOM     83  F   UNL     1      -3.430   1.318   8.229  1.00  0.00    -0.203 F 
ATOM     84  C   UNL     1      -3.180   2.666  10.111  1.00  0.00     0.198 A 
ATOM     85  C   UNL     1      -3.901   4.939  10.101  1.00  0.00     0.198 A 
ATOM     86  F   UNL     1      -5.095   5.809   8.317  1.00  0.00    -0.203 F 
ATOM     87  F   UNL     1      -2.568   1.644  10.724  1.00  0.00    -0.200 F 
ATOM     88  C   UNL     1      -3.271   3.894  10.740  1.00  0.00     0.200 A 
ATOM     89  F   UNL     1      -3.939   6.153  10.667  1.00  0.00    -0.200 F 
ATOM     90  F   UNL     1      -2.731   4.073  11.952  1.00  0.00    -0.200 F 
ENDBRANCH  57  80
ENDBRANCH  31  32
ENDBRANCH  24  26
ENDBRANCH  23  24
ENDBRANCH  22  23
ENDBRANCH   1  22
TORSDOF 14
