REMARK SMILES COCC[C@H](NC(=O)N1CCN2C(=O)NC[C@H]2C1)C(=O)OCCOC(=O)c1ccc(-c2c3nc(c(-c4c(F)c(F)c(F)c(F)c4F)c4ccc([nH]4)c(-c4c(F)c(F)c(F)c(F)c4F)c4nc(c(-c5c(F)c(F)c(F)c(F)c5F)c5ccc2[nH]5)C=C4)C=C3)cc1
REMARK SMILES IDX 22 1 21 2 19 3 20 4 5 5 4 6 3 7 2 8 1 9 6 10 7 11 8 13 9 14
REMARK SMILES IDX 10 15 18 16 11 17 17 18 12 19 16 20 13 21 15 22 14 23 23 25
REMARK SMILES IDX 24 26 25 27 26 28 27 29 28 30 89 31 29 32 88 33 30 34 31 35
REMARK SMILES IDX 32 36 82 37 33 38 87 39 81 40 83 41 34 42 86 43 80 44 79 45
REMARK SMILES IDX 35 47 67 48 47 49 66 50 48 51 51 52 65 53 84 54 49 55 50 56
REMARK SMILES IDX 64 58 85 59 52 60 36 61 37 62 45 63 38 64 39 65 43 66 46 67
REMARK SMILES IDX 40 68 41 69 44 70 42 71 68 72 69 73 77 74 70 75 71 76 75 77
REMARK SMILES IDX 78 78 72 79 73 80 76 81 74 82 53 83 54 84 62 85 55 86 56 87
REMARK SMILES IDX 60 88 63 89 57 90 58 91 61 92 59 93
REMARK H PARENT 6 12 15 24 83 46 51 57
REMARK Flexibility Score: inf
ROOT
ATOM      1  C   UNL     1       0.204   5.288   2.687  1.00  0.00     0.274 C 
ENDROOT
BRANCH   1   2
ATOM      2  O   UNL     1       0.158   4.343   1.595  1.00  0.00    -0.461 OA
BRANCH   2   3
ATOM      3  C   UNL     1       0.751   3.146   1.831  1.00  0.00     0.328 C 
ATOM      4  O   UNL     1       1.139   2.773   2.937  1.00  0.00    -0.250 OA
BRANCH   3   5
ATOM      5  C   UNL     1       1.012   2.306   0.563  1.00  0.00     0.196 C 
BRANCH   5   6
ATOM      6  C   UNL     1       2.541   2.310   0.329  1.00  0.00     0.065 C 
BRANCH   6   7
ATOM      7  C   UNL     1       3.090   3.512  -0.446  1.00  0.00     0.162 C 
BRANCH   7   8
ATOM      8  O   UNL     1       2.655   4.752   0.105  1.00  0.00    -0.385 OA
ATOM      9  C   UNL     1       1.866   5.544  -0.779  1.00  0.00     0.194 C 
ENDBRANCH   7   8
ENDBRANCH   6   7
ENDBRANCH   5   6
BRANCH   5  10
ATOM     10  N   UNL     1       0.292   2.610  -0.687  1.00  0.00    -0.324 N 
ATOM     11  C   UNL     1      -0.460   1.823  -1.488  1.00  0.00     0.318 C 
ATOM     12  H   UNL     1       0.373   3.544  -0.990  1.00  0.00     0.166 HD
ATOM     13  O   UNL     1      -0.296   1.946  -2.701  1.00  0.00    -0.249 OA
BRANCH  11  14
ATOM     14  N   UNL     1      -1.359   0.954  -0.961  1.00  0.00    -0.321 N 
ATOM     15  C   UNL     1      -1.888   0.987   0.395  1.00  0.00     0.143 C 
ATOM     16  C   UNL     1      -1.939  -0.128  -1.785  1.00  0.00     0.148 C 
ATOM     17  C   UNL     1      -1.605  -0.335   1.105  1.00  0.00     0.143 C 
ATOM     18  C   UNL     1      -1.545  -1.467  -1.161  1.00  0.00     0.125 C 
ATOM     19  N   UNL     1      -1.792  -1.491   0.269  1.00  0.00    -0.317 N 
ATOM     20  C   UNL     1      -2.292  -2.724  -1.602  1.00  0.00     0.144 C 
ATOM     21  C   UNL     1      -1.996  -2.784   0.712  1.00  0.00     0.317 C 
ATOM     22  N   UNL     1      -2.241  -3.553  -0.416  1.00  0.00    -0.336 N 
ATOM     23  O   UNL     1      -1.985  -3.173   1.860  1.00  0.00    -0.249 OA
ATOM     24  H   UNL     1      -2.364  -4.529  -0.411  1.00  0.00     0.165 HD
ENDBRANCH  11  14
ENDBRANCH   5  10
ENDBRANCH   3   5
ENDBRANCH   2   3
ENDBRANCH   1   2
BRANCH   1  25
ATOM     25  C   UNL     1      -1.188   5.538   3.256  1.00  0.00     0.275 C 
BRANCH  25  26
ATOM     26  O   UNL     1      -1.685   4.336   3.872  1.00  0.00    -0.458 OA
BRANCH  26  27
ATOM     27  C   UNL     1      -2.599   3.661   3.142  1.00  0.00     0.338 C 
ATOM     28  O   UNL     1      -3.090   3.991   2.074  1.00  0.00    -0.246 OA
BRANCH  27  29
ATOM     29  C   UNL     1      -2.913   2.361   3.761  1.00  0.00     0.060 A 
ATOM     30  C   UNL     1      -1.890   1.460   4.027  1.00  0.00     0.016 A 
ATOM     31  C   UNL     1      -4.245   1.943   3.817  1.00  0.00     0.016 A 
ATOM     32  C   UNL     1      -2.208   0.110   4.197  1.00  0.00     0.010 A 
ATOM     33  C   UNL     1      -4.555   0.600   4.082  1.00  0.00     0.010 A 
ATOM     34  C   UNL     1      -3.541  -0.364   4.188  1.00  0.00    -0.014 A 
BRANCH  34  35
ATOM     35  C   UNL     1      -3.859  -1.841   4.136  1.00  0.00     0.031 A 
ATOM     36  C   UNL     1      -4.842  -2.413   3.116  1.00  0.00     0.074 A 
ATOM     37  C   UNL     1      -3.206  -2.730   4.915  1.00  0.00     0.049 A 
ATOM     38  N   UNL     1      -5.418  -3.595   3.077  1.00  0.00    -0.248 NA
ATOM     39  C   UNL     1      -5.233  -1.544   1.992  1.00  0.00     0.031 C 
ATOM     40  C   UNL     1      -2.127  -2.415   5.849  1.00  0.00     0.029 A 
ATOM     41  N   UNL     1      -3.329  -4.098   5.014  1.00  0.00    -0.354 N 
ATOM     42  C   UNL     1      -6.271  -3.585   1.976  1.00  0.00     0.074 A 
ATOM     43  C   UNL     1      -6.139  -2.282   1.361  1.00  0.00     0.031 C 
ATOM     44  C   UNL     1      -1.616  -3.552   6.335  1.00  0.00     0.029 A 
ATOM     45  C   UNL     1      -2.459  -4.662   5.913  1.00  0.00     0.049 A 
ATOM     46  H   UNL     1      -3.978  -4.621   4.490  1.00  0.00     0.167 HD
ATOM     47  C   UNL     1      -7.095  -4.566   1.526  1.00  0.00     0.037 A 
ATOM     48  C   UNL     1      -2.386  -5.904   6.430  1.00  0.00     0.037 A 
ATOM     49  C   UNL     1      -7.162  -5.899   2.079  1.00  0.00     0.049 A 
ATOM     50  C   UNL     1      -3.394  -6.936   6.020  1.00  0.00     0.074 A 
ATOM     51  C   UNL     1      -7.986  -6.950   1.705  1.00  0.00     0.029 A 
ATOM     52  N   UNL     1      -6.359  -6.375   3.103  1.00  0.00    -0.354 N 
ATOM     53  N   UNL     1      -4.326  -6.867   5.103  1.00  0.00    -0.248 NA
ATOM     54  C   UNL     1      -3.369  -8.208   6.755  1.00  0.00     0.031 C 
ATOM     55  C   UNL     1      -7.726  -8.038   2.545  1.00  0.00     0.029 A 
ATOM     56  C   UNL     1      -6.692  -7.690   3.396  1.00  0.00     0.049 A 
ATOM     57  H   UNL     1      -5.656  -5.856   3.557  1.00  0.00     0.167 HD
ATOM     58  C   UNL     1      -4.991  -8.084   5.144  1.00  0.00     0.074 A 
ATOM     59  C   UNL     1      -4.339  -8.884   6.158  1.00  0.00     0.031 C 
ATOM     60  C   UNL     1      -6.053  -8.491   4.407  1.00  0.00     0.037 A 
BRANCH  47  61
ATOM     61  C   UNL     1      -8.062  -4.242   0.417  1.00  0.00     0.064 A 
ATOM     62  C   UNL     1      -7.669  -4.100  -0.920  1.00  0.00     0.173 A 
ATOM     63  C   UNL     1      -9.439  -4.178   0.702  1.00  0.00     0.173 A 
ATOM     64  F   UNL     1      -6.370  -4.145  -1.252  1.00  0.00    -0.203 F 
ATOM     65  C   UNL     1      -8.613  -3.897  -1.927  1.00  0.00     0.198 A 
ATOM     66  C   UNL     1     -10.381  -4.007  -0.310  1.00  0.00     0.198 A 
ATOM     67  F   UNL     1      -9.876  -4.322   1.962  1.00  0.00    -0.203 F 
ATOM     68  F   UNL     1      -8.213  -3.738  -3.197  1.00  0.00    -0.200 F 
ATOM     69  C   UNL     1      -9.967  -3.863  -1.624  1.00  0.00     0.200 A 
ATOM     70  F   UNL     1     -11.688  -3.998  -0.013  1.00  0.00    -0.200 F 
ATOM     71  F   UNL     1     -10.872  -3.693  -2.597  1.00  0.00    -0.200 F 
ENDBRANCH  47  61
BRANCH  48  72
ATOM     72  C   UNL     1      -1.394  -6.187   7.504  1.00  0.00     0.064 A 
ATOM     73  C   UNL     1      -0.368  -7.122   7.327  1.00  0.00     0.173 A 
ATOM     74  C   UNL     1      -1.449  -5.504   8.732  1.00  0.00     0.173 A 
ATOM     75  F   UNL     1      -0.297  -7.835   6.193  1.00  0.00    -0.203 F 
ATOM     76  C   UNL     1       0.570  -7.356   8.332  1.00  0.00     0.198 A 
ATOM     77  C   UNL     1      -0.483  -5.701   9.713  1.00  0.00     0.198 A 
ATOM     78  F   UNL     1      -2.423  -4.612   8.965  1.00  0.00    -0.203 F 
ATOM     79  F   UNL     1       1.515  -8.289   8.158  1.00  0.00    -0.200 F 
ATOM     80  C   UNL     1       0.522  -6.632   9.515  1.00  0.00     0.200 A 
ATOM     81  F   UNL     1      -0.523  -4.981  10.842  1.00  0.00    -0.200 F 
ATOM     82  F   UNL     1       1.440  -6.839  10.468  1.00  0.00    -0.200 F 
ENDBRANCH  48  72
BRANCH  60  83
ATOM     83  C   UNL     1      -6.557  -9.885   4.647  1.00  0.00     0.064 A 
ATOM     84  C   UNL     1      -7.219 -10.236   5.833  1.00  0.00     0.173 A 
ATOM     85  C   UNL     1      -6.374 -10.883   3.678  1.00  0.00     0.173 A 
ATOM     86  F   UNL     1      -7.405  -9.324   6.799  1.00  0.00    -0.203 F 
ATOM     87  C   UNL     1      -7.644 -11.544   6.056  1.00  0.00     0.198 A 
ATOM     88  C   UNL     1      -6.831 -12.181   3.890  1.00  0.00     0.198 A 
ATOM     89  F   UNL     1      -5.754 -10.601   2.522  1.00  0.00    -0.203 F 
ATOM     90  F   UNL     1      -8.217 -11.870   7.223  1.00  0.00    -0.200 F 
ATOM     91  C   UNL     1      -7.454 -12.513   5.083  1.00  0.00     0.200 A 
ATOM     92  F   UNL     1      -6.658 -13.114   2.943  1.00  0.00    -0.200 F 
ATOM     93  F   UNL     1      -7.861 -13.772   5.300  1.00  0.00    -0.200 F 
ENDBRANCH  60  83
ENDBRANCH  34  35
ENDBRANCH  27  29
ENDBRANCH  26  27
ENDBRANCH  25  26
ENDBRANCH   1  25
TORSDOF 16
