REMARK SMILES CC[C@](C)(NC(=O)N1Cc2ccccc2C1)C(=O)OCCOC(=O)c1ccc(-c2c3nc(c(-c4c(F)c(F)c(F)c(F)c4F)c4ccc([nH]4)c(-c4c(F)c(F)c(F)c(F)c4F)c4nc(c(-c5c(F)c(F)c(F)c(F)c5F)c5ccc2[nH]5)C=C4)C=C3)cc1
REMARK SMILES IDX 21 1 20 2 19 3 17 4 18 5 3 6 4 7 2 8 1 9 5 10 6 11 7 13 8 14
REMARK SMILES IDX 9 15 16 16 10 17 15 18 11 19 14 20 12 21 13 22 22 23 23 24
REMARK SMILES IDX 24 25 25 26 26 27 87 28 27 29 86 30 28 31 29 32 30 33 80 34
REMARK SMILES IDX 31 35 85 36 79 37 81 38 32 39 84 40 78 41 77 42 33 44 65 45
REMARK SMILES IDX 45 46 64 47 46 48 49 49 63 50 82 51 47 52 48 53 62 55 83 56
REMARK SMILES IDX 50 57 34 58 35 59 43 60 36 61 37 62 41 63 44 64 38 65 39 66
REMARK SMILES IDX 42 67 40 68 66 69 67 70 75 71 68 72 69 73 73 74 76 75 70 76
REMARK SMILES IDX 71 77 74 78 72 79 51 80 52 81 60 82 53 83 54 84 58 85 61 86
REMARK SMILES IDX 55 87 56 88 59 89 57 90
REMARK H PARENT 5 12 81 43 49 54
REMARK Flexibility Score: inf
ROOT
ATOM      1  C   UNL     1       5.362   1.389  -0.737  1.00  0.00     0.275 C 
ENDROOT
BRANCH   1   2
ATOM      2  C   UNL     1       4.533   1.191  -2.002  1.00  0.00     0.274 C 
BRANCH   2   3
ATOM      3  O   UNL     1       3.356   2.023  -2.007  1.00  0.00    -0.460 OA
BRANCH   3   4
ATOM      4  C   UNL     1       2.194   1.452  -1.579  1.00  0.00     0.331 C 
ATOM      5  O   UNL     1       2.110   0.283  -1.212  1.00  0.00    -0.249 OA
BRANCH   4   6
ATOM      6  C   UNL     1       0.961   2.398  -1.733  1.00  0.00     0.136 C 
ATOM      7  C   UNL     1       0.050   2.271  -0.499  1.00  0.00     0.047 C 
BRANCH   6   8
ATOM      8  C   UNL     1       0.184   1.945  -3.002  1.00  0.00     0.037 C 
ATOM      9  C   UNL     1      -0.229   0.475  -3.057  1.00  0.00     0.007 C 
ENDBRANCH   6   8
BRANCH   6  10
ATOM     10  N   UNL     1       1.410   3.796  -1.966  1.00  0.00    -0.322 N 
ATOM     11  C   UNL     1       1.908   4.611  -0.985  1.00  0.00     0.318 C 
ATOM     12  H   UNL     1       1.345   4.157  -2.880  1.00  0.00     0.166 HD
ATOM     13  O   UNL     1       1.427   4.651   0.143  1.00  0.00    -0.249 OA
ATOM     14  N   UNL     1       3.037   5.315  -1.330  1.00  0.00    -0.316 N 
ATOM     15  C   UNL     1       3.836   5.920  -0.259  1.00  0.00     0.157 C 
ATOM     16  C   UNL     1       3.853   5.152  -2.538  1.00  0.00     0.157 C 
ATOM     17  C   UNL     1       5.236   5.558  -0.662  1.00  0.00    -0.023 A 
ATOM     18  C   UNL     1       5.245   5.108  -1.989  1.00  0.00    -0.023 A 
ATOM     19  C   UNL     1       6.386   5.545   0.108  1.00  0.00     0.006 A 
ATOM     20  C   UNL     1       6.409   4.646  -2.580  1.00  0.00     0.006 A 
ATOM     21  C   UNL     1       7.560   5.059  -0.472  1.00  0.00     0.000 A 
ATOM     22  C   UNL     1       7.572   4.616  -1.806  1.00  0.00     0.000 A 
ENDBRANCH   6  10
ENDBRANCH   4   6
ENDBRANCH   3   4
ENDBRANCH   2   3
ENDBRANCH   1   2
BRANCH   1  23
ATOM     23  O   UNL     1       4.623   0.940   0.407  1.00  0.00    -0.458 OA
BRANCH  23  24
ATOM     24  C   UNL     1       4.234   1.908   1.260  1.00  0.00     0.338 C 
ATOM     25  O   UNL     1       4.493   3.102   1.225  1.00  0.00    -0.246 OA
BRANCH  24  26
ATOM     26  C   UNL     1       3.459   1.309   2.341  1.00  0.00     0.060 A 
ATOM     27  C   UNL     1       2.185   0.807   2.084  1.00  0.00     0.016 A 
ATOM     28  C   UNL     1       3.980   1.321   3.634  1.00  0.00     0.016 A 
ATOM     29  C   UNL     1       1.402   0.349   3.130  1.00  0.00     0.010 A 
ATOM     30  C   UNL     1       3.226   0.787   4.674  1.00  0.00     0.010 A 
ATOM     31  C   UNL     1       1.930   0.307   4.426  1.00  0.00    -0.014 A 
BRANCH  31  32
ATOM     32  C   UNL     1       1.124  -0.285   5.512  1.00  0.00     0.031 A 
ATOM     33  C   UNL     1       0.611   0.574   6.624  1.00  0.00     0.074 A 
ATOM     34  C   UNL     1       0.860  -1.604   5.463  1.00  0.00     0.049 A 
ATOM     35  N   UNL     1      -0.035   0.224   7.705  1.00  0.00    -0.248 NA
ATOM     36  C   UNL     1       0.869   2.019   6.515  1.00  0.00     0.031 C 
ATOM     37  C   UNL     1       1.306  -2.510   4.401  1.00  0.00     0.029 A 
ATOM     38  N   UNL     1       0.142  -2.407   6.306  1.00  0.00    -0.354 N 
ATOM     39  C   UNL     1      -0.217   1.394   8.429  1.00  0.00     0.074 A 
ATOM     40  C   UNL     1       0.381   2.466   7.664  1.00  0.00     0.031 C 
ATOM     41  C   UNL     1       0.809  -3.733   4.630  1.00  0.00     0.029 A 
ATOM     42  C   UNL     1       0.070  -3.712   5.885  1.00  0.00     0.049 A 
ATOM     43  H   UNL     1      -0.282  -2.082   7.133  1.00  0.00     0.167 HD
ATOM     44  C   UNL     1      -0.824   1.543   9.630  1.00  0.00     0.037 A 
ATOM     45  C   UNL     1      -0.518  -4.774   6.463  1.00  0.00     0.037 A 
ATOM     46  C   UNL     1      -1.441   0.459  10.352  1.00  0.00     0.049 A 
ATOM     47  C   UNL     1      -1.214  -4.571   7.777  1.00  0.00     0.074 A 
ATOM     48  C   UNL     1      -2.078   0.484  11.579  1.00  0.00     0.029 A 
ATOM     49  N   UNL     1      -1.505  -0.852   9.894  1.00  0.00    -0.354 N 
ATOM     50  N   UNL     1      -1.350  -3.469   8.476  1.00  0.00    -0.248 NA
ATOM     51  C   UNL     1      -1.828  -5.754   8.389  1.00  0.00     0.031 C 
ATOM     52  C   UNL     1      -2.506  -0.816  11.875  1.00  0.00     0.029 A 
ATOM     53  C   UNL     1      -2.170  -1.644  10.815  1.00  0.00     0.049 A 
ATOM     54  H   UNL     1      -1.133  -1.170   9.040  1.00  0.00     0.167 HD
ATOM     55  C   UNL     1      -2.070  -3.821   9.606  1.00  0.00     0.074 A 
ATOM     56  C   UNL     1      -2.365  -5.236   9.484  1.00  0.00     0.031 C 
ATOM     57  C   UNL     1      -2.446  -3.050  10.655  1.00  0.00     0.037 A 
BRANCH  44  58
ATOM     58  C   UNL     1      -0.803   2.909  10.251  1.00  0.00     0.064 A 
ATOM     59  C   UNL     1      -1.584   3.964   9.755  1.00  0.00     0.173 A 
ATOM     60  C   UNL     1       0.013   3.165  11.364  1.00  0.00     0.173 A 
ATOM     61  F   UNL     1      -2.368   3.777   8.683  1.00  0.00    -0.203 F 
ATOM     62  C   UNL     1      -1.527   5.230  10.334  1.00  0.00     0.198 A 
ATOM     63  C   UNL     1       0.048   4.425  11.955  1.00  0.00     0.198 A 
ATOM     64  F   UNL     1       0.779   2.191  11.879  1.00  0.00    -0.203 F 
ATOM     65  F   UNL     1      -2.245   6.236   9.814  1.00  0.00    -0.200 F 
ATOM     66  C   UNL     1      -0.715   5.459  11.435  1.00  0.00     0.200 A 
ATOM     67  F   UNL     1       0.827   4.641  13.024  1.00  0.00    -0.200 F 
ATOM     68  F   UNL     1      -0.662   6.678  11.989  1.00  0.00    -0.200 F 
ENDBRANCH  44  58
BRANCH  45  69
ATOM     69  C   UNL     1      -0.475  -6.098   5.793  1.00  0.00     0.064 A 
ATOM     70  C   UNL     1      -1.634  -6.665   5.246  1.00  0.00     0.173 A 
ATOM     71  C   UNL     1       0.728  -6.805   5.645  1.00  0.00     0.173 A 
ATOM     72  F   UNL     1      -2.812  -6.036   5.376  1.00  0.00    -0.203 F 
ATOM     73  C   UNL     1      -1.593  -7.890   4.584  1.00  0.00     0.198 A 
ATOM     74  C   UNL     1       0.773  -8.016   4.958  1.00  0.00     0.198 A 
ATOM     75  F   UNL     1       1.868  -6.303   6.144  1.00  0.00    -0.203 F 
ATOM     76  F   UNL     1      -2.722  -8.424   4.098  1.00  0.00    -0.200 F 
ATOM     77  C   UNL     1      -0.388  -8.560   4.432  1.00  0.00     0.200 A 
ATOM     78  F   UNL     1       1.943  -8.650   4.798  1.00  0.00    -0.200 F 
ATOM     79  F   UNL     1      -0.347  -9.731   3.782  1.00  0.00    -0.200 F 
ENDBRANCH  45  69
BRANCH  57  80
ATOM     80  C   UNL     1      -3.234  -3.729  11.732  1.00  0.00     0.064 A 
ATOM     81  C   UNL     1      -2.625  -4.604  12.643  1.00  0.00     0.173 A 
ATOM     82  C   UNL     1      -4.611  -3.493  11.858  1.00  0.00     0.173 A 
ATOM     83  F   UNL     1      -1.314  -4.872  12.547  1.00  0.00    -0.203 F 
ATOM     84  C   UNL     1      -3.374  -5.242  13.626  1.00  0.00     0.198 A 
ATOM     85  C   UNL     1      -5.351  -4.115  12.857  1.00  0.00     0.198 A 
ATOM     86  F   UNL     1      -5.235  -2.662  11.010  1.00  0.00    -0.203 F 
ATOM     87  F   UNL     1      -2.783  -6.113  14.455  1.00  0.00    -0.200 F 
ATOM     88  C   UNL     1      -4.734  -4.994  13.735  1.00  0.00     0.200 A 
ATOM     89  F   UNL     1      -6.664  -3.870  12.967  1.00  0.00    -0.200 F 
ATOM     90  F   UNL     1      -5.454  -5.613  14.681  1.00  0.00    -0.200 F 
ENDBRANCH  57  80
ENDBRANCH  31  32
ENDBRANCH  24  26
ENDBRANCH  23  24
ENDBRANCH   1  23
TORSDOF 13
