REMARK SMILES Cc1nn(CC(=O)OCCOC(=O)c2ccc(-c3c4nc(c(-c5c(F)c(F)c(F)c(F)c5F)c5ccc([nH]5)c(-c5c(F)c(F)c(F)c(F)c5F)c5nc(c(-c6c(F)c(F)c(F)c(F)c6F)c6ccc3[nH]6)C=C5)C=C4)cc2)c(C)c1NS(=O)(=O)c1cccc2cccnc12
REMARK SMILES IDX 9 1 8 2 6 3 7 4 5 5 4 6 1 7 2 8 3 9 79 10 77 11 78 12 80 13
REMARK SMILES IDX 81 15 82 16 83 17 84 18 85 19 93 20 86 21 88 22 92 23 87 24
REMARK SMILES IDX 89 25 91 26 90 27 10 28 11 29 12 30 13 31 14 32 15 33 76 34
REMARK SMILES IDX 16 35 75 36 17 37 18 38 19 39 69 40 20 41 74 42 68 43 70 44
REMARK SMILES IDX 21 45 73 46 67 47 66 48 22 50 54 51 34 52 53 53 35 54 38 55
REMARK SMILES IDX 52 56 71 57 36 58 37 59 51 61 72 62 39 63 23 64 24 65 32 66
REMARK SMILES IDX 25 67 26 68 30 69 33 70 27 71 28 72 31 73 29 74 55 75 56 76
REMARK SMILES IDX 64 77 57 78 58 79 62 80 65 81 59 82 60 83 63 84 61 85 40 86
REMARK SMILES IDX 41 87 49 88 42 89 43 90 47 91 50 92 44 93 45 94 48 95 46 96
REMARK H PARENT 80 14 70 49 38 60
REMARK Flexibility Score: inf
ROOT
ATOM      1  C   UNL     1       2.816  -5.544  -3.107  1.00  0.00     0.274 C 
ENDROOT
BRANCH   1   2
ATOM      2  O   UNL     1       1.802  -4.976  -2.236  1.00  0.00    -0.461 OA
BRANCH   2   3
ATOM      3  C   UNL     1       1.210  -5.800  -1.329  1.00  0.00     0.327 C 
ATOM      4  O   UNL     1       1.420  -7.012  -1.281  1.00  0.00    -0.250 OA
BRANCH   3   5
ATOM      5  C   UNL     1       0.312  -5.134  -0.309  1.00  0.00     0.267 C 
BRANCH   5   6
ATOM      6  N   UNL     1       0.007  -3.742  -0.562  1.00  0.00    -0.256 N 
ATOM      7  C   UNL     1       1.027  -0.382  -0.512  1.00  0.00     0.071 C 
ATOM      8  C   UNL     1       0.383  -1.695  -0.776  1.00  0.00     0.084 A 
ATOM      9  N   UNL     1       0.817  -2.773  -0.107  1.00  0.00    -0.175 NA
ATOM     10  C   UNL     1      -0.769  -2.009  -1.577  1.00  0.00     0.093 A 
ATOM     11  C   UNL     1      -1.173  -3.200  -1.010  1.00  0.00     0.060 A 
ATOM     12  C   UNL     1      -2.486  -3.817  -0.745  1.00  0.00     0.069 C 
BRANCH  10  13
ATOM     13  N   UNL     1      -1.399  -1.133  -2.474  1.00  0.00    -0.276 N 
ATOM     14  H   UNL     1      -1.352  -0.175  -2.255  1.00  0.00     0.180 HD
BRANCH  13  15
ATOM     15  S   UNL     1      -2.236  -1.543  -3.903  1.00  0.00     0.264 S 
ATOM     16  O   UNL     1      -3.451  -0.745  -3.848  1.00  0.00    -0.201 OA
ATOM     17  O   UNL     1      -1.321  -1.315  -5.001  1.00  0.00    -0.201 OA
BRANCH  15  18
ATOM     18  C   UNL     1      -2.748  -3.239  -3.886  1.00  0.00     0.114 A 
ATOM     19  C   UNL     1      -4.112  -3.499  -3.642  1.00  0.00     0.024 A 
ATOM     20  C   UNL     1      -1.855  -4.281  -4.135  1.00  0.00     0.091 A 
ATOM     21  C   UNL     1      -4.569  -4.802  -3.491  1.00  0.00     0.002 A 
ATOM     22  C   UNL     1      -2.323  -5.600  -3.890  1.00  0.00     0.002 A 
ATOM     23  N   UNL     1      -0.605  -4.090  -4.592  1.00  0.00    -0.255 NA
ATOM     24  C   UNL     1      -3.662  -5.849  -3.561  1.00  0.00     0.010 A 
ATOM     25  C   UNL     1      -1.433  -6.673  -3.989  1.00  0.00     0.012 A 
ATOM     26  C   UNL     1       0.168  -5.167  -4.839  1.00  0.00     0.112 A 
ATOM     27  C   UNL     1      -0.164  -6.459  -4.491  1.00  0.00     0.021 A 
ENDBRANCH  15  18
ENDBRANCH  13  15
ENDBRANCH  10  13
ENDBRANCH   5   6
ENDBRANCH   3   5
ENDBRANCH   2   3
ENDBRANCH   1   2
BRANCH   1  28
ATOM     28  C   UNL     1       4.236  -5.296  -2.627  1.00  0.00     0.275 C 
BRANCH  28  29
ATOM     29  O   UNL     1       4.356  -5.806  -1.313  1.00  0.00    -0.458 OA
BRANCH  29  30
ATOM     30  C   UNL     1       3.949  -4.894  -0.405  1.00  0.00     0.338 C 
ATOM     31  O   UNL     1       3.632  -3.739  -0.610  1.00  0.00    -0.246 OA
BRANCH  30  32
ATOM     32  C   UNL     1       4.039  -5.465   0.933  1.00  0.00     0.060 A 
ATOM     33  C   UNL     1       3.427  -4.692   1.923  1.00  0.00     0.016 A 
ATOM     34  C   UNL     1       5.157  -6.271   1.161  1.00  0.00     0.016 A 
ATOM     35  C   UNL     1       4.150  -4.448   3.056  1.00  0.00     0.010 A 
ATOM     36  C   UNL     1       5.905  -5.982   2.266  1.00  0.00     0.010 A 
ATOM     37  C   UNL     1       5.430  -4.998   3.133  1.00  0.00    -0.014 A 
BRANCH  37  38
ATOM     38  C   UNL     1       6.281  -4.514   4.184  1.00  0.00     0.031 A 
ATOM     39  C   UNL     1       5.995  -5.161   5.475  1.00  0.00     0.074 A 
ATOM     40  C   UNL     1       7.272  -3.644   3.928  1.00  0.00     0.049 A 
ATOM     41  N   UNL     1       5.563  -4.618   6.562  1.00  0.00    -0.248 NA
ATOM     42  C   UNL     1       6.019  -6.633   5.495  1.00  0.00     0.031 C 
ATOM     43  C   UNL     1       7.785  -3.203   2.627  1.00  0.00     0.029 A 
ATOM     44  N   UNL     1       8.120  -3.061   4.807  1.00  0.00    -0.354 N 
ATOM     45  C   UNL     1       5.433  -5.669   7.461  1.00  0.00     0.074 A 
ATOM     46  C   UNL     1       5.514  -6.883   6.699  1.00  0.00     0.031 C 
ATOM     47  C   UNL     1       8.996  -2.627   2.808  1.00  0.00     0.029 A 
ATOM     48  C   UNL     1       9.277  -2.566   4.233  1.00  0.00     0.049 A 
ATOM     49  H   UNL     1       7.931  -2.995   5.771  1.00  0.00     0.167 HD
ATOM     50  C   UNL     1       5.555  -5.464   8.797  1.00  0.00     0.037 A 
ATOM     51  C   UNL     1      10.412  -2.269   4.911  1.00  0.00     0.037 A 
ATOM     52  C   UNL     1       5.329  -4.083   9.137  1.00  0.00     0.049 A 
ATOM     53  C   UNL     1      10.054  -2.161   6.355  1.00  0.00     0.074 A 
ATOM     54  C   UNL     1       4.260  -3.219   8.991  1.00  0.00     0.029 A 
ATOM     55  N   UNL     1       6.420  -3.287   9.386  1.00  0.00    -0.354 N 
ATOM     56  N   UNL     1       9.321  -1.204   6.857  1.00  0.00    -0.248 NA
ATOM     57  C   UNL     1      10.126  -3.373   7.163  1.00  0.00     0.031 C 
ATOM     58  C   UNL     1       4.840  -1.950   8.700  1.00  0.00     0.029 A 
ATOM     59  C   UNL     1       6.227  -2.103   8.721  1.00  0.00     0.049 A 
ATOM     60  H   UNL     1       7.199  -3.523   9.941  1.00  0.00     0.167 HD
ATOM     61  C   UNL     1       8.527  -1.823   7.814  1.00  0.00     0.074 A 
ATOM     62  C   UNL     1       9.126  -3.138   8.017  1.00  0.00     0.031 C 
ATOM     63  C   UNL     1       7.295  -1.328   8.136  1.00  0.00     0.037 A 
BRANCH  50  64
ATOM     64  C   UNL     1       6.257  -6.434   9.713  1.00  0.00     0.064 A 
ATOM     65  C   UNL     1       6.232  -6.191  11.098  1.00  0.00     0.173 A 
ATOM     66  C   UNL     1       7.184  -7.413   9.284  1.00  0.00     0.173 A 
ATOM     67  F   UNL     1       5.400  -5.275  11.615  1.00  0.00    -0.203 F 
ATOM     68  C   UNL     1       7.128  -6.813  11.970  1.00  0.00     0.198 A 
ATOM     69  C   UNL     1       8.033  -8.075  10.165  1.00  0.00     0.198 A 
ATOM     70  F   UNL     1       7.397  -7.694   7.994  1.00  0.00    -0.203 F 
ATOM     71  F   UNL     1       7.158  -6.449  13.258  1.00  0.00    -0.200 F 
ATOM     72  C   UNL     1       8.032  -7.749  11.502  1.00  0.00     0.200 A 
ATOM     73  F   UNL     1       8.910  -8.969   9.685  1.00  0.00    -0.200 F 
ATOM     74  F   UNL     1       8.934  -8.298  12.325  1.00  0.00    -0.200 F 
ENDBRANCH  50  64
BRANCH  51  75
ATOM     75  C   UNL     1      11.807  -2.448   4.445  1.00  0.00     0.064 A 
ATOM     76  C   UNL     1      12.873  -1.820   5.105  1.00  0.00     0.173 A 
ATOM     77  C   UNL     1      12.152  -3.435   3.498  1.00  0.00     0.173 A 
ATOM     78  F   UNL     1      12.631  -0.907   6.057  1.00  0.00    -0.203 F 
ATOM     79  C   UNL     1      14.203  -2.167   4.845  1.00  0.00     0.198 A 
ATOM     80  C   UNL     1      13.479  -3.771   3.229  1.00  0.00     0.198 A 
ATOM     81  F   UNL     1      11.210  -4.163   2.882  1.00  0.00    -0.203 F 
ATOM     82  F   UNL     1      15.193  -1.587   5.538  1.00  0.00    -0.200 F 
ATOM     83  C   UNL     1      14.504  -3.145   3.911  1.00  0.00     0.200 A 
ATOM     84  F   UNL     1      13.752  -4.745   2.350  1.00  0.00    -0.200 F 
ATOM     85  F   UNL     1      15.775  -3.515   3.699  1.00  0.00    -0.200 F 
ENDBRANCH  51  75
BRANCH  63  86
ATOM     86  C   UNL     1       6.935   0.034   7.615  1.00  0.00     0.064 A 
ATOM     87  C   UNL     1       6.806   0.334   6.248  1.00  0.00     0.173 A 
ATOM     88  C   UNL     1       6.560   1.025   8.531  1.00  0.00     0.173 A 
ATOM     89  F   UNL     1       7.040  -0.597   5.315  1.00  0.00    -0.203 F 
ATOM     90  C   UNL     1       6.371   1.587   5.820  1.00  0.00     0.198 A 
ATOM     91  C   UNL     1       6.089   2.263   8.102  1.00  0.00     0.198 A 
ATOM     92  F   UNL     1       6.604   0.773   9.849  1.00  0.00    -0.203 F 
ATOM     93  F   UNL     1       6.271   1.853   4.509  1.00  0.00    -0.200 F 
ATOM     94  C   UNL     1       6.006   2.547   6.748  1.00  0.00     0.200 A 
ATOM     95  F   UNL     1       5.688   3.171   9.002  1.00  0.00    -0.200 F 
ATOM     96  F   UNL     1       5.546   3.738   6.338  1.00  0.00    -0.200 F 
ENDBRANCH  63  86
ENDBRANCH  37  38
ENDBRANCH  30  32
ENDBRANCH  29  30
ENDBRANCH  28  29
ENDBRANCH   1  28
TORSDOF 15
