REMARK SMILES Cn1cccc1/C=C1/SC(=S)N([C@@H](CCC(N)=O)C(=O)OCCOC(=O)c2ccc(-c3c4nc(c(-c5c(F)c(F)c(F)c(F)c5F)c5ccc([nH]5)c(-c5c(F)c(F)c(F)c(F)c5F)c5nc(c(-c6c(F)c(F)c(F)c(F)c6F)c6ccc3[nH]6)C=C5)C=C4)cc2)C1=O
REMARK SMILES IDX 22 1 21 2 19 3 20 4 13 5 12 6 7 7 8 8 9 9 90 10 10 11 91 12
REMARK SMILES IDX 11 13 6 14 1 15 2 16 3 17 4 18 5 19 14 20 15 21 16 22 17 23
REMARK SMILES IDX 18 24 23 27 24 28 25 29 26 30 27 31 28 32 89 33 29 34 88 35
REMARK SMILES IDX 30 36 31 37 32 38 82 39 33 40 87 41 81 42 83 43 34 44 86 45
REMARK SMILES IDX 80 46 79 47 35 49 67 50 47 51 66 52 48 53 51 54 65 55 84 56
REMARK SMILES IDX 49 57 50 58 64 60 85 61 52 62 36 63 37 64 45 65 38 66 39 67
REMARK SMILES IDX 43 68 46 69 40 70 41 71 44 72 42 73 68 74 69 75 77 76 70 77
REMARK SMILES IDX 71 78 75 79 78 80 72 81 73 82 76 83 74 84 53 85 54 86 62 87
REMARK SMILES IDX 55 88 56 89 60 90 63 91 57 92 58 93 61 94 59 95
REMARK H PARENT 17 25 17 26 83 48 51 59
REMARK Flexibility Score: inf
ROOT
ATOM      1  C   UNL     1      -0.546  -0.721   5.702  1.00  0.00     0.274 C 
ENDROOT
BRANCH   1   2
ATOM      2  O   UNL     1       0.479  -1.195   4.816  1.00  0.00    -0.461 OA
BRANCH   2   3
ATOM      3  C   UNL     1       1.765  -1.059   5.188  1.00  0.00     0.329 C 
ATOM      4  O   UNL     1       2.139  -0.598   6.263  1.00  0.00    -0.250 OA
BRANCH   3   5
ATOM      5  C   UNL     1       2.766  -1.488   4.100  1.00  0.00     0.202 C 
BRANCH   5   6
ATOM      6  N   UNL     1       2.305  -2.352   2.981  1.00  0.00    -0.278 N 
ATOM      7  C   UNL     1       0.487  -2.504  -0.172  1.00  0.00     0.047 C 
ATOM      8  C   UNL     1       1.132  -2.798   0.968  1.00  0.00     0.082 C 
ATOM      9  S   UNL     1       1.977  -4.263   1.251  1.00  0.00    -0.054 SA
ATOM     10  C   UNL     1       1.329  -1.885   2.128  1.00  0.00     0.267 C 
ATOM     11  C   UNL     1       2.798  -3.607   2.669  1.00  0.00     0.149 C 
ATOM     12  O   UNL     1       0.738  -0.835   2.270  1.00  0.00    -0.268 OA
ATOM     13  S   UNL     1       4.049  -4.450   3.386  1.00  0.00    -0.052 S 
BRANCH   7  14
ATOM     14  C   UNL     1      -0.138  -1.246  -0.371  1.00  0.00     0.042 A 
ATOM     15  C   UNL     1       2.018   0.058  -0.748  1.00  0.00     0.149 C 
ATOM     16  N   UNL     1       0.590  -0.087  -0.566  1.00  0.00    -0.351 N 
ATOM     17  C   UNL     1      -0.258   0.994  -0.498  1.00  0.00     0.086 A 
ATOM     18  C   UNL     1      -1.543   0.525  -0.356  1.00  0.00     0.020 A 
ATOM     19  C   UNL     1      -1.472  -0.886  -0.317  1.00  0.00     0.028 A 
ENDBRANCH   7  14
ENDBRANCH   5   6
BRANCH   5  20
ATOM     20  C   UNL     1       3.655  -0.289   3.694  1.00  0.00     0.047 C 
BRANCH  20  21
ATOM     21  C   UNL     1       3.036   0.873   2.917  1.00  0.00     0.102 C 
BRANCH  21  22
ATOM     22  C   UNL     1       1.954   1.675   3.618  1.00  0.00     0.217 C 
ATOM     23  N   UNL     1       2.349   2.397   4.697  1.00  0.00    -0.370 N 
ATOM     24  O   UNL     1       0.791   1.751   3.245  1.00  0.00    -0.275 OA
ATOM     25  H   UNL     1       3.281   2.346   5.010  1.00  0.00     0.159 HD
ATOM     26  H   UNL     1       1.703   2.973   5.168  1.00  0.00     0.159 HD
ENDBRANCH  21  22
ENDBRANCH  20  21
ENDBRANCH   5  20
ENDBRANCH   3   5
ENDBRANCH   2   3
ENDBRANCH   1   2
BRANCH   1  27
ATOM     27  C   UNL     1      -1.442  -1.894   6.093  1.00  0.00     0.275 C 
BRANCH  27  28
ATOM     28  O   UNL     1      -0.699  -2.865   6.857  1.00  0.00    -0.458 OA
BRANCH  28  29
ATOM     29  C   UNL     1      -0.026  -3.772   6.113  1.00  0.00     0.338 C 
ATOM     30  O   UNL     1      -0.045  -3.919   4.901  1.00  0.00    -0.246 OA
BRANCH  29  31
ATOM     31  C   UNL     1       0.938  -4.486   6.955  1.00  0.00     0.060 A 
ATOM     32  C   UNL     1       2.288  -4.287   6.676  1.00  0.00     0.016 A 
ATOM     33  C   UNL     1       0.542  -5.430   7.896  1.00  0.00     0.016 A 
ATOM     34  C   UNL     1       3.256  -5.078   7.271  1.00  0.00     0.010 A 
ATOM     35  C   UNL     1       1.522  -6.196   8.539  1.00  0.00     0.010 A 
ATOM     36  C   UNL     1       2.882  -6.044   8.209  1.00  0.00    -0.014 A 
BRANCH  36  37
ATOM     37  C   UNL     1       3.932  -6.908   8.797  1.00  0.00     0.031 A 
ATOM     38  C   UNL     1       3.954  -8.377   8.490  1.00  0.00     0.074 A 
ATOM     39  C   UNL     1       4.888  -6.353   9.566  1.00  0.00     0.049 A 
ATOM     40  N   UNL     1       4.736  -9.310   8.970  1.00  0.00    -0.248 NA
ATOM     41  C   UNL     1       2.960  -8.868   7.521  1.00  0.00     0.031 C 
ATOM     42  C   UNL     1       4.989  -4.927   9.888  1.00  0.00     0.029 A 
ATOM     43  N   UNL     1       5.957  -6.916  10.214  1.00  0.00    -0.354 N 
ATOM     44  C   UNL     1       4.302 -10.499   8.398  1.00  0.00     0.074 A 
ATOM     45  C   UNL     1       3.184 -10.175   7.539  1.00  0.00     0.031 C 
ATOM     46  C   UNL     1       6.064  -4.727  10.665  1.00  0.00     0.029 A 
ATOM     47  C   UNL     1       6.683  -6.014  10.954  1.00  0.00     0.049 A 
ATOM     48  H   UNL     1       6.183  -7.872  10.155  1.00  0.00     0.167 HD
ATOM     49  C   UNL     1       4.798 -11.745   8.581  1.00  0.00     0.037 A 
ATOM     50  C   UNL     1       7.705  -6.212  11.808  1.00  0.00     0.037 A 
ATOM     51  C   UNL     1       5.940 -12.043   9.409  1.00  0.00     0.049 A 
ATOM     52  C   UNL     1       8.209  -7.614  12.014  1.00  0.00     0.074 A 
ATOM     53  C   UNL     1       6.553 -13.265   9.623  1.00  0.00     0.029 A 
ATOM     54  N   UNL     1       6.638 -11.108  10.160  1.00  0.00    -0.354 N 
ATOM     55  N   UNL     1       7.802  -8.731  11.461  1.00  0.00    -0.248 NA
ATOM     56  C   UNL     1       9.314  -7.784  12.966  1.00  0.00     0.031 C 
ATOM     57  C   UNL     1       7.576 -13.081  10.559  1.00  0.00     0.029 A 
ATOM     58  C   UNL     1       7.651 -11.733  10.871  1.00  0.00     0.049 A 
ATOM     59  H   UNL     1       6.442 -10.143  10.185  1.00  0.00     0.167 HD
ATOM     60  C   UNL     1       8.612  -9.731  11.980  1.00  0.00     0.074 A 
ATOM     61  C   UNL     1       9.555  -9.082  12.867  1.00  0.00     0.031 C 
ATOM     62  C   UNL     1       8.577 -11.068  11.751  1.00  0.00     0.037 A 
BRANCH  49  63
ATOM     63  C   UNL     1       4.093 -12.894   7.919  1.00  0.00     0.064 A 
ATOM     64  C   UNL     1       4.146 -13.109   6.535  1.00  0.00     0.173 A 
ATOM     65  C   UNL     1       3.408 -13.837   8.703  1.00  0.00     0.173 A 
ATOM     66  F   UNL     1       4.776 -12.233   5.737  1.00  0.00    -0.203 F 
ATOM     67  C   UNL     1       3.529 -14.219   5.958  1.00  0.00     0.198 A 
ATOM     68  C   UNL     1       2.820 -14.960   8.128  1.00  0.00     0.198 A 
ATOM     69  F   UNL     1       3.329 -13.681  10.033  1.00  0.00    -0.203 F 
ATOM     70  F   UNL     1       3.563 -14.387   4.629  1.00  0.00    -0.200 F 
ATOM     71  C   UNL     1       2.877 -15.148   6.756  1.00  0.00     0.200 A 
ATOM     72  F   UNL     1       2.205 -15.863   8.903  1.00  0.00    -0.200 F 
ATOM     73  F   UNL     1       2.303 -16.224   6.202  1.00  0.00    -0.200 F 
ENDBRANCH  49  63
BRANCH  50  74
ATOM     74  C   UNL     1       8.278  -5.069  12.568  1.00  0.00     0.064 A 
ATOM     75  C   UNL     1       9.607  -4.663  12.384  1.00  0.00     0.173 A 
ATOM     76  C   UNL     1       7.513  -4.377  13.521  1.00  0.00     0.173 A 
ATOM     77  F   UNL     1      10.386  -5.304  11.500  1.00  0.00    -0.203 F 
ATOM     78  C   UNL     1      10.158  -3.635  13.146  1.00  0.00     0.198 A 
ATOM     79  C   UNL     1       8.053  -3.322  14.253  1.00  0.00     0.198 A 
ATOM     80  F   UNL     1       6.235  -4.719  13.736  1.00  0.00    -0.203 F 
ATOM     81  F   UNL     1      11.450  -3.313  12.997  1.00  0.00    -0.200 F 
ATOM     82  C   UNL     1       9.380  -2.962  14.076  1.00  0.00     0.200 A 
ATOM     83  F   UNL     1       7.290  -2.662  15.134  1.00  0.00    -0.200 F 
ATOM     84  F   UNL     1       9.910  -1.973  14.808  1.00  0.00    -0.200 F 
ENDBRANCH  50  74
BRANCH  62  85
ATOM     85  C   UNL     1       9.610 -11.904  12.450  1.00  0.00     0.064 A 
ATOM     86  C   UNL     1       9.590 -12.093  13.840  1.00  0.00     0.173 A 
ATOM     87  C   UNL     1      10.630 -12.531  11.717  1.00  0.00     0.173 A 
ATOM     88  F   UNL     1       8.646 -11.504  14.589  1.00  0.00    -0.203 F 
ATOM     89  C   UNL     1      10.578 -12.842  14.475  1.00  0.00     0.198 A 
ATOM     90  C   UNL     1      11.592 -13.312  12.351  1.00  0.00     0.198 A 
ATOM     91  F   UNL     1      10.691 -12.391  10.384  1.00  0.00    -0.203 F 
ATOM     92  F   UNL     1      10.579 -12.948  15.811  1.00  0.00    -0.200 F 
ATOM     93  C   UNL     1      11.573 -13.455  13.729  1.00  0.00     0.200 A 
ATOM     94  F   UNL     1      12.542 -13.919  11.627  1.00  0.00    -0.200 F 
ATOM     95  F   UNL     1      12.522 -14.176  14.342  1.00  0.00    -0.200 F 
ENDBRANCH  62  85
ENDBRANCH  36  37
ENDBRANCH  29  31
ENDBRANCH  28  29
ENDBRANCH  27  28
ENDBRANCH   1  27
TORSDOF 16
