REMARK SMILES Cc1ccc(SCC[N@H+]2CC[C@@H](C(=O)OCCOC(=O)c3ccc(-c4c5nc(c(-c6c(F)c(F)c(F)c(F)c6F)c6ccc([nH]6)c(-c6c(F)c(F)c(F)c(F)c6F)c6nc(c(-c7c(F)c(F)c(F)c(F)c7F)c7ccc4[nH]7)C=C6)C=C5)cc3)[C@@H]2C)cc1
REMARK SMILES IDX 16 1 15 2 13 3 14 4 12 5 9 6 10 7 84 8 11 10 85 11 8 12 7 13
REMARK SMILES IDX 6 14 5 15 1 16 2 17 3 18 87 19 4 20 86 21 17 22 18 23 19 24
REMARK SMILES IDX 20 25 21 26 22 27 83 28 23 29 82 30 24 31 25 32 26 33 76 34
REMARK SMILES IDX 27 35 81 36 75 37 77 38 28 39 80 40 74 41 73 42 29 44 61 45
REMARK SMILES IDX 41 46 60 47 42 48 45 49 59 50 78 51 43 52 44 53 58 55 79 56
REMARK SMILES IDX 46 57 30 58 31 59 39 60 32 61 33 62 37 63 40 64 34 65 35 66
REMARK SMILES IDX 38 67 36 68 62 69 63 70 71 71 64 72 65 73 69 74 72 75 66 76
REMARK SMILES IDX 67 77 70 78 68 79 47 80 48 81 56 82 49 83 50 84 54 85 57 86
REMARK SMILES IDX 51 87 52 88 55 89 53 90
REMARK H PARENT 9 9 77 43 45 54
REMARK Flexibility Score: inf
ROOT
ATOM      1  C   UNL     1      -4.519   2.270   5.594  1.00  0.00     0.274 C 
ENDROOT
BRANCH   1   2
ATOM      2  O   UNL     1      -3.583   2.155   4.532  1.00  0.00    -0.462 OA
BRANCH   2   3
ATOM      3  C   UNL     1      -3.752   3.006   3.482  1.00  0.00     0.315 C 
ATOM      4  O   UNL     1      -4.745   3.673   3.278  1.00  0.00    -0.252 OA
BRANCH   3   5
ATOM      5  C   UNL     1      -2.483   2.975   2.667  1.00  0.00     0.162 C 
ATOM      6  N   UNL     1      -2.663   1.892   0.606  1.00  0.00    -0.331 N 
ATOM      7  C   UNL     1      -2.152   3.231   0.306  1.00  0.00     0.263 C 
ATOM      8  C   UNL     1      -2.390   1.617   2.014  1.00  0.00     0.195 C 
ATOM      9  H   UNL     1      -2.187   1.206   0.020  1.00  0.00     0.348 HD
ATOM     10  C   UNL     1      -2.324   4.025   1.580  1.00  0.00     0.083 C 
ATOM     11  C   UNL     1      -1.011   1.001   2.253  1.00  0.00     0.076 C 
BRANCH   6  12
ATOM     12  C   UNL     1      -4.083   1.739   0.270  1.00  0.00     0.273 C 
BRANCH  12  13
ATOM     13  C   UNL     1      -4.248   1.085  -1.108  1.00  0.00     0.136 C 
BRANCH  13  14
ATOM     14  S   UNL     1      -3.624  -0.652  -1.247  1.00  0.00    -0.120 SA
BRANCH  14  15
ATOM     15  C   UNL     1      -1.842  -0.516  -1.080  1.00  0.00     0.007 A 
ATOM     16  C   UNL     1       2.382  -0.200  -0.180  1.00  0.00     0.044 C 
ATOM     17  C   UNL     1       0.931  -0.333  -0.534  1.00  0.00    -0.051 A 
ATOM     18  C   UNL     1       0.214  -1.482  -0.190  1.00  0.00     0.004 A 
ATOM     19  C   UNL     1       0.272   0.684  -1.231  1.00  0.00     0.004 A 
ATOM     20  C   UNL     1      -1.162  -1.567  -0.450  1.00  0.00     0.015 A 
ATOM     21  C   UNL     1      -1.095   0.578  -1.523  1.00  0.00     0.015 A 
ENDBRANCH  14  15
ENDBRANCH  13  14
ENDBRANCH  12  13
ENDBRANCH   6  12
ENDBRANCH   3   5
ENDBRANCH   2   3
ENDBRANCH   1   2
BRANCH   1  22
ATOM     22  C   UNL     1      -3.948   1.580   6.843  1.00  0.00     0.275 C 
BRANCH  22  23
ATOM     23  O   UNL     1      -2.530   1.175   6.838  1.00  0.00    -0.458 OA
BRANCH  23  24
ATOM     24  C   UNL     1      -1.378   1.811   6.483  1.00  0.00     0.338 C 
ATOM     25  O   UNL     1      -0.334   1.199   6.300  1.00  0.00    -0.246 OA
BRANCH  24  26
ATOM     26  C   UNL     1      -1.412   3.265   6.239  1.00  0.00     0.060 A 
ATOM     27  C   UNL     1      -0.597   3.870   5.263  1.00  0.00     0.016 A 
ATOM     28  C   UNL     1      -2.387   4.001   6.874  1.00  0.00     0.016 A 
ATOM     29  C   UNL     1      -0.909   5.151   4.792  1.00  0.00     0.010 A 
ATOM     30  C   UNL     1      -2.852   5.121   6.248  1.00  0.00     0.010 A 
ATOM     31  C   UNL     1      -2.083   5.741   5.256  1.00  0.00    -0.014 A 
BRANCH  31  32
ATOM     32  C   UNL     1      -2.464   7.136   5.073  1.00  0.00     0.031 A 
ATOM     33  C   UNL     1      -3.077   7.634   3.838  1.00  0.00     0.074 A 
ATOM     34  C   UNL     1      -2.349   7.817   6.234  1.00  0.00     0.049 A 
ATOM     35  N   UNL     1      -2.862   8.779   3.292  1.00  0.00    -0.248 NA
ATOM     36  C   UNL     1      -3.984   6.809   3.055  1.00  0.00     0.031 C 
ATOM     37  C   UNL     1      -2.796   9.120   6.667  1.00  0.00     0.029 A 
ATOM     38  N   UNL     1      -1.576   7.361   7.322  1.00  0.00    -0.354 N 
ATOM     39  C   UNL     1      -3.876   8.952   2.358  1.00  0.00     0.074 A 
ATOM     40  C   UNL     1      -4.335   7.626   2.058  1.00  0.00     0.031 C 
ATOM     41  C   UNL     1      -1.994   9.503   7.688  1.00  0.00     0.029 A 
ATOM     42  C   UNL     1      -0.948   8.488   7.843  1.00  0.00     0.049 A 
ATOM     43  H   UNL     1      -1.497   6.435   7.647  1.00  0.00     0.167 HD
ATOM     44  C   UNL     1      -4.440  10.188   2.194  1.00  0.00     0.037 A 
ATOM     45  C   UNL     1       0.382   8.594   7.540  1.00  0.00     0.037 A 
ATOM     46  C   UNL     1      -3.839  11.107   3.164  1.00  0.00     0.049 A 
ATOM     47  C   UNL     1       0.621   9.702   6.534  1.00  0.00     0.074 A 
ATOM     48  C   UNL     1      -4.245  11.578   4.402  1.00  0.00     0.029 A 
ATOM     49  N   UNL     1      -2.483  11.349   3.092  1.00  0.00    -0.354 N 
ATOM     50  N   UNL     1      -0.320  10.260   5.819  1.00  0.00    -0.248 NA
ATOM     51  C   UNL     1       1.942  10.233   6.223  1.00  0.00     0.031 C 
ATOM     52  C   UNL     1      -3.087  12.065   5.087  1.00  0.00     0.029 A 
ATOM     53  C   UNL     1      -1.991  11.892   4.261  1.00  0.00     0.049 A 
ATOM     54  H   UNL     1      -1.931  11.156   2.300  1.00  0.00     0.167 HD
ATOM     55  C   UNL     1       0.207  11.262   5.062  1.00  0.00     0.074 A 
ATOM     56  C   UNL     1       1.640  11.146   5.284  1.00  0.00     0.031 C 
ATOM     57  C   UNL     1      -0.560  12.130   4.335  1.00  0.00     0.037 A 
BRANCH  44  58
ATOM     58  C   UNL     1      -5.723  10.528   1.443  1.00  0.00     0.064 A 
ATOM     59  C   UNL     1      -6.344  11.784   1.642  1.00  0.00     0.173 A 
ATOM     60  C   UNL     1      -6.399   9.697   0.525  1.00  0.00     0.173 A 
ATOM     61  F   UNL     1      -5.765  12.738   2.385  1.00  0.00    -0.203 F 
ATOM     62  C   UNL     1      -7.574  12.128   1.069  1.00  0.00     0.198 A 
ATOM     63  C   UNL     1      -7.647  10.028  -0.026  1.00  0.00     0.198 A 
ATOM     64  F   UNL     1      -5.862   8.564   0.066  1.00  0.00    -0.203 F 
ATOM     65  F   UNL     1      -8.108  13.333   1.315  1.00  0.00    -0.200 F 
ATOM     66  C   UNL     1      -8.240  11.238   0.256  1.00  0.00     0.200 A 
ATOM     67  F   UNL     1      -8.261   9.162  -0.847  1.00  0.00    -0.200 F 
ATOM     68  F   UNL     1      -9.426  11.558  -0.280  1.00  0.00    -0.200 F 
ENDBRANCH  44  58
BRANCH  45  69
ATOM     69  C   UNL     1       1.125   7.272   7.584  1.00  0.00     0.064 A 
ATOM     70  C   UNL     1       0.891   6.385   8.668  1.00  0.00     0.173 A 
ATOM     71  C   UNL     1       1.829   6.736   6.497  1.00  0.00     0.173 A 
ATOM     72  F   UNL     1       0.234   6.813   9.759  1.00  0.00    -0.203 F 
ATOM     73  C   UNL     1       1.220   5.029   8.609  1.00  0.00     0.198 A 
ATOM     74  C   UNL     1       2.203   5.383   6.462  1.00  0.00     0.198 A 
ATOM     75  F   UNL     1       2.098   7.483   5.418  1.00  0.00    -0.203 F 
ATOM     76  F   UNL     1       0.838   4.203   9.595  1.00  0.00    -0.200 F 
ATOM     77  C   UNL     1       1.869   4.526   7.500  1.00  0.00     0.200 A 
ATOM     78  F   UNL     1       2.809   4.889   5.372  1.00  0.00    -0.200 F 
ATOM     79  F   UNL     1       2.126   3.214   7.405  1.00  0.00    -0.200 F 
ENDBRANCH  45  69
BRANCH  57  80
ATOM     80  C   UNL     1       0.024  13.287   3.576  1.00  0.00     0.064 A 
ATOM     81  C   UNL     1       1.098  14.036   4.074  1.00  0.00     0.173 A 
ATOM     82  C   UNL     1      -0.521  13.731   2.350  1.00  0.00     0.173 A 
ATOM     83  F   UNL     1       1.579  13.820   5.307  1.00  0.00    -0.203 F 
ATOM     84  C   UNL     1       1.694  15.045   3.321  1.00  0.00     0.198 A 
ATOM     85  C   UNL     1       0.034  14.782   1.632  1.00  0.00     0.198 A 
ATOM     86  F   UNL     1      -1.593  13.158   1.790  1.00  0.00    -0.203 F 
ATOM     87  F   UNL     1       2.789  15.657   3.789  1.00  0.00    -0.200 F 
ATOM     88  C   UNL     1       1.167  15.411   2.097  1.00  0.00     0.200 A 
ATOM     89  F   UNL     1      -0.530  15.162   0.477  1.00  0.00    -0.200 F 
ATOM     90  F   UNL     1       1.745  16.375   1.370  1.00  0.00    -0.200 F 
ENDBRANCH  57  80
ENDBRANCH  31  32
ENDBRANCH  24  26
ENDBRANCH  23  24
ENDBRANCH  22  23
ENDBRANCH   1  22
TORSDOF 15
