REMARK SMILES O=C(OCCOC(=O)[C@@H]1CC=CC[C@H]1C(=O)N1CC[NH+](Cc2ccc3c(c2)OCO3)CC1)c1ccc(-c2c3nc(c(-c4c(F)c(F)c(F)c(F)c4F)c4ccc([nH]4)c(-c4c(F)c(F)c(F)c(F)c4F)c4nc(c(-c5c(F)c(F)c(F)c(F)c5F)c5ccc2[nH]5)C=C4)C=C3)cc1
REMARK SMILES IDX 5 1 4 2 3 3 2 4 1 5 33 6 34 7 95 8 35 9 94 10 36 11 37 12
REMARK SMILES IDX 38 13 88 14 39 15 93 16 87 17 89 18 40 19 92 20 86 21 85 22
REMARK SMILES IDX 41 24 73 25 53 26 72 27 54 28 57 29 71 30 90 31 55 32 56 33
REMARK SMILES IDX 70 35 91 36 58 37 42 38 43 39 51 40 44 41 45 42 49 43 52 44
REMARK SMILES IDX 46 45 47 46 50 47 48 48 74 49 75 50 83 51 76 52 77 53 81 54
REMARK SMILES IDX 84 55 78 56 79 57 82 58 80 59 59 60 60 61 68 62 61 63 62 64
REMARK SMILES IDX 66 65 69 66 63 67 64 68 67 69 65 70 6 71 7 72 8 73 9 74
REMARK SMILES IDX 10 75 14 76 11 77 13 78 12 79 15 80 16 81 17 82 18 83 32 84
REMARK SMILES IDX 19 85 31 86 20 87 21 89 22 90 23 91 27 92 24 93 26 94 25 95
REMARK SMILES IDX 28 96 30 97 29 98
REMARK H PARENT 89 23 57 34 20 88
REMARK Flexibility Score: inf
ROOT
ATOM      1  C   UNL     1       5.522   4.114   2.669  1.00  0.00     0.274 C 
ENDROOT
BRANCH   1   2
ATOM      2  C   UNL     1       5.434   4.357   4.179  1.00  0.00     0.275 C 
BRANCH   2   3
ATOM      3  O   UNL     1       4.678   3.377   4.905  1.00  0.00    -0.458 OA
BRANCH   3   4
ATOM      4  C   UNL     1       3.443   3.608   5.417  1.00  0.00     0.338 C 
ATOM      5  O   UNL     1       3.063   3.095   6.463  1.00  0.00    -0.246 OA
BRANCH   4   6
ATOM      6  C   UNL     1       2.449   4.262   4.534  1.00  0.00     0.060 A 
ATOM      7  C   UNL     1       2.540   5.588   4.103  1.00  0.00     0.016 A 
ATOM      8  C   UNL     1       1.341   3.496   4.165  1.00  0.00     0.016 A 
ATOM      9  C   UNL     1       1.590   6.113   3.221  1.00  0.00     0.010 A 
ATOM     10  C   UNL     1       0.406   4.006   3.265  1.00  0.00     0.010 A 
ATOM     11  C   UNL     1       0.522   5.324   2.786  1.00  0.00    -0.014 A 
BRANCH  11  12
ATOM     12  C   UNL     1      -0.563   5.905   1.962  1.00  0.00     0.031 A 
ATOM     13  C   UNL     1      -1.880   6.161   2.634  1.00  0.00     0.074 A 
ATOM     14  C   UNL     1      -0.409   6.189   0.652  1.00  0.00     0.049 A 
ATOM     15  N   UNL     1      -2.936   6.770   2.163  1.00  0.00    -0.248 NA
ATOM     16  C   UNL     1      -2.017   5.707   4.029  1.00  0.00     0.031 C 
ATOM     17  C   UNL     1       0.817   6.034  -0.128  1.00  0.00     0.029 A 
ATOM     18  N   UNL     1      -1.325   6.619  -0.276  1.00  0.00    -0.354 N 
ATOM     19  C   UNL     1      -3.810   6.858   3.234  1.00  0.00     0.074 A 
ATOM     20  C   UNL     1      -3.242   6.104   4.325  1.00  0.00     0.031 C 
ATOM     21  C   UNL     1       0.545   6.216  -1.432  1.00  0.00     0.029 A 
ATOM     22  C   UNL     1      -0.854   6.600  -1.568  1.00  0.00     0.049 A 
ATOM     23  H   UNL     1      -2.233   6.915  -0.039  1.00  0.00     0.167 HD
ATOM     24  C   UNL     1      -4.939   7.595   3.330  1.00  0.00     0.037 A 
ATOM     25  C   UNL     1      -1.481   6.888  -2.724  1.00  0.00     0.037 A 
ATOM     26  C   UNL     1      -5.516   8.307   2.229  1.00  0.00     0.049 A 
ATOM     27  C   UNL     1      -2.840   7.528  -2.652  1.00  0.00     0.074 A 
ATOM     28  C   UNL     1      -6.627   9.126   2.206  1.00  0.00     0.029 A 
ATOM     29  N   UNL     1      -5.029   8.246   0.930  1.00  0.00    -0.354 N 
ATOM     30  N   UNL     1      -3.575   7.782  -1.596  1.00  0.00    -0.248 NA
ATOM     31  C   UNL     1      -3.415   8.008  -3.915  1.00  0.00     0.031 C 
ATOM     32  C   UNL     1      -6.840   9.524   0.880  1.00  0.00     0.029 A 
ATOM     33  C   UNL     1      -5.839   8.983   0.086  1.00  0.00     0.049 A 
ATOM     34  H   UNL     1      -4.224   7.752   0.651  1.00  0.00     0.167 HD
ATOM     35  C   UNL     1      -4.645   8.538  -2.050  1.00  0.00     0.074 A 
ATOM     36  C   UNL     1      -4.487   8.660  -3.486  1.00  0.00     0.031 C 
ATOM     37  C   UNL     1      -5.642   9.115  -1.335  1.00  0.00     0.037 A 
BRANCH  24  38
ATOM     38  C   UNL     1      -5.553   7.680   4.693  1.00  0.00     0.064 A 
ATOM     39  C   UNL     1      -4.905   8.380   5.727  1.00  0.00     0.173 A 
ATOM     40  C   UNL     1      -6.737   7.001   4.998  1.00  0.00     0.173 A 
ATOM     41  F   UNL     1      -3.752   9.025   5.487  1.00  0.00    -0.203 F 
ATOM     42  C   UNL     1      -5.398   8.356   7.027  1.00  0.00     0.198 A 
ATOM     43  C   UNL     1      -7.241   7.000   6.296  1.00  0.00     0.198 A 
ATOM     44  F   UNL     1      -7.385   6.312   4.048  1.00  0.00    -0.203 F 
ATOM     45  F   UNL     1      -4.723   8.967   8.010  1.00  0.00    -0.200 F 
ATOM     46  C   UNL     1      -6.565   7.664   7.311  1.00  0.00     0.200 A 
ATOM     47  F   UNL     1      -8.368   6.330   6.574  1.00  0.00    -0.200 F 
ATOM     48  F   UNL     1      -7.029   7.621   8.568  1.00  0.00    -0.200 F 
ENDBRANCH  24  38
BRANCH  25  49
ATOM     49  C   UNL     1      -0.796   6.692  -4.028  1.00  0.00     0.064 A 
ATOM     50  C   UNL     1      -0.259   7.775  -4.736  1.00  0.00     0.173 A 
ATOM     51  C   UNL     1      -0.694   5.419  -4.607  1.00  0.00     0.173 A 
ATOM     52  F   UNL     1      -0.347   9.014  -4.229  1.00  0.00    -0.203 F 
ATOM     53  C   UNL     1       0.332   7.598  -5.986  1.00  0.00     0.198 A 
ATOM     54  C   UNL     1      -0.092   5.240  -5.853  1.00  0.00     0.198 A 
ATOM     55  F   UNL     1      -1.192   4.349  -3.970  1.00  0.00    -0.203 F 
ATOM     56  F   UNL     1       0.803   8.657  -6.658  1.00  0.00    -0.200 F 
ATOM     57  C   UNL     1       0.415   6.331  -6.544  1.00  0.00     0.200 A 
ATOM     58  F   UNL     1      -0.011   4.015  -6.389  1.00  0.00    -0.200 F 
ATOM     59  F   UNL     1       0.974   6.163  -7.751  1.00  0.00    -0.200 F 
ENDBRANCH  25  49
BRANCH  37  60
ATOM     60  C   UNL     1      -6.591  10.003  -2.079  1.00  0.00     0.064 A 
ATOM     61  C   UNL     1      -7.569   9.487  -2.939  1.00  0.00     0.173 A 
ATOM     62  C   UNL     1      -6.548  11.392  -1.882  1.00  0.00     0.173 A 
ATOM     63  F   UNL     1      -7.633   8.168  -3.172  1.00  0.00    -0.203 F 
ATOM     64  C   UNL     1      -8.460  10.333  -3.591  1.00  0.00     0.198 A 
ATOM     65  C   UNL     1      -7.460  12.232  -2.512  1.00  0.00     0.198 A 
ATOM     66  F   UNL     1      -5.630  11.932  -1.066  1.00  0.00    -0.203 F 
ATOM     67  F   UNL     1      -9.361   9.825  -4.442  1.00  0.00    -0.200 F 
ATOM     68  C   UNL     1      -8.412  11.702  -3.369  1.00  0.00     0.200 A 
ATOM     69  F   UNL     1      -7.418  13.552  -2.287  1.00  0.00    -0.200 F 
ATOM     70  F   UNL     1      -9.280  12.513  -3.989  1.00  0.00    -0.200 F 
ENDBRANCH  37  60
ENDBRANCH  11  12
ENDBRANCH   4   6
ENDBRANCH   3   4
ENDBRANCH   2   3
ENDBRANCH   1   2
BRANCH   1  71
ATOM     71  O   UNL     1       4.295   3.701   2.039  1.00  0.00    -0.462 OA
BRANCH  71  72
ATOM     72  C   UNL     1       4.134   2.351   1.951  1.00  0.00     0.310 C 
ATOM     73  O   UNL     1       4.902   1.555   2.479  1.00  0.00    -0.252 OA
BRANCH  72  74
ATOM     74  C   UNL     1       2.946   1.903   1.085  1.00  0.00     0.115 C 
ATOM     75  C   UNL     1       2.152   3.057   0.484  1.00  0.00     0.043 C 
ATOM     76  C   UNL     1       2.098   0.907   1.886  1.00  0.00     0.097 C 
ATOM     77  C   UNL     1       0.803   2.674  -0.035  1.00  0.00    -0.030 C 
ATOM     78  C   UNL     1       0.746   0.539   1.242  1.00  0.00     0.041 C 
ATOM     79  C   UNL     1       0.171   1.551   0.313  1.00  0.00    -0.030 C 
BRANCH  76  80
ATOM     80  C   UNL     1       2.732  -0.435   2.252  1.00  0.00     0.227 C 
ATOM     81  O   UNL     1       2.466  -0.942   3.346  1.00  0.00    -0.275 OA
ATOM     82  N   UNL     1       3.292  -1.174   1.221  1.00  0.00    -0.331 N 
ATOM     83  C   UNL     1       3.129  -2.623   1.290  1.00  0.00     0.181 C 
ATOM     84  C   UNL     1       4.541  -0.778   0.589  1.00  0.00     0.181 C 
ATOM     85  C   UNL     1       3.447  -3.328  -0.048  1.00  0.00     0.284 C 
ATOM     86  C   UNL     1       4.696  -1.396  -0.803  1.00  0.00     0.284 C 
ATOM     87  N   UNL     1       4.622  -2.861  -0.809  1.00  0.00    -0.328 N 
ATOM     88  H   UNL     1       4.457  -3.161  -1.770  1.00  0.00     0.348 HD
BRANCH  87  89
ATOM     89  C   UNL     1       5.900  -3.540  -0.533  1.00  0.00     0.299 C 
BRANCH  89  90
ATOM     90  C   UNL     1       6.619  -3.164   0.747  1.00  0.00     0.010 A 
ATOM     91  C   UNL     1       6.261  -3.782   1.967  1.00  0.00     0.013 A 
ATOM     92  C   UNL     1       7.536  -2.092   0.760  1.00  0.00     0.060 A 
ATOM     93  C   UNL     1       6.703  -3.270   3.191  1.00  0.00     0.051 A 
ATOM     94  C   UNL     1       7.931  -1.591   1.984  1.00  0.00     0.166 A 
ATOM     95  C   UNL     1       7.510  -2.154   3.166  1.00  0.00     0.165 A 
ATOM     96  O   UNL     1       8.666  -0.463   2.182  1.00  0.00    -0.454 OA
ATOM     97  O   UNL     1       7.937  -1.459   4.253  1.00  0.00    -0.454 OA
ATOM     98  C   UNL     1       8.549  -0.320   3.615  1.00  0.00     0.468 C 
ENDBRANCH  89  90
ENDBRANCH  87  89
ENDBRANCH  76  80
ENDBRANCH  72  74
ENDBRANCH  71  72
ENDBRANCH   1  71
TORSDOF 14
