REMARK SMILES CC(=C\c1ccco1)/C=C1/SC(=S)N(CC(=O)OCCOC(=O)c2ccc(-c3c4nc(c(-c5c(F)c(F)c(F)c(F)c5F)c5ccc([nH]5)c(-c5c(F)c(F)c(F)c(F)c5F)c5nc(c(-c6c(F)c(F)c(F)c(F)c6F)c6ccc3[nH]6)C=C5)C=C4)cc2)C1=O
REMARK SMILES IDX 19 1 18 2 16 3 17 4 15 5 14 6 9 7 10 8 11 9 87 10 12 11
REMARK SMILES IDX 88 12 13 13 2 14 1 15 3 16 4 17 5 18 8 19 6 20 7 21 20 22
REMARK SMILES IDX 21 23 22 24 23 25 24 26 25 27 86 28 26 29 85 30 27 31 28 32
REMARK SMILES IDX 29 33 79 34 30 35 84 36 78 37 80 38 31 39 83 40 77 41 76 42
REMARK SMILES IDX 32 44 64 45 44 46 63 47 45 48 48 49 62 50 81 51 46 52 47 53
REMARK SMILES IDX 61 55 82 56 49 57 33 58 34 59 42 60 35 61 36 62 40 63 43 64
REMARK SMILES IDX 37 65 38 66 41 67 39 68 65 69 66 70 74 71 67 72 68 73 72 74
REMARK SMILES IDX 75 75 69 76 70 77 73 78 71 79 50 80 51 81 59 82 52 83 53 84
REMARK SMILES IDX 57 85 60 86 54 87 55 88 58 89 56 90
REMARK H PARENT 80 43 48 54
REMARK Flexibility Score: inf
ROOT
ATOM      1  C   UNL     1       5.339  -2.629  -1.117  1.00  0.00     0.274 C 
ENDROOT
BRANCH   1   2
ATOM      2  O   UNL     1       5.085  -2.070   0.193  1.00  0.00    -0.461 OA
BRANCH   2   3
ATOM      3  C   UNL     1       6.053  -1.254   0.687  1.00  0.00     0.326 C 
ATOM      4  O   UNL     1       7.106  -0.997   0.109  1.00  0.00    -0.250 OA
BRANCH   3   5
ATOM      5  C   UNL     1       5.747  -0.683   2.068  1.00  0.00     0.250 C 
BRANCH   5   6
ATOM      6  N   UNL     1       4.410  -0.922   2.605  1.00  0.00    -0.282 N 
ATOM      7  C   UNL     1       0.857  -0.188   2.547  1.00  0.00     0.024 C 
ATOM      8  C   UNL     1       2.115  -0.481   2.909  1.00  0.00     0.080 C 
ATOM      9  S   UNL     1       2.459  -1.694   4.092  1.00  0.00    -0.054 SA
ATOM     10  C   UNL     1       3.397  -0.020   2.308  1.00  0.00     0.266 C 
ATOM     11  C   UNL     1       4.098  -1.925   3.494  1.00  0.00     0.148 C 
ATOM     12  O   UNL     1       3.552   1.057   1.753  1.00  0.00    -0.268 OA
ATOM     13  S   UNL     1       5.064  -3.184   4.005  1.00  0.00    -0.052 S 
BRANCH   7  14
ATOM     14  C   UNL     1       0.425   0.478   1.325  1.00  0.00    -0.046 C 
ATOM     15  C   UNL     1       0.369  -0.470   0.153  1.00  0.00     0.044 C 
ATOM     16  C   UNL     1       0.089   1.782   1.310  1.00  0.00     0.050 C 
BRANCH  16  17
ATOM     17  C   UNL     1      -0.474   2.471   0.190  1.00  0.00     0.126 A 
ATOM     18  C   UNL     1      -1.235   2.022  -0.888  1.00  0.00     0.050 A 
ATOM     19  O   UNL     1      -0.378   3.845   0.056  1.00  0.00    -0.465 OA
ATOM     20  C   UNL     1      -1.559   3.128  -1.706  1.00  0.00     0.042 A 
ATOM     21  C   UNL     1      -1.019   4.218  -1.078  1.00  0.00     0.195 A 
ENDBRANCH  16  17
ENDBRANCH   7  14
ENDBRANCH   5   6
ENDBRANCH   3   5
ENDBRANCH   2   3
ENDBRANCH   1   2
BRANCH   1  22
ATOM     22  C   UNL     1       4.501  -1.954  -2.207  1.00  0.00     0.275 C 
BRANCH  22  23
ATOM     23  O   UNL     1       4.800  -0.550  -2.315  1.00  0.00    -0.458 OA
BRANCH  23  24
ATOM     24  C   UNL     1       3.996   0.229  -1.554  1.00  0.00     0.338 C 
ATOM     25  O   UNL     1       3.088  -0.157  -0.842  1.00  0.00    -0.246 OA
BRANCH  24  26
ATOM     26  C   UNL     1       4.401   1.636  -1.630  1.00  0.00     0.060 A 
ATOM     27  C   UNL     1       5.259   2.135  -0.652  1.00  0.00     0.016 A 
ATOM     28  C   UNL     1       3.814   2.490  -2.564  1.00  0.00     0.016 A 
ATOM     29  C   UNL     1       5.509   3.500  -0.574  1.00  0.00     0.010 A 
ATOM     30  C   UNL     1       4.105   3.858  -2.517  1.00  0.00     0.010 A 
ATOM     31  C   UNL     1       4.942   4.373  -1.512  1.00  0.00    -0.014 A 
BRANCH  31  32
ATOM     32  C   UNL     1       5.247   5.822  -1.438  1.00  0.00     0.031 A 
ATOM     33  C   UNL     1       4.191   6.808  -1.033  1.00  0.00     0.074 A 
ATOM     34  C   UNL     1       6.495   6.242  -1.718  1.00  0.00     0.049 A 
ATOM     35  N   UNL     1       4.254   8.116  -1.002  1.00  0.00    -0.248 NA
ATOM     36  C   UNL     1       2.895   6.256  -0.609  1.00  0.00     0.031 C 
ATOM     37  C   UNL     1       7.613   5.371  -2.083  1.00  0.00     0.029 A 
ATOM     38  N   UNL     1       7.034   7.503  -1.738  1.00  0.00    -0.354 N 
ATOM     39  C   UNL     1       3.003   8.545  -0.582  1.00  0.00     0.074 A 
ATOM     40  C   UNL     1       2.197   7.359  -0.375  1.00  0.00     0.031 C 
ATOM     41  C   UNL     1       8.709   6.121  -2.275  1.00  0.00     0.029 A 
ATOM     42  C   UNL     1       8.356   7.527  -2.104  1.00  0.00     0.049 A 
ATOM     43  H   UNL     1       6.521   8.313  -1.511  1.00  0.00     0.167 HD
ATOM     44  C   UNL     1       2.574   9.815  -0.387  1.00  0.00     0.037 A 
ATOM     45  C   UNL     1       9.185   8.567  -2.311  1.00  0.00     0.037 A 
ATOM     46  C   UNL     1       3.389  10.990  -0.566  1.00  0.00     0.049 A 
ATOM     47  C   UNL     1       8.668   9.964  -2.129  1.00  0.00     0.074 A 
ATOM     48  C   UNL     1       3.046  12.318  -0.373  1.00  0.00     0.029 A 
ATOM     49  N   UNL     1       4.715  10.976  -0.974  1.00  0.00    -0.354 N 
ATOM     50  N   UNL     1       7.477  10.362  -1.755  1.00  0.00    -0.248 NA
ATOM     51  C   UNL     1       9.607  11.058  -2.410  1.00  0.00     0.031 C 
ATOM     52  C   UNL     1       4.154  13.109  -0.698  1.00  0.00     0.029 A 
ATOM     53  C   UNL     1       5.198  12.273  -1.059  1.00  0.00     0.049 A 
ATOM     54  H   UNL     1       5.236  10.165  -1.175  1.00  0.00     0.167 HD
ATOM     55  C   UNL     1       7.522  11.747  -1.749  1.00  0.00     0.074 A 
ATOM     56  C   UNL     1       8.867  12.124  -2.137  1.00  0.00     0.031 C 
ATOM     57  C   UNL     1       6.537  12.629  -1.454  1.00  0.00     0.037 A 
BRANCH  44  58
ATOM     58  C   UNL     1       1.143  10.008   0.016  1.00  0.00     0.064 A 
ATOM     59  C   UNL     1       0.700   9.741   1.319  1.00  0.00     0.173 A 
ATOM     60  C   UNL     1       0.213  10.515  -0.904  1.00  0.00     0.173 A 
ATOM     61  F   UNL     1       1.549   9.248   2.233  1.00  0.00    -0.203 F 
ATOM     62  C   UNL     1      -0.628   9.958   1.681  1.00  0.00     0.198 A 
ATOM     63  C   UNL     1      -1.108  10.752  -0.533  1.00  0.00     0.198 A 
ATOM     64  F   UNL     1       0.589  10.793  -2.162  1.00  0.00    -0.203 F 
ATOM     65  F   UNL     1      -1.038   9.669   2.924  1.00  0.00    -0.200 F 
ATOM     66  C   UNL     1      -1.528  10.469   0.758  1.00  0.00     0.200 A 
ATOM     67  F   UNL     1      -1.974  11.255  -1.424  1.00  0.00    -0.200 F 
ATOM     68  F   UNL     1      -2.803  10.685   1.110  1.00  0.00    -0.200 F 
ENDBRANCH  44  58
BRANCH  45  69
ATOM     69  C   UNL     1      10.583   8.315  -2.740  1.00  0.00     0.064 A 
ATOM     70  C   UNL     1      11.657   8.547  -1.871  1.00  0.00     0.173 A 
ATOM     71  C   UNL     1      10.871   7.822  -4.021  1.00  0.00     0.173 A 
ATOM     72  F   UNL     1      11.431   9.041  -0.645  1.00  0.00    -0.203 F 
ATOM     73  C   UNL     1      12.968   8.299  -2.270  1.00  0.00     0.198 A 
ATOM     74  C   UNL     1      12.180   7.550  -4.410  1.00  0.00     0.198 A 
ATOM     75  F   UNL     1       9.876   7.585  -4.889  1.00  0.00    -0.203 F 
ATOM     76  F   UNL     1      13.981   8.559  -1.432  1.00  0.00    -0.200 F 
ATOM     77  C   UNL     1      13.228   7.793  -3.535  1.00  0.00     0.200 A 
ATOM     78  F   UNL     1      12.425   7.051  -5.629  1.00  0.00    -0.200 F 
ATOM     79  F   UNL     1      14.489   7.547  -3.914  1.00  0.00    -0.200 F 
ENDBRANCH  45  69
BRANCH  57  80
ATOM     80  C   UNL     1       6.884  14.085  -1.532  1.00  0.00     0.064 A 
ATOM     81  C   UNL     1       7.023  14.736  -2.766  1.00  0.00     0.173 A 
ATOM     82  C   UNL     1       7.059  14.839  -0.363  1.00  0.00     0.173 A 
ATOM     83  F   UNL     1       6.884  14.050  -3.910  1.00  0.00    -0.203 F 
ATOM     84  C   UNL     1       7.346  16.089  -2.827  1.00  0.00     0.198 A 
ATOM     85  C   UNL     1       7.360  16.197  -0.428  1.00  0.00     0.198 A 
ATOM     86  F   UNL     1       6.935  14.261   0.841  1.00  0.00    -0.203 F 
ATOM     87  F   UNL     1       7.516  16.682  -4.016  1.00  0.00    -0.200 F 
ATOM     88  C   UNL     1       7.510  16.819  -1.659  1.00  0.00     0.200 A 
ATOM     89  F   UNL     1       7.512  16.903   0.701  1.00  0.00    -0.200 F 
ATOM     90  F   UNL     1       7.821  18.121  -1.719  1.00  0.00    -0.200 F 
ENDBRANCH  57  80
ENDBRANCH  31  32
ENDBRANCH  24  26
ENDBRANCH  23  24
ENDBRANCH  22  23
ENDBRANCH   1  22
TORSDOF 14
