REMARK SMILES Cc1cccc(-c2c(C(=O)OCCOC(=O)c3ccc(-c4c5nc(c(-c6c(F)c(F)c(F)c(F)c6F)c6ccc([nH]6)c(-c6c(F)c(F)c(F)c(F)c6F)c6nc(c(-c7c(F)c(F)c(F)c(F)c7F)c7ccc4[nH]7)C=C6)C=C5)cc3)nnn2Cc2cc(F)cc(F)c2)c1
REMARK SMILES IDX 12 1 11 2 9 3 10 4 8 5 7 6 82 7 80 8 81 9 6 10 1 11 2 12
REMARK SMILES IDX 3 13 92 14 4 15 5 16 83 17 84 18 85 19 91 20 86 21 89 22
REMARK SMILES IDX 87 23 88 24 90 25 13 26 14 27 15 28 16 29 17 30 18 31 79 32
REMARK SMILES IDX 19 33 78 34 20 35 21 36 22 37 72 38 23 39 77 40 71 41 73 42
REMARK SMILES IDX 24 43 76 44 70 45 69 46 25 48 57 49 37 50 56 51 38 52 41 53
REMARK SMILES IDX 55 54 74 55 39 56 40 57 54 59 75 60 42 61 26 62 27 63 35 64
REMARK SMILES IDX 28 65 29 66 33 67 36 68 30 69 31 70 34 71 32 72 58 73 59 74
REMARK SMILES IDX 67 75 60 76 61 77 65 78 68 79 62 80 63 81 66 82 64 83 43 84
REMARK SMILES IDX 44 85 52 86 45 87 46 88 50 89 53 90 47 91 48 92 51 93 49 94
REMARK H PARENT 73 47 41 58
REMARK Flexibility Score: inf
ROOT
ATOM      1  C   UNL     1      -3.673   1.138   5.316  1.00  0.00     0.275 C 
ENDROOT
BRANCH   1   2
ATOM      2  O   UNL     1      -3.438   0.959   3.913  1.00  0.00    -0.457 OA
BRANCH   2   3
ATOM      3  C   UNL     1      -3.763   2.153   3.024  1.00  0.00     0.361 C 
ATOM      4  O   UNL     1      -4.688   2.715   3.701  1.00  0.00    -0.244 OA
BRANCH   3   5
ATOM      5  C   UNL     1      -2.853   2.647   1.204  1.00  0.00     0.198 A 
ATOM      6  C   UNL     1      -1.702   2.167   0.258  1.00  0.00     0.104 A 
ATOM      7  N   UNL     1      -1.649   3.096  -0.786  1.00  0.00    -0.239 N 
ATOM      8  N   UNL     1      -3.281   3.817   0.345  1.00  0.00    -0.122 NA
ATOM      9  N   UNL     1      -2.546   4.054  -0.694  1.00  0.00    -0.066 NA
BRANCH   6  10
ATOM     10  C   UNL     1      -0.739   1.002   0.158  1.00  0.00     0.003 A 
ATOM     11  C   UNL     1       3.009   0.170   0.106  1.00  0.00     0.044 C 
ATOM     12  C   UNL     1       1.514   0.038   0.112  1.00  0.00    -0.050 A 
ATOM     13  C   UNL     1       0.980  -1.245  -0.057  1.00  0.00     0.003 A 
ATOM     14  C   UNL     1       0.653   1.151   0.257  1.00  0.00     0.013 A 
ATOM     15  C   UNL     1      -0.382  -1.404  -0.208  1.00  0.00     0.001 A 
ATOM     16  C   UNL     1      -1.203  -0.281  -0.162  1.00  0.00     0.010 A 
ENDBRANCH   6  10
BRANCH   7  17
ATOM     17  C   UNL     1      -0.859   3.121  -2.021  1.00  0.00     0.182 C 
BRANCH  17  18
ATOM     18  C   UNL     1      -1.352   2.165  -3.086  1.00  0.00    -0.021 A 
ATOM     19  C   UNL     1      -0.514   1.816  -4.154  1.00  0.00     0.045 A 
ATOM     20  C   UNL     1      -2.647   1.630  -3.075  1.00  0.00     0.045 A 
ATOM     21  C   UNL     1      -0.926   0.867  -5.091  1.00  0.00     0.126 A 
ATOM     22  C   UNL     1      -3.024   0.656  -3.996  1.00  0.00     0.126 A 
ATOM     23  F   UNL     1      -0.107   0.541  -6.099  1.00  0.00    -0.207 F 
ATOM     24  C   UNL     1      -2.163   0.248  -4.996  1.00  0.00     0.078 A 
ATOM     25  F   UNL     1      -4.237   0.098  -3.899  1.00  0.00    -0.207 F 
ENDBRANCH  17  18
ENDBRANCH   7  17
ENDBRANCH   3   5
ENDBRANCH   2   3
ENDBRANCH   1   2
BRANCH   1  26
ATOM     26  C   UNL     1      -2.582   2.057   5.875  1.00  0.00     0.275 C 
BRANCH  26  27
ATOM     27  O   UNL     1      -2.649   3.434   5.404  1.00  0.00    -0.458 OA
BRANCH  27  28
ATOM     28  C   UNL     1      -1.786   3.911   4.455  1.00  0.00     0.338 C 
ATOM     29  O   UNL     1      -0.998   4.822   4.627  1.00  0.00    -0.246 OA
BRANCH  28  30
ATOM     30  C   UNL     1      -2.161   3.443   3.097  1.00  0.00     0.060 A 
ATOM     31  C   UNL     1      -3.713   4.165   2.478  1.00  0.00     0.016 A 
ATOM     32  C   UNL     1      -1.755   1.708   2.750  1.00  0.00     0.016 A 
ATOM     33  C   UNL     1      -4.936   3.102   1.586  1.00  0.00     0.010 A 
ATOM     34  C   UNL     1      -2.984   0.651   1.859  1.00  0.00     0.010 A 
ATOM     35  C   UNL     1      -4.579   1.355   1.330  1.00  0.00    -0.014 A 
BRANCH  35  36
ATOM     36  C   UNL     1      -5.609   0.315   1.315  1.00  0.00     0.031 A 
ATOM     37  C   UNL     1      -5.446  -0.705   0.289  1.00  0.00     0.074 A 
ATOM     38  C   UNL     1      -6.406   0.126   2.394  1.00  0.00     0.049 A 
ATOM     39  N   UNL     1      -5.968  -1.866   0.315  1.00  0.00    -0.248 NA
ATOM     40  C   UNL     1      -4.575  -0.501  -0.853  1.00  0.00     0.031 C 
ATOM     41  C   UNL     1      -7.175  -1.055   2.791  1.00  0.00     0.029 A 
ATOM     42  N   UNL     1      -6.853   1.103   3.281  1.00  0.00    -0.354 N 
ATOM     43  C   UNL     1      -5.480  -2.576  -0.751  1.00  0.00     0.074 A 
ATOM     44  C   UNL     1      -4.515  -1.726  -1.384  1.00  0.00     0.031 C 
ATOM     45  C   UNL     1      -8.208  -0.669   3.562  1.00  0.00     0.029 A 
ATOM     46  C   UNL     1      -8.184   0.778   3.621  1.00  0.00     0.049 A 
ATOM     47  H   UNL     1      -6.338   1.874   3.609  1.00  0.00     0.167 HD
ATOM     48  C   UNL     1      -6.009  -3.807  -0.949  1.00  0.00     0.037 A 
ATOM     49  C   UNL     1      -9.159   1.614   3.155  1.00  0.00     0.037 A 
ATOM     50  C   UNL     1      -7.346  -3.815  -0.340  1.00  0.00     0.049 A 
ATOM     51  C   UNL     1      -9.841   1.028   1.919  1.00  0.00     0.074 A 
ATOM     52  C   UNL     1      -7.872  -4.194   0.880  1.00  0.00     0.029 A 
ATOM     53  N   UNL     1      -8.251  -2.905  -0.866  1.00  0.00    -0.354 N 
ATOM     54  N   UNL     1      -9.531  -0.132   1.389  1.00  0.00    -0.248 NA
ATOM     55  C   UNL     1     -10.905   1.690   1.172  1.00  0.00     0.031 C 
ATOM     56  C   UNL     1      -9.058  -3.406   1.104  1.00  0.00     0.029 A 
ATOM     57  C   UNL     1      -9.280  -2.596  -0.001  1.00  0.00     0.049 A 
ATOM     58  H   UNL     1      -8.168  -2.518  -1.768  1.00  0.00     0.167 HD
ATOM     59  C   UNL     1     -10.310  -0.395   0.299  1.00  0.00     0.074 A 
ATOM     60  C   UNL     1     -11.119   0.813   0.172  1.00  0.00     0.031 C 
ATOM     61  C   UNL     1     -10.250  -1.573  -0.410  1.00  0.00     0.037 A 
BRANCH  48  62
ATOM     62  C   UNL     1      -5.349  -4.961  -1.647  1.00  0.00     0.064 A 
ATOM     63  C   UNL     1      -5.983  -6.219  -1.625  1.00  0.00     0.173 A 
ATOM     64  C   UNL     1      -4.047  -4.962  -2.196  1.00  0.00     0.173 A 
ATOM     65  F   UNL     1      -7.217  -6.362  -1.120  1.00  0.00    -0.203 F 
ATOM     66  C   UNL     1      -5.356  -7.384  -2.075  1.00  0.00     0.198 A 
ATOM     67  C   UNL     1      -3.432  -6.124  -2.673  1.00  0.00     0.198 A 
ATOM     68  F   UNL     1      -3.290  -3.862  -2.250  1.00  0.00    -0.203 F 
ATOM     69  F   UNL     1      -5.989  -8.560  -1.970  1.00  0.00    -0.200 F 
ATOM     70  C   UNL     1      -4.079  -7.337  -2.597  1.00  0.00     0.200 A 
ATOM     71  F   UNL     1      -2.188  -6.059  -3.172  1.00  0.00    -0.200 F 
ATOM     72  F   UNL     1      -3.469  -8.457  -3.007  1.00  0.00    -0.200 F 
ENDBRANCH  48  62
BRANCH  49  73
ATOM     73  C   UNL     1      -8.772   3.034   3.481  1.00  0.00     0.064 A 
ATOM     74  C   UNL     1      -8.444   3.283   4.841  1.00  0.00     0.173 A 
ATOM     75  C   UNL     1      -8.252   3.930   2.545  1.00  0.00     0.173 A 
ATOM     76  F   UNL     1      -8.958   2.498   5.803  1.00  0.00    -0.203 F 
ATOM     77  C   UNL     1      -7.455   4.196   5.206  1.00  0.00     0.198 A 
ATOM     78  C   UNL     1      -7.322   4.912   2.933  1.00  0.00     0.198 A 
ATOM     79  F   UNL     1      -8.510   3.773   1.238  1.00  0.00    -0.203 F 
ATOM     80  F   UNL     1      -7.007   4.225   6.471  1.00  0.00    -0.200 F 
ATOM     81  C   UNL     1      -6.869   4.990   4.243  1.00  0.00     0.200 A 
ATOM     82  F   UNL     1      -6.753   5.694   2.001  1.00  0.00    -0.200 F 
ATOM     83  F   UNL     1      -5.838   5.788   4.562  1.00  0.00    -0.200 F 
ENDBRANCH  49  73
BRANCH  61  84
ATOM     84  C   UNL     1     -11.131  -1.839  -1.614  1.00  0.00     0.064 A 
ATOM     85  C   UNL     1     -12.472  -1.432  -1.659  1.00  0.00     0.173 A 
ATOM     86  C   UNL     1     -10.688  -2.565  -2.747  1.00  0.00     0.173 A 
ATOM     87  F   UNL     1     -13.068  -0.902  -0.581  1.00  0.00    -0.203 F 
ATOM     88  C   UNL     1     -13.249  -1.577  -2.810  1.00  0.00     0.198 A 
ATOM     89  C   UNL     1     -11.492  -2.787  -3.860  1.00  0.00     0.198 A 
ATOM     90  F   UNL     1      -9.450  -3.064  -2.849  1.00  0.00    -0.203 F 
ATOM     91  F   UNL     1     -14.481  -1.053  -2.846  1.00  0.00    -0.200 F 
ATOM     92  C   UNL     1     -12.757  -2.250  -3.913  1.00  0.00     0.200 A 
ATOM     93  F   UNL     1     -11.014  -3.502  -4.889  1.00  0.00    -0.200 F 
ATOM     94  F   UNL     1     -13.499  -2.384  -5.019  1.00  0.00    -0.200 F 
ENDBRANCH  61  84
ENDBRANCH  35  36
ENDBRANCH  28  30
ENDBRANCH  27  28
ENDBRANCH  26  27
ENDBRANCH   1  26
TORSDOF 14
