REMARK SMILES [NH3+]C[C@@]1([C@@H](O)C(=O)OCCOC(=O)c2ccc(-c3c4nc(c(-c5c(F)c(F)c(F)c(F)c5F)c5ccc([nH]5)c(-c5c(F)c(F)c(F)c(F)c5F)c5nc(c(-c6c(F)c(F)c(F)c(F)c6F)c6ccc3[nH]6)C=C5)C=C4)cc2)CCOc2ccccc21
REMARK SMILES IDX 9 1 8 2 6 3 7 4 4 5 3 6 77 7 85 8 78 9 80 10 84 11 79 12
REMARK SMILES IDX 81 13 83 14 82 15 2 16 1 17 5 21 10 23 11 24 12 25 13 26
REMARK SMILES IDX 14 27 15 28 76 29 16 30 75 31 17 32 18 33 19 34 69 35 20 36
REMARK SMILES IDX 74 37 68 38 70 39 21 40 73 41 67 42 66 43 22 45 54 46 34 47
REMARK SMILES IDX 53 48 35 49 38 50 52 51 71 52 36 53 37 54 51 56 72 57 39 58
REMARK SMILES IDX 23 59 24 60 32 61 25 62 26 63 30 64 33 65 27 66 28 67 31 68
REMARK SMILES IDX 29 69 55 70 56 71 64 72 57 73 58 74 62 75 65 76 59 77 60 78
REMARK SMILES IDX 63 79 61 80 40 81 41 82 49 83 42 84 43 85 47 86 50 87 44 88
REMARK SMILES IDX 45 89 48 90 46 91
REMARK H PARENT 1 18 1 19 1 20 5 22 70 44 38 55
REMARK Flexibility Score: inf
ROOT
ATOM      1  C   UNL     1      -2.708   2.290   0.094  1.00  0.00     0.274 C 
ENDROOT
BRANCH   1   2
ATOM      2  O   UNL     1      -1.548   2.158   0.936  1.00  0.00    -0.460 OA
BRANCH   2   3
ATOM      3  C   UNL     1      -1.146   0.915   1.264  1.00  0.00     0.336 C 
ATOM      4  O   UNL     1      -1.835  -0.096   1.125  1.00  0.00    -0.249 OA
BRANCH   3   5
ATOM      5  C   UNL     1       0.345   0.800   1.626  1.00  0.00     0.240 C 
BRANCH   5   6
ATOM      6  C   UNL     1       1.200   1.948   2.276  1.00  0.00     0.088 C 
ATOM      7  C   UNL     1       0.677   3.358   1.904  1.00  0.00     0.063 C 
ATOM      8  C   UNL     1       2.637   1.824   1.687  1.00  0.00     0.009 A 
ATOM      9  C   UNL     1       1.760   4.413   2.018  1.00  0.00     0.231 C 
ATOM     10  C   UNL     1       3.260   2.906   1.047  1.00  0.00     0.123 A 
ATOM     11  C   UNL     1       3.315   0.586   1.679  1.00  0.00     0.008 A 
ATOM     12  O   UNL     1       2.768   4.183   1.038  1.00  0.00    -0.493 OA
ATOM     13  C   UNL     1       4.444   2.728   0.326  1.00  0.00     0.047 A 
ATOM     14  C   UNL     1       4.509   0.415   0.975  1.00  0.00     0.001 A 
ATOM     15  C   UNL     1       5.062   1.482   0.278  1.00  0.00     0.004 A 
BRANCH   6  16
ATOM     16  C   UNL     1       1.290   1.803   3.827  1.00  0.00     0.274 C 
BRANCH  16  17
ATOM     17  N   UNL     1       0.009   1.731   4.534  1.00  0.00    -0.357 N 
ATOM     18  H   UNL     1       0.178   1.638   5.536  1.00  0.00     0.344 HD
ATOM     19  H   UNL     1      -0.518   0.923   4.202  1.00  0.00     0.344 HD
ATOM     20  H   UNL     1      -0.525   2.582   4.358  1.00  0.00     0.344 HD
ENDBRANCH  16  17
ENDBRANCH   6  16
ENDBRANCH   5   6
BRANCH   5  21
ATOM     21  O   UNL     1       0.481  -0.440   2.364  1.00  0.00    -0.380 OA
ATOM     22  H   UNL     1       0.015  -0.364   3.212  1.00  0.00     0.211 HD
ENDBRANCH   5  21
ENDBRANCH   3   5
ENDBRANCH   2   3
ENDBRANCH   1   2
BRANCH   1  23
ATOM     23  C   UNL     1      -2.259   2.759  -1.293  1.00  0.00     0.275 C 
BRANCH  23  24
ATOM     24  O   UNL     1      -1.606   1.691  -2.014  1.00  0.00    -0.458 OA
BRANCH  24  25
ATOM     25  C   UNL     1      -0.254   1.718  -1.991  1.00  0.00     0.338 C 
ATOM     26  O   UNL     1       0.463   2.515  -1.417  1.00  0.00    -0.246 OA
BRANCH  25  27
ATOM     27  C   UNL     1       0.290   0.569  -2.725  1.00  0.00     0.060 A 
ATOM     28  C   UNL     1       0.777  -0.523  -2.004  1.00  0.00     0.016 A 
ATOM     29  C   UNL     1       0.457   0.639  -4.108  1.00  0.00     0.016 A 
ATOM     30  C   UNL     1       1.479  -1.530  -2.655  1.00  0.00     0.010 A 
ATOM     31  C   UNL     1       1.121  -0.398  -4.769  1.00  0.00     0.010 A 
ATOM     32  C   UNL     1       1.655  -1.477  -4.043  1.00  0.00    -0.014 A 
BRANCH  32  33
ATOM     33  C   UNL     1       2.421  -2.545  -4.726  1.00  0.00     0.031 A 
ATOM     34  C   UNL     1       3.771  -2.248  -5.309  1.00  0.00     0.074 A 
ATOM     35  C   UNL     1       1.902  -3.784  -4.806  1.00  0.00     0.049 A 
ATOM     36  N   UNL     1       4.540  -3.009  -6.045  1.00  0.00    -0.248 NA
ATOM     37  C   UNL     1       4.329  -0.916  -5.032  1.00  0.00     0.031 C 
ATOM     38  C   UNL     1       0.620  -4.199  -4.236  1.00  0.00     0.029 A 
ATOM     39  N   UNL     1       2.388  -4.920  -5.399  1.00  0.00    -0.354 N 
ATOM     40  C   UNL     1       5.654  -2.240  -6.348  1.00  0.00     0.074 A 
ATOM     41  C   UNL     1       5.462  -0.949  -5.720  1.00  0.00     0.031 C 
ATOM     42  C   UNL     1       0.424  -5.500  -4.500  1.00  0.00     0.029 A 
ATOM     43  C   UNL     1       1.538  -5.993  -5.304  1.00  0.00     0.049 A 
ATOM     44  H   UNL     1       3.263  -4.962  -5.850  1.00  0.00     0.167 HD
ATOM     45  C   UNL     1       6.736  -2.583  -7.087  1.00  0.00     0.037 A 
ATOM     46  C   UNL     1       1.632  -7.226  -5.834  1.00  0.00     0.037 A 
ATOM     47  C   UNL     1       6.932  -3.879  -7.684  1.00  0.00     0.049 A 
ATOM     48  C   UNL     1       2.830  -7.573  -6.670  1.00  0.00     0.074 A 
ATOM     49  C   UNL     1       7.995  -4.329  -8.448  1.00  0.00     0.029 A 
ATOM     50  N   UNL     1       6.043  -4.939  -7.573  1.00  0.00    -0.354 N 
ATOM     51  N   UNL     1       3.864  -6.829  -6.980  1.00  0.00    -0.248 NA
ATOM     52  C   UNL     1       2.872  -8.927  -7.237  1.00  0.00     0.031 C 
ATOM     53  C   UNL     1       7.735  -5.652  -8.823  1.00  0.00     0.029 A 
ATOM     54  C   UNL     1       6.529  -6.038  -8.262  1.00  0.00     0.049 A 
ATOM     55  H   UNL     1       5.193  -4.913  -7.077  1.00  0.00     0.167 HD
ATOM     56  C   UNL     1       4.685  -7.625  -7.765  1.00  0.00     0.074 A 
ATOM     57  C   UNL     1       4.036  -8.916  -7.872  1.00  0.00     0.031 C 
ATOM     58  C   UNL     1       5.867  -7.314  -8.349  1.00  0.00     0.037 A 
BRANCH  45  59
ATOM     59  C   UNL     1       7.779  -1.531  -7.318  1.00  0.00     0.064 A 
ATOM     60  C   UNL     1       8.668  -1.138  -6.308  1.00  0.00     0.173 A 
ATOM     61  C   UNL     1       7.908  -0.929  -8.579  1.00  0.00     0.173 A 
ATOM     62  F   UNL     1       8.575  -1.672  -5.081  1.00  0.00    -0.203 F 
ATOM     63  C   UNL     1       9.637  -0.166  -6.546  1.00  0.00     0.198 A 
ATOM     64  C   UNL     1       8.892   0.025  -8.820  1.00  0.00     0.198 A 
ATOM     65  F   UNL     1       7.083  -1.273  -9.579  1.00  0.00    -0.203 F 
ATOM     66  F   UNL     1      10.453   0.223  -5.556  1.00  0.00    -0.200 F 
ATOM     67  C   UNL     1       9.752   0.410  -7.803  1.00  0.00     0.200 A 
ATOM     68  F   UNL     1       9.007   0.575 -10.038  1.00  0.00    -0.200 F 
ATOM     69  F   UNL     1      10.688   1.342  -8.032  1.00  0.00    -0.200 F 
ENDBRANCH  45  59
BRANCH  46  70
ATOM     70  C   UNL     1       0.545  -8.210  -5.601  1.00  0.00     0.064 A 
ATOM     71  C   UNL     1       0.743  -9.318  -4.769  1.00  0.00     0.173 A 
ATOM     72  C   UNL     1      -0.717  -8.051  -6.192  1.00  0.00     0.173 A 
ATOM     73  F   UNL     1       1.941  -9.523  -4.200  1.00  0.00    -0.203 F 
ATOM     74  C   UNL     1      -0.279 -10.237  -4.542  1.00  0.00     0.198 A 
ATOM     75  C   UNL     1      -1.746  -8.956  -5.944  1.00  0.00     0.198 A 
ATOM     76  F   UNL     1      -0.955  -7.004  -6.996  1.00  0.00    -0.203 F 
ATOM     77  F   UNL     1      -0.055 -11.307  -3.767  1.00  0.00    -0.200 F 
ATOM     78  C   UNL     1      -1.525 -10.051  -5.123  1.00  0.00     0.200 A 
ATOM     79  F   UNL     1      -2.951  -8.765  -6.498  1.00  0.00    -0.200 F 
ATOM     80  F   UNL     1      -2.510 -10.929  -4.896  1.00  0.00    -0.200 F 
ENDBRANCH  46  70
BRANCH  58  81
ATOM     81  C   UNL     1       6.545  -8.399  -9.129  1.00  0.00     0.064 A 
ATOM     82  C   UNL     1       6.094  -8.774 -10.403  1.00  0.00     0.173 A 
ATOM     83  C   UNL     1       7.674  -9.047  -8.609  1.00  0.00     0.173 A 
ATOM     84  F   UNL     1       5.007  -8.192 -10.932  1.00  0.00    -0.203 F 
ATOM     85  C   UNL     1       6.739  -9.777 -11.121  1.00  0.00     0.198 A 
ATOM     86  C   UNL     1       8.330 -10.034  -9.339  1.00  0.00     0.198 A 
ATOM     87  F   UNL     1       8.143  -8.720  -7.396  1.00  0.00    -0.203 F 
ATOM     88  F   UNL     1       6.269 -10.148 -12.319  1.00  0.00    -0.200 F 
ATOM     89  C   UNL     1       7.859 -10.402 -10.591  1.00  0.00     0.200 A 
ATOM     90  F   UNL     1       9.415 -10.633  -8.830  1.00  0.00    -0.200 F 
ATOM     91  F   UNL     1       8.480 -11.366 -11.285  1.00  0.00    -0.200 F 
ENDBRANCH  58  81
ENDBRANCH  32  33
ENDBRANCH  25  27
ENDBRANCH  24  25
ENDBRANCH  23  24
ENDBRANCH   1  23
TORSDOF 15
