REMARK SMILES COc1cccc(NC(=O)/C(C#N)=C\c2ccc(O[C@@H](C)C(=O)OCCOC(=O)c3ccc(-c4c5nc(c(-c6c(F)c(F)c(F)c(F)c6F)c6ccc([nH]6)c(-c6c(F)c(F)c(F)c(F)c6F)c6nc(c(-c7c(F)c(F)c(F)c(F)c7F)c7ccc4[nH]7)C=C6)C=C5)cc3)cc2)c1
REMARK SMILES IDX 22 1 23 2 20 3 21 4 19 5 18 6 15 7 16 8 94 9 17 10 93 11
REMARK SMILES IDX 14 12 11 13 9 14 8 15 10 17 7 18 3 19 4 20 95 21 5 22 6 23
REMARK SMILES IDX 2 24 1 25 12 26 13 27 24 28 25 29 26 30 27 31 28 32 29 33
REMARK SMILES IDX 30 34 31 35 92 36 32 37 91 38 33 39 34 40 35 41 85 42 36 43
REMARK SMILES IDX 90 44 84 45 86 46 37 47 89 48 83 49 82 50 38 52 70 53 50 54
REMARK SMILES IDX 69 55 51 56 54 57 68 58 87 59 52 60 53 61 67 63 88 64 55 65
REMARK SMILES IDX 39 66 40 67 48 68 41 69 42 70 46 71 49 72 43 73 44 74 47 75
REMARK SMILES IDX 45 76 71 77 72 78 80 79 73 80 74 81 78 82 81 83 75 84 76 85
REMARK SMILES IDX 79 86 77 87 56 88 57 89 65 90 58 91 59 92 63 93 66 94 60 95
REMARK SMILES IDX 61 96 64 97 62 98
REMARK H PARENT 8 16 86 51 54 62
REMARK Flexibility Score: inf
ROOT
ATOM      1  C   UNL     1      10.723   5.955   4.929  1.00  0.00     0.347 C 
ATOM      2  O   UNL     1      11.614   5.906   4.089  1.00  0.00    -0.248 OA
ENDROOT
BRANCH   1   3
ATOM      3  C   UNL     1      10.497   4.864   6.015  1.00  0.00     0.279 C 
ATOM      4  C   UNL     1      10.463   3.457   5.414  1.00  0.00     0.066 C 
BRANCH   3   5
ATOM      5  O   UNL     1       9.511   5.005   7.035  1.00  0.00    -0.479 OA
BRANCH   5   6
ATOM      6  C   UNL     1       8.199   5.172   6.699  1.00  0.00     0.120 A 
ATOM      7  C   UNL     1       5.470   5.478   6.208  1.00  0.00    -0.024 A 
ATOM      8  C   UNL     1       5.928   5.409   7.524  1.00  0.00     0.012 A 
ATOM      9  C   UNL     1       6.380   5.499   5.154  1.00  0.00     0.012 A 
ATOM     10  C   UNL     1       7.300   5.280   7.765  1.00  0.00     0.047 A 
ATOM     11  C   UNL     1       7.716   5.252   5.398  1.00  0.00     0.047 A 
BRANCH   7  12
ATOM     12  C   UNL     1       4.059   5.404   5.861  1.00  0.00     0.033 C 
ATOM     13  C   UNL     1       3.587   4.454   5.032  1.00  0.00     0.118 C 
BRANCH  13  14
ATOM     14  C   UNL     1       4.333   3.221   4.481  1.00  0.00     0.266 C 
ATOM     15  N   UNL     1       3.937   2.488   3.382  1.00  0.00    -0.321 N 
ATOM     16  H   UNL     1       4.711   2.149   2.877  1.00  0.00     0.170 HD
ATOM     17  O   UNL     1       5.429   2.888   4.941  1.00  0.00    -0.268 OA
BRANCH  15  18
ATOM     18  C   UNL     1       2.719   2.094   2.786  1.00  0.00     0.045 A 
ATOM     19  C   UNL     1       1.540   1.414   0.776  1.00  0.00     0.120 A 
ATOM     20  C   UNL     1       0.321   1.460   1.443  1.00  0.00     0.046 A 
ATOM     21  C   UNL     1       2.729   1.762   1.425  1.00  0.00     0.072 A 
ATOM     22  C   UNL     1       0.321   1.670   2.813  1.00  0.00     0.006 A 
ATOM     23  C   UNL     1       1.528   1.907   3.487  1.00  0.00     0.026 A 
BRANCH  19  24
ATOM     24  O   UNL     1       1.575   1.045  -0.541  1.00  0.00    -0.497 OA
ATOM     25  C   UNL     1       1.428  -0.377  -0.642  1.00  0.00     0.278 C 
ENDBRANCH  19  24
ENDBRANCH  15  18
ENDBRANCH  13  14
BRANCH  13  26
ATOM     26  C   UNL     1       2.119   4.474   4.642  1.00  0.00     0.105 C 
ATOM     27  N   UNL     1       0.900   4.491   4.317  1.00  0.00    -0.192 NA
ENDBRANCH  13  26
ENDBRANCH   7  12
ENDBRANCH   5   6
ENDBRANCH   3   5
ENDBRANCH   1   3
BRANCH   1  28
ATOM     28  O   UNL     1       9.816   6.958   5.022  1.00  0.00    -0.459 OA
BRANCH  28  29
ATOM     29  C   UNL     1       9.803   8.015   4.048  1.00  0.00     0.274 C 
BRANCH  29  30
ATOM     30  C   UNL     1       9.738   9.351   4.787  1.00  0.00     0.275 C 
BRANCH  30  31
ATOM     31  O   UNL     1      10.949   9.535   5.540  1.00  0.00    -0.458 OA
BRANCH  31  32
ATOM     32  C   UNL     1      10.926   8.997   6.784  1.00  0.00     0.338 C 
ATOM     33  O   UNL     1       9.974   8.555   7.397  1.00  0.00    -0.246 OA
BRANCH  32  34
ATOM     34  C   UNL     1      12.313   8.847   7.238  1.00  0.00     0.060 A 
ATOM     35  C   UNL     1      12.775   7.559   7.522  1.00  0.00     0.016 A 
ATOM     36  C   UNL     1      13.135   9.958   7.415  1.00  0.00     0.016 A 
ATOM     37  C   UNL     1      14.070   7.368   7.984  1.00  0.00     0.010 A 
ATOM     38  C   UNL     1      14.432   9.770   7.892  1.00  0.00     0.010 A 
ATOM     39  C   UNL     1      14.899   8.476   8.187  1.00  0.00    -0.014 A 
BRANCH  39  40
ATOM     40  C   UNL     1      16.230   8.290   8.802  1.00  0.00     0.031 A 
ATOM     41  C   UNL     1      16.428   8.666  10.239  1.00  0.00     0.074 A 
ATOM     42  C   UNL     1      17.237   7.773   8.079  1.00  0.00     0.049 A 
ATOM     43  N   UNL     1      17.526   8.686  10.948  1.00  0.00    -0.248 NA
ATOM     44  C   UNL     1      15.224   9.079  10.976  1.00  0.00     0.031 C 
ATOM     45  C   UNL     1      17.132   7.316   6.694  1.00  0.00     0.029 A 
ATOM     46  N   UNL     1      18.547   7.549   8.412  1.00  0.00    -0.354 N 
ATOM     47  C   UNL     1      17.151   9.138  12.205  1.00  0.00     0.074 A 
ATOM     48  C   UNL     1      15.729   9.398  12.158  1.00  0.00     0.031 C 
ATOM     49  C   UNL     1      18.331   6.862   6.294  1.00  0.00     0.029 A 
ATOM     50  C   UNL     1      19.294   7.046   7.376  1.00  0.00     0.049 A 
ATOM     51  H   UNL     1      18.917   7.731   9.306  1.00  0.00     0.167 HD
ATOM     52  C   UNL     1      17.930   9.316  13.298  1.00  0.00     0.037 A 
ATOM     53  C   UNL     1      20.614   6.794   7.306  1.00  0.00     0.037 A 
ATOM     54  C   UNL     1      19.343   9.042  13.330  1.00  0.00     0.049 A 
ATOM     55  C   UNL     1      21.472   7.071   8.511  1.00  0.00     0.074 A 
ATOM     56  C   UNL     1      20.228   9.179  14.384  1.00  0.00     0.029 A 
ATOM     57  N   UNL     1      20.079   8.575  12.248  1.00  0.00    -0.354 N 
ATOM     58  N   UNL     1      21.120   7.514   9.694  1.00  0.00    -0.248 NA
ATOM     59  C   UNL     1      22.912   6.822   8.366  1.00  0.00     0.031 C 
ATOM     60  C   UNL     1      21.507   8.840  13.927  1.00  0.00     0.029 A 
ATOM     61  C   UNL     1      21.411   8.442  12.602  1.00  0.00     0.049 A 
ATOM     62  H   UNL     1      19.707   8.369  11.360  1.00  0.00     0.167 HD
ATOM     63  C   UNL     1      22.287   7.575  10.442  1.00  0.00     0.074 A 
ATOM     64  C   UNL     1      23.357   7.112   9.581  1.00  0.00     0.031 C 
ATOM     65  C   UNL     1      22.458   7.978  11.726  1.00  0.00     0.037 A 
BRANCH  52  66
ATOM     66  C   UNL     1      17.273   9.874  14.527  1.00  0.00     0.064 A 
ATOM     67  C   UNL     1      16.358   9.126  15.284  1.00  0.00     0.173 A 
ATOM     68  C   UNL     1      17.558  11.182  14.948  1.00  0.00     0.173 A 
ATOM     69  F   UNL     1      16.037   7.877  14.914  1.00  0.00    -0.203 F 
ATOM     70  C   UNL     1      15.727   9.680  16.396  1.00  0.00     0.198 A 
ATOM     71  C   UNL     1      16.948  11.721  16.078  1.00  0.00     0.198 A 
ATOM     72  F   UNL     1      18.426  11.940  14.262  1.00  0.00    -0.203 F 
ATOM     73  F   UNL     1      14.812   8.968  17.069  1.00  0.00    -0.200 F 
ATOM     74  C   UNL     1      16.026  10.974  16.794  1.00  0.00     0.200 A 
ATOM     75  F   UNL     1      17.245  12.969  16.466  1.00  0.00    -0.200 F 
ATOM     76  F   UNL     1      15.415  11.506  17.862  1.00  0.00    -0.200 F 
ENDBRANCH  52  66
BRANCH  53  77
ATOM     77  C   UNL     1      21.196   6.261   6.049  1.00  0.00     0.064 A 
ATOM     78  C   UNL     1      21.679   4.948   5.981  1.00  0.00     0.173 A 
ATOM     79  C   UNL     1      21.263   7.043   4.886  1.00  0.00     0.173 A 
ATOM     80  F   UNL     1      21.659   4.170   7.073  1.00  0.00    -0.203 F 
ATOM     81  C   UNL     1      22.212   4.438   4.798  1.00  0.00     0.198 A 
ATOM     82  C   UNL     1      21.771   6.524   3.698  1.00  0.00     0.198 A 
ATOM     83  F   UNL     1      20.815   8.307   4.900  1.00  0.00    -0.203 F 
ATOM     84  F   UNL     1      22.697   3.189   4.768  1.00  0.00    -0.200 F 
ATOM     85  C   UNL     1      22.249   5.224   3.656  1.00  0.00     0.200 A 
ATOM     86  F   UNL     1      21.794   7.283   2.593  1.00  0.00    -0.200 F 
ATOM     87  F   UNL     1      22.751   4.729   2.516  1.00  0.00    -0.200 F 
ENDBRANCH  53  77
BRANCH  65  88
ATOM     88  C   UNL     1      23.849   7.903  12.284  1.00  0.00     0.064 A 
ATOM     89  C   UNL     1      24.849   8.804  11.892  1.00  0.00     0.173 A 
ATOM     90  C   UNL     1      24.174   6.939  13.251  1.00  0.00     0.173 A 
ATOM     91  F   UNL     1      24.593   9.733  10.959  1.00  0.00    -0.203 F 
ATOM     92  C   UNL     1      26.131   8.728  12.430  1.00  0.00     0.198 A 
ATOM     93  C   UNL     1      25.448   6.884  13.808  1.00  0.00     0.198 A 
ATOM     94  F   UNL     1      23.250   6.057  13.664  1.00  0.00    -0.203 F 
ATOM     95  F   UNL     1      27.085   9.569  12.007  1.00  0.00    -0.200 F 
ATOM     96  C   UNL     1      26.427   7.773  13.392  1.00  0.00     0.200 A 
ATOM     97  F   UNL     1      25.728   5.970  14.747  1.00  0.00    -0.200 F 
ATOM     98  F   UNL     1      27.660   7.705  13.914  1.00  0.00    -0.200 F 
ENDBRANCH  65  88
ENDBRANCH  39  40
ENDBRANCH  32  34
ENDBRANCH  31  32
ENDBRANCH  30  31
ENDBRANCH  29  30
ENDBRANCH  28  29
ENDBRANCH   1  28
TORSDOF 18
