REMARK SMILES O=C(OCCOC(=O)c1cccn1CC(=O)N1CC[C@H]2CCCC[C@H]2C1)c1ccc(-c2c3nc(c(-c4c(F)c(F)c(F)c(F)c4F)c4ccc([nH]4)c(-c4c(F)c(F)c(F)c(F)c4F)c4nc(c(-c5c(F)c(F)c(F)c(F)c5F)c5ccc2[nH]5)C=C4)C=C3)cc1
REMARK SMILES IDX 5 1 4 2 3 3 2 4 1 5 27 6 28 7 89 8 29 9 88 10 30 11 31 12
REMARK SMILES IDX 32 13 82 14 33 15 87 16 81 17 83 18 34 19 86 20 80 21 79 22
REMARK SMILES IDX 35 24 67 25 47 26 66 27 48 28 51 29 65 30 84 31 49 32 50 33
REMARK SMILES IDX 64 35 85 36 52 37 36 38 37 39 45 40 38 41 39 42 43 43 46 44
REMARK SMILES IDX 40 45 41 46 44 47 42 48 68 49 69 50 77 51 70 52 71 53 75 54
REMARK SMILES IDX 78 55 72 56 73 57 76 58 74 59 53 60 54 61 62 62 55 63 56 64
REMARK SMILES IDX 60 65 63 66 57 67 58 68 61 69 59 70 6 71 7 72 8 73 9 74
REMARK SMILES IDX 10 75 13 76 11 77 12 78 14 79 15 80 16 81 17 82 18 83 26 84
REMARK SMILES IDX 19 85 25 86 20 87 24 88 21 89 23 90 22 91
REMARK H PARENT 83 23 51 34
REMARK Flexibility Score: inf
ROOT
ATOM      1  C   UNL     1       4.335  -2.130  -1.734  1.00  0.00     0.275 C 
ENDROOT
BRANCH   1   2
ATOM      2  C   UNL     1       5.080  -0.951  -1.032  1.00  0.00     0.275 C 
BRANCH   2   3
ATOM      3  O   UNL     1       5.482   0.272  -1.781  1.00  0.00    -0.458 OA
BRANCH   3   4
ATOM      4  C   UNL     1       4.431   1.073  -2.079  1.00  0.00     0.338 C 
ATOM      5  O   UNL     1       3.320   0.608  -1.960  1.00  0.00    -0.246 OA
BRANCH   4   6
ATOM      6  C   UNL     1       4.374   2.560  -2.096  1.00  0.00     0.060 A 
ATOM      7  C   UNL     1       5.411   3.381  -1.738  1.00  0.00     0.016 A 
ATOM      8  C   UNL     1       3.063   3.092  -1.979  1.00  0.00     0.016 A 
ATOM      9  C   UNL     1       5.094   4.599  -1.081  1.00  0.00     0.010 A 
ATOM     10  C   UNL     1       2.750   4.188  -1.176  1.00  0.00     0.010 A 
ATOM     11  C   UNL     1       3.775   4.951  -0.651  1.00  0.00    -0.014 A 
BRANCH  11  12
ATOM     12  C   UNL     1       3.488   6.359  -0.201  1.00  0.00     0.031 A 
ATOM     13  C   UNL     1       3.472   7.102  -1.501  1.00  0.00     0.074 A 
ATOM     14  C   UNL     1       3.473   6.870   1.072  1.00  0.00     0.049 A 
ATOM     15  N   UNL     1       4.476   7.626  -2.125  1.00  0.00    -0.248 NA
ATOM     16  C   UNL     1       2.309   6.842  -2.402  1.00  0.00     0.031 C 
ATOM     17  C   UNL     1       2.839   6.288   2.260  1.00  0.00     0.029 A 
ATOM     18  N   UNL     1       3.988   8.039   1.629  1.00  0.00    -0.354 N 
ATOM     19  C   UNL     1       3.943   7.994  -3.358  1.00  0.00     0.074 A 
ATOM     20  C   UNL     1       2.841   7.116  -3.596  1.00  0.00     0.031 C 
ATOM     21  C   UNL     1       3.204   6.929   3.403  1.00  0.00     0.029 A 
ATOM     22  C   UNL     1       4.068   8.050   3.070  1.00  0.00     0.049 A 
ATOM     23  H   UNL     1       4.277   8.803   1.079  1.00  0.00     0.167 HD
ATOM     24  C   UNL     1       4.050   9.267  -3.831  1.00  0.00     0.037 A 
ATOM     25  C   UNL     1       4.824   8.875   3.882  1.00  0.00     0.037 A 
ATOM     26  C   UNL     1       4.715  10.079  -2.857  1.00  0.00     0.049 A 
ATOM     27  C   UNL     1       5.038  10.035   3.018  1.00  0.00     0.074 A 
ATOM     28  C   UNL     1       5.982   9.997  -2.337  1.00  0.00     0.029 A 
ATOM     29  N   UNL     1       3.899  10.755  -1.967  1.00  0.00    -0.354 N 
ATOM     30  N   UNL     1       4.082  10.862   2.721  1.00  0.00    -0.248 NA
ATOM     31  C   UNL     1       6.340  10.275   2.392  1.00  0.00     0.031 C 
ATOM     32  C   UNL     1       5.781  10.229  -0.965  1.00  0.00     0.029 A 
ATOM     33  C   UNL     1       4.519  10.793  -0.745  1.00  0.00     0.049 A 
ATOM     34  H   UNL     1       3.019  11.143  -2.176  1.00  0.00     0.167 HD
ATOM     35  C   UNL     1       4.550  11.394   1.550  1.00  0.00     0.074 A 
ATOM     36  C   UNL     1       5.997  11.314   1.628  1.00  0.00     0.031 C 
ATOM     37  C   UNL     1       3.787  11.209   0.433  1.00  0.00     0.037 A 
BRANCH  24  38
ATOM     38  C   UNL     1       3.272   9.947  -4.902  1.00  0.00     0.064 A 
ATOM     39  C   UNL     1       3.867  11.083  -5.485  1.00  0.00     0.173 A 
ATOM     40  C   UNL     1       1.916   9.729  -5.187  1.00  0.00     0.173 A 
ATOM     41  F   UNL     1       5.163  11.361  -5.268  1.00  0.00    -0.203 F 
ATOM     42  C   UNL     1       3.126  11.992  -6.228  1.00  0.00     0.198 A 
ATOM     43  C   UNL     1       1.191  10.611  -5.980  1.00  0.00     0.198 A 
ATOM     44  F   UNL     1       1.218   8.733  -4.630  1.00  0.00    -0.203 F 
ATOM     45  F   UNL     1       3.699  13.124  -6.657  1.00  0.00    -0.200 F 
ATOM     46  C   UNL     1       1.785  11.758  -6.470  1.00  0.00     0.200 A 
ATOM     47  F   UNL     1      -0.110  10.378  -6.200  1.00  0.00    -0.200 F 
ATOM     48  F   UNL     1       1.053  12.656  -7.140  1.00  0.00    -0.200 F 
ENDBRANCH  24  38
BRANCH  25  49
ATOM     49  C   UNL     1       5.390   9.071   5.292  1.00  0.00     0.064 A 
ATOM     50  C   UNL     1       5.308   8.175   6.364  1.00  0.00     0.173 A 
ATOM     51  C   UNL     1       6.235  10.202   5.564  1.00  0.00     0.173 A 
ATOM     52  F   UNL     1       4.517   7.097   6.287  1.00  0.00    -0.203 F 
ATOM     53  C   UNL     1       6.058   8.362   7.556  1.00  0.00     0.198 A 
ATOM     54  C   UNL     1       7.023  10.351   6.706  1.00  0.00     0.198 A 
ATOM     55  F   UNL     1       6.345  11.228   4.711  1.00  0.00    -0.203 F 
ATOM     56  F   UNL     1       5.943   7.486   8.565  1.00  0.00    -0.200 F 
ATOM     57  C   UNL     1       6.942   9.423   7.707  1.00  0.00     0.200 A 
ATOM     58  F   UNL     1       7.872  11.387   6.798  1.00  0.00    -0.200 F 
ATOM     59  F   UNL     1       7.703   9.553   8.804  1.00  0.00    -0.200 F 
ENDBRANCH  25  49
BRANCH  37  60
ATOM     60  C   UNL     1       2.296  11.035   0.740  1.00  0.00     0.064 A 
ATOM     61  C   UNL     1       1.634  11.960   1.576  1.00  0.00     0.173 A 
ATOM     62  C   UNL     1       1.548   9.897   0.398  1.00  0.00     0.173 A 
ATOM     63  F   UNL     1       2.243  13.107   1.917  1.00  0.00    -0.203 F 
ATOM     64  C   UNL     1       0.357  11.719   2.096  1.00  0.00     0.198 A 
ATOM     65  C   UNL     1       0.273   9.646   0.924  1.00  0.00     0.198 A 
ATOM     66  F   UNL     1       2.036   9.009  -0.469  1.00  0.00    -0.203 F 
ATOM     67  F   UNL     1      -0.217  12.621   2.905  1.00  0.00    -0.200 F 
ATOM     68  C   UNL     1      -0.318  10.553   1.784  1.00  0.00     0.200 A 
ATOM     69  F   UNL     1      -0.385   8.525   0.588  1.00  0.00    -0.200 F 
ATOM     70  F   UNL     1      -1.540  10.320   2.284  1.00  0.00    -0.200 F 
ENDBRANCH  37  60
ENDBRANCH  11  12
ENDBRANCH   4   6
ENDBRANCH   3   4
ENDBRANCH   2   3
ENDBRANCH   1   2
BRANCH   1  71
ATOM     71  O   UNL     1       3.094  -1.790  -2.388  1.00  0.00    -0.457 OA
BRANCH  71  72
ATOM     72  C   UNL     1       2.003  -1.533  -1.588  1.00  0.00     0.355 C 
ATOM     73  O   UNL     1       1.837  -2.029  -0.475  1.00  0.00    -0.244 OA
BRANCH  72  74
ATOM     74  C   UNL     1       1.212  -0.446  -2.164  1.00  0.00     0.128 A 
ATOM     75  C   UNL     1       1.160  -0.127  -3.527  1.00  0.00     0.035 A 
ATOM     76  N   UNL     1       0.739   0.698  -1.456  1.00  0.00    -0.333 N 
ATOM     77  C   UNL     1       0.463   1.085  -3.675  1.00  0.00     0.020 A 
ATOM     78  C   UNL     1       0.088   1.492  -2.403  1.00  0.00     0.087 A 
BRANCH  76  79
ATOM     79  C   UNL     1       0.790   0.922   0.059  1.00  0.00     0.222 C 
BRANCH  79  80
ATOM     80  C   UNL     1       1.472   2.148   0.914  1.00  0.00     0.242 C 
ATOM     81  O   UNL     1       0.807   3.187   1.064  1.00  0.00    -0.273 OA
BRANCH  80  82
ATOM     82  N   UNL     1       2.724   2.026   1.677  1.00  0.00    -0.341 N 
ATOM     83  C   UNL     1       3.870   1.754   0.893  1.00  0.00     0.120 C 
ATOM     84  C   UNL     1       3.107   2.982   2.770  1.00  0.00     0.123 C 
ATOM     85  C   UNL     1       5.111   1.253   1.600  1.00  0.00     0.025 C 
ATOM     86  C   UNL     1       4.605   2.936   3.359  1.00  0.00     0.012 C 
ATOM     87  C   UNL     1       5.714   2.338   2.484  1.00  0.00    -0.005 C 
ATOM     88  C   UNL     1       5.172   4.190   4.069  1.00  0.00     0.006 C 
ATOM     89  C   UNL     1       6.636   3.276   1.673  1.00  0.00     0.004 C 
ATOM     90  C   UNL     1       6.009   5.191   3.270  1.00  0.00     0.000 C 
ATOM     91  C   UNL     1       6.801   4.723   2.079  1.00  0.00     0.000 C 
ENDBRANCH  80  82
ENDBRANCH  79  80
ENDBRANCH  76  79
ENDBRANCH  72  74
ENDBRANCH  71  72
ENDBRANCH   1  71
TORSDOF 14
