REMARK SMILES O=C(OCCOC(=O)c1ccc(-c2c3nc(c(-c4c(F)c(F)c(F)c(F)c4F)c4ccc([nH]4)c(-c4c(F)c(F)c(F)c(F)c4F)c4nc(c(-c5c(F)c(F)c(F)c(F)c5F)c5ccc2[nH]5)C=C4)C=C3)cc1)c1ccc(NC(=O)[C@@H]2CC=CC[C@H]2C(=O)Nc2cccc([N+](=O)[O-])c2)cc1
REMARK SMILES IDX 3 1 2 2 1 3 72 4 73 5 98 6 74 7 97 8 75 9 76 10 77 11 78 13
REMARK SMILES IDX 79 14 80 15 84 16 81 17 83 18 82 19 85 20 86 21 87 22 88 24
REMARK SMILES IDX 89 25 96 26 90 27 92 28 91 29 93 30 94 31 95 32 4 33 5 34
REMARK SMILES IDX 6 35 7 36 8 37 9 38 10 39 71 40 11 41 70 42 12 43 13 44
REMARK SMILES IDX 14 45 64 46 15 47 69 48 63 49 65 50 16 51 68 52 62 53 61 54
REMARK SMILES IDX 17 56 49 57 29 58 48 59 30 60 33 61 47 62 66 63 31 64 32 65
REMARK SMILES IDX 46 67 67 68 34 69 18 70 19 71 27 72 20 73 21 74 25 75 28 76
REMARK SMILES IDX 22 77 23 78 26 79 24 80 50 81 51 82 59 83 52 84 53 85 57 86
REMARK SMILES IDX 60 87 54 88 55 89 58 90 56 91 35 92 36 93 44 94 37 95 38 96
REMARK SMILES IDX 42 97 45 98 39 99 40 100 43 101 41 102
REMARK H PARENT 76 12 87 23 65 55 33 66
REMARK Flexibility Score: inf
ROOT
ATOM      1  O   UNL     1      12.145  -3.169   1.532  1.00  0.00    -0.458 OA
ENDROOT
BRANCH   1   2
ATOM      2  C   UNL     1      11.085  -2.602   2.171  1.00  0.00     0.338 C 
ATOM      3  O   UNL     1      11.166  -2.313   3.362  1.00  0.00    -0.246 OA
BRANCH   2   4
ATOM      4  C   UNL     1       9.740  -2.553   1.517  1.00  0.00     0.060 A 
ATOM      5  C   UNL     1       9.552  -2.740   0.165  1.00  0.00     0.018 A 
ATOM      6  C   UNL     1       8.582  -2.413   2.300  1.00  0.00     0.018 A 
ATOM      7  C   UNL     1       8.296  -2.958  -0.367  1.00  0.00     0.027 A 
ATOM      8  C   UNL     1       7.297  -2.486   1.718  1.00  0.00     0.027 A 
ATOM      9  C   UNL     1       7.149  -2.773   0.361  1.00  0.00     0.041 A 
BRANCH   9  10
ATOM     10  N   UNL     1       5.876  -2.864  -0.213  1.00  0.00    -0.326 N 
ATOM     11  C   UNL     1       5.418  -2.926  -1.495  1.00  0.00     0.228 C 
ATOM     12  H   UNL     1       5.154  -2.890   0.455  1.00  0.00     0.169 HD
ATOM     13  O   UNL     1       4.194  -3.088  -1.617  1.00  0.00    -0.274 OA
BRANCH  11  14
ATOM     14  C   UNL     1       6.254  -2.840  -2.788  1.00  0.00     0.095 C 
ATOM     15  C   UNL     1       6.843  -4.219  -3.148  1.00  0.00     0.041 C 
ATOM     16  C   UNL     1       7.164  -1.599  -2.921  1.00  0.00     0.095 C 
ATOM     17  C   UNL     1       8.180  -4.234  -3.820  1.00  0.00    -0.030 C 
ATOM     18  C   UNL     1       8.472  -1.750  -3.736  1.00  0.00     0.041 C 
ATOM     19  C   UNL     1       8.904  -3.140  -4.073  1.00  0.00    -0.030 C 
BRANCH  16  20
ATOM     20  C   UNL     1       6.393  -0.314  -3.253  1.00  0.00     0.228 C 
ATOM     21  O   UNL     1       6.103   0.460  -2.332  1.00  0.00    -0.274 OA
ATOM     22  N   UNL     1       6.098   0.090  -4.524  1.00  0.00    -0.326 N 
ATOM     23  H   UNL     1       5.730   1.000  -4.598  1.00  0.00     0.169 HD
BRANCH  22  24
ATOM     24  C   UNL     1       6.240  -0.594  -5.732  1.00  0.00     0.048 A 
ATOM     25  C   UNL     1       6.985   0.005  -6.750  1.00  0.00     0.026 A 
ATOM     26  C   UNL     1       5.676  -1.848  -5.938  1.00  0.00     0.111 A 
ATOM     27  C   UNL     1       7.284  -0.714  -7.910  1.00  0.00     0.009 A 
ATOM     28  C   UNL     1       6.000  -2.578  -7.083  1.00  0.00     0.271 A 
ATOM     29  C   UNL     1       6.816  -2.020  -8.070  1.00  0.00     0.086 A 
BRANCH  28  30
ATOM     30  N   UNL     1       5.507  -3.954  -7.218  1.00  0.00     0.062 N 
ATOM     31  O   UNL     1       5.861  -4.595  -8.217  1.00  0.00    -0.258 OA
ATOM     32  O   UNL     1       4.789  -4.401  -6.313  1.00  0.00    -0.258 OA
ENDBRANCH  28  30
ENDBRANCH  22  24
ENDBRANCH  16  20
ENDBRANCH  11  14
ENDBRANCH   9  10
ENDBRANCH   2   4
ENDBRANCH   1   2
BRANCH   1  33
ATOM     33  C   UNL     1      12.587  -2.893   0.183  1.00  0.00     0.275 C 
BRANCH  33  34
ATOM     34  C   UNL     1      12.528  -4.145  -0.727  1.00  0.00     0.275 C 
BRANCH  34  35
ATOM     35  O   UNL     1      11.270  -4.854  -0.657  1.00  0.00    -0.458 OA
BRANCH  35  36
ATOM     36  C   UNL     1      11.171  -5.793   0.321  1.00  0.00     0.338 C 
ATOM     37  O   UNL     1      12.090  -6.212   1.005  1.00  0.00    -0.246 OA
BRANCH  36  38
ATOM     38  C   UNL     1       9.746  -6.140   0.574  1.00  0.00     0.060 A 
ATOM     39  C   UNL     1       9.331  -6.297   1.903  1.00  0.00     0.016 A 
ATOM     40  C   UNL     1       8.812  -6.300  -0.452  1.00  0.00     0.016 A 
ATOM     41  C   UNL     1       8.000  -6.626   2.207  1.00  0.00     0.010 A 
ATOM     42  C   UNL     1       7.474  -6.604  -0.141  1.00  0.00     0.010 A 
ATOM     43  C   UNL     1       7.051  -6.793   1.189  1.00  0.00    -0.014 A 
BRANCH  43  44
ATOM     44  C   UNL     1       5.658  -7.263   1.482  1.00  0.00     0.031 A 
ATOM     45  C   UNL     1       5.207  -8.615   0.986  1.00  0.00     0.074 A 
ATOM     46  C   UNL     1       4.766  -6.507   2.154  1.00  0.00     0.049 A 
ATOM     47  N   UNL     1       4.035  -9.195   1.092  1.00  0.00    -0.248 NA
ATOM     48  C   UNL     1       6.207  -9.417   0.266  1.00  0.00     0.031 C 
ATOM     49  C   UNL     1       5.026  -5.185   2.711  1.00  0.00     0.029 A 
ATOM     50  N   UNL     1       3.442  -6.737   2.463  1.00  0.00    -0.354 N 
ATOM     51  C   UNL     1       4.157 -10.417   0.445  1.00  0.00     0.074 A 
ATOM     52  C   UNL     1       5.494 -10.468  -0.106  1.00  0.00     0.031 C 
ATOM     53  C   UNL     1       3.896  -4.699   3.252  1.00  0.00     0.029 A 
ATOM     54  C   UNL     1       2.824  -5.680   3.088  1.00  0.00     0.049 A 
ATOM     55  H   UNL     1       2.981  -7.582   2.254  1.00  0.00     0.167 HD
ATOM     56  C   UNL     1       3.259 -11.427   0.345  1.00  0.00     0.037 A 
ATOM     57  C   UNL     1       1.544  -5.511   3.484  1.00  0.00     0.037 A 
ATOM     58  C   UNL     1       1.938 -11.418   0.914  1.00  0.00     0.049 A 
ATOM     59  C   UNL     1       0.543  -6.628   3.324  1.00  0.00     0.074 A 
ATOM     60  C   UNL     1       1.006 -12.441   0.939  1.00  0.00     0.029 A 
ATOM     61  N   UNL     1       1.356 -10.331   1.545  1.00  0.00    -0.354 N 
ATOM     62  N   UNL     1       0.709  -7.821   2.811  1.00  0.00    -0.248 NA
ATOM     63  C   UNL     1      -0.821  -6.381   3.823  1.00  0.00     0.031 C 
ATOM     64  C   UNL     1      -0.161 -11.957   1.539  1.00  0.00     0.029 A 
ATOM     65  C   UNL     1       0.063 -10.648   1.933  1.00  0.00     0.049 A 
ATOM     66  H   UNL     1       1.795  -9.463   1.696  1.00  0.00     0.167 HD
ATOM     67  C   UNL     1      -0.507  -8.478   2.963  1.00  0.00     0.074 A 
ATOM     68  C   UNL     1      -1.407  -7.553   3.615  1.00  0.00     0.031 C 
ATOM     69  C   UNL     1      -0.834  -9.742   2.602  1.00  0.00     0.037 A 
BRANCH  56  70
ATOM     70  C   UNL     1       3.688 -12.647  -0.414  1.00  0.00     0.064 A 
ATOM     71  C   UNL     1       4.660 -13.523   0.094  1.00  0.00     0.173 A 
ATOM     72  C   UNL     1       3.114 -12.950  -1.657  1.00  0.00     0.173 A 
ATOM     73  F   UNL     1       5.245 -13.271   1.276  1.00  0.00    -0.203 F 
ATOM     74  C   UNL     1       5.074 -14.633  -0.636  1.00  0.00     0.198 A 
ATOM     75  C   UNL     1       3.507 -14.079  -2.369  1.00  0.00     0.198 A 
ATOM     76  F   UNL     1       2.171 -12.152  -2.180  1.00  0.00    -0.203 F 
ATOM     77  F   UNL     1       6.049 -15.419  -0.160  1.00  0.00    -0.200 F 
ATOM     78  C   UNL     1       4.495 -14.912  -1.864  1.00  0.00     0.200 A 
ATOM     79  F   UNL     1       2.937 -14.357  -3.550  1.00  0.00    -0.200 F 
ATOM     80  F   UNL     1       4.896 -15.979  -2.568  1.00  0.00    -0.200 F 
ENDBRANCH  56  70
BRANCH  57  81
ATOM     81  C   UNL     1       1.124  -4.223   4.098  1.00  0.00     0.064 A 
ATOM     82  C   UNL     1       0.825  -4.136   5.465  1.00  0.00     0.173 A 
ATOM     83  C   UNL     1       0.980  -3.064   3.322  1.00  0.00     0.173 A 
ATOM     84  F   UNL     1       0.921  -5.224   6.242  1.00  0.00    -0.203 F 
ATOM     85  C   UNL     1       0.378  -2.942   6.028  1.00  0.00     0.198 A 
ATOM     86  C   UNL     1       0.554  -1.866   3.891  1.00  0.00     0.198 A 
ATOM     87  F   UNL     1       1.254  -3.097   2.010  1.00  0.00    -0.203 F 
ATOM     88  F   UNL     1       0.055  -2.896   7.328  1.00  0.00    -0.200 F 
ATOM     89  C   UNL     1       0.246  -1.807   5.242  1.00  0.00     0.200 A 
ATOM     90  F   UNL     1       0.435  -0.769   3.130  1.00  0.00    -0.200 F 
ATOM     91  F   UNL     1      -0.186  -0.660   5.784  1.00  0.00    -0.200 F 
ENDBRANCH  57  81
BRANCH  69  92
ATOM     92  C   UNL     1      -2.210 -10.244   2.938  1.00  0.00     0.064 A 
ATOM     93  C   UNL     1      -3.346  -9.814   2.239  1.00  0.00     0.173 A 
ATOM     94  C   UNL     1      -2.380 -11.236   3.918  1.00  0.00     0.173 A 
ATOM     95  F   UNL     1      -3.242  -8.858   1.304  1.00  0.00    -0.203 F 
ATOM     96  C   UNL     1      -4.602 -10.354   2.511  1.00  0.00     0.198 A 
ATOM     97  C   UNL     1      -3.632 -11.792   4.169  1.00  0.00     0.198 A 
ATOM     98  F   UNL     1      -1.325 -11.687   4.613  1.00  0.00    -0.203 F 
ATOM     99  F   UNL     1      -5.679  -9.909   1.848  1.00  0.00    -0.200 F 
ATOM    100  C   UNL     1      -4.742 -11.349   3.467  1.00  0.00     0.200 A 
ATOM    101  F   UNL     1      -3.761 -12.764   5.083  1.00  0.00    -0.200 F 
ATOM    102  F   UNL     1      -5.947 -11.882   3.711  1.00  0.00    -0.200 F 
ENDBRANCH  69  92
ENDBRANCH  43  44
ENDBRANCH  36  38
ENDBRANCH  35  36
ENDBRANCH  34  35
ENDBRANCH  33  34
ENDBRANCH   1  33
TORSDOF 16
