REMARK SMILES O=C(CCCc1nc(-c2ccc(Cl)c(Cl)c2)c(-c2ccccc2)o1)OCCOC(=O)c1ccc(-c2c3nc(c(-c4c(F)c(F)c(F)c(F)c4F)c4ccc([nH]4)c(-c4c(F)c(F)c(F)c(F)c4F)c4nc(c(-c5c(F)c(F)c(F)c(F)c5F)c5ccc2[nH]5)C=C4)C=C3)cc1
REMARK SMILES IDX 26 1 25 2 2 3 1 4 3 5 4 6 5 7 6 8 7 9 24 10 8 11 17 12 9 13
REMARK SMILES IDX 10 14 16 15 11 16 14 17 12 18 15 19 13 20 18 21 19 22 23 23
REMARK SMILES IDX 20 24 22 25 21 26 27 27 28 28 29 29 30 30 31 31 32 32 93 33
REMARK SMILES IDX 33 34 92 35 34 36 35 37 36 38 86 39 37 40 91 41 85 42 87 43
REMARK SMILES IDX 38 44 90 45 84 46 83 47 39 49 71 50 51 51 70 52 52 53 55 54
REMARK SMILES IDX 69 55 88 56 53 57 54 58 68 60 89 61 56 62 40 63 41 64 49 65
REMARK SMILES IDX 42 66 43 67 47 68 50 69 44 70 45 71 48 72 46 73 72 74 73 75
REMARK SMILES IDX 81 76 74 77 75 78 79 79 82 80 76 81 77 82 80 83 78 84 57 85
REMARK SMILES IDX 58 86 66 87 59 88 60 89 64 90 67 91 61 92 62 93 65 94 63 95
REMARK H PARENT 87 48 55 59
REMARK Flexibility Score: inf
ROOT
ATOM      1  C   UNL     1       3.649   1.294   0.831  1.00  0.00     0.274 C 
ENDROOT
BRANCH   1   2
ATOM      2  O   UNL     1       2.518   0.875   0.045  1.00  0.00    -0.462 OA
BRANCH   2   3
ATOM      3  C   UNL     1       2.618  -0.045  -0.945  1.00  0.00     0.305 C 
ATOM      4  O   UNL     1       1.885   0.014  -1.929  1.00  0.00    -0.252 OA
BRANCH   3   5
ATOM      5  C   UNL     1       3.566  -1.210  -0.755  1.00  0.00     0.123 C 
BRANCH   5   6
ATOM      6  C   UNL     1       4.628  -1.339  -1.848  1.00  0.00     0.021 C 
BRANCH   6   7
ATOM      7  C   UNL     1       5.843  -0.420  -1.684  1.00  0.00     0.098 C 
BRANCH   7   8
ATOM      8  C   UNL     1       6.558  -0.596  -0.386  1.00  0.00     0.195 A 
ATOM      9  N   UNL     1       6.776  -1.695   0.311  1.00  0.00    -0.213 NA
ATOM     10  O   UNL     1       6.993   0.558   0.219  1.00  0.00    -0.440 OA
ATOM     11  C   UNL     1       7.386  -1.238   1.456  1.00  0.00     0.117 A 
ATOM     12  C   UNL     1       7.542   0.133   1.397  1.00  0.00     0.162 A 
BRANCH  11  13
ATOM     13  C   UNL     1       7.842  -2.080   2.540  1.00  0.00     0.006 A 
ATOM     14  C   UNL     1       8.725  -3.131   2.275  1.00  0.00     0.012 A 
ATOM     15  C   UNL     1       7.476  -1.804   3.865  1.00  0.00     0.032 A 
ATOM     16  C   UNL     1       9.279  -3.864   3.327  1.00  0.00     0.023 A 
ATOM     17  C   UNL     1       8.026  -2.542   4.919  1.00  0.00     0.060 A 
ATOM     18  C   UNL     1       8.940  -3.565   4.650  1.00  0.00     0.059 A 
ATOM     19  Cl  UNL     1       7.550  -2.120   6.526  1.00  0.00    -0.083 Cl
ATOM     20  Cl  UNL     1       9.697  -4.483   5.902  1.00  0.00    -0.083 Cl
ENDBRANCH  11  13
BRANCH  12  21
ATOM     21  C   UNL     1       8.161   1.135   2.246  1.00  0.00     0.020 A 
ATOM     22  C   UNL     1       7.432   2.229   2.725  1.00  0.00     0.012 A 
ATOM     23  C   UNL     1       9.490   0.970   2.660  1.00  0.00     0.012 A 
ATOM     24  C   UNL     1       8.010   3.119   3.634  1.00  0.00     0.001 A 
ATOM     25  C   UNL     1      10.072   1.869   3.555  1.00  0.00     0.001 A 
ATOM     26  C   UNL     1       9.328   2.937   4.050  1.00  0.00     0.000 A 
ENDBRANCH  12  21
ENDBRANCH   7   8
ENDBRANCH   6   7
ENDBRANCH   5   6
ENDBRANCH   3   5
ENDBRANCH   2   3
ENDBRANCH   1   2
BRANCH   1  27
ATOM     27  C   UNL     1       3.550   0.873   2.297  1.00  0.00     0.275 C 
BRANCH  27  28
ATOM     28  O   UNL     1       3.367  -0.545   2.407  1.00  0.00    -0.458 OA
BRANCH  28  29
ATOM     29  C   UNL     1       2.071  -0.926   2.521  1.00  0.00     0.338 C 
ATOM     30  O   UNL     1       1.115  -0.199   2.720  1.00  0.00    -0.246 OA
BRANCH  29  31
ATOM     31  C   UNL     1       1.934  -2.367   2.216  1.00  0.00     0.060 A 
ATOM     32  C   UNL     1       0.747  -2.771   1.596  1.00  0.00     0.016 A 
ATOM     33  C   UNL     1       2.918  -3.309   2.537  1.00  0.00     0.016 A 
ATOM     34  C   UNL     1       0.508  -4.122   1.357  1.00  0.00     0.010 A 
ATOM     35  C   UNL     1       2.679  -4.666   2.293  1.00  0.00     0.010 A 
ATOM     36  C   UNL     1       1.454  -5.080   1.742  1.00  0.00    -0.014 A 
BRANCH  36  37
ATOM     37  C   UNL     1       1.074  -6.511   1.703  1.00  0.00     0.031 A 
ATOM     38  C   UNL     1       0.566  -7.161   2.959  1.00  0.00     0.074 A 
ATOM     39  C   UNL     1       1.110  -7.203   0.551  1.00  0.00     0.049 A 
ATOM     40  N   UNL     1       0.086  -8.366   3.137  1.00  0.00    -0.248 NA
ATOM     41  C   UNL     1       0.598  -6.340   4.180  1.00  0.00     0.031 C 
ATOM     42  C   UNL     1       1.561  -6.679  -0.735  1.00  0.00     0.029 A 
ATOM     43  N   UNL     1       0.747  -8.499   0.281  1.00  0.00    -0.354 N 
ATOM     44  C   UNL     1      -0.255  -8.440   4.480  1.00  0.00     0.074 A 
ATOM     45  C   UNL     1       0.115  -7.178   5.084  1.00  0.00     0.031 C 
ATOM     46  C   UNL     1       1.447  -7.645  -1.663  1.00  0.00     0.029 A 
ATOM     47  C   UNL     1       0.926  -8.857  -1.031  1.00  0.00     0.049 A 
ATOM     48  H   UNL     1       0.393  -9.113   0.964  1.00  0.00     0.167 HD
ATOM     49  C   UNL     1      -0.844  -9.461   5.147  1.00  0.00     0.037 A 
ATOM     50  C   UNL     1       0.694 -10.032  -1.649  1.00  0.00     0.037 A 
ATOM     51  C   UNL     1      -1.205 -10.719   4.552  1.00  0.00     0.049 A 
ATOM     52  C   UNL     1       0.106 -11.178  -0.867  1.00  0.00     0.074 A 
ATOM     53  C   UNL     1      -1.829 -11.805   5.139  1.00  0.00     0.029 A 
ATOM     54  N   UNL     1      -0.963 -11.062   3.230  1.00  0.00    -0.354 N 
ATOM     55  N   UNL     1      -0.270 -11.219   0.388  1.00  0.00    -0.248 NA
ATOM     56  C   UNL     1      -0.098 -12.439  -1.594  1.00  0.00     0.031 C 
ATOM     57  C   UNL     1      -1.919 -12.825   4.186  1.00  0.00     0.029 A 
ATOM     58  C   UNL     1      -1.395 -12.356   2.992  1.00  0.00     0.049 A 
ATOM     59  H   UNL     1      -0.545 -10.473   2.561  1.00  0.00     0.167 HD
ATOM     60  C   UNL     1      -0.778 -12.495   0.594  1.00  0.00     0.074 A 
ATOM     61  C   UNL     1      -0.674 -13.195  -0.669  1.00  0.00     0.031 C 
ATOM     62  C   UNL     1      -1.287 -13.038   1.727  1.00  0.00     0.037 A 
BRANCH  49  63
ATOM     63  C   UNL     1      -1.120  -9.259   6.607  1.00  0.00     0.064 A 
ATOM     64  C   UNL     1      -2.143  -8.406   7.048  1.00  0.00     0.173 A 
ATOM     65  C   UNL     1      -0.370  -9.943   7.574  1.00  0.00     0.173 A 
ATOM     66  F   UNL     1      -2.878  -7.718   6.161  1.00  0.00    -0.203 F 
ATOM     67  C   UNL     1      -2.389  -8.227   8.406  1.00  0.00     0.198 A 
ATOM     68  C   UNL     1      -0.635  -9.781   8.931  1.00  0.00     0.198 A 
ATOM     69  F   UNL     1       0.618 -10.771   7.203  1.00  0.00    -0.203 F 
ATOM     70  F   UNL     1      -3.343  -7.375   8.807  1.00  0.00    -0.200 F 
ATOM     71  C   UNL     1      -1.640  -8.919   9.346  1.00  0.00     0.200 A 
ATOM     72  F   UNL     1       0.084 -10.456   9.838  1.00  0.00    -0.200 F 
ATOM     73  F   UNL     1      -1.880  -8.749  10.654  1.00  0.00    -0.200 F 
ENDBRANCH  49  63
BRANCH  50  74
ATOM     74  C   UNL     1       1.012 -10.185  -3.091  1.00  0.00     0.064 A 
ATOM     75  C   UNL     1      -0.004 -10.322  -4.047  1.00  0.00     0.173 A 
ATOM     76  C   UNL     1       2.340 -10.222  -3.540  1.00  0.00     0.173 A 
ATOM     77  F   UNL     1      -1.289 -10.320  -3.662  1.00  0.00    -0.203 F 
ATOM     78  C   UNL     1       0.297 -10.507  -5.395  1.00  0.00     0.198 A 
ATOM     79  C   UNL     1       2.640 -10.382  -4.891  1.00  0.00     0.198 A 
ATOM     80  F   UNL     1       3.348 -10.100  -2.664  1.00  0.00    -0.203 F 
ATOM     81  F   UNL     1      -0.692 -10.681  -6.282  1.00  0.00    -0.200 F 
ATOM     82  C   UNL     1       1.618 -10.532  -5.816  1.00  0.00     0.200 A 
ATOM     83  F   UNL     1       3.917 -10.399  -5.294  1.00  0.00    -0.200 F 
ATOM     84  F   UNL     1       1.907 -10.712  -7.112  1.00  0.00    -0.200 F 
ENDBRANCH  50  74
BRANCH  62  85
ATOM     85  C   UNL     1      -1.793 -14.449   1.651  1.00  0.00     0.064 A 
ATOM     86  C   UNL     1      -0.916 -15.539   1.560  1.00  0.00     0.173 A 
ATOM     87  C   UNL     1      -3.169 -14.716   1.720  1.00  0.00     0.173 A 
ATOM     88  F   UNL     1       0.407 -15.335   1.477  1.00  0.00    -0.203 F 
ATOM     89  C   UNL     1      -1.399 -16.844   1.519  1.00  0.00     0.198 A 
ATOM     90  C   UNL     1      -3.647 -16.023   1.707  1.00  0.00     0.198 A 
ATOM     91  F   UNL     1      -4.050 -13.709   1.816  1.00  0.00    -0.203 F 
ATOM     92  F   UNL     1      -0.544 -17.869   1.390  1.00  0.00    -0.200 F 
ATOM     93  C   UNL     1      -2.762 -17.086   1.601  1.00  0.00     0.200 A 
ATOM     94  F   UNL     1      -4.964 -16.256   1.799  1.00  0.00    -0.200 F 
ATOM     95  F   UNL     1      -3.224 -18.343   1.570  1.00  0.00    -0.200 F 
ENDBRANCH  62  85
ENDBRANCH  36  37
ENDBRANCH  29  31
ENDBRANCH  28  29
ENDBRANCH  27  28
ENDBRANCH   1  27
TORSDOF 16
