REMARK SMILES C/C(=N\NC(N)=S)c1nnn(-c2ccc(C(=O)OCCOC(=O)c3ccc(-c4c5nc(c(-c6c(F)c(F)c(F)c(F)c6F)c6ccc([nH]6)c(-c6c(F)c(F)c(F)c(F)c6F)c6nc(c(-c7c(F)c(F)c(F)c(F)c7F)c7ccc4[nH]7)C=C6)C=C5)cc3)cc2)c1C
REMARK SMILES IDX 18 1 16 2 17 3 15 4 12 5 13 6 88 7 14 8 87 9 11 10 8 11 9 12
REMARK SMILES IDX 89 13 10 14 90 15 2 16 1 17 3 18 4 19 5 21 7 22 6 23 19 26
REMARK SMILES IDX 20 27 21 28 22 29 23 30 24 31 25 32 86 33 26 34 85 35 27 36
REMARK SMILES IDX 28 37 29 38 79 39 30 40 84 41 78 42 80 43 31 44 83 45 77 46
REMARK SMILES IDX 76 47 32 49 64 50 44 51 63 52 45 53 48 54 62 55 81 56 46 57
REMARK SMILES IDX 47 58 61 60 82 61 49 62 33 63 34 64 42 65 35 66 36 67 40 68
REMARK SMILES IDX 43 69 37 70 38 71 41 72 39 73 65 74 66 75 74 76 67 77 68 78
REMARK SMILES IDX 72 79 75 80 69 81 70 82 73 83 71 84 50 85 51 86 59 87 52 88
REMARK SMILES IDX 53 89 57 90 60 91 54 92 55 93 58 94 56 95
REMARK H PARENT 4 20 6 24 6 25 80 48 48 59
REMARK Flexibility Score: inf
ROOT
ATOM      1  O   UNL     1       8.110  -2.823  -5.781  1.00  0.00    -0.458 OA
ENDROOT
BRANCH   1   2
ATOM      2  C   UNL     1       7.137  -2.015  -6.271  1.00  0.00     0.338 C 
ATOM      3  O   UNL     1       7.262  -1.185  -7.162  1.00  0.00    -0.246 OA
BRANCH   2   4
ATOM      4  C   UNL     1       5.844  -2.319  -5.612  1.00  0.00     0.060 A 
ATOM      5  C   UNL     1       3.435  -2.587  -4.268  1.00  0.00     0.067 A 
ATOM      6  C   UNL     1       3.433  -2.017  -5.544  1.00  0.00     0.029 A 
ATOM      7  C   UNL     1       4.595  -3.150  -3.727  1.00  0.00     0.029 A 
ATOM      8  C   UNL     1       4.654  -1.863  -6.205  1.00  0.00     0.018 A 
ATOM      9  C   UNL     1       5.800  -3.022  -4.402  1.00  0.00     0.018 A 
BRANCH   5  10
ATOM     10  N   UNL     1       2.324  -2.403  -3.425  1.00  0.00    -0.217 N 
ATOM     11  C   UNL     1       1.013  -1.751  -1.818  1.00  0.00     0.132 A 
ATOM     12  N   UNL     1       0.249  -2.296  -2.818  1.00  0.00    -0.128 NA
ATOM     13  C   UNL     1       2.339  -1.764  -2.196  1.00  0.00     0.071 A 
ATOM     14  N   UNL     1       1.052  -2.608  -3.829  1.00  0.00    -0.061 NA
ATOM     15  C   UNL     1       3.527  -1.104  -1.600  1.00  0.00     0.069 C 
BRANCH  11  16
ATOM     16  C   UNL     1       0.440  -1.071  -0.672  1.00  0.00     0.087 C 
ATOM     17  C   UNL     1       0.337   0.428  -0.775  1.00  0.00     0.071 C 
ATOM     18  N   UNL     1       0.066  -1.839   0.309  1.00  0.00    -0.176 NA
BRANCH  18  19
ATOM     19  N   UNL     1      -0.529  -1.328   1.426  1.00  0.00    -0.254 N 
ATOM     20  H   UNL     1      -1.472  -1.574   1.563  1.00  0.00     0.193 HD
BRANCH  19  21
ATOM     21  C   UNL     1       0.030  -0.509   2.387  1.00  0.00     0.184 C 
ATOM     22  S   UNL     1       1.532   0.202   2.433  1.00  0.00    -0.040 S 
BRANCH  21  23
ATOM     23  N   UNL     1      -0.828  -0.283   3.430  1.00  0.00    -0.375 N 
ATOM     24  H   UNL     1      -1.723  -0.692   3.429  1.00  0.00     0.159 HD
ATOM     25  H   UNL     1      -0.548   0.288   4.182  1.00  0.00     0.159 HD
ENDBRANCH  21  23
ENDBRANCH  19  21
ENDBRANCH  18  19
ENDBRANCH  11  16
ENDBRANCH   5  10
ENDBRANCH   2   4
ENDBRANCH   1   2
BRANCH   1  26
ATOM     26  C   UNL     1       9.348  -2.832  -6.503  1.00  0.00     0.275 C 
BRANCH  26  27
ATOM     27  C   UNL     1       9.322  -3.874  -7.612  1.00  0.00     0.275 C 
BRANCH  27  28
ATOM     28  O   UNL     1       8.463  -3.494  -8.687  1.00  0.00    -0.458 OA
BRANCH  28  29
ATOM     29  C   UNL     1       7.211  -4.000  -8.619  1.00  0.00     0.338 C 
ATOM     30  O   UNL     1       6.642  -4.456  -7.643  1.00  0.00    -0.246 OA
BRANCH  29  31
ATOM     31  C   UNL     1       6.685  -4.159  -9.976  1.00  0.00     0.060 A 
ATOM     32  C   UNL     1       5.320  -4.423 -10.121  1.00  0.00     0.016 A 
ATOM     33  C   UNL     1       7.585  -4.313 -11.040  1.00  0.00     0.016 A 
ATOM     34  C   UNL     1       4.876  -4.960 -11.312  1.00  0.00     0.010 A 
ATOM     35  C   UNL     1       7.144  -4.863 -12.220  1.00  0.00     0.010 A 
ATOM     36  C   UNL     1       5.805  -5.231 -12.327  1.00  0.00    -0.014 A 
BRANCH  36  37
ATOM     37  C   UNL     1       5.309  -5.747 -13.589  1.00  0.00     0.031 A 
ATOM     38  C   UNL     1       4.498  -4.750 -14.333  1.00  0.00     0.074 A 
ATOM     39  C   UNL     1       5.674  -6.944 -14.087  1.00  0.00     0.049 A 
ATOM     40  N   UNL     1       3.267  -4.854 -14.707  1.00  0.00    -0.248 NA
ATOM     41  C   UNL     1       5.082  -3.415 -14.557  1.00  0.00     0.031 C 
ATOM     42  C   UNL     1       6.691  -7.862 -13.570  1.00  0.00     0.029 A 
ATOM     43  N   UNL     1       5.280  -7.549 -15.242  1.00  0.00    -0.354 N 
ATOM     44  C   UNL     1       2.972  -3.667 -15.373  1.00  0.00     0.074 A 
ATOM     45  C   UNL     1       4.057  -2.764 -15.105  1.00  0.00     0.031 C 
ATOM     46  C   UNL     1       6.992  -8.775 -14.522  1.00  0.00     0.029 A 
ATOM     47  C   UNL     1       6.111  -8.581 -15.661  1.00  0.00     0.049 A 
ATOM     48  H   UNL     1       4.474  -7.278 -15.738  1.00  0.00     0.167 HD
ATOM     49  C   UNL     1       1.979  -3.625 -16.301  1.00  0.00     0.037 A 
ATOM     50  C   UNL     1       6.114  -9.168 -16.886  1.00  0.00     0.037 A 
ATOM     51  C   UNL     1       1.044  -4.703 -16.096  1.00  0.00     0.049 A 
ATOM     52  C   UNL     1       4.822  -8.841 -17.543  1.00  0.00     0.074 A 
ATOM     53  C   UNL     1       0.228  -5.089 -15.049  1.00  0.00     0.029 A 
ATOM     54  N   UNL     1       1.125  -5.795 -16.924  1.00  0.00    -0.354 N 
ATOM     55  N   UNL     1       3.671  -9.322 -17.168  1.00  0.00    -0.248 NA
ATOM     56  C   UNL     1       4.762  -7.623 -18.338  1.00  0.00     0.031 C 
ATOM     57  C   UNL     1       0.265  -6.514 -15.055  1.00  0.00     0.029 A 
ATOM     58  C   UNL     1       1.039  -6.916 -16.143  1.00  0.00     0.049 A 
ATOM     59  H   UNL     1       1.228  -5.775 -17.903  1.00  0.00     0.167 HD
ATOM     60  C   UNL     1       2.797  -8.252 -17.277  1.00  0.00     0.074 A 
ATOM     61  C   UNL     1       3.501  -7.262 -18.087  1.00  0.00     0.031 C 
ATOM     62  C   UNL     1       1.710  -8.153 -16.458  1.00  0.00     0.037 A 
BRANCH  49  63
ATOM     63  C   UNL     1       2.098  -2.892 -17.619  1.00  0.00     0.064 A 
ATOM     64  C   UNL     1       1.006  -2.932 -18.510  1.00  0.00     0.173 A 
ATOM     65  C   UNL     1       3.317  -2.447 -18.178  1.00  0.00     0.173 A 
ATOM     66  F   UNL     1      -0.203  -3.336 -18.094  1.00  0.00    -0.203 F 
ATOM     67  C   UNL     1       1.155  -2.668 -19.874  1.00  0.00     0.198 A 
ATOM     68  C   UNL     1       3.449  -2.135 -19.530  1.00  0.00     0.198 A 
ATOM     69  F   UNL     1       4.457  -2.398 -17.482  1.00  0.00    -0.203 F 
ATOM     70  F   UNL     1       0.123  -2.868 -20.704  1.00  0.00    -0.200 F 
ATOM     71  C   UNL     1       2.380  -2.284 -20.385  1.00  0.00     0.200 A 
ATOM     72  F   UNL     1       4.649  -1.775 -20.007  1.00  0.00    -0.200 F 
ATOM     73  F   UNL     1       2.544  -2.104 -21.701  1.00  0.00    -0.200 F 
ENDBRANCH  49  63
BRANCH  50  74
ATOM     74  C   UNL     1       7.253  -9.727 -17.655  1.00  0.00     0.064 A 
ATOM     75  C   UNL     1       7.035 -10.537 -18.784  1.00  0.00     0.173 A 
ATOM     76  C   UNL     1       8.566  -9.248 -17.479  1.00  0.00     0.173 A 
ATOM     77  F   UNL     1       5.806 -11.002 -19.054  1.00  0.00    -0.203 F 
ATOM     78  C   UNL     1       8.057 -10.821 -19.697  1.00  0.00     0.198 A 
ATOM     79  C   UNL     1       9.587  -9.538 -18.386  1.00  0.00     0.198 A 
ATOM     80  F   UNL     1       8.863  -8.405 -16.481  1.00  0.00    -0.203 F 
ATOM     81  F   UNL     1       7.792 -11.538 -20.798  1.00  0.00    -0.200 F 
ATOM     82  C   UNL     1       9.330 -10.311 -19.503  1.00  0.00     0.200 A 
ATOM     83  F   UNL     1      10.805  -9.009 -18.205  1.00  0.00    -0.200 F 
ATOM     84  F   UNL     1      10.293 -10.526 -20.409  1.00  0.00    -0.200 F 
ENDBRANCH  50  74
BRANCH  62  85
ATOM     85  C   UNL     1       1.315  -9.362 -15.660  1.00  0.00     0.064 A 
ATOM     86  C   UNL     1       2.132  -9.985 -14.699  1.00  0.00     0.173 A 
ATOM     87  C   UNL     1      -0.001  -9.828 -15.787  1.00  0.00     0.173 A 
ATOM     88  F   UNL     1       3.367  -9.535 -14.442  1.00  0.00    -0.203 F 
ATOM     89  C   UNL     1       1.662 -11.056 -13.941  1.00  0.00     0.198 A 
ATOM     90  C   UNL     1      -0.479 -10.869 -15.000  1.00  0.00     0.198 A 
ATOM     91  F   UNL     1      -0.841  -9.238 -16.652  1.00  0.00    -0.203 F 
ATOM     92  F   UNL     1       2.465 -11.650 -13.045  1.00  0.00    -0.200 F 
ATOM     93  C   UNL     1       0.355 -11.492 -14.087  1.00  0.00     0.200 A 
ATOM     94  F   UNL     1      -1.759 -11.252 -15.110  1.00  0.00    -0.200 F 
ATOM     95  F   UNL     1      -0.109 -12.496 -13.330  1.00  0.00    -0.200 F 
ENDBRANCH  62  85
ENDBRANCH  36  37
ENDBRANCH  29  31
ENDBRANCH  28  29
ENDBRANCH  27  28
ENDBRANCH  26  27
ENDBRANCH   1  26
TORSDOF 16
