REMARK SMILES CCOC(=O)C1=NN(c2cc(F)cc(F)c2)[C@@H](C(=O)OCCOC(=O)c2ccc(-c3c4nc(c(-c5c(F)c(F)c(F)c(F)c5F)c5ccc([nH]5)c(-c5c(F)c(F)c(F)c(F)c5F)c5nc(c(-c6c(F)c(F)c(F)c(F)c6F)c6ccc3[nH]6)C=C5)C=C4)cc2)C1
REMARK SMILES IDX 21 1 20 2 18 3 19 4 17 5 6 6 7 7 89 8 8 9 4 10 5 11 3 12
REMARK SMILES IDX 2 13 1 14 9 15 10 16 16 17 11 18 14 19 12 20 13 21 15 22
REMARK SMILES IDX 22 23 23 24 24 25 25 26 26 27 27 28 88 29 28 30 87 31 29 32
REMARK SMILES IDX 30 33 31 34 81 35 32 36 86 37 80 38 82 39 33 40 85 41 79 42
REMARK SMILES IDX 78 43 34 45 66 46 46 47 65 48 47 49 50 50 64 51 83 52 48 53
REMARK SMILES IDX 49 54 63 56 84 57 51 58 35 59 36 60 44 61 37 62 38 63 42 64
REMARK SMILES IDX 45 65 39 66 40 67 43 68 41 69 67 70 68 71 76 72 69 73 70 74
REMARK SMILES IDX 74 75 77 76 71 77 72 78 75 79 73 80 52 81 53 82 61 83 54 84
REMARK SMILES IDX 55 85 59 86 62 87 56 88 57 89 60 90 58 91
REMARK H PARENT 82 44 50 55
REMARK Flexibility Score: inf
ROOT
ATOM      1  C   UNL     1       1.276   7.162  -5.574  1.00  0.00     0.274 C 
ENDROOT
BRANCH   1   2
ATOM      2  O   UNL     1       1.920   6.682  -4.370  1.00  0.00    -0.460 OA
BRANCH   2   3
ATOM      3  C   UNL     1       2.461   5.426  -4.426  1.00  0.00     0.331 C 
ATOM      4  O   UNL     1       2.404   4.699  -5.410  1.00  0.00    -0.250 OA
BRANCH   3   5
ATOM      5  C   UNL     1       3.152   5.086  -3.101  1.00  0.00     0.224 C 
ATOM      6  C   UNL     1       2.502   3.518  -1.540  1.00  0.00     0.148 C 
ATOM      7  N   UNL     1       3.416   2.907  -2.218  1.00  0.00    -0.169 NA
ATOM      8  C   UNL     1       2.112   4.879  -1.994  1.00  0.00     0.105 C 
ATOM      9  N   UNL     1       3.824   3.776  -3.183  1.00  0.00    -0.250 N 
BRANCH   6  10
ATOM     10  C   UNL     1       1.876   2.889  -0.334  1.00  0.00     0.354 C 
ATOM     11  O   UNL     1       2.421   2.901   0.753  1.00  0.00    -0.245 OA
BRANCH  10  12
ATOM     12  O   UNL     1       0.728   2.293  -0.702  1.00  0.00    -0.461 OA
BRANCH  12  13
ATOM     13  C   UNL     1       0.188   1.384   0.266  1.00  0.00     0.230 C 
ATOM     14  C   UNL     1       0.718  -0.010  -0.019  1.00  0.00     0.049 C 
ENDBRANCH  12  13
ENDBRANCH  10  12
ENDBRANCH   6  10
BRANCH   9  15
ATOM     15  C   UNL     1       5.093   3.526  -3.681  1.00  0.00     0.066 A 
ATOM     16  C   UNL     1       6.221   4.256  -3.291  1.00  0.00     0.067 A 
ATOM     17  C   UNL     1       5.283   2.400  -4.498  1.00  0.00     0.067 A 
ATOM     18  C   UNL     1       7.495   3.838  -3.683  1.00  0.00     0.128 A 
ATOM     19  C   UNL     1       6.559   2.009  -4.892  1.00  0.00     0.128 A 
ATOM     20  F   UNL     1       8.563   4.548  -3.296  1.00  0.00    -0.207 F 
ATOM     21  C   UNL     1       7.678   2.713  -4.478  1.00  0.00     0.078 A 
ATOM     22  F   UNL     1       6.701   0.951  -5.702  1.00  0.00    -0.207 F 
ENDBRANCH   9  15
ENDBRANCH   3   5
ENDBRANCH   2   3
ENDBRANCH   1   2
BRANCH   1  23
ATOM     23  C   UNL     1       2.084   8.303  -6.191  1.00  0.00     0.275 C 
BRANCH  23  24
ATOM     24  O   UNL     1       3.343   7.793  -6.666  1.00  0.00    -0.458 OA
BRANCH  24  25
ATOM     25  C   UNL     1       4.449   8.206  -6.006  1.00  0.00     0.338 C 
ATOM     26  O   UNL     1       4.516   9.020  -5.100  1.00  0.00    -0.246 OA
BRANCH  25  27
ATOM     27  C   UNL     1       5.610   7.436  -6.485  1.00  0.00     0.060 A 
ATOM     28  C   UNL     1       5.558   6.054  -6.413  1.00  0.00     0.016 A 
ATOM     29  C   UNL     1       6.795   8.063  -6.876  1.00  0.00     0.016 A 
ATOM     30  C   UNL     1       6.714   5.313  -6.637  1.00  0.00     0.010 A 
ATOM     31  C   UNL     1       7.935   7.291  -7.181  1.00  0.00     0.010 A 
ATOM     32  C   UNL     1       7.936   5.896  -7.011  1.00  0.00    -0.014 A 
BRANCH  32  33
ATOM     33  C   UNL     1       9.182   5.049  -7.114  1.00  0.00     0.031 A 
ATOM     34  C   UNL     1      10.466   5.452  -6.413  1.00  0.00     0.074 A 
ATOM     35  C   UNL     1       9.176   3.836  -7.715  1.00  0.00     0.049 A 
ATOM     36  N   UNL     1      11.669   4.937  -6.527  1.00  0.00    -0.248 NA
ATOM     37  C   UNL     1      10.395   6.574  -5.468  1.00  0.00     0.031 C 
ATOM     38  C   UNL     1       8.021   3.212  -8.355  1.00  0.00     0.029 A 
ATOM     39  N   UNL     1      10.159   2.873  -7.819  1.00  0.00    -0.354 N 
ATOM     40  C   UNL     1      12.506   5.731  -5.750  1.00  0.00     0.074 A 
ATOM     41  C   UNL     1      11.669   6.742  -5.140  1.00  0.00     0.031 C 
ATOM     42  C   UNL     1       8.306   1.933  -8.633  1.00  0.00     0.029 A 
ATOM     43  C   UNL     1       9.722   1.693  -8.376  1.00  0.00     0.049 A 
ATOM     44  H   UNL     1      11.086   3.016  -7.522  1.00  0.00     0.167 HD
ATOM     45  C   UNL     1      13.848   5.638  -5.576  1.00  0.00     0.037 A 
ATOM     46  C   UNL     1      10.375   0.559  -8.708  1.00  0.00     0.037 A 
ATOM     47  C   UNL     1      14.678   4.577  -6.093  1.00  0.00     0.049 A 
ATOM     48  C   UNL     1      11.868   0.488  -8.548  1.00  0.00     0.074 A 
ATOM     49  C   UNL     1      16.054   4.435  -5.997  1.00  0.00     0.029 A 
ATOM     50  N   UNL     1      14.213   3.459  -6.764  1.00  0.00    -0.354 N 
ATOM     51  N   UNL     1      12.681   1.344  -7.982  1.00  0.00    -0.248 NA
ATOM     52  C   UNL     1      12.543  -0.681  -9.133  1.00  0.00     0.031 C 
ATOM     53  C   UNL     1      16.425   3.257  -6.653  1.00  0.00     0.029 A 
ATOM     54  C   UNL     1      15.275   2.633  -7.104  1.00  0.00     0.049 A 
ATOM     55  H   UNL     1      13.267   3.276  -6.969  1.00  0.00     0.167 HD
ATOM     56  C   UNL     1      13.959   0.829  -8.155  1.00  0.00     0.074 A 
ATOM     57  C   UNL     1      13.813  -0.437  -8.841  1.00  0.00     0.031 C 
ATOM     58  C   UNL     1      15.145   1.376  -7.794  1.00  0.00     0.037 A 
BRANCH  45  59
ATOM     59  C   UNL     1      14.541   6.762  -4.860  1.00  0.00     0.064 A 
ATOM     60  C   UNL     1      15.353   7.646  -5.592  1.00  0.00     0.173 A 
ATOM     61  C   UNL     1      14.475   6.933  -3.471  1.00  0.00     0.173 A 
ATOM     62  F   UNL     1      15.460   7.519  -6.924  1.00  0.00    -0.203 F 
ATOM     63  C   UNL     1      16.082   8.647  -4.959  1.00  0.00     0.198 A 
ATOM     64  C   UNL     1      15.182   7.958  -2.844  1.00  0.00     0.198 A 
ATOM     65  F   UNL     1      13.706   6.125  -2.727  1.00  0.00    -0.203 F 
ATOM     66  F   UNL     1      16.878   9.451  -5.678  1.00  0.00    -0.200 F 
ATOM     67  C   UNL     1      15.992   8.806  -3.586  1.00  0.00     0.200 A 
ATOM     68  F   UNL     1      15.077   8.128  -1.519  1.00  0.00    -0.200 F 
ATOM     69  F   UNL     1      16.685   9.778  -2.977  1.00  0.00    -0.200 F 
ENDBRANCH  45  59
BRANCH  46  70
ATOM     70  C   UNL     1       9.624  -0.579  -9.310  1.00  0.00     0.064 A 
ATOM     71  C   UNL     1       8.967  -0.452 -10.545  1.00  0.00     0.173 A 
ATOM     72  C   UNL     1       9.531  -1.814  -8.653  1.00  0.00     0.173 A 
ATOM     73  F   UNL     1       9.046   0.697 -11.233  1.00  0.00    -0.203 F 
ATOM     74  C   UNL     1       8.194  -1.486 -11.064  1.00  0.00     0.198 A 
ATOM     75  C   UNL     1       8.795  -2.866  -9.197  1.00  0.00     0.198 A 
ATOM     76  F   UNL     1      10.183  -2.010  -7.497  1.00  0.00    -0.203 F 
ATOM     77  F   UNL     1       7.524  -1.307 -12.210  1.00  0.00    -0.200 F 
ATOM     78  C   UNL     1       8.111  -2.695 -10.392  1.00  0.00     0.200 A 
ATOM     79  F   UNL     1       8.756  -4.050  -8.570  1.00  0.00    -0.200 F 
ATOM     80  F   UNL     1       7.381  -3.696 -10.900  1.00  0.00    -0.200 F 
ENDBRANCH  46  70
BRANCH  58  81
ATOM     81  C   UNL     1      16.397   0.616  -8.127  1.00  0.00     0.064 A 
ATOM     82  C   UNL     1      17.176   0.039  -7.113  1.00  0.00     0.173 A 
ATOM     83  C   UNL     1      16.857   0.504  -9.448  1.00  0.00     0.173 A 
ATOM     84  F   UNL     1      16.788   0.122  -5.832  1.00  0.00    -0.203 F 
ATOM     85  C   UNL     1      18.372  -0.613  -7.407  1.00  0.00     0.198 A 
ATOM     86  C   UNL     1      18.039  -0.173  -9.742  1.00  0.00     0.198 A 
ATOM     87  F   UNL     1      16.145   1.027 -10.458  1.00  0.00    -0.203 F 
ATOM     88  F   UNL     1      19.112  -1.131  -6.418  1.00  0.00    -0.200 F 
ATOM     89  C   UNL     1      18.799  -0.724  -8.722  1.00  0.00     0.200 A 
ATOM     90  F   UNL     1      18.437  -0.301 -11.016  1.00  0.00    -0.200 F 
ATOM     91  F   UNL     1      19.941  -1.365  -9.005  1.00  0.00    -0.200 F 
ENDBRANCH  58  81
ENDBRANCH  32  33
ENDBRANCH  25  27
ENDBRANCH  24  25
ENDBRANCH  23  24
ENDBRANCH   1  23
TORSDOF 15
