REMARK SMILES O=C(OCCOC(=O)c1cccc(Oc2ncc([N+](=O)[O-])cc2Br)c1)c1ccc(-c2c3nc(c(-c4c(F)c(F)c(F)c(F)c4F)c4ccc([nH]4)c(-c4c(F)c(F)c(F)c(F)c4F)c4nc(c(-c5c(F)c(F)c(F)c(F)c5F)c5ccc2[nH]5)C=C4)C=C3)cc1
REMARK SMILES IDX 5 1 4 2 3 3 2 4 1 5 26 6 27 7 88 8 28 9 87 10 29 11 30 12
REMARK SMILES IDX 31 13 81 14 32 15 86 16 80 17 82 18 33 19 85 20 79 21 78 22
REMARK SMILES IDX 34 24 66 25 46 26 65 27 47 28 50 29 64 30 83 31 48 32 49 33
REMARK SMILES IDX 63 35 84 36 51 37 35 38 36 39 44 40 37 41 38 42 42 43 45 44
REMARK SMILES IDX 39 45 40 46 43 47 41 48 67 49 68 50 76 51 69 52 70 53 74 54
REMARK SMILES IDX 77 55 71 56 72 57 75 58 73 59 52 60 53 61 61 62 54 63 55 64
REMARK SMILES IDX 59 65 62 66 56 67 57 68 60 69 58 70 6 71 7 72 8 73 9 74
REMARK SMILES IDX 10 75 25 76 11 77 13 78 12 79 14 80 15 81 16 82 23 83 17 84
REMARK SMILES IDX 22 85 24 86 18 87 19 88 20 89 21 90
REMARK H PARENT 82 23 50 34
REMARK Flexibility Score: inf
ROOT
ATOM      1  C   UNL     1       4.205  -0.117  -2.196  1.00  0.00     0.275 C 
ENDROOT
BRANCH   1   2
ATOM      2  C   UNL     1       4.309  -1.167  -1.083  1.00  0.00     0.275 C 
BRANCH   2   3
ATOM      3  O   UNL     1       3.165  -1.234  -0.212  1.00  0.00    -0.458 OA
BRANCH   3   4
ATOM      4  C   UNL     1       2.822  -0.510   0.877  1.00  0.00     0.338 C 
ATOM      5  O   UNL     1       1.804  -0.832   1.490  1.00  0.00    -0.246 OA
BRANCH   4   6
ATOM      6  C   UNL     1       3.548   0.713   1.363  1.00  0.00     0.060 A 
ATOM      7  C   UNL     1       4.833   1.119   0.995  1.00  0.00     0.016 A 
ATOM      8  C   UNL     1       2.846   1.535   2.271  1.00  0.00     0.016 A 
ATOM      9  C   UNL     1       5.396   2.296   1.495  1.00  0.00     0.010 A 
ATOM     10  C   UNL     1       3.400   2.717   2.774  1.00  0.00     0.010 A 
ATOM     11  C   UNL     1       4.695   3.085   2.407  1.00  0.00    -0.014 A 
BRANCH  11  12
ATOM     12  C   UNL     1       5.423   4.168   3.100  1.00  0.00     0.031 A 
ATOM     13  C   UNL     1       6.003   3.885   4.443  1.00  0.00     0.074 A 
ATOM     14  C   UNL     1       5.599   5.371   2.533  1.00  0.00     0.049 A 
ATOM     15  N   UNL     1       6.777   4.637   5.177  1.00  0.00    -0.248 NA
ATOM     16  C   UNL     1       5.639   2.599   5.053  1.00  0.00     0.031 C 
ATOM     17  C   UNL     1       4.975   5.777   1.288  1.00  0.00     0.029 A 
ATOM     18  N   UNL     1       6.321   6.473   2.926  1.00  0.00    -0.354 N 
ATOM     19  C   UNL     1       6.973   3.927   6.347  1.00  0.00     0.074 A 
ATOM     20  C   UNL     1       6.216   2.699   6.238  1.00  0.00     0.031 C 
ATOM     21  C   UNL     1       5.335   7.039   1.023  1.00  0.00     0.029 A 
ATOM     22  C   UNL     1       6.282   7.502   2.016  1.00  0.00     0.049 A 
ATOM     23  H   UNL     1       6.816   6.520   3.776  1.00  0.00     0.167 HD
ATOM     24  C   UNL     1       7.720   4.280   7.417  1.00  0.00     0.037 A 
ATOM     25  C   UNL     1       6.955   8.668   1.960  1.00  0.00     0.037 A 
ATOM     26  C   UNL     1       8.433   5.524   7.518  1.00  0.00     0.049 A 
ATOM     27  C   UNL     1       7.847   9.001   3.118  1.00  0.00     0.074 A 
ATOM     28  C   UNL     1       9.217   5.987   8.558  1.00  0.00     0.029 A 
ATOM     29  N   UNL     1       8.431   6.517   6.545  1.00  0.00    -0.354 N 
ATOM     30  N   UNL     1       8.086   8.294   4.195  1.00  0.00    -0.248 NA
ATOM     31  C   UNL     1       8.540  10.293   3.073  1.00  0.00     0.031 C 
ATOM     32  C   UNL     1       9.646   7.281   8.237  1.00  0.00     0.029 A 
ATOM     33  C   UNL     1       9.190   7.598   6.966  1.00  0.00     0.049 A 
ATOM     34  H   UNL     1       7.960   6.461   5.682  1.00  0.00     0.167 HD
ATOM     35  C   UNL     1       8.952   9.053   4.962  1.00  0.00     0.074 A 
ATOM     36  C   UNL     1       9.236  10.255   4.200  1.00  0.00     0.031 C 
ATOM     37  C   UNL     1       9.448   8.789   6.195  1.00  0.00     0.037 A 
BRANCH  24  38
ATOM     38  C   UNL     1       7.721   3.320   8.567  1.00  0.00     0.064 A 
ATOM     39  C   UNL     1       8.310   2.049   8.470  1.00  0.00     0.173 A 
ATOM     40  C   UNL     1       7.053   3.646   9.755  1.00  0.00     0.173 A 
ATOM     41  F   UNL     1       8.930   1.675   7.339  1.00  0.00    -0.203 F 
ATOM     42  C   UNL     1       8.186   1.123   9.502  1.00  0.00     0.198 A 
ATOM     43  C   UNL     1       6.963   2.730  10.799  1.00  0.00     0.198 A 
ATOM     44  F   UNL     1       6.462   4.842   9.893  1.00  0.00    -0.203 F 
ATOM     45  F   UNL     1       8.678  -0.115   9.351  1.00  0.00    -0.200 F 
ATOM     46  C   UNL     1       7.516   1.465  10.666  1.00  0.00     0.200 A 
ATOM     47  F   UNL     1       6.318   3.064  11.925  1.00  0.00    -0.200 F 
ATOM     48  F   UNL     1       7.384   0.569  11.653  1.00  0.00    -0.200 F 
ENDBRANCH  24  38
BRANCH  25  49
ATOM     49  C   UNL     1       6.886   9.549   0.755  1.00  0.00     0.064 A 
ATOM     50  C   UNL     1       8.027   9.759  -0.040  1.00  0.00     0.173 A 
ATOM     51  C   UNL     1       5.704  10.188   0.354  1.00  0.00     0.173 A 
ATOM     52  F   UNL     1       9.192   9.186   0.296  1.00  0.00    -0.203 F 
ATOM     53  C   UNL     1       7.989  10.577  -1.170  1.00  0.00     0.198 A 
ATOM     54  C   UNL     1       5.656  10.972  -0.799  1.00  0.00     0.198 A 
ATOM     55  F   UNL     1       4.582  10.036   1.074  1.00  0.00    -0.203 F 
ATOM     56  F   UNL     1       9.106  10.790  -1.880  1.00  0.00    -0.200 F 
ATOM     57  C   UNL     1       6.801  11.173  -1.555  1.00  0.00     0.200 A 
ATOM     58  F   UNL     1       4.501  11.534  -1.180  1.00  0.00    -0.200 F 
ATOM     59  F   UNL     1       6.759  11.942  -2.652  1.00  0.00    -0.200 F 
ENDBRANCH  25  49
BRANCH  37  60
ATOM     60  C   UNL     1      10.369   9.818   6.776  1.00  0.00     0.064 A 
ATOM     61  C   UNL     1       9.908  11.080   7.180  1.00  0.00     0.173 A 
ATOM     62  C   UNL     1      11.733   9.533   6.928  1.00  0.00     0.173 A 
ATOM     63  F   UNL     1       8.614  11.406   7.035  1.00  0.00    -0.203 F 
ATOM     64  C   UNL     1      10.789  12.035   7.678  1.00  0.00     0.198 A 
ATOM     65  C   UNL     1      12.604  10.477   7.462  1.00  0.00     0.198 A 
ATOM     66  F   UNL     1      12.221   8.339   6.559  1.00  0.00    -0.203 F 
ATOM     67  F   UNL     1      10.340  13.258   7.992  1.00  0.00    -0.200 F 
ATOM     68  C   UNL     1      12.134  11.730   7.825  1.00  0.00     0.200 A 
ATOM     69  F   UNL     1      13.900  10.176   7.616  1.00  0.00    -0.200 F 
ATOM     70  F   UNL     1      12.981  12.650   8.304  1.00  0.00    -0.200 F 
ENDBRANCH  37  60
ENDBRANCH  11  12
ENDBRANCH   4   6
ENDBRANCH   3   4
ENDBRANCH   2   3
ENDBRANCH   1   2
BRANCH   1  71
ATOM     71  O   UNL     1       3.770   1.172  -1.736  1.00  0.00    -0.458 OA
BRANCH  71  72
ATOM     72  C   UNL     1       2.425   1.351  -1.727  1.00  0.00     0.338 C 
ATOM     73  O   UNL     1       1.581   0.550  -2.106  1.00  0.00    -0.246 OA
BRANCH  72  74
ATOM     74  C   UNL     1       2.083   2.652  -1.119  1.00  0.00     0.063 A 
ATOM     75  C   UNL     1       0.989   2.733  -0.254  1.00  0.00     0.016 A 
ATOM     76  C   UNL     1       2.778   3.805  -1.490  1.00  0.00     0.062 A 
ATOM     77  C   UNL     1       0.607   3.972   0.255  1.00  0.00     0.005 A 
ATOM     78  C   UNL     1       2.282   5.062  -1.133  1.00  0.00     0.130 A 
ATOM     79  C   UNL     1       1.235   5.135  -0.205  1.00  0.00     0.047 A 
BRANCH  78  80
ATOM     80  O   UNL     1       2.681   6.273  -1.676  1.00  0.00    -0.438 OA
BRANCH  80  81
ATOM     81  C   UNL     1       3.813   6.326  -2.455  1.00  0.00     0.234 A 
ATOM     82  N   UNL     1       4.814   7.049  -1.901  1.00  0.00    -0.214 NA
ATOM     83  C   UNL     1       3.962   5.694  -3.687  1.00  0.00     0.087 A 
ATOM     84  C   UNL     1       6.045   6.975  -2.450  1.00  0.00     0.200 A 
ATOM     85  C   UNL     1       5.250   5.590  -4.225  1.00  0.00     0.108 A 
ATOM     86  Br  UNL     1       2.514   4.960  -4.663  1.00  0.00    -0.045 Br
ATOM     87  C   UNL     1       6.311   6.214  -3.567  1.00  0.00     0.288 A 
BRANCH  87  88
ATOM     88  N   UNL     1       7.687   6.058  -4.005  1.00  0.00     0.064 N 
ATOM     89  O   UNL     1       8.559   6.683  -3.387  1.00  0.00    -0.258 OA
ATOM     90  O   UNL     1       7.901   5.290  -4.951  1.00  0.00    -0.258 OA
ENDBRANCH  87  88
ENDBRANCH  80  81
ENDBRANCH  78  80
ENDBRANCH  72  74
ENDBRANCH  71  72
ENDBRANCH   1  71
TORSDOF 14
