REMARK SMILES CCc1sc(NC(=O)[C@H]2CC(C)=C(C)C[C@H]2C(=O)OCCOC(=O)c2ccc(-c3c4nc(c(-c5c(F)c(F)c(F)c(F)c5F)c5ccc([nH]5)c(-c5c(F)c(F)c(F)c(F)c5F)c5nc(c(-c6c(F)c(F)c(F)c(F)c6F)c6ccc3[nH]6)C=C5)C=C4)cc2)nc1-c1ccccc1
REMARK SMILES IDX 20 1 19 2 17 3 18 4 16 5 9 6 10 7 11 8 15 9 12 10 13 11
REMARK SMILES IDX 14 12 7 13 6 14 8 16 5 17 3 18 4 19 89 20 88 21 2 22 1 23
REMARK SMILES IDX 90 24 91 25 95 26 92 27 94 28 93 29 21 30 22 31 23 32 24 33
REMARK SMILES IDX 25 34 26 35 87 36 27 37 86 38 28 39 29 40 30 41 80 42 31 43
REMARK SMILES IDX 85 44 79 45 81 46 32 47 84 48 78 49 77 50 33 52 65 53 45 54
REMARK SMILES IDX 64 55 46 56 49 57 63 58 82 59 47 60 48 61 62 63 83 64 50 65
REMARK SMILES IDX 34 66 35 67 43 68 36 69 37 70 41 71 44 72 38 73 39 74 42 75
REMARK SMILES IDX 40 76 66 77 67 78 75 79 68 80 69 81 73 82 76 83 70 84 71 85
REMARK SMILES IDX 74 86 72 87 51 88 52 89 60 90 53 91 54 92 58 93 61 94 55 95
REMARK SMILES IDX 56 96 59 97 57 98
REMARK H PARENT 6 15 81 51 49 62
REMARK Flexibility Score: inf
ROOT
ATOM      1  C   UNL     1       0.705   3.876  -6.939  1.00  0.00     0.274 C 
ENDROOT
BRANCH   1   2
ATOM      2  O   UNL     1       1.627   3.254  -6.022  1.00  0.00    -0.462 OA
BRANCH   2   3
ATOM      3  C   UNL     1       2.848   2.940  -6.525  1.00  0.00     0.310 C 
ATOM      4  O   UNL     1       3.208   3.197  -7.670  1.00  0.00    -0.252 OA
BRANCH   3   5
ATOM      5  C   UNL     1       3.763   2.221  -5.537  1.00  0.00     0.116 C 
ATOM      6  C   UNL     1       3.285   2.149  -4.063  1.00  0.00     0.097 C 
ATOM      7  C   UNL     1       2.077   1.214  -3.951  1.00  0.00     0.045 C 
ATOM      8  C   UNL     1       2.248  -0.104  -4.684  1.00  0.00    -0.074 C 
ATOM      9  C   UNL     1       4.091   0.834  -6.098  1.00  0.00     0.046 C 
ATOM     10  C   UNL     1       1.369  -1.206  -4.143  1.00  0.00     0.039 C 
ATOM     11  C   UNL     1       3.160  -0.274  -5.666  1.00  0.00    -0.073 C 
ATOM     12  C   UNL     1       3.376  -1.569  -6.408  1.00  0.00     0.039 C 
BRANCH   6  13
ATOM     13  C   UNL     1       3.200   3.590  -3.528  1.00  0.00     0.230 C 
ATOM     14  N   UNL     1       2.178   4.067  -2.783  1.00  0.00    -0.302 N 
ATOM     15  H   UNL     1       1.701   4.846  -3.150  1.00  0.00     0.172 HD
ATOM     16  O   UNL     1       4.091   4.388  -3.840  1.00  0.00    -0.274 OA
BRANCH  14  17
ATOM     17  C   UNL     1       1.726   3.598  -1.581  1.00  0.00     0.190 A 
ATOM     18  C   UNL     1       1.154   2.247   0.318  1.00  0.00     0.034 A 
ATOM     19  S   UNL     1       2.476   2.297  -0.781  1.00  0.00    -0.101 S 
ATOM     20  C   UNL     1       0.509   3.474   0.251  1.00  0.00     0.087 A 
ATOM     21  N   UNL     1       0.788   4.204  -0.895  1.00  0.00    -0.220 NA
BRANCH  18  22
ATOM     22  C   UNL     1       0.903   1.046   1.177  1.00  0.00     0.046 C 
ATOM     23  C   UNL     1       0.876  -0.253   0.374  1.00  0.00     0.010 C 
ENDBRANCH  18  22
BRANCH  20  24
ATOM     24  C   UNL     1      -0.427   3.969   1.252  1.00  0.00     0.001 A 
ATOM     25  C   UNL     1      -0.127   3.859   2.619  1.00  0.00     0.010 A 
ATOM     26  C   UNL     1      -1.608   4.610   0.866  1.00  0.00     0.010 A 
ATOM     27  C   UNL     1      -1.014   4.340   3.583  1.00  0.00     0.001 A 
ATOM     28  C   UNL     1      -2.495   5.093   1.833  1.00  0.00     0.001 A 
ATOM     29  C   UNL     1      -2.201   4.951   3.189  1.00  0.00     0.000 A 
ENDBRANCH  20  24
ENDBRANCH  14  17
ENDBRANCH   6  13
ENDBRANCH   3   5
ENDBRANCH   2   3
ENDBRANCH   1   2
BRANCH   1  30
ATOM     30  C   UNL     1       0.579   5.370  -6.660  1.00  0.00     0.275 C 
BRANCH  30  31
ATOM     31  O   UNL     1       1.873   5.993  -6.705  1.00  0.00    -0.458 OA
BRANCH  31  32
ATOM     32  C   UNL     1       2.281   6.576  -5.553  1.00  0.00     0.338 C 
ATOM     33  O   UNL     1       1.653   6.682  -4.511  1.00  0.00    -0.246 OA
BRANCH  32  34
ATOM     34  C   UNL     1       3.663   7.061  -5.705  1.00  0.00     0.060 A 
ATOM     35  C   UNL     1       4.677   6.151  -5.997  1.00  0.00     0.016 A 
ATOM     36  C   UNL     1       3.974   8.382  -5.386  1.00  0.00     0.016 A 
ATOM     37  C   UNL     1       6.009   6.522  -5.847  1.00  0.00     0.010 A 
ATOM     38  C   UNL     1       5.313   8.782  -5.345  1.00  0.00     0.010 A 
ATOM     39  C   UNL     1       6.345   7.845  -5.532  1.00  0.00    -0.014 A 
BRANCH  39  40
ATOM     40  C   UNL     1       7.767   8.238  -5.359  1.00  0.00     0.031 A 
ATOM     41  C   UNL     1       8.245   8.792  -4.045  1.00  0.00     0.074 A 
ATOM     42  C   UNL     1       8.639   8.095  -6.376  1.00  0.00     0.049 A 
ATOM     43  N   UNL     1       9.374   9.392  -3.760  1.00  0.00    -0.248 NA
ATOM     44  C   UNL     1       7.327   8.665  -2.902  1.00  0.00     0.031 C 
ATOM     45  C   UNL     1       8.330   7.512  -7.682  1.00  0.00     0.029 A 
ATOM     46  N   UNL     1       9.967   8.428  -6.466  1.00  0.00    -0.354 N 
ATOM     47  C   UNL     1       9.274   9.772  -2.428  1.00  0.00     0.074 A 
ATOM     48  C   UNL     1       7.982   9.323  -1.955  1.00  0.00     0.031 C 
ATOM     49  C   UNL     1       9.443   7.497  -8.430  1.00  0.00     0.029 A 
ATOM     50  C   UNL     1      10.518   8.149  -7.691  1.00  0.00     0.049 A 
ATOM     51  H   UNL     1      10.476   8.828  -5.723  1.00  0.00     0.167 HD
ATOM     52  C   UNL     1      10.178  10.444  -1.676  1.00  0.00     0.037 A 
ATOM     53  C   UNL     1      11.738   8.429  -8.185  1.00  0.00     0.037 A 
ATOM     54  C   UNL     1      11.489  10.828  -2.130  1.00  0.00     0.049 A 
ATOM     55  C   UNL     1      12.715   9.192  -7.342  1.00  0.00     0.074 A 
ATOM     56  C   UNL     1      12.486  11.494  -1.437  1.00  0.00     0.029 A 
ATOM     57  N   UNL     1      11.994  10.557  -3.393  1.00  0.00    -0.354 N 
ATOM     58  N   UNL     1      12.582   9.628  -6.114  1.00  0.00    -0.248 NA
ATOM     59  C   UNL     1      14.002   9.530  -7.966  1.00  0.00     0.031 C 
ATOM     60  C   UNL     1      13.586  11.646  -2.289  1.00  0.00     0.029 A 
ATOM     61  C   UNL     1      13.285  11.050  -3.503  1.00  0.00     0.049 A 
ATOM     62  H   UNL     1      11.508  10.085  -4.107  1.00  0.00     0.167 HD
ATOM     63  C   UNL     1      13.763  10.292  -5.816  1.00  0.00     0.074 A 
ATOM     64  C   UNL     1      14.611  10.184  -6.986  1.00  0.00     0.031 C 
ATOM     65  C   UNL     1      14.109  10.939  -4.678  1.00  0.00     0.037 A 
BRANCH  52  66
ATOM     66  C   UNL     1       9.765  10.845  -0.292  1.00  0.00     0.064 A 
ATOM     67  C   UNL     1       9.712   9.926   0.764  1.00  0.00     0.173 A 
ATOM     68  C   UNL     1       9.449  12.185  -0.016  1.00  0.00     0.173 A 
ATOM     69  F   UNL     1       9.993   8.632   0.548  1.00  0.00    -0.203 F 
ATOM     70  C   UNL     1       9.338  10.329   2.044  1.00  0.00     0.198 A 
ATOM     71  C   UNL     1       9.096  12.588   1.268  1.00  0.00     0.198 A 
ATOM     72  F   UNL     1       9.491  13.104  -0.993  1.00  0.00    -0.203 F 
ATOM     73  F   UNL     1       9.259   9.428   3.033  1.00  0.00    -0.200 F 
ATOM     74  C   UNL     1       9.036  11.660   2.296  1.00  0.00     0.200 A 
ATOM     75  F   UNL     1       8.814  13.876   1.511  1.00  0.00    -0.200 F 
ATOM     76  F   UNL     1       8.681  12.047   3.529  1.00  0.00    -0.200 F 
ENDBRANCH  52  66
BRANCH  53  77
ATOM     77  C   UNL     1      12.075   8.015  -9.569  1.00  0.00     0.064 A 
ATOM     78  C   UNL     1      12.961   6.956  -9.804  1.00  0.00     0.173 A 
ATOM     79  C   UNL     1      11.491   8.642 -10.679  1.00  0.00     0.173 A 
ATOM     80  F   UNL     1      13.561   6.345  -8.772  1.00  0.00    -0.203 F 
ATOM     81  C   UNL     1      13.248   6.537 -11.101  1.00  0.00     0.198 A 
ATOM     82  C   UNL     1      11.760   8.207 -11.974  1.00  0.00     0.198 A 
ATOM     83  F   UNL     1      10.637   9.661 -10.503  1.00  0.00    -0.203 F 
ATOM     84  F   UNL     1      14.115   5.535 -11.302  1.00  0.00    -0.200 F 
ATOM     85  C   UNL     1      12.640   7.155 -12.183  1.00  0.00     0.200 A 
ATOM     86  F   UNL     1      11.162   8.799 -13.016  1.00  0.00    -0.200 F 
ATOM     87  F   UNL     1      12.905   6.741 -13.430  1.00  0.00    -0.200 F 
ENDBRANCH  53  77
BRANCH  65  88
ATOM     88  C   UNL     1      15.466  11.569  -4.644  1.00  0.00     0.064 A 
ATOM     89  C   UNL     1      15.721  12.783  -5.298  1.00  0.00     0.173 A 
ATOM     90  C   UNL     1      16.514  10.966  -3.934  1.00  0.00     0.173 A 
ATOM     91  F   UNL     1      14.752  13.385  -6.004  1.00  0.00    -0.203 F 
ATOM     92  C   UNL     1      16.985  13.364  -5.256  1.00  0.00     0.198 A 
ATOM     93  C   UNL     1      17.772  11.559  -3.880  1.00  0.00     0.198 A 
ATOM     94  F   UNL     1      16.317   9.804  -3.294  1.00  0.00    -0.203 F 
ATOM     95  F   UNL     1      17.218  14.506  -5.916  1.00  0.00    -0.200 F 
ATOM     96  C   UNL     1      18.008  12.754  -4.544  1.00  0.00     0.200 A 
ATOM     97  F   UNL     1      18.759  10.971  -3.189  1.00  0.00    -0.200 F 
ATOM     98  F   UNL     1      19.225  13.314  -4.505  1.00  0.00    -0.200 F 
ENDBRANCH  65  88
ENDBRANCH  39  40
ENDBRANCH  32  34
ENDBRANCH  31  32
ENDBRANCH  30  31
ENDBRANCH   1  30
TORSDOF 15
