REMARK SMILES O=C(CCN1C(=O)/C(=C/C=C/c2ccco2)SC1=S)Nc1ccc(C(=O)OCCOC(=O)c2ccc(-c3c4nc(c(-c5c(F)c(F)c(F)c(F)c5F)c5ccc([nH]5)c(-c5c(F)c(F)c(F)c(F)c5F)c5nc(c(-c6c(F)c(F)c(F)c(F)c6F)c6ccc3[nH]6)C=C5)C=C4)cc2)c(O)c1
REMARK SMILES IDX 25 1 26 2 24 3 21 4 22 5 98 6 23 7 96 8 20 9 1 10 2 11 3 13
REMARK SMILES IDX 4 14 5 15 6 16 18 17 7 18 8 19 17 20 19 21 9 22 10 23 11 24
REMARK SMILES IDX 12 25 13 26 16 27 14 28 15 29 97 30 27 32 28 33 29 34 30 35
REMARK SMILES IDX 31 36 32 37 33 38 34 39 95 40 35 41 94 42 36 43 37 44 38 45
REMARK SMILES IDX 88 46 39 47 93 48 87 49 89 50 40 51 92 52 86 53 85 54 41 56
REMARK SMILES IDX 73 57 53 58 72 59 54 60 57 61 71 62 90 63 55 64 56 65 70 67
REMARK SMILES IDX 91 68 58 69 42 70 43 71 51 72 44 73 45 74 49 75 52 76 46 77
REMARK SMILES IDX 47 78 50 79 48 80 74 81 75 82 83 83 76 84 77 85 81 86 84 87
REMARK SMILES IDX 78 88 79 89 82 90 80 91 59 92 60 93 68 94 61 95 62 96 66 97
REMARK SMILES IDX 69 98 63 99 64 100 67 101 65 102
REMARK H PARENT 20 12 97 31 89 55 57 66
REMARK Flexibility Score: inf
ROOT
ATOM      1  C   UNL     1       1.361  -3.774  -5.422  1.00  0.00     0.342 C 
ATOM      2  O   UNL     1       1.084  -3.152  -6.428  1.00  0.00    -0.246 OA
ENDROOT
BRANCH   1   3
ATOM      3  C   UNL     1       1.802  -3.122  -4.165  1.00  0.00     0.101 A 
ATOM      4  C   UNL     1       2.560  -1.732  -1.847  1.00  0.00     0.044 A 
ATOM      5  C   UNL     1       1.591  -1.199  -2.683  1.00  0.00     0.027 A 
ATOM      6  C   UNL     1       3.166  -2.952  -2.179  1.00  0.00     0.073 A 
ATOM      7  C   UNL     1       1.265  -1.863  -3.862  1.00  0.00     0.022 A 
ATOM      8  C   UNL     1       2.755  -3.666  -3.307  1.00  0.00     0.132 A 
BRANCH   4   9
ATOM      9  N   UNL     1       3.030  -1.042  -0.721  1.00  0.00    -0.326 N 
ATOM     10  O   UNL     1       1.206   0.268  -0.153  1.00  0.00    -0.275 OA
ATOM     11  C   UNL     1       2.386  -0.046  -0.016  1.00  0.00     0.226 C 
ATOM     12  H   UNL     1       3.923  -1.297  -0.396  1.00  0.00     0.169 HD
BRANCH  11  13
ATOM     13  C   UNL     1       3.289   0.739   0.922  1.00  0.00     0.122 C 
BRANCH  13  14
ATOM     14  C   UNL     1       4.174  -0.079   1.871  1.00  0.00     0.137 C 
BRANCH  14  15
ATOM     15  N   UNL     1       5.205  -0.892   1.202  1.00  0.00    -0.292 N 
ATOM     16  C   UNL     1       6.170  -0.248   0.436  1.00  0.00     0.266 C 
ATOM     17  C   UNL     1       5.324  -2.267   1.308  1.00  0.00     0.148 C 
ATOM     18  O   UNL     1       6.322   0.960   0.339  1.00  0.00    -0.268 OA
ATOM     19  C   UNL     1       6.958  -1.248  -0.329  1.00  0.00     0.080 C 
ATOM     20  S   UNL     1       6.593  -2.830   0.230  1.00  0.00    -0.054 SA
ATOM     21  S   UNL     1       4.384  -3.322   2.187  1.00  0.00    -0.052 S 
ATOM     22  C   UNL     1       7.759  -0.893  -1.343  1.00  0.00     0.021 C 
BRANCH  22  23
ATOM     23  C   UNL     1       8.451  -1.806  -2.230  1.00  0.00     0.005 C 
ATOM     24  C   UNL     1       9.399  -1.419  -3.097  1.00  0.00     0.047 C 
BRANCH  24  25
ATOM     25  C   UNL     1      10.054  -2.371  -3.923  1.00  0.00     0.126 A 
ATOM     26  C   UNL     1       9.542  -3.448  -4.641  1.00  0.00     0.050 A 
ATOM     27  O   UNL     1      11.414  -2.347  -4.134  1.00  0.00    -0.465 OA
ATOM     28  C   UNL     1      10.625  -4.110  -5.265  1.00  0.00     0.042 A 
ATOM     29  C   UNL     1      11.746  -3.405  -4.913  1.00  0.00     0.195 A 
ENDBRANCH  24  25
ENDBRANCH  22  23
ENDBRANCH  14  15
ENDBRANCH  13  14
ENDBRANCH  11  13
ENDBRANCH   4   9
BRANCH   8  30
ATOM     30  O   UNL     1       3.359  -4.875  -3.515  1.00  0.00    -0.507 OA
ATOM     31  H   UNL     1       3.121  -5.396  -4.257  1.00  0.00     0.293 HD
ENDBRANCH   8  30
ENDBRANCH   1   3
BRANCH   1  32
ATOM     32  O   UNL     1       1.231  -5.116  -5.237  1.00  0.00    -0.458 OA
BRANCH  32  33
ATOM     33  C   UNL     1       0.650  -5.843  -6.343  1.00  0.00     0.275 C 
BRANCH  33  34
ATOM     34  C   UNL     1      -0.828  -6.160  -6.099  1.00  0.00     0.275 C 
BRANCH  34  35
ATOM     35  O   UNL     1      -1.621  -4.958  -6.124  1.00  0.00    -0.458 OA
BRANCH  35  36
ATOM     36  C   UNL     1      -2.084  -4.549  -4.922  1.00  0.00     0.338 C 
ATOM     37  O   UNL     1      -1.923  -5.090  -3.841  1.00  0.00    -0.246 OA
BRANCH  36  38
ATOM     38  C   UNL     1      -2.755  -3.247  -5.048  1.00  0.00     0.060 A 
ATOM     39  C   UNL     1      -1.952  -2.127  -5.191  1.00  0.00     0.016 A 
ATOM     40  C   UNL     1      -4.117  -3.096  -4.811  1.00  0.00     0.016 A 
ATOM     41  C   UNL     1      -2.455  -0.858  -4.930  1.00  0.00     0.010 A 
ATOM     42  C   UNL     1      -4.657  -1.804  -4.713  1.00  0.00     0.010 A 
ATOM     43  C   UNL     1      -3.826  -0.666  -4.718  1.00  0.00    -0.014 A 
BRANCH  43  44
ATOM     44  C   UNL     1      -4.368   0.710  -4.489  1.00  0.00     0.031 A 
ATOM     45  C   UNL     1      -5.227   1.006  -3.285  1.00  0.00     0.074 A 
ATOM     46  C   UNL     1      -4.086   1.709  -5.352  1.00  0.00     0.049 A 
ATOM     47  N   UNL     1      -5.949   2.068  -3.019  1.00  0.00    -0.248 NA
ATOM     48  C   UNL     1      -5.303  -0.038  -2.253  1.00  0.00     0.031 C 
ATOM     49  C   UNL     1      -3.234   1.595  -6.537  1.00  0.00     0.029 A 
ATOM     50  N   UNL     1      -4.484   3.026  -5.366  1.00  0.00    -0.354 N 
ATOM     51  C   UNL     1      -6.615   1.790  -1.831  1.00  0.00     0.074 A 
ATOM     52  C   UNL     1      -6.218   0.456  -1.431  1.00  0.00     0.031 C 
ATOM     53  C   UNL     1      -3.131   2.791  -7.130  1.00  0.00     0.029 A 
ATOM     54  C   UNL     1      -4.006   3.732  -6.444  1.00  0.00     0.049 A 
ATOM     55  H   UNL     1      -5.057   3.424  -4.671  1.00  0.00     0.167 HD
ATOM     56  C   UNL     1      -7.478   2.575  -1.139  1.00  0.00     0.037 A 
ATOM     57  C   UNL     1      -4.278   4.978  -6.877  1.00  0.00     0.037 A 
ATOM     58  C   UNL     1      -7.818   3.927  -1.508  1.00  0.00     0.049 A 
ATOM     59  C   UNL     1      -5.265   5.816  -6.118  1.00  0.00     0.074 A 
ATOM     60  C   UNL     1      -8.654   4.816  -0.855  1.00  0.00     0.029 A 
ATOM     61  N   UNL     1      -7.331   4.589  -2.627  1.00  0.00    -0.354 N 
ATOM     62  N   UNL     1      -5.927   5.526  -5.025  1.00  0.00    -0.248 NA
ATOM     63  C   UNL     1      -5.557   7.148  -6.664  1.00  0.00     0.031 C 
ATOM     64  C   UNL     1      -8.717   5.994  -1.607  1.00  0.00     0.029 A 
ATOM     65  C   UNL     1      -7.870   5.865  -2.696  1.00  0.00     0.049 A 
ATOM     66  H   UNL     1      -6.696   4.208  -3.276  1.00  0.00     0.167 HD
ATOM     67  C   UNL     1      -6.701   6.642  -4.742  1.00  0.00     0.074 A 
ATOM     68  C   UNL     1      -6.412   7.622  -5.768  1.00  0.00     0.031 C 
ATOM     69  C   UNL     1      -7.575   6.833  -3.723  1.00  0.00     0.037 A 
BRANCH  56  70
ATOM     70  C   UNL     1      -8.156   1.977   0.064  1.00  0.00     0.064 A 
ATOM     71  C   UNL     1      -7.464   1.671   1.245  1.00  0.00     0.173 A 
ATOM     72  C   UNL     1      -9.538   1.724   0.035  1.00  0.00     0.173 A 
ATOM     73  F   UNL     1      -6.143   1.886   1.328  1.00  0.00    -0.203 F 
ATOM     74  C   UNL     1      -8.119   1.098   2.334  1.00  0.00     0.198 A 
ATOM     75  C   UNL     1     -10.196   1.185   1.138  1.00  0.00     0.198 A 
ATOM     76  F   UNL     1     -10.256   2.007  -1.063  1.00  0.00    -0.203 F 
ATOM     77  F   UNL     1      -7.425   0.758   3.429  1.00  0.00    -0.200 F 
ATOM     78  C   UNL     1      -9.485   0.861   2.282  1.00  0.00     0.200 A 
ATOM     79  F   UNL     1     -11.519   0.975   1.090  1.00  0.00    -0.200 F 
ATOM     80  F   UNL     1     -10.113   0.312   3.331  1.00  0.00    -0.200 F 
ENDBRANCH  56  70
BRANCH  57  81
ATOM     81  C   UNL     1      -3.639   5.477  -8.124  1.00  0.00     0.064 A 
ATOM     82  C   UNL     1      -2.697   6.513  -8.091  1.00  0.00     0.173 A 
ATOM     83  C   UNL     1      -3.935   4.905  -9.373  1.00  0.00     0.173 A 
ATOM     84  F   UNL     1      -2.400   7.109  -6.927  1.00  0.00    -0.203 F 
ATOM     85  C   UNL     1      -2.077   6.959  -9.256  1.00  0.00     0.198 A 
ATOM     86  C   UNL     1      -3.288   5.327 -10.531  1.00  0.00     0.198 A 
ATOM     87  F   UNL     1      -4.829   3.909  -9.461  1.00  0.00    -0.203 F 
ATOM     88  F   UNL     1      -1.206   7.976  -9.201  1.00  0.00    -0.200 F 
ATOM     89  C   UNL     1      -2.364   6.358 -10.473  1.00  0.00     0.200 A 
ATOM     90  F   UNL     1      -3.554   4.729 -11.700  1.00  0.00    -0.200 F 
ATOM     91  F   UNL     1      -1.752   6.775 -11.590  1.00  0.00    -0.200 F 
ENDBRANCH  57  81
BRANCH  69  92
ATOM     92  C   UNL     1      -8.254   8.169  -3.647  1.00  0.00     0.064 A 
ATOM     93  C   UNL     1      -9.242   8.550  -4.568  1.00  0.00     0.173 A 
ATOM     94  C   UNL     1      -7.930   9.071  -2.621  1.00  0.00     0.173 A 
ATOM     95  F   UNL     1      -9.574   7.733  -5.578  1.00  0.00    -0.203 F 
ATOM     96  C   UNL     1      -9.859   9.796  -4.480  1.00  0.00     0.198 A 
ATOM     97  C   UNL     1      -8.573  10.301  -2.517  1.00  0.00     0.198 A 
ATOM     98  F   UNL     1      -6.995   8.754  -1.712  1.00  0.00    -0.203 F 
ATOM     99  F   UNL     1     -10.761  10.160  -5.402  1.00  0.00    -0.200 F 
ATOM    100  C   UNL     1      -9.530  10.666  -3.451  1.00  0.00     0.200 A 
ATOM    101  F   UNL     1      -8.263  11.134  -1.515  1.00  0.00    -0.200 F 
ATOM    102  F   UNL     1     -10.130  11.861  -3.365  1.00  0.00    -0.200 F 
ENDBRANCH  69  92
ENDBRANCH  43  44
ENDBRANCH  36  38
ENDBRANCH  35  36
ENDBRANCH  34  35
ENDBRANCH  33  34
ENDBRANCH  32  33
ENDBRANCH   1  32
TORSDOF 18
