REMARK SMILES Cc1ccc(NC(=O)C[C@H]([NH2+]Cc2cccnc2)C(=O)OCCOC(=O)c2ccc(-c3c4nc(c(-c5c(F)c(F)c(F)c(F)c5F)c5ccc([nH]5)c(-c5c(F)c(F)c(F)c(F)c5F)c5nc(c(-c6c(F)c(F)c(F)c(F)c6F)c6ccc3[nH]6)C=C5)C=C4)cc2)cc1Cl
REMARK SMILES IDX 22 1 21 2 19 3 20 4 10 5 9 6 7 7 6 8 8 10 5 11 1 12 2 13
REMARK SMILES IDX 3 14 91 15 4 16 90 17 92 18 11 19 12 22 13 23 14 24 18 25
REMARK SMILES IDX 15 26 17 27 16 28 23 29 24 30 25 31 26 32 27 33 28 34 89 35
REMARK SMILES IDX 29 36 88 37 30 38 31 39 32 40 82 41 33 42 87 43 81 44 83 45
REMARK SMILES IDX 34 46 86 47 80 48 79 49 35 51 67 52 47 53 66 54 48 55 51 56
REMARK SMILES IDX 65 57 84 58 49 59 50 60 64 62 85 63 52 64 36 65 37 66 45 67
REMARK SMILES IDX 38 68 39 69 43 70 46 71 40 72 41 73 44 74 42 75 68 76 69 77
REMARK SMILES IDX 77 78 70 79 71 80 75 81 78 82 72 83 73 84 76 85 74 86 53 87
REMARK SMILES IDX 54 88 62 89 55 90 56 91 60 92 63 93 57 94 58 95 61 96 59 97
REMARK H PARENT 6 9 11 20 11 21 83 50 51 61
REMARK Flexibility Score: inf
ROOT
ATOM      1  C   UNL     1       3.404  -2.731  -0.813  1.00  0.00     0.274 C 
ENDROOT
BRANCH   1   2
ATOM      2  O   UNL     1       1.989  -2.590  -0.565  1.00  0.00    -0.458 OA
BRANCH   2   3
ATOM      3  C   UNL     1       1.146  -2.582  -1.629  1.00  0.00     0.365 C 
ATOM      4  O   UNL     1       1.505  -2.731  -2.793  1.00  0.00    -0.245 OA
BRANCH   3   5
ATOM      5  C   UNL     1      -0.331  -2.347  -1.239  1.00  0.00     0.303 C 
BRANCH   5   6
ATOM      6  C   UNL     1      -0.460  -1.060  -0.446  1.00  0.00     0.177 C 
BRANCH   6   7
ATOM      7  C   UNL     1       0.356  -0.702   0.785  1.00  0.00     0.231 C 
ATOM      8  N   UNL     1       0.459  -1.338   1.973  1.00  0.00    -0.326 N 
ATOM      9  H   UNL     1       0.671  -0.680   2.675  1.00  0.00     0.169 HD
ATOM     10  O   UNL     1       0.836   0.449   0.797  1.00  0.00    -0.274 OA
BRANCH   8  11
ATOM     11  C   UNL     1       0.367  -2.618   2.552  1.00  0.00     0.042 A 
ATOM     12  C   UNL     1       0.288  -6.365   4.775  1.00  0.00     0.046 C 
ATOM     13  C   UNL     1       0.322  -5.078   4.004  1.00  0.00    -0.032 A 
ATOM     14  C   UNL     1       0.275  -3.852   4.669  1.00  0.00     0.007 A 
ATOM     15  C   UNL     1       0.395  -5.060   2.611  1.00  0.00     0.046 A 
ATOM     16  C   UNL     1       0.295  -2.647   3.951  1.00  0.00     0.026 A 
ATOM     17  C   UNL     1       0.461  -3.842   1.908  1.00  0.00     0.047 A 
ATOM     18  Cl  UNL     1       0.405  -6.552   1.731  1.00  0.00    -0.084 Cl
ENDBRANCH   8  11
ENDBRANCH   6   7
ENDBRANCH   5   6
BRANCH   5  19
ATOM     19  N   UNL     1      -0.996  -3.505  -0.627  1.00  0.00    -0.330 N 
ATOM     20  H   UNL     1      -0.590  -3.639   0.299  1.00  0.00     0.347 HD
ATOM     21  H   UNL     1      -0.841  -4.274  -1.279  1.00  0.00     0.347 HD
BRANCH  19  22
ATOM     22  C   UNL     1      -2.442  -3.428  -0.467  1.00  0.00     0.299 C 
BRANCH  22  23
ATOM     23  C   UNL     1      -2.879  -4.086   0.816  1.00  0.00     0.024 A 
ATOM     24  C   UNL     1      -3.061  -5.467   0.913  1.00  0.00     0.013 A 
ATOM     25  C   UNL     1      -3.075  -3.340   1.978  1.00  0.00     0.120 A 
ATOM     26  C   UNL     1      -3.426  -6.034   2.133  1.00  0.00     0.021 A 
ATOM     27  N   UNL     1      -3.443  -3.859   3.173  1.00  0.00    -0.264 NA
ATOM     28  C   UNL     1      -3.603  -5.198   3.223  1.00  0.00     0.111 A 
ENDBRANCH  22  23
ENDBRANCH  19  22
ENDBRANCH   5  19
ENDBRANCH   3   5
ENDBRANCH   2   3
ENDBRANCH   1   2
BRANCH   1  29
ATOM     29  C   UNL     1       3.904  -4.162  -0.580  1.00  0.00     0.275 C 
BRANCH  29  30
ATOM     30  O   UNL     1       3.592  -5.026  -1.689  1.00  0.00    -0.458 OA
BRANCH  30  31
ATOM     31  C   UNL     1       2.349  -5.548  -1.640  1.00  0.00     0.338 C 
ATOM     32  O   UNL     1       1.523  -5.408  -0.759  1.00  0.00    -0.246 OA
BRANCH  31  33
ATOM     33  C   UNL     1       1.979  -6.189  -2.897  1.00  0.00     0.060 A 
ATOM     34  C   UNL     1       0.784  -5.756  -3.486  1.00  0.00     0.016 A 
ATOM     35  C   UNL     1       2.716  -7.241  -3.433  1.00  0.00     0.016 A 
ATOM     36  C   UNL     1       0.319  -6.365  -4.634  1.00  0.00     0.010 A 
ATOM     37  C   UNL     1       2.247  -7.856  -4.590  1.00  0.00     0.010 A 
ATOM     38  C   UNL     1       1.054  -7.414  -5.189  1.00  0.00    -0.014 A 
BRANCH  38  39
ATOM     39  C   UNL     1       0.572  -8.042  -6.427  1.00  0.00     0.031 A 
ATOM     40  C   UNL     1      -0.113  -9.364  -6.363  1.00  0.00     0.074 A 
ATOM     41  C   UNL     1       0.782  -7.403  -7.588  1.00  0.00     0.049 A 
ATOM     42  N   UNL     1      -0.469 -10.154  -7.339  1.00  0.00    -0.248 NA
ATOM     43  C   UNL     1      -0.436  -9.870  -5.020  1.00  0.00     0.031 C 
ATOM     44  C   UNL     1       1.394  -6.079  -7.718  1.00  0.00     0.029 A 
ATOM     45  N   UNL     1       0.531  -7.789  -8.875  1.00  0.00    -0.354 N 
ATOM     46  C   UNL     1      -1.030 -11.266  -6.731  1.00  0.00     0.074 A 
ATOM     47  C   UNL     1      -0.971 -11.049  -5.301  1.00  0.00     0.031 C 
ATOM     48  C   UNL     1       1.507  -5.778  -9.020  1.00  0.00     0.029 A 
ATOM     49  C   UNL     1       1.024  -6.910  -9.805  1.00  0.00     0.049 A 
ATOM     50  H   UNL     1       0.046  -8.613  -9.110  1.00  0.00     0.167 HD
ATOM     51  C   UNL     1      -1.534 -12.370  -7.330  1.00  0.00     0.037 A 
ATOM     52  C   UNL     1       1.126  -7.037 -11.139  1.00  0.00     0.037 A 
ATOM     53  C   UNL     1      -1.575 -12.549  -8.758  1.00  0.00     0.049 A 
ATOM     54  C   UNL     1       0.607  -8.293 -11.778  1.00  0.00     0.074 A 
ATOM     55  C   UNL     1      -2.085 -13.609  -9.483  1.00  0.00     0.029 A 
ATOM     56  N   UNL     1      -1.071 -11.637  -9.678  1.00  0.00    -0.354 N 
ATOM     57  N   UNL     1       0.070  -9.345 -11.208  1.00  0.00    -0.248 NA
ATOM     58  C   UNL     1       0.709  -8.384 -13.239  1.00  0.00     0.031 C 
ATOM     59  C   UNL     1      -1.845 -13.361 -10.839  1.00  0.00     0.029 A 
ATOM     60  C   UNL     1      -1.232 -12.123 -10.964  1.00  0.00     0.049 A 
ATOM     61  H   UNL     1      -0.659 -10.772  -9.449  1.00  0.00     0.167 HD
ATOM     62  C   UNL     1      -0.248 -10.218 -12.236  1.00  0.00     0.074 A 
ATOM     63  C   UNL     1       0.152  -9.566 -13.469  1.00  0.00     0.031 C 
ATOM     64  C   UNL     1      -0.822 -11.444 -12.169  1.00  0.00     0.037 A 
BRANCH  51  65
ATOM     65  C   UNL     1      -2.017 -13.476  -6.442  1.00  0.00     0.064 A 
ATOM     66  C   UNL     1      -3.189 -13.363  -5.680  1.00  0.00     0.173 A 
ATOM     67  C   UNL     1      -1.287 -14.672  -6.349  1.00  0.00     0.173 A 
ATOM     68  F   UNL     1      -3.912 -12.234  -5.718  1.00  0.00    -0.203 F 
ATOM     69  C   UNL     1      -3.596 -14.393  -4.834  1.00  0.00     0.198 A 
ATOM     70  C   UNL     1      -1.711 -15.709  -5.523  1.00  0.00     0.198 A 
ATOM     71  F   UNL     1      -0.158 -14.831  -7.055  1.00  0.00    -0.203 F 
ATOM     72  F   UNL     1      -4.689 -14.241  -4.075  1.00  0.00    -0.200 F 
ATOM     73  C   UNL     1      -2.859 -15.566  -4.760  1.00  0.00     0.200 A 
ATOM     74  F   UNL     1      -1.001 -16.844  -5.458  1.00  0.00    -0.200 F 
ATOM     75  F   UNL     1      -3.250 -16.554  -3.943  1.00  0.00    -0.200 F 
ENDBRANCH  51  65
BRANCH  52  76
ATOM     76  C   UNL     1       1.779  -5.960 -11.921  1.00  0.00     0.064 A 
ATOM     77  C   UNL     1       1.032  -5.108 -12.742  1.00  0.00     0.173 A 
ATOM     78  C   UNL     1       3.158  -5.721 -11.808  1.00  0.00     0.173 A 
ATOM     79  F   UNL     1      -0.285  -5.307 -12.892  1.00  0.00    -0.203 F 
ATOM     80  C   UNL     1       1.640  -4.055 -13.423  1.00  0.00     0.198 A 
ATOM     81  C   UNL     1       3.759  -4.653 -12.469  1.00  0.00     0.198 A 
ATOM     82  F   UNL     1       3.914  -6.505 -11.025  1.00  0.00    -0.203 F 
ATOM     83  F   UNL     1       0.907  -3.264 -14.219  1.00  0.00    -0.200 F 
ATOM     84  C   UNL     1       3.000  -3.822 -13.278  1.00  0.00     0.200 A 
ATOM     85  F   UNL     1       5.070  -4.422 -12.311  1.00  0.00    -0.200 F 
ATOM     86  F   UNL     1       3.579  -2.797 -13.918  1.00  0.00    -0.200 F 
ENDBRANCH  52  76
BRANCH  64  87
ATOM     87  C   UNL     1      -1.076 -12.147 -13.467  1.00  0.00     0.064 A 
ATOM     88  C   UNL     1      -0.038 -12.752 -14.188  1.00  0.00     0.173 A 
ATOM     89  C   UNL     1      -2.385 -12.273 -13.957  1.00  0.00     0.173 A 
ATOM     90  F   UNL     1       1.231 -12.643 -13.766  1.00  0.00    -0.203 F 
ATOM     91  C   UNL     1      -0.301 -13.453 -15.362  1.00  0.00     0.198 A 
ATOM     92  C   UNL     1      -2.646 -12.995 -15.116  1.00  0.00     0.198 A 
ATOM     93  F   UNL     1      -3.410 -11.714 -13.297  1.00  0.00    -0.203 F 
ATOM     94  F   UNL     1       0.708 -13.999 -16.054  1.00  0.00    -0.200 F 
ATOM     95  C   UNL     1      -1.605 -13.582 -15.819  1.00  0.00     0.200 A 
ATOM     96  F   UNL     1      -3.907 -13.129 -15.550  1.00  0.00    -0.200 F 
ATOM     97  F   UNL     1      -1.857 -14.270 -16.941  1.00  0.00    -0.200 F 
ENDBRANCH  64  87
ENDBRANCH  38  39
ENDBRANCH  31  33
ENDBRANCH  30  31
ENDBRANCH  29  30
ENDBRANCH   1  29
TORSDOF 17
