REMARK SMILES CC[NH2+][C@@]1(C(=O)OCCOC(=O)c2ccc(-c3c4nc(c(-c5c(F)c(F)c(F)c(F)c5F)c5ccc([nH]5)c(-c5c(F)c(F)c(F)c(F)c5F)c5nc(c(-c6c(F)c(F)c(F)c(F)c6F)c6ccc3[nH]6)C=C5)C=C4)cc2)CC[C@@H]([N@@H+](C)Cc2nccn2C)C1
REMARK SMILES IDX 8 1 7 2 5 3 6 4 4 5 76 6 88 7 77 8 78 9 3 10 2 13 1 14 79 15
REMARK SMILES IDX 80 16 81 18 82 19 83 20 86 21 84 22 85 23 87 24 9 25 10 26
REMARK SMILES IDX 11 27 12 28 13 29 14 30 75 31 15 32 74 33 16 34 17 35 18 36
REMARK SMILES IDX 68 37 19 38 73 39 67 40 69 41 20 42 72 43 66 44 65 45 21 47
REMARK SMILES IDX 53 48 33 49 52 50 34 51 37 52 51 53 70 54 35 55 36 56 50 58
REMARK SMILES IDX 71 59 38 60 22 61 23 62 31 63 24 64 25 65 29 66 32 67 26 68
REMARK SMILES IDX 27 69 30 70 28 71 54 72 55 73 63 74 56 75 57 76 61 77 64 78
REMARK SMILES IDX 58 79 59 80 62 81 60 82 39 83 40 84 48 85 41 86 42 87 46 88
REMARK SMILES IDX 49 89 43 90 44 91 47 92 45 93
REMARK H PARENT 3 11 3 12 79 17 69 46 37 57
REMARK Flexibility Score: inf
ROOT
ATOM      1  C   UNL     1      -3.392  -4.244   0.653  1.00  0.00     0.274 C 
ENDROOT
BRANCH   1   2
ATOM      2  O   UNL     1      -1.985  -4.486   0.455  1.00  0.00    -0.457 OA
BRANCH   2   3
ATOM      3  C   UNL     1      -1.291  -3.434  -0.068  1.00  0.00     0.368 C 
ATOM      4  O   UNL     1      -1.819  -2.366  -0.363  1.00  0.00    -0.245 OA
BRANCH   3   5
ATOM      5  C   UNL     1       0.218  -3.768  -0.311  1.00  0.00     0.200 C 
ATOM      6  C   UNL     1       0.368  -4.527  -1.631  1.00  0.00     0.087 C 
ATOM      7  C   UNL     1       0.813  -4.731   0.740  1.00  0.00     0.146 C 
ATOM      8  C   UNL     1       0.197  -5.998  -1.277  1.00  0.00     0.072 C 
ATOM      9  C   UNL     1       0.670  -6.160   0.178  1.00  0.00     0.191 C 
BRANCH   5  10
ATOM     10  N   UNL     1       1.001  -2.501  -0.252  1.00  0.00    -0.332 N 
ATOM     11  H   UNL     1       0.685  -1.978   0.565  1.00  0.00     0.347 HD
ATOM     12  H   UNL     1       1.980  -2.785  -0.214  1.00  0.00     0.347 HD
BRANCH  10  13
ATOM     13  C   UNL     1       0.891  -1.623  -1.414  1.00  0.00     0.257 C 
ATOM     14  C   UNL     1       1.335  -0.229  -0.999  1.00  0.00     0.071 C 
ENDBRANCH  10  13
ENDBRANCH   5  10
BRANCH   9  15
ATOM     15  N   UNL     1       1.803  -7.059   0.458  1.00  0.00    -0.328 N 
ATOM     16  C   UNL     1       1.535  -8.441   0.054  1.00  0.00     0.333 C 
ATOM     17  H   UNL     1       1.839  -6.987   1.475  1.00  0.00     0.348 HD
BRANCH  15  18
ATOM     18  C   UNL     1       3.171  -6.642   0.091  1.00  0.00     0.338 C 
BRANCH  18  19
ATOM     19  C   UNL     1       3.425  -6.355  -1.362  1.00  0.00     0.164 A 
ATOM     20  N   UNL     1       3.264  -7.223  -2.348  1.00  0.00    -0.236 NA
ATOM     21  N   UNL     1       3.887  -5.158  -1.869  1.00  0.00    -0.333 N 
ATOM     22  C   UNL     1       3.533  -6.551  -3.507  1.00  0.00     0.131 A 
ATOM     23  C   UNL     1       3.907  -5.261  -3.236  1.00  0.00     0.107 A 
ATOM     24  C   UNL     1       4.264  -3.957  -1.166  1.00  0.00     0.151 C 
ENDBRANCH  18  19
ENDBRANCH  15  18
ENDBRANCH   9  15
ENDBRANCH   3   5
ENDBRANCH   2   3
ENDBRANCH   1   2
BRANCH   1  25
ATOM     25  C   UNL     1      -3.709  -3.757   2.071  1.00  0.00     0.275 C 
BRANCH  25  26
ATOM     26  O   UNL     1      -3.051  -2.515   2.384  1.00  0.00    -0.458 OA
BRANCH  26  27
ATOM     27  C   UNL     1      -1.863  -2.643   3.020  1.00  0.00     0.338 C 
ATOM     28  O   UNL     1      -1.355  -3.685   3.415  1.00  0.00    -0.246 OA
BRANCH  27  29
ATOM     29  C   UNL     1      -1.154  -1.350   3.076  1.00  0.00     0.060 A 
ATOM     30  C   UNL     1       0.205  -1.343   2.747  1.00  0.00     0.016 A 
ATOM     31  C   UNL     1      -1.776  -0.173   3.500  1.00  0.00     0.016 A 
ATOM     32  C   UNL     1       0.945  -0.166   2.818  1.00  0.00     0.010 A 
ATOM     33  C   UNL     1      -1.025   1.005   3.605  1.00  0.00     0.010 A 
ATOM     34  C   UNL     1       0.340   1.012   3.270  1.00  0.00    -0.014 A 
BRANCH  34  35
ATOM     35  C   UNL     1       1.182   2.207   3.516  1.00  0.00     0.031 A 
ATOM     36  C   UNL     1       1.833   2.371   4.857  1.00  0.00     0.074 A 
ATOM     37  C   UNL     1       1.403   3.108   2.544  1.00  0.00     0.049 A 
ATOM     38  N   UNL     1       2.601   3.335   5.297  1.00  0.00    -0.248 NA
ATOM     39  C   UNL     1       1.589   1.298   5.832  1.00  0.00     0.031 C 
ATOM     40  C   UNL     1       0.881   3.025   1.184  1.00  0.00     0.029 A 
ATOM     41  N   UNL     1       2.132   4.272   2.557  1.00  0.00    -0.354 N 
ATOM     42  C   UNL     1       2.929   2.988   6.600  1.00  0.00     0.074 A 
ATOM     43  C   UNL     1       2.267   1.732   6.883  1.00  0.00     0.031 C 
ATOM     44  C   UNL     1       1.312   4.089   0.486  1.00  0.00     0.029 A 
ATOM     45  C   UNL     1       2.101   4.952   1.365  1.00  0.00     0.049 A 
ATOM     46  H   UNL     1       2.630   4.588   3.345  1.00  0.00     0.167 HD
ATOM     47  C   UNL     1       3.706   3.660   7.483  1.00  0.00     0.037 A 
ATOM     48  C   UNL     1       2.629   6.146   1.034  1.00  0.00     0.037 A 
ATOM     49  C   UNL     1       4.334   4.927   7.212  1.00  0.00     0.049 A 
ATOM     50  C   UNL     1       3.400   6.927   2.069  1.00  0.00     0.074 A 
ATOM     51  C   UNL     1       5.122   5.697   8.048  1.00  0.00     0.029 A 
ATOM     52  N   UNL     1       4.226   5.620   6.014  1.00  0.00    -0.354 N 
ATOM     53  N   UNL     1       3.714   6.592   3.297  1.00  0.00    -0.248 NA
ATOM     54  C   UNL     1       3.882   8.257   1.670  1.00  0.00     0.031 C 
ATOM     55  C   UNL     1       5.442   6.883   7.377  1.00  0.00     0.029 A 
ATOM     56  C   UNL     1       4.908   6.824   6.100  1.00  0.00     0.049 A 
ATOM     57  H   UNL     1       3.736   5.303   5.221  1.00  0.00     0.167 HD
ATOM     58  C   UNL     1       4.455   7.652   3.806  1.00  0.00     0.074 A 
ATOM     59  C   UNL     1       4.551   8.638   2.750  1.00  0.00     0.031 C 
ATOM     60  C   UNL     1       5.007   7.793   5.037  1.00  0.00     0.037 A 
BRANCH  47  61
ATOM     61  C   UNL     1       3.856   3.058   8.849  1.00  0.00     0.064 A 
ATOM     62  C   UNL     1       4.600   1.888   9.065  1.00  0.00     0.173 A 
ATOM     63  C   UNL     1       3.229   3.651   9.955  1.00  0.00     0.173 A 
ATOM     64  F   UNL     1       5.205   1.272   8.037  1.00  0.00    -0.203 F 
ATOM     65  C   UNL     1       4.675   1.311  10.330  1.00  0.00     0.198 A 
ATOM     66  C   UNL     1       3.331   3.088  11.224  1.00  0.00     0.198 A 
ATOM     67  F   UNL     1       2.508   4.772   9.803  1.00  0.00    -0.203 F 
ATOM     68  F   UNL     1       5.336   0.158  10.502  1.00  0.00    -0.200 F 
ATOM     69  C   UNL     1       4.043   1.913  11.409  1.00  0.00     0.200 A 
ATOM     70  F   UNL     1       2.729   3.677  12.266  1.00  0.00    -0.200 F 
ATOM     71  F   UNL     1       4.109   1.353  12.624  1.00  0.00    -0.200 F 
ENDBRANCH  47  61
BRANCH  48  72
ATOM     72  C   UNL     1       2.437   6.693  -0.336  1.00  0.00     0.064 A 
ATOM     73  C   UNL     1       3.521   6.841  -1.212  1.00  0.00     0.173 A 
ATOM     74  C   UNL     1       1.173   7.101  -0.787  1.00  0.00     0.173 A 
ATOM     75  F   UNL     1       4.754   6.494  -0.816  1.00  0.00    -0.203 F 
ATOM     76  C   UNL     1       3.350   7.389  -2.482  1.00  0.00     0.198 A 
ATOM     77  C   UNL     1       0.999   7.622  -2.068  1.00  0.00     0.198 A 
ATOM     78  F   UNL     1       0.104   6.989   0.015  1.00  0.00    -0.203 F 
ATOM     79  F   UNL     1       4.411   7.562  -3.282  1.00  0.00    -0.200 F 
ATOM     80  C   UNL     1       2.088   7.772  -2.912  1.00  0.00     0.200 A 
ATOM     81  F   UNL     1      -0.224   7.983  -2.482  1.00  0.00    -0.200 F 
ATOM     82  F   UNL     1       1.925   8.296  -4.134  1.00  0.00    -0.200 F 
ENDBRANCH  48  72
BRANCH  60  83
ATOM     83  C   UNL     1       5.811   9.036   5.299  1.00  0.00     0.064 A 
ATOM     84  C   UNL     1       5.208  10.295   5.439  1.00  0.00     0.173 A 
ATOM     85  C   UNL     1       7.203   8.955   5.460  1.00  0.00     0.173 A 
ATOM     86  F   UNL     1       3.883  10.430   5.279  1.00  0.00    -0.203 F 
ATOM     87  C   UNL     1       5.972  11.429   5.706  1.00  0.00     0.198 A 
ATOM     88  C   UNL     1       7.959  10.085   5.759  1.00  0.00     0.198 A 
ATOM     89  F   UNL     1       7.830   7.774   5.344  1.00  0.00    -0.203 F 
ATOM     90  F   UNL     1       5.380  12.629   5.789  1.00  0.00    -0.200 F 
ATOM     91  C   UNL     1       7.345  11.322   5.875  1.00  0.00     0.200 A 
ATOM     92  F   UNL     1       9.283   9.976   5.936  1.00  0.00    -0.200 F 
ATOM     93  F   UNL     1       8.076  12.413   6.142  1.00  0.00    -0.200 F 
ENDBRANCH  60  83
ENDBRANCH  34  35
ENDBRANCH  27  29
ENDBRANCH  26  27
ENDBRANCH  25  26
ENDBRANCH   1  25
TORSDOF 16
