REMARK SMILES Cc1nsc(NC(=O)c2ccc(N)cc2)c1C(=O)OCCOC(=O)c1ccc(-c2c3nc(c(-c4c(F)c(F)c(F)c(F)c4F)c4ccc([nH]4)c(-c4c(F)c(F)c(F)c(F)c4F)c4nc(c(-c5c(F)c(F)c(F)c(F)c5F)c5ccc2[nH]5)C=C4)C=C3)cc1
REMARK SMILES IDX 20 1 19 2 17 3 18 4 16 5 1 6 2 7 3 8 4 9 5 10 6 11 7 12 8 14
REMARK SMILES IDX 9 15 10 16 15 17 11 18 14 19 12 20 13 21 21 24 22 25 23 26
REMARK SMILES IDX 24 27 25 28 26 29 87 30 27 31 86 32 28 33 29 34 30 35 80 36
REMARK SMILES IDX 31 37 85 38 79 39 81 40 32 41 84 42 78 43 77 44 33 46 65 47
REMARK SMILES IDX 45 48 64 49 46 50 49 51 63 52 82 53 47 54 48 55 62 57 83 58
REMARK SMILES IDX 50 59 34 60 35 61 43 62 36 63 37 64 41 65 44 66 38 67 39 68
REMARK SMILES IDX 42 69 40 70 66 71 67 72 75 73 68 74 69 75 73 76 76 77 70 78
REMARK SMILES IDX 71 79 74 80 72 81 51 82 52 83 60 84 53 85 54 86 58 87 61 88
REMARK SMILES IDX 55 89 56 90 59 91 57 92
REMARK H PARENT 6 13 13 22 13 23 81 45 49 56
REMARK Flexibility Score: inf
ROOT
ATOM      1  C   UNL     1       3.835   1.546  -1.966  1.00  0.00     0.275 C 
ENDROOT
BRANCH   1   2
ATOM      2  O   UNL     1       2.828   1.363  -0.954  1.00  0.00    -0.458 OA
BRANCH   2   3
ATOM      3  C   UNL     1       2.550   2.428  -0.146  1.00  0.00     0.343 C 
ATOM      4  O   UNL     1       3.245   3.441  -0.082  1.00  0.00    -0.246 OA
BRANCH   3   5
ATOM      5  C   UNL     1       1.262   2.311   0.527  1.00  0.00     0.117 A 
ATOM      6  C   UNL     1       0.818  -0.265   0.251  1.00  0.00     0.069 C 
ATOM      7  C   UNL     1       0.458   1.117   0.676  1.00  0.00     0.068 A 
ATOM      8  N   UNL     1      -0.742   1.286   1.233  1.00  0.00    -0.195 NA
ATOM      9  S   UNL     1      -0.980   2.892   1.501  1.00  0.00    -0.017 S 
ATOM     10  C   UNL     1       0.575   3.404   1.049  1.00  0.00     0.131 A 
BRANCH  10  11
ATOM     11  N   UNL     1       0.984   4.730   1.075  1.00  0.00    -0.312 N 
ATOM     12  C   UNL     1       0.400   5.867   1.590  1.00  0.00     0.256 C 
ATOM     13  H   UNL     1       1.855   4.888   0.644  1.00  0.00     0.171 HD
ATOM     14  O   UNL     1       0.790   6.972   1.209  1.00  0.00    -0.269 OA
BRANCH  12  15
ATOM     15  C   UNL     1      -0.641   5.830   2.638  1.00  0.00     0.040 A 
ATOM     16  C   UNL     1      -0.466   5.078   3.803  1.00  0.00     0.016 A 
ATOM     17  C   UNL     1      -1.785   6.618   2.485  1.00  0.00     0.016 A 
ATOM     18  C   UNL     1      -1.491   5.021   4.752  1.00  0.00     0.026 A 
ATOM     19  C   UNL     1      -2.795   6.570   3.452  1.00  0.00     0.026 A 
ATOM     20  C   UNL     1      -2.681   5.729   4.563  1.00  0.00     0.031 A 
BRANCH  20  21
ATOM     21  N   UNL     1      -3.673   5.703   5.530  1.00  0.00    -0.399 N 
ATOM     22  H   UNL     1      -3.585   5.108   6.309  1.00  0.00     0.156 HD
ATOM     23  H   UNL     1      -4.465   6.280   5.439  1.00  0.00     0.156 HD
ENDBRANCH  20  21
ENDBRANCH  12  15
ENDBRANCH  10  11
ENDBRANCH   3   5
ENDBRANCH   2   3
ENDBRANCH   1   2
BRANCH   1  24
ATOM     24  C   UNL     1       3.220   2.083  -3.253  1.00  0.00     0.275 C 
BRANCH  24  25
ATOM     25  O   UNL     1       2.914   3.471  -3.127  1.00  0.00    -0.458 OA
BRANCH  25  26
ATOM     26  C   UNL     1       1.645   3.744  -2.755  1.00  0.00     0.338 C 
ATOM     27  O   UNL     1       0.825   2.956  -2.317  1.00  0.00    -0.246 OA
BRANCH  26  28
ATOM     28  C   UNL     1       1.304   5.114  -3.143  1.00  0.00     0.060 A 
ATOM     29  C   UNL     1       0.032   5.570  -2.788  1.00  0.00     0.016 A 
ATOM     30  C   UNL     1       2.094   5.778  -4.093  1.00  0.00     0.016 A 
ATOM     31  C   UNL     1      -0.535   6.572  -3.542  1.00  0.00     0.010 A 
ATOM     32  C   UNL     1       1.526   6.779  -4.844  1.00  0.00     0.010 A 
ATOM     33  C   UNL     1       0.189   7.096  -4.619  1.00  0.00    -0.014 A 
BRANCH  33  34
ATOM     34  C   UNL     1      -0.498   8.014  -5.502  1.00  0.00     0.031 A 
ATOM     35  C   UNL     1      -0.830   9.322  -4.886  1.00  0.00     0.074 A 
ATOM     36  C   UNL     1      -0.716   7.717  -6.796  1.00  0.00     0.049 A 
ATOM     37  N   UNL     1      -1.982   9.901  -4.797  1.00  0.00    -0.248 NA
ATOM     38  C   UNL     1       0.258  10.025  -4.187  1.00  0.00     0.031 C 
ATOM     39  C   UNL     1      -0.193   6.595  -7.582  1.00  0.00     0.029 A 
ATOM     40  N   UNL     1      -1.389   8.448  -7.720  1.00  0.00    -0.354 N 
ATOM     41  C   UNL     1      -1.749  11.108  -4.143  1.00  0.00     0.074 A 
ATOM     42  C   UNL     1      -0.384  11.081  -3.690  1.00  0.00     0.031 C 
ATOM     43  C   UNL     1      -0.375   6.854  -8.897  1.00  0.00     0.029 A 
ATOM     44  C   UNL     1      -1.133   8.087  -9.030  1.00  0.00     0.049 A 
ATOM     45  H   UNL     1      -2.008   9.175  -7.477  1.00  0.00     0.167 HD
ATOM     46  C   UNL     1      -2.649  12.126  -4.173  1.00  0.00     0.037 A 
ATOM     47  C   UNL     1      -1.440   8.822 -10.126  1.00  0.00     0.037 A 
ATOM     48  C   UNL     1      -3.974  11.652  -4.467  1.00  0.00     0.049 A 
ATOM     49  C   UNL     1      -2.480   9.807  -9.726  1.00  0.00     0.074 A 
ATOM     50  C   UNL     1      -4.849  10.799  -3.822  1.00  0.00     0.029 A 
ATOM     51  N   UNL     1      -4.453  11.770  -5.748  1.00  0.00    -0.354 N 
ATOM     52  N   UNL     1      -3.701   9.486  -9.398  1.00  0.00    -0.248 NA
ATOM     53  C   UNL     1      -2.028  11.107  -9.248  1.00  0.00     0.031 C 
ATOM     54  C   UNL     1      -5.495  10.073  -4.864  1.00  0.00     0.029 A 
ATOM     55  C   UNL     1      -5.006  10.557  -6.077  1.00  0.00     0.049 A 
ATOM     56  H   UNL     1      -4.409  12.570  -6.320  1.00  0.00     0.167 HD
ATOM     57  C   UNL     1      -4.025  10.335  -8.349  1.00  0.00     0.074 A 
ATOM     58  C   UNL     1      -2.988  11.364  -8.355  1.00  0.00     0.031 C 
ATOM     59  C   UNL     1      -4.934   9.975  -7.396  1.00  0.00     0.037 A 
BRANCH  46  60
ATOM     60  C   UNL     1      -2.261  13.579  -4.222  1.00  0.00     0.064 A 
ATOM     61  C   UNL     1      -3.254  14.569  -4.091  1.00  0.00     0.173 A 
ATOM     62  C   UNL     1      -1.002  14.034  -4.674  1.00  0.00     0.173 A 
ATOM     63  F   UNL     1      -4.493  14.246  -3.691  1.00  0.00    -0.203 F 
ATOM     64  C   UNL     1      -3.020  15.898  -4.453  1.00  0.00     0.198 A 
ATOM     65  C   UNL     1      -0.757  15.371  -4.981  1.00  0.00     0.198 A 
ATOM     66  F   UNL     1       0.006  13.195  -4.942  1.00  0.00    -0.203 F 
ATOM     67  F   UNL     1      -4.029  16.780  -4.427  1.00  0.00    -0.200 F 
ATOM     68  C   UNL     1      -1.775  16.297  -4.902  1.00  0.00     0.200 A 
ATOM     69  F   UNL     1       0.452  15.732  -5.432  1.00  0.00    -0.200 F 
ATOM     70  F   UNL     1      -1.567  17.556  -5.307  1.00  0.00    -0.200 F 
ENDBRANCH  46  60
BRANCH  47  71
ATOM     71  C   UNL     1      -0.633   8.958 -11.361  1.00  0.00     0.064 A 
ATOM     72  C   UNL     1      -1.189   9.483 -12.537  1.00  0.00     0.173 A 
ATOM     73  C   UNL     1       0.770   8.813 -11.343  1.00  0.00     0.173 A 
ATOM     74  F   UNL     1      -2.510   9.701 -12.618  1.00  0.00    -0.203 F 
ATOM     75  C   UNL     1      -0.389   9.854 -13.624  1.00  0.00     0.198 A 
ATOM     76  C   UNL     1       1.565   9.172 -12.431  1.00  0.00     0.198 A 
ATOM     77  F   UNL     1       1.409   8.408 -10.236  1.00  0.00    -0.203 F 
ATOM     78  F   UNL     1      -0.949  10.406 -14.709  1.00  0.00    -0.200 F 
ATOM     79  C   UNL     1       0.987   9.704 -13.567  1.00  0.00     0.200 A 
ATOM     80  F   UNL     1       2.898   9.054 -12.346  1.00  0.00    -0.200 F 
ATOM     81  F   UNL     1       1.758  10.108 -14.586  1.00  0.00    -0.200 F 
ENDBRANCH  47  71
BRANCH  59  82
ATOM     82  C   UNL     1      -5.730   8.720  -7.628  1.00  0.00     0.064 A 
ATOM     83  C   UNL     1      -5.152   7.440  -7.714  1.00  0.00     0.173 A 
ATOM     84  C   UNL     1      -7.128   8.791  -7.606  1.00  0.00     0.173 A 
ATOM     85  F   UNL     1      -3.827   7.276  -7.625  1.00  0.00    -0.203 F 
ATOM     86  C   UNL     1      -5.936   6.294  -7.827  1.00  0.00     0.198 A 
ATOM     87  C   UNL     1      -7.911   7.641  -7.680  1.00  0.00     0.198 A 
ATOM     88  F   UNL     1      -7.739   9.977  -7.460  1.00  0.00    -0.203 F 
ATOM     89  F   UNL     1      -5.356   5.088  -7.920  1.00  0.00    -0.200 F 
ATOM     90  C   UNL     1      -7.316   6.395  -7.803  1.00  0.00     0.200 A 
ATOM     91  F   UNL     1      -9.246   7.738  -7.603  1.00  0.00    -0.200 F 
ATOM     92  F   UNL     1      -8.073   5.291  -7.867  1.00  0.00    -0.200 F 
ENDBRANCH  59  82
ENDBRANCH  33  34
ENDBRANCH  26  28
ENDBRANCH  25  26
ENDBRANCH  24  25
ENDBRANCH   1  24
TORSDOF 14
