REMARK SMILES O=C(OCCOC(=O)c1ccn(CC(F)(F)F)c1)c1ccc(-c2c3nc(c(-c4c(F)c(F)c(F)c(F)c4F)c4ccc([nH]4)c(-c4c(F)c(F)c(F)c(F)c4F)c4nc(c(-c5c(F)c(F)c(F)c(F)c5F)c5ccc2[nH]5)C=C4)C=C3)cc1
REMARK SMILES IDX 4 1 3 2 2 3 1 4 19 5 20 6 81 7 21 8 80 9 22 10 23 11 24 12
REMARK SMILES IDX 74 13 25 14 79 15 73 16 75 17 26 18 78 19 72 20 71 21 27 23
REMARK SMILES IDX 59 24 39 25 58 26 40 27 43 28 57 29 76 30 41 31 42 32 56 34
REMARK SMILES IDX 77 35 44 36 28 37 29 38 37 39 30 40 31 41 35 42 38 43 32 44
REMARK SMILES IDX 33 45 36 46 34 47 60 48 61 49 69 50 62 51 63 52 67 53 70 54
REMARK SMILES IDX 64 55 65 56 68 57 66 58 45 59 46 60 54 61 47 62 48 63 52 64
REMARK SMILES IDX 55 65 49 66 50 67 53 68 51 69 5 70 6 71 7 72 8 73 9 74 10 75
REMARK SMILES IDX 18 76 11 77 12 78 13 79 14 80 15 81 16 82 17 83
REMARK H PARENT 75 22 43 33
REMARK Flexibility Score: inf
ROOT
ATOM      1  C   UNL     1       4.435  -1.032   0.512  1.00  0.00     0.275 C 
ENDROOT
BRANCH   1   2
ATOM      2  O   UNL     1       3.061  -0.852   0.912  1.00  0.00    -0.458 OA
BRANCH   2   3
ATOM      3  C   UNL     1       2.261   0.185   0.569  1.00  0.00     0.338 C 
ATOM      4  O   UNL     1       1.104  -0.004   0.209  1.00  0.00    -0.246 OA
BRANCH   3   5
ATOM      5  C   UNL     1       2.674   1.565   0.938  1.00  0.00     0.060 A 
ATOM      6  C   UNL     1       3.978   2.059   0.867  1.00  0.00     0.016 A 
ATOM      7  C   UNL     1       1.647   2.415   1.387  1.00  0.00     0.016 A 
ATOM      8  C   UNL     1       4.288   3.297   1.414  1.00  0.00     0.010 A 
ATOM      9  C   UNL     1       1.935   3.686   1.868  1.00  0.00     0.010 A 
ATOM     10  C   UNL     1       3.265   4.104   1.920  1.00  0.00    -0.014 A 
BRANCH  10  11
ATOM     11  C   UNL     1       3.587   5.499   2.271  1.00  0.00     0.031 A 
ATOM     12  C   UNL     1       3.671   6.375   0.967  1.00  0.00     0.074 A 
ATOM     13  C   UNL     1       3.745   5.735   3.618  1.00  0.00     0.049 A 
ATOM     14  N   UNL     1       4.010   7.617   0.799  1.00  0.00    -0.248 NA
ATOM     15  C   UNL     1       3.303   5.775  -0.355  1.00  0.00     0.031 C 
ATOM     16  C   UNL     1       3.561   4.739   4.710  1.00  0.00     0.029 A 
ATOM     17  N   UNL     1       4.098   6.843   4.359  1.00  0.00    -0.354 N 
ATOM     18  C   UNL     1       3.693   7.992  -0.536  1.00  0.00     0.074 A 
ATOM     19  C   UNL     1       3.330   6.796  -1.216  1.00  0.00     0.031 C 
ATOM     20  C   UNL     1       3.916   5.247   5.916  1.00  0.00     0.029 A 
ATOM     21  C   UNL     1       4.338   6.622   5.754  1.00  0.00     0.049 A 
ATOM     22  H   UNL     1       4.181   7.735   3.953  1.00  0.00     0.167 HD
ATOM     23  C   UNL     1       3.670   9.291  -0.961  1.00  0.00     0.037 A 
ATOM     24  C   UNL     1       4.889   7.491   6.669  1.00  0.00     0.037 A 
ATOM     25  C   UNL     1       4.236  10.121   0.038  1.00  0.00     0.049 A 
ATOM     26  C   UNL     1       4.923   8.753   5.931  1.00  0.00     0.074 A 
ATOM     27  C   UNL     1       5.550  10.307   0.366  1.00  0.00     0.029 A 
ATOM     28  N   UNL     1       3.432  10.515   1.075  1.00  0.00    -0.354 N 
ATOM     29  N   UNL     1       3.872   9.461   5.654  1.00  0.00    -0.248 NA
ATOM     30  C   UNL     1       6.192   9.166   5.327  1.00  0.00     0.031 C 
ATOM     31  C   UNL     1       5.505  10.229   1.765  1.00  0.00     0.029 A 
ATOM     32  C   UNL     1       4.192  10.410   2.214  1.00  0.00     0.049 A 
ATOM     33  H   UNL     1       2.496  10.814   1.015  1.00  0.00     0.167 HD
ATOM     34  C   UNL     1       4.301  10.191   4.577  1.00  0.00     0.074 A 
ATOM     35  C   UNL     1       5.749  10.211   4.637  1.00  0.00     0.031 C 
ATOM     36  C   UNL     1       3.516  10.299   3.476  1.00  0.00     0.037 A 
BRANCH  23  37
ATOM     37  C   UNL     1       3.089  10.021  -2.140  1.00  0.00     0.064 A 
ATOM     38  C   UNL     1       3.655  11.281  -2.471  1.00  0.00     0.173 A 
ATOM     39  C   UNL     1       1.767   9.806  -2.543  1.00  0.00     0.173 A 
ATOM     40  F   UNL     1       4.943  11.545  -2.196  1.00  0.00    -0.203 F 
ATOM     41  C   UNL     1       2.882  12.329  -2.963  1.00  0.00     0.198 A 
ATOM     42  C   UNL     1       1.009  10.848  -3.095  1.00  0.00     0.198 A 
ATOM     43  F   UNL     1       1.161   8.638  -2.292  1.00  0.00    -0.203 F 
ATOM     44  F   UNL     1       3.409  13.558  -3.067  1.00  0.00    -0.200 F 
ATOM     45  C   UNL     1       1.548  12.118  -3.248  1.00  0.00     0.200 A 
ATOM     46  F   UNL     1      -0.283  10.645  -3.390  1.00  0.00    -0.200 F 
ATOM     47  F   UNL     1       0.775  13.143  -3.634  1.00  0.00    -0.200 F 
ENDBRANCH  23  37
BRANCH  24  48
ATOM     48  C   UNL     1       5.517   7.536   8.056  1.00  0.00     0.064 A 
ATOM     49  C   UNL     1       5.527   6.509   9.004  1.00  0.00     0.173 A 
ATOM     50  C   UNL     1       6.300   8.674   8.437  1.00  0.00     0.173 A 
ATOM     51  F   UNL     1       4.733   5.442   8.860  1.00  0.00    -0.203 F 
ATOM     52  C   UNL     1       6.362   6.558  10.146  1.00  0.00     0.198 A 
ATOM     53  C   UNL     1       7.179   8.693   9.519  1.00  0.00     0.198 A 
ATOM     54  F   UNL     1       6.250   9.827   7.754  1.00  0.00    -0.203 F 
ATOM     55  F   UNL     1       6.347   5.549  11.029  1.00  0.00    -0.200 F 
ATOM     56  C   UNL     1       7.228   7.619  10.368  1.00  0.00     0.200 A 
ATOM     57  F   UNL     1       7.988   9.748   9.702  1.00  0.00    -0.200 F 
ATOM     58  F   UNL     1       8.092   7.613  11.393  1.00  0.00    -0.200 F 
ENDBRANCH  24  48
BRANCH  36  59
ATOM     59  C   UNL     1       2.045   9.988   3.694  1.00  0.00     0.064 A 
ATOM     60  C   UNL     1       1.296  10.799   4.560  1.00  0.00     0.173 A 
ATOM     61  C   UNL     1       1.366   8.879   3.155  1.00  0.00     0.173 A 
ATOM     62  F   UNL     1       1.858  11.891   5.101  1.00  0.00    -0.203 F 
ATOM     63  C   UNL     1      -0.036  10.514   4.874  1.00  0.00     0.198 A 
ATOM     64  C   UNL     1       0.032   8.591   3.465  1.00  0.00     0.198 A 
ATOM     65  F   UNL     1       1.969   8.052   2.302  1.00  0.00    -0.203 F 
ATOM     66  F   UNL     1      -0.712  11.322   5.702  1.00  0.00    -0.200 F 
ATOM     67  C   UNL     1      -0.668   9.410   4.328  1.00  0.00     0.200 A 
ATOM     68  F   UNL     1      -0.574   7.527   2.914  1.00  0.00    -0.200 F 
ATOM     69  F   UNL     1      -1.952   9.150   4.615  1.00  0.00    -0.200 F 
ENDBRANCH  36  59
ENDBRANCH  10  11
ENDBRANCH   3   5
ENDBRANCH   2   3
ENDBRANCH   1   2
BRANCH   1  70
ATOM     70  C   UNL     1       4.608  -1.269  -0.990  1.00  0.00     0.275 C 
BRANCH  70  71
ATOM     71  O   UNL     1       4.161  -0.144  -1.764  1.00  0.00    -0.458 OA
BRANCH  71  72
ATOM     72  C   UNL     1       2.950  -0.287  -2.380  1.00  0.00     0.339 C 
ATOM     73  O   UNL     1       2.273  -1.315  -2.370  1.00  0.00    -0.246 OA
BRANCH  72  74
ATOM     74  C   UNL     1       2.513   0.951  -2.995  1.00  0.00     0.077 A 
ATOM     75  C   UNL     1       3.134   1.666  -4.054  1.00  0.00     0.035 A 
ATOM     76  C   UNL     1       1.372   1.662  -2.659  1.00  0.00     0.101 A 
ATOM     77  C   UNL     1       2.346   2.761  -4.338  1.00  0.00     0.087 A 
ATOM     78  N   UNL     1       1.300   2.777  -3.451  1.00  0.00    -0.344 N 
BRANCH  78  79
ATOM     79  C   UNL     1       0.207   3.733  -3.454  1.00  0.00     0.236 C 
BRANCH  79  80
ATOM     80  C   UNL     1       0.617   5.167  -3.205  1.00  0.00     0.406 C 
ATOM     81  F   UNL     1       1.704   5.545  -3.912  1.00  0.00    -0.169 F 
ATOM     82  F   UNL     1      -0.386   6.009  -3.553  1.00  0.00    -0.169 F 
ATOM     83  F   UNL     1       0.875   5.378  -1.897  1.00  0.00    -0.169 F 
ENDBRANCH  79  80
ENDBRANCH  78  79
ENDBRANCH  72  74
ENDBRANCH  71  72
ENDBRANCH  70  71
ENDBRANCH   1  70
TORSDOF 13
