REMARK SMILES CC(C)[C@@H](NC(=O)[C@H]1CCCO1)C(=O)OCCOC(=O)c1ccc(-c2c3nc(c(-c4c(F)c(F)c(F)c(F)c4F)c4ccc([nH]4)c(-c4c(F)c(F)c(F)c(F)c4F)c4nc(c(-c5c(F)c(F)c(F)c(F)c5F)c5ccc2[nH]5)C=C4)C=C3)cc1
REMARK SMILES IDX 16 1 15 2 13 3 14 4 4 5 2 6 1 7 3 8 5 9 6 10 7 12 8 13 9 14
REMARK SMILES IDX 12 15 10 16 11 17 17 18 18 19 19 20 20 21 21 22 22 23 83 24
REMARK SMILES IDX 23 25 82 26 24 27 25 28 26 29 76 30 27 31 81 32 75 33 77 34
REMARK SMILES IDX 28 35 80 36 74 37 73 38 29 40 61 41 41 42 60 43 42 44 45 45
REMARK SMILES IDX 59 46 78 47 43 48 44 49 58 51 79 52 46 53 30 54 31 55 39 56
REMARK SMILES IDX 32 57 33 58 37 59 40 60 34 61 35 62 38 63 36 64 62 65 63 66
REMARK SMILES IDX 71 67 64 68 65 69 69 70 72 71 66 72 67 73 70 74 68 75 47 76
REMARK SMILES IDX 48 77 56 78 49 79 50 80 54 81 57 82 51 83 52 84 55 85 53 86
REMARK H PARENT 5 11 77 39 45 50
REMARK Flexibility Score: inf
ROOT
ATOM      1  C   UNL     1      -5.004  -2.011   2.916  1.00  0.00     0.274 C 
ENDROOT
BRANCH   1   2
ATOM      2  O   UNL     1      -3.463  -1.905   4.245  1.00  0.00    -0.461 OA
BRANCH   2   3
ATOM      3  C   UNL     1      -2.407  -1.011   4.774  1.00  0.00     0.329 C 
ATOM      4  O   UNL     1      -2.323   0.215   4.769  1.00  0.00    -0.250 OA
BRANCH   3   5
ATOM      5  C   UNL     1      -1.298  -1.797   5.353  1.00  0.00     0.194 C 
BRANCH   5   6
ATOM      6  C   UNL     1      -1.651  -2.114   6.833  1.00  0.00     0.017 C 
ATOM      7  C   UNL     1      -0.399  -2.028   7.707  1.00  0.00     0.010 C 
ATOM      8  C   UNL     1      -2.664  -1.119   7.470  1.00  0.00     0.010 C 
ENDBRANCH   5   6
BRANCH   5   9
ATOM      9  N   UNL     1      -1.026  -2.867   4.397  1.00  0.00    -0.340 N 
ATOM     10  C   UNL     1      -1.327  -2.693   3.035  1.00  0.00     0.249 C 
ATOM     11  H   UNL     1      -0.629  -3.713   4.708  1.00  0.00     0.164 HD
ATOM     12  O   UNL     1      -0.488  -3.021   2.196  1.00  0.00    -0.272 OA
BRANCH  10  13
ATOM     13  C   UNL     1      -2.854  -2.352   2.609  1.00  0.00     0.207 C 
ATOM     14  C   UNL     1      -3.820  -3.693   3.696  1.00  0.00     0.044 C 
ATOM     15  O   UNL     1      -3.674  -0.669   3.020  1.00  0.00    -0.368 OA
ATOM     16  C   UNL     1      -4.926  -2.759   5.020  1.00  0.00     0.032 C 
ATOM     17  C   UNL     1      -4.858  -0.830   4.577  1.00  0.00     0.161 C 
ENDBRANCH  10  13
ENDBRANCH   5   9
ENDBRANCH   3   5
ENDBRANCH   2   3
ENDBRANCH   1   2
BRANCH   1  18
ATOM     18  C   UNL     1      -5.997  -0.726   2.296  1.00  0.00     0.275 C 
BRANCH  18  19
ATOM     19  O   UNL     1      -5.551   0.654   2.359  1.00  0.00    -0.458 OA
BRANCH  19  20
ATOM     20  C   UNL     1      -6.246   1.558   3.107  1.00  0.00     0.338 C 
ATOM     21  O   UNL     1      -7.375   1.423   3.550  1.00  0.00    -0.246 OA
BRANCH  20  22
ATOM     22  C   UNL     1      -5.374   2.722   3.433  1.00  0.00     0.060 A 
ATOM     23  C   UNL     1      -4.034   2.504   3.747  1.00  0.00     0.016 A 
ATOM     24  C   UNL     1      -5.862   4.024   3.486  1.00  0.00     0.016 A 
ATOM     25  C   UNL     1      -3.159   3.539   4.061  1.00  0.00     0.010 A 
ATOM     26  C   UNL     1      -4.970   5.088   3.717  1.00  0.00     0.010 A 
ATOM     27  C   UNL     1      -3.603   4.854   3.964  1.00  0.00    -0.014 A 
BRANCH  27  28
ATOM     28  C   UNL     1      -2.630   5.976   3.968  1.00  0.00     0.031 A 
ATOM     29  C   UNL     1      -2.644   7.002   5.054  1.00  0.00     0.074 A 
ATOM     30  C   UNL     1      -1.773   6.108   2.935  1.00  0.00     0.049 A 
ATOM     31  N   UNL     1      -2.110   8.196   5.070  1.00  0.00    -0.248 NA
ATOM     32  C   UNL     1      -3.348   6.634   6.289  1.00  0.00     0.031 C 
ATOM     33  C   UNL     1      -1.580   5.133   1.859  1.00  0.00     0.029 A 
ATOM     34  N   UNL     1      -0.932   7.141   2.598  1.00  0.00    -0.354 N 
ATOM     35  C   UNL     1      -2.443   8.742   6.301  1.00  0.00     0.074 A 
ATOM     36  C   UNL     1      -3.218   7.741   7.009  1.00  0.00     0.031 C 
ATOM     37  C   UNL     1      -0.713   5.629   0.965  1.00  0.00     0.029 A 
ATOM     38  C   UNL     1      -0.353   6.985   1.362  1.00  0.00     0.049 A 
ATOM     39  H   UNL     1      -0.762   7.915   3.183  1.00  0.00     0.167 HD
ATOM     40  C   UNL     1      -2.138   9.972   6.780  1.00  0.00     0.037 A 
ATOM     41  C   UNL     1       0.327   7.858   0.595  1.00  0.00     0.037 A 
ATOM     42  C   UNL     1      -1.361  10.954   6.067  1.00  0.00     0.049 A 
ATOM     43  C   UNL     1       0.542   9.260   1.092  1.00  0.00     0.074 A 
ATOM     44  C   UNL     1      -0.999  12.229   6.470  1.00  0.00     0.029 A 
ATOM     45  N   UNL     1      -0.828  10.773   4.799  1.00  0.00    -0.354 N 
ATOM     46  N   UNL     1       0.185   9.799   2.232  1.00  0.00    -0.248 NA
ATOM     47  C   UNL     1       1.240  10.183   0.186  1.00  0.00     0.031 C 
ATOM     48  C   UNL     1      -0.293  12.836   5.426  1.00  0.00     0.029 A 
ATOM     49  C   UNL     1      -0.168  11.923   4.392  1.00  0.00     0.049 A 
ATOM     50  H   UNL     1      -0.907   9.949   4.266  1.00  0.00     0.167 HD
ATOM     51  C   UNL     1       0.629  11.113   2.189  1.00  0.00     0.074 A 
ATOM     52  C   UNL     1       1.297  11.287   0.917  1.00  0.00     0.031 C 
ATOM     53  C   UNL     1       0.492  12.087   3.122  1.00  0.00     0.037 A 
BRANCH  40  54
ATOM     54  C   UNL     1      -2.693  10.350   8.121  1.00  0.00     0.064 A 
ATOM     55  C   UNL     1      -2.189   9.811   9.312  1.00  0.00     0.173 A 
ATOM     56  C   UNL     1      -3.721  11.302   8.213  1.00  0.00     0.173 A 
ATOM     57  F   UNL     1      -1.215   8.889   9.278  1.00  0.00    -0.203 F 
ATOM     58  C   UNL     1      -2.708  10.195  10.547  1.00  0.00     0.198 A 
ATOM     59  C   UNL     1      -4.218  11.703   9.449  1.00  0.00     0.198 A 
ATOM     60  F   UNL     1      -4.234  11.852   7.102  1.00  0.00    -0.203 F 
ATOM     61  F   UNL     1      -2.239   9.639  11.672  1.00  0.00    -0.200 F 
ATOM     62  C   UNL     1      -3.716  11.146  10.614  1.00  0.00     0.200 A 
ATOM     63  F   UNL     1      -5.184  12.631   9.512  1.00  0.00    -0.200 F 
ATOM     64  F   UNL     1      -4.209  11.520  11.803  1.00  0.00    -0.200 F 
ENDBRANCH  40  54
BRANCH  41  65
ATOM     65  C   UNL     1       0.790   7.453  -0.758  1.00  0.00     0.064 A 
ATOM     66  C   UNL     1       2.156   7.322  -1.040  1.00  0.00     0.173 A 
ATOM     67  C   UNL     1      -0.119   7.205  -1.798  1.00  0.00     0.173 A 
ATOM     68  F   UNL     1       3.064   7.581  -0.087  1.00  0.00    -0.203 F 
ATOM     69  C   UNL     1       2.596   6.971  -2.314  1.00  0.00     0.198 A 
ATOM     70  C   UNL     1       0.322   6.824  -3.063  1.00  0.00     0.198 A 
ATOM     71  F   UNL     1      -1.437   7.325  -1.583  1.00  0.00    -0.203 F 
ATOM     72  F   UNL     1       3.910   6.900  -2.570  1.00  0.00    -0.200 F 
ATOM     73  C   UNL     1       1.679   6.715  -3.322  1.00  0.00     0.200 A 
ATOM     74  F   UNL     1      -0.568   6.569  -4.032  1.00  0.00    -0.200 F 
ATOM     75  F   UNL     1       2.104   6.375  -4.547  1.00  0.00    -0.200 F 
ENDBRANCH  41  65
BRANCH  53  76
ATOM     76  C   UNL     1       1.104  13.422   2.812  1.00  0.00     0.064 A 
ATOM     77  C   UNL     1       0.541  14.285   1.860  1.00  0.00     0.173 A 
ATOM     78  C   UNL     1       2.250  13.856   3.495  1.00  0.00     0.173 A 
ATOM     79  F   UNL     1      -0.543  13.909   1.165  1.00  0.00    -0.203 F 
ATOM     80  C   UNL     1       1.116  15.524   1.588  1.00  0.00     0.198 A 
ATOM     81  C   UNL     1       2.806  15.107   3.242  1.00  0.00     0.198 A 
ATOM     82  F   UNL     1       2.826  13.069   4.417  1.00  0.00    -0.203 F 
ATOM     83  F   UNL     1       0.588  16.313   0.642  1.00  0.00    -0.200 F 
ATOM     84  C   UNL     1       2.243  15.937   2.284  1.00  0.00     0.200 A 
ATOM     85  F   UNL     1       3.888  15.508   3.923  1.00  0.00    -0.200 F 
ATOM     86  F   UNL     1       2.791  17.132   2.026  1.00  0.00    -0.200 F 
ENDBRANCH  53  76
ENDBRANCH  27  28
ENDBRANCH  20  22
ENDBRANCH  19  20
ENDBRANCH  18  19
ENDBRANCH   1  18
TORSDOF 14
