REMARK SMILES C[C@@H](C(=O)OCCOC(=O)c1ccc(-c2c3nc(c(-c4c(F)c(F)c(F)c(F)c4F)c4ccc([nH]4)c(-c4c(F)c(F)c(F)c(F)c4F)c4nc(c(-c5c(F)c(F)c(F)c(F)c5F)c5ccc2[nH]5)C=C4)C=C3)cc1)c1ccc(C[C@H]2CCC[C@@H]2O)cc1F
REMARK SMILES IDX 6 1 5 2 3 3 4 4 2 5 1 6 74 7 75 8 86 9 76 10 85 11 87 12
REMARK SMILES IDX 77 13 78 14 79 15 80 16 83 17 81 18 82 19 84 20 7 22 8 23
REMARK SMILES IDX 9 24 10 25 11 26 12 27 73 28 13 29 72 30 14 31 15 32 16 33
REMARK SMILES IDX 66 34 17 35 71 36 65 37 67 38 18 39 70 40 64 41 63 42 19 44
REMARK SMILES IDX 51 45 31 46 50 47 32 48 35 49 49 50 68 51 33 52 34 53 48 55
REMARK SMILES IDX 69 56 36 57 20 58 21 59 29 60 22 61 23 62 27 63 30 64 24 65
REMARK SMILES IDX 25 66 28 67 26 68 52 69 53 70 61 71 54 72 55 73 59 74 62 75
REMARK SMILES IDX 56 76 57 77 60 78 58 79 37 80 38 81 46 82 39 83 40 84 44 85
REMARK SMILES IDX 47 86 41 87 42 88 45 89 43 90
REMARK H PARENT 84 21 67 43 35 54
REMARK Flexibility Score: inf
ROOT
ATOM      1  C   UNL     1       2.716  -1.466  -3.429  1.00  0.00     0.274 C 
ENDROOT
BRANCH   1   2
ATOM      2  O   UNL     1       2.286  -0.741  -2.258  1.00  0.00    -0.462 OA
BRANCH   2   3
ATOM      3  C   UNL     1       1.210   0.080  -2.407  1.00  0.00     0.313 C 
ATOM      4  O   UNL     1       0.654   0.297  -3.479  1.00  0.00    -0.252 OA
BRANCH   3   5
ATOM      5  C   UNL     1       0.799   0.760  -1.096  1.00  0.00     0.129 C 
ATOM      6  C   UNL     1       1.557   0.240   0.130  1.00  0.00     0.025 C 
BRANCH   5   7
ATOM      7  C   UNL     1      -0.717   0.763  -0.930  1.00  0.00     0.002 A 
ATOM      8  C   UNL     1      -1.478   1.773  -1.545  1.00  0.00     0.008 A 
ATOM      9  C   UNL     1      -1.414  -0.241  -0.253  1.00  0.00     0.127 A 
ATOM     10  C   UNL     1      -2.877   1.765  -1.486  1.00  0.00     0.004 A 
ATOM     11  C   UNL     1      -2.808  -0.245  -0.175  1.00  0.00     0.043 A 
ATOM     12  F   UNL     1      -0.759  -1.272   0.297  1.00  0.00    -0.207 F 
ATOM     13  C   UNL     1      -3.562   0.753  -0.802  1.00  0.00    -0.045 A 
BRANCH  13  14
ATOM     14  C   UNL     1      -5.073   0.688  -0.825  1.00  0.00     0.041 C 
BRANCH  14  15
ATOM     15  C   UNL     1      -5.830   1.308   0.357  1.00  0.00     0.022 C 
ATOM     16  C   UNL     1      -5.607   0.613   1.712  1.00  0.00     0.007 C 
ATOM     17  C   UNL     1      -5.535   2.795   0.598  1.00  0.00     0.117 C 
ATOM     18  C   UNL     1      -5.163   1.709   2.673  1.00  0.00     0.003 C 
ATOM     19  C   UNL     1      -5.767   2.974   2.091  1.00  0.00     0.032 C 
BRANCH  17  20
ATOM     20  O   UNL     1      -6.404   3.633  -0.143  1.00  0.00    -0.393 OA
ATOM     21  H   UNL     1      -7.324   3.438   0.097  1.00  0.00     0.210 HD
ENDBRANCH  17  20
ENDBRANCH  14  15
ENDBRANCH  13  14
ENDBRANCH   5   7
ENDBRANCH   3   5
ENDBRANCH   2   3
ENDBRANCH   1   2
BRANCH   1  22
ATOM     22  C   UNL     1       2.188  -2.897  -3.379  1.00  0.00     0.275 C 
BRANCH  22  23
ATOM     23  O   UNL     1       0.755  -2.864  -3.475  1.00  0.00    -0.458 OA
BRANCH  23  24
ATOM     24  C   UNL     1       0.077  -3.685  -2.644  1.00  0.00     0.338 C 
ATOM     25  O   UNL     1       0.552  -4.515  -1.883  1.00  0.00    -0.246 OA
BRANCH  24  26
ATOM     26  C   UNL     1      -1.378  -3.455  -2.789  1.00  0.00     0.060 A 
ATOM     27  C   UNL     1      -1.883  -2.185  -3.062  1.00  0.00     0.016 A 
ATOM     28  C   UNL     1      -2.264  -4.513  -2.571  1.00  0.00     0.016 A 
ATOM     29  C   UNL     1      -3.260  -1.959  -3.027  1.00  0.00     0.010 A 
ATOM     30  C   UNL     1      -3.647  -4.295  -2.620  1.00  0.00     0.010 A 
ATOM     31  C   UNL     1      -4.170  -3.003  -2.801  1.00  0.00    -0.014 A 
BRANCH  31  32
ATOM     32  C   UNL     1      -5.638  -2.738  -2.676  1.00  0.00     0.031 A 
ATOM     33  C   UNL     1      -6.399  -3.209  -1.457  1.00  0.00     0.074 A 
ATOM     34  C   UNL     1      -6.310  -2.030  -3.608  1.00  0.00     0.049 A 
ATOM     35  N   UNL     1      -7.694  -3.274  -1.259  1.00  0.00    -0.248 NA
ATOM     36  C   UNL     1      -5.601  -3.673  -0.312  1.00  0.00     0.031 C 
ATOM     37  C   UNL     1      -5.727  -1.435  -4.810  1.00  0.00     0.029 A 
ATOM     38  N   UNL     1      -7.638  -1.673  -3.677  1.00  0.00    -0.354 N 
ATOM     39  C   UNL     1      -7.862  -3.867  -0.014  1.00  0.00     0.074 A 
ATOM     40  C   UNL     1      -6.538  -4.117   0.514  1.00  0.00     0.031 C 
ATOM     41  C   UNL     1      -6.669  -0.737  -5.460  1.00  0.00     0.029 A 
ATOM     42  C   UNL     1      -7.950  -0.927  -4.788  1.00  0.00     0.049 A 
ATOM     43  H   UNL     1      -8.300  -1.927  -2.995  1.00  0.00     0.167 HD
ATOM     44  C   UNL     1      -9.015  -4.184   0.626  1.00  0.00     0.037 A 
ATOM     45  C   UNL     1      -9.136  -0.487  -5.254  1.00  0.00     0.037 A 
ATOM     46  C   UNL     1     -10.335  -3.858   0.151  1.00  0.00     0.049 A 
ATOM     47  C   UNL     1     -10.402  -0.850  -4.532  1.00  0.00     0.074 A 
ATOM     48  C   UNL     1     -11.559  -4.142   0.734  1.00  0.00     0.029 A 
ATOM     49  N   UNL     1     -10.603  -3.144  -1.006  1.00  0.00    -0.354 N 
ATOM     50  N   UNL     1     -10.555  -1.531  -3.424  1.00  0.00    -0.248 NA
ATOM     51  C   UNL     1     -11.664  -0.416  -5.150  1.00  0.00     0.031 C 
ATOM     52  C   UNL     1     -12.569  -3.617  -0.079  1.00  0.00     0.029 A 
ATOM     53  C   UNL     1     -11.972  -2.976  -1.151  1.00  0.00     0.049 A 
ATOM     54  H   UNL     1      -9.923  -2.806  -1.632  1.00  0.00     0.167 HD
ATOM     55  C   UNL     1     -11.925  -1.618  -3.219  1.00  0.00     0.074 A 
ATOM     56  C   UNL     1     -12.560  -0.889  -4.296  1.00  0.00     0.031 C 
ATOM     57  C   UNL     1     -12.596  -2.260  -2.232  1.00  0.00     0.037 A 
BRANCH  44  58
ATOM     58  C   UNL     1      -8.912  -4.964   1.905  1.00  0.00     0.064 A 
ATOM     59  C   UNL     1      -8.511  -4.372   3.109  1.00  0.00     0.173 A 
ATOM     60  C   UNL     1      -9.287  -6.318   1.929  1.00  0.00     0.173 A 
ATOM     61  F   UNL     1      -8.130  -3.087   3.135  1.00  0.00    -0.203 F 
ATOM     62  C   UNL     1      -8.474  -5.111   4.290  1.00  0.00     0.198 A 
ATOM     63  C   UNL     1      -9.273  -7.046   3.115  1.00  0.00     0.198 A 
ATOM     64  F   UNL     1      -9.687  -6.929   0.803  1.00  0.00    -0.203 F 
ATOM     65  F   UNL     1      -8.055  -4.535   5.425  1.00  0.00    -0.200 F 
ATOM     66  C   UNL     1      -8.863  -6.443   4.294  1.00  0.00     0.200 A 
ATOM     67  F   UNL     1      -9.662  -8.328   3.118  1.00  0.00    -0.200 F 
ATOM     68  F   UNL     1      -8.838  -7.147   5.434  1.00  0.00    -0.200 F 
ENDBRANCH  44  58
BRANCH  45  69
ATOM     69  C   UNL     1      -9.182   0.302  -6.512  1.00  0.00     0.064 A 
ATOM     70  C   UNL     1      -9.517   1.663  -6.496  1.00  0.00     0.173 A 
ATOM     71  C   UNL     1      -8.878  -0.283  -7.750  1.00  0.00     0.173 A 
ATOM     72  F   UNL     1      -9.845   2.258  -5.340  1.00  0.00    -0.203 F 
ATOM     73  C   UNL     1      -9.542   2.409  -7.673  1.00  0.00     0.198 A 
ATOM     74  C   UNL     1      -8.873   0.472  -8.920  1.00  0.00     0.198 A 
ATOM     75  F   UNL     1      -8.557  -1.583  -7.818  1.00  0.00    -0.203 F 
ATOM     76  F   UNL     1      -9.896   3.701  -7.636  1.00  0.00    -0.200 F 
ATOM     77  C   UNL     1      -9.209   1.816  -8.882  1.00  0.00     0.200 A 
ATOM     78  F   UNL     1      -8.535  -0.102 -10.083  1.00  0.00    -0.200 F 
ATOM     79  F   UNL     1      -9.216   2.539 -10.009  1.00  0.00    -0.200 F 
ENDBRANCH  45  69
BRANCH  57  80
ATOM     80  C   UNL     1     -14.093  -2.203  -2.271  1.00  0.00     0.064 A 
ATOM     81  C   UNL     1     -14.827  -2.968  -3.189  1.00  0.00     0.173 A 
ATOM     82  C   UNL     1     -14.802  -1.395  -1.369  1.00  0.00     0.173 A 
ATOM     83  F   UNL     1     -14.193  -3.742  -4.082  1.00  0.00    -0.203 F 
ATOM     84  C   UNL     1     -16.218  -2.910  -3.217  1.00  0.00     0.198 A 
ATOM     85  C   UNL     1     -16.193  -1.356  -1.386  1.00  0.00     0.198 A 
ATOM     86  F   UNL     1     -14.144  -0.648  -0.470  1.00  0.00    -0.203 F 
ATOM     87  F   UNL     1     -16.898  -3.619  -4.128  1.00  0.00    -0.200 F 
ATOM     88  C   UNL     1     -16.900  -2.108  -2.313  1.00  0.00     0.200 A 
ATOM     89  F   UNL     1     -16.851  -0.587  -0.508  1.00  0.00    -0.200 F 
ATOM     90  F   UNL     1     -18.238  -2.054  -2.342  1.00  0.00    -0.200 F 
ENDBRANCH  57  80
ENDBRANCH  31  32
ENDBRANCH  24  26
ENDBRANCH  23  24
ENDBRANCH  22  23
ENDBRANCH   1  22
TORSDOF 15
