REMARK SMILES O=C(C[C@@H]1C(=O)O[C@H]2[C@@H]3OC(=O)c4cc(O)c(O)c(O)c4-c4ccccc4C(=O)OC[C@@H]2O[C@@H](OC(=O)c2cc(O)c(O)c(O)c2)[C@@H]3OC(=O)c2cc(O)c(O)c3c2[C@H]1[C@H](O)C(=O)O3)OCCOC(=O)c1ccc(-c2c3nc(c(-c4c(F)c(F)c(F)c(F)c4F)c4ccc([nH]4)c(-c4c(F)c(F)c(F)c(F)c4F)c4nc(c(-c5c(F)c(F)c(F)c(F)c5F)c5ccc2[nH]5)C=C4)C=C3)cc1
REMARK SMILES IDX 4 1 3 3 2 4 1 5 65 6 66 7 67 8 68 9 69 10 70 11 71 12 72 13
REMARK SMILES IDX 133 14 73 15 132 16 74 17 75 18 76 19 126 20 77 21 131 22
REMARK SMILES IDX 125 23 127 24 78 25 130 26 124 27 123 28 79 30 111 31 91 32
REMARK SMILES IDX 110 33 92 34 95 35 109 36 128 37 93 38 94 39 108 41 129 42
REMARK SMILES IDX 96 43 80 44 81 45 89 46 82 47 83 48 87 49 90 50 84 51 85 52
REMARK SMILES IDX 88 53 86 54 112 55 113 56 121 57 114 58 115 59 119 60 122 61
REMARK SMILES IDX 116 62 117 63 120 64 118 65 97 66 98 67 106 68 99 69 100 70
REMARK SMILES IDX 104 71 107 72 101 73 102 74 105 75 103 76 5 77 6 78 7 79
REMARK SMILES IDX 8 80 9 81 32 82 47 83 33 84 34 86 10 87 11 88 12 89 13 90
REMARK SMILES IDX 14 91 21 92 15 93 19 94 17 95 22 96 23 97 27 98 24 99 26 100
REMARK SMILES IDX 25 101 28 102 29 103 30 104 31 105 16 107 20 109 18 111
REMARK SMILES IDX 48 113 49 114 50 115 51 116 52 117 58 118 53 119 57 120
REMARK SMILES IDX 59 121 55 122 64 123 60 124 62 126 63 127 54 128 56 130
REMARK SMILES IDX 61 132 35 134 36 135 37 136 38 137 39 138 46 139 40 140
REMARK SMILES IDX 44 141 42 142 41 143 45 145 43 147
REMARK H PARENT 127 29 95 40 16 108 20 110 18 112 54 129 56 131 61 133 41 144
REMARK H PARENT 45 146 43 148
REMARK Flexibility Score: 170.00
ROOT
ATOM      1  C   UNL     1       3.359   1.835  -0.420  1.00  0.00     0.121 CG0
ATOM      2  G   UNL     1       5.409   2.318  -1.253  1.00  0.00     0.000 G0
ENDROOT
BRANCH   1   3
ATOM      3  C   UNL     1       3.142   2.340   1.257  1.00  0.00     0.138 C 
BRANCH   3   4
ATOM      4  C   UNL     1       4.083   2.941   2.289  1.00  0.00     0.306 C 
ATOM      5  O   UNL     1       4.316   4.145   2.288  1.00  0.00    -0.252 OA
BRANCH   4   6
ATOM      6  O   UNL     1       4.519   2.178   3.302  1.00  0.00    -0.462 OA
BRANCH   6   7
ATOM      7  C   UNL     1       3.858   0.941   3.576  1.00  0.00     0.274 C 
BRANCH   7   8
ATOM      8  C   UNL     1       2.394   1.102   4.129  1.00  0.00     0.275 C 
BRANCH   8   9
ATOM      9  O   UNL     1       1.355   1.756   3.268  1.00  0.00    -0.458 OA
BRANCH   9  10
ATOM     10  C   UNL     1       1.106   3.113   3.304  1.00  0.00     0.338 C 
ATOM     11  O   UNL     1       1.556   3.847   4.169  1.00  0.00    -0.246 OA
BRANCH  10  12
ATOM     12  C   UNL     1       0.460   3.670   1.988  1.00  0.00     0.060 A 
ATOM     13  C   UNL     1      -0.338   2.925   1.127  1.00  0.00     0.016 A 
ATOM     14  C   UNL     1       0.845   4.935   1.467  1.00  0.00     0.016 A 
ATOM     15  C   UNL     1      -0.682   3.417  -0.193  1.00  0.00     0.010 A 
ATOM     16  C   UNL     1       0.499   5.402   0.123  1.00  0.00     0.010 A 
ATOM     17  C   UNL     1      -0.233   4.632  -0.799  1.00  0.00    -0.014 A 
BRANCH  17  18
ATOM     18  C   UNL     1      -0.807   5.112  -2.209  1.00  0.00     0.031 A 
ATOM     19  C   UNL     1      -0.146   5.122  -3.676  1.00  0.00     0.074 A 
ATOM     20  C   UNL     1      -2.149   5.303  -2.258  1.00  0.00     0.049 A 
ATOM     21  N   UNL     1      -0.707   4.872  -4.865  1.00  0.00    -0.248 NA
ATOM     22  C   UNL     1       1.272   5.403  -3.866  1.00  0.00     0.031 C 
ATOM     23  C   UNL     1      -3.049   5.269  -1.107  1.00  0.00     0.029 A 
ATOM     24  N   UNL     1      -2.995   5.497  -3.333  1.00  0.00    -0.354 N 
ATOM     25  C   UNL     1       0.330   4.742  -5.823  1.00  0.00     0.074 A 
ATOM     26  C   UNL     1       1.552   4.979  -5.099  1.00  0.00     0.031 C 
ATOM     27  C   UNL     1      -4.311   5.415  -1.532  1.00  0.00     0.029 A 
ATOM     28  C   UNL     1      -4.314   5.643  -2.976  1.00  0.00     0.049 A 
ATOM     29  H   UNL     1      -2.683   5.529  -4.266  1.00  0.00     0.167 HD
ATOM     30  C   UNL     1       0.306   4.500  -7.172  1.00  0.00     0.037 A 
ATOM     31  C   UNL     1      -5.407   5.975  -3.693  1.00  0.00     0.037 A 
ATOM     32  C   UNL     1      -0.869   4.619  -8.002  1.00  0.00     0.049 A 
ATOM     33  C   UNL     1      -5.340   6.104  -5.192  1.00  0.00     0.074 A 
ATOM     34  C   UNL     1      -0.976   4.491  -9.382  1.00  0.00     0.029 A 
ATOM     35  N   UNL     1      -2.107   5.024  -7.548  1.00  0.00    -0.354 N 
ATOM     36  N   UNL     1      -4.395   5.731  -6.018  1.00  0.00    -0.248 NA
ATOM     37  C   UNL     1      -6.514   6.691  -5.857  1.00  0.00     0.031 C 
ATOM     38  C   UNL     1      -2.235   4.962  -9.769  1.00  0.00     0.029 A 
ATOM     39  C   UNL     1      -2.943   5.276  -8.623  1.00  0.00     0.049 A 
ATOM     40  H   UNL     1      -2.358   5.121  -6.601  1.00  0.00     0.167 HD
ATOM     41  C   UNL     1      -4.881   5.999  -7.296  1.00  0.00     0.074 A 
ATOM     42  C   UNL     1      -6.208   6.543  -7.137  1.00  0.00     0.031 C 
ATOM     43  C   UNL     1      -4.272   5.806  -8.493  1.00  0.00     0.037 A 
BRANCH  30  44
ATOM     44  C   UNL     1       1.562   4.069  -7.933  1.00  0.00     0.064 A 
ATOM     45  C   UNL     1       1.843   2.698  -8.021  1.00  0.00     0.173 A 
ATOM     46  C   UNL     1       2.275   4.900  -8.812  1.00  0.00     0.173 A 
ATOM     47  F   UNL     1       1.100   1.851  -7.308  1.00  0.00    -0.203 F 
ATOM     48  C   UNL     1       2.802   2.181  -8.900  1.00  0.00     0.198 A 
ATOM     49  C   UNL     1       3.229   4.381  -9.705  1.00  0.00     0.198 A 
ATOM     50  F   UNL     1       1.987   6.206  -8.878  1.00  0.00    -0.203 F 
ATOM     51  F   UNL     1       3.017   0.864  -8.976  1.00  0.00    -0.200 F 
ATOM     52  C   UNL     1       3.497   3.023  -9.742  1.00  0.00     0.200 A 
ATOM     53  F   UNL     1       3.852   5.192 -10.572  1.00  0.00    -0.200 F 
ATOM     54  F   UNL     1       4.386   2.521 -10.613  1.00  0.00    -0.200 F 
ENDBRANCH  30  44
BRANCH  31  55
ATOM     55  C   UNL     1      -6.662   6.331  -2.967  1.00  0.00     0.064 A 
ATOM     56  C   UNL     1      -7.873   5.666  -3.192  1.00  0.00     0.173 A 
ATOM     57  C   UNL     1      -6.669   7.406  -2.059  1.00  0.00     0.173 A 
ATOM     58  F   UNL     1      -7.933   4.660  -4.076  1.00  0.00    -0.203 F 
ATOM     59  C   UNL     1      -9.043   6.071  -2.549  1.00  0.00     0.198 A 
ATOM     60  C   UNL     1      -7.825   7.774  -1.380  1.00  0.00     0.198 A 
ATOM     61  F   UNL     1      -5.543   8.096  -1.823  1.00  0.00    -0.203 F 
ATOM     62  F   UNL     1     -10.204   5.464  -2.833  1.00  0.00    -0.200 F 
ATOM     63  C   UNL     1      -9.015   7.116  -1.636  1.00  0.00     0.200 A 
ATOM     64  F   UNL     1      -7.782   8.770  -0.486  1.00  0.00    -0.200 F 
ATOM     65  F   UNL     1     -10.138   7.497  -1.013  1.00  0.00    -0.200 F 
ENDBRANCH  31  55
BRANCH  43  66
ATOM     66  C   UNL     1      -5.031   6.148  -9.745  1.00  0.00     0.064 A 
ATOM     67  C   UNL     1      -5.384   7.470 -10.058  1.00  0.00     0.173 A 
ATOM     68  C   UNL     1      -5.375   5.147 -10.668  1.00  0.00     0.173 A 
ATOM     69  F   UNL     1      -5.081   8.467  -9.213  1.00  0.00    -0.203 F 
ATOM     70  C   UNL     1      -6.091   7.769 -11.220  1.00  0.00     0.198 A 
ATOM     71  C   UNL     1      -6.039   5.456 -11.852  1.00  0.00     0.198 A 
ATOM     72  F   UNL     1      -5.051   3.867 -10.432  1.00  0.00    -0.203 F 
ATOM     73  F   UNL     1      -6.477   9.030 -11.459  1.00  0.00    -0.200 F 
ATOM     74  C   UNL     1      -6.410   6.764 -12.120  1.00  0.00     0.200 A 
ATOM     75  F   UNL     1      -6.320   4.486 -12.734  1.00  0.00    -0.200 F 
ATOM     76  F   UNL     1      -7.080   7.056 -13.243  1.00  0.00    -0.200 F 
ENDBRANCH  43  66
ENDBRANCH  17  18
ENDBRANCH  10  12
ENDBRANCH   9  10
ENDBRANCH   8   9
ENDBRANCH   7   8
ENDBRANCH   6   7
ENDBRANCH   4   6
ENDBRANCH   3   4
ENDBRANCH   1   3
BRANCH   1  77
ATOM     77  C   UNL     1       2.615   0.513  -0.209  1.00  0.00     0.310 C 
ATOM     78  O   UNL     1       2.429  -0.215   0.740  1.00  0.00    -0.252 OA
BRANCH  77  79
ATOM     79  O   UNL     1       2.213   0.316  -1.458  1.00  0.00    -0.455 OA
BRANCH  79  80
ATOM     80  C   UNL     1       3.375   0.709  -2.232  1.00  0.00     0.254 C 
ATOM     81  C   UNL     1       2.809   2.041  -2.849  1.00  0.00     0.267 C 
ATOM     82  C   UNL     1       4.675   0.301  -1.216  1.00  0.00     0.205 CG1
ATOM     83  C   UNL     1       3.363   3.381  -2.275  1.00  0.00     0.290 C 
ATOM     84  O   UNL     1       4.867   1.710   0.128  1.00  0.00    -0.329 OA
ATOM     85  G   UNL     1       3.865  -1.427  -1.438  1.00  0.00     0.000 G1
ATOM     86  C   UNL     1       4.118   3.376  -0.894  1.00  0.00     0.357 C 
BRANCH  81  87
ATOM     87  O   UNL     1       2.737   1.912  -4.333  1.00  0.00    -0.450 OA
BRANCH  87  88
ATOM     88  C   UNL     1       3.339   0.846  -4.972  1.00  0.00     0.339 C 
ATOM     89  O   UNL     1       4.551   0.692  -4.954  1.00  0.00    -0.246 OA
BRANCH  88  90
ATOM     90  C   UNL     1       2.405  -0.124  -5.665  1.00  0.00     0.075 A 
ATOM     91  C   UNL     1       2.889  -0.914  -6.719  1.00  0.00     0.066 A 
ATOM     92  C   UNL     1       1.040  -0.190  -5.383  1.00  0.00     0.043 A 
ATOM     93  C   UNL     1       1.996  -1.474  -7.639  1.00  0.00     0.162 A 
ATOM     94  C   UNL     1       0.159  -0.582  -6.426  1.00  0.00     0.170 A 
ATOM     95  C   UNL     1       0.643  -1.206  -7.557  1.00  0.00     0.200 A 
BRANCH  92  96
ATOM     96  C   UNL     1       0.476   0.223  -4.114  1.00  0.00     0.001 A 
ATOM     97  C   UNL     1      -0.097   1.513  -4.154  1.00  0.00     0.010 A 
ATOM     98  C   UNL     1       0.241  -0.641  -3.018  1.00  0.00     0.068 A 
ATOM     99  C   UNL     1      -1.054   1.888  -3.250  1.00  0.00     0.001 A 
ATOM    100  C   UNL     1      -0.901  -0.304  -2.252  1.00  0.00     0.016 A 
ATOM    101  C   UNL     1      -1.548   0.936  -2.384  1.00  0.00     0.001 A 
BRANCH  98 102
ATOM    102  C   UNL     1       1.224  -1.718  -2.357  1.00  0.00     0.338 C 
ATOM    103  O   UNL     1       0.788  -2.426  -1.455  1.00  0.00    -0.246 OA
BRANCH 102 104
ATOM    104  O   UNL     1       2.609  -1.592  -2.583  1.00  0.00    -0.459 OA
BRANCH 104 105
ATOM    105  C   UNL     1       3.865  -1.427  -1.438  1.00  0.00     0.269 CG1
ATOM    106  G   UNL     1       4.675   0.301  -1.216  1.00  0.00     0.000 G1
ENDBRANCH 104 105
ENDBRANCH 102 104
ENDBRANCH  98 102
ENDBRANCH  92  96
BRANCH  93 107
ATOM    107  O   UNL     1       2.466  -2.191  -8.699  1.00  0.00    -0.504 OA
ATOM    108  H   UNL     1       3.382  -2.381  -8.767  1.00  0.00     0.293 HD
ENDBRANCH  93 107
BRANCH  94 109
ATOM    109  O   UNL     1      -1.186  -0.280  -6.452  1.00  0.00    -0.504 OA
ATOM    110  H   UNL     1      -1.717  -0.568  -7.168  1.00  0.00     0.293 HD
ENDBRANCH  94 109
BRANCH  95 111
ATOM    111  O   UNL     1      -0.179  -1.498  -8.610  1.00  0.00    -0.502 OA
ATOM    112  H   UNL     1       0.167  -1.922  -9.371  1.00  0.00     0.293 HD
ENDBRANCH  95 111
ENDBRANCH  88  90
ENDBRANCH  87  88
ENDBRANCH  81  87
BRANCH  83 113
ATOM    113  O   UNL     1       2.719   4.632  -1.838  1.00  0.00    -0.448 OA
BRANCH 113 114
ATOM    114  C   UNL     1       3.508   5.678  -1.169  1.00  0.00     0.339 C 
ATOM    115  O   UNL     1       3.062   6.819  -1.238  1.00  0.00    -0.246 OA
BRANCH 114 116
ATOM    116  C   UNL     1       4.950   5.370  -0.201  1.00  0.00     0.071 A 
ATOM    117  C   UNL     1       5.186   6.468   0.591  1.00  0.00     0.066 A 
ATOM    118  C   UNL     1       5.912   3.937  -0.166  1.00  0.00     0.021 A 
ATOM    119  C   UNL     1       6.264   6.351   1.426  1.00  0.00     0.162 A 
ATOM    120  C   UNL     1       6.924   3.960   0.752  1.00  0.00     0.180 A 
ATOM    121  C   UNL     1       5.409   2.318  -1.253  1.00  0.00     0.079 CG0
ATOM    122  C   UNL     1       7.089   5.175   1.510  1.00  0.00     0.201 A 
ATOM    123  O   UNL     1       7.709   2.865   1.055  1.00  0.00    -0.420 OA
ATOM    124  C   UNL     1       6.922   1.718  -1.026  1.00  0.00     0.232 C 
ATOM    125  G   UNL     1       3.359   1.835  -0.420  1.00  0.00     0.000 G0
ATOM    126  C   UNL     1       7.526   1.652   0.400  1.00  0.00     0.341 C 
ATOM    127  O   UNL     1       8.021   0.627   0.864  1.00  0.00    -0.249 OA
BRANCH 119 128
ATOM    128  O   UNL     1       6.519   7.453   2.202  1.00  0.00    -0.504 OA
ATOM    129  H   UNL     1       5.971   8.210   2.134  1.00  0.00     0.293 HD
ENDBRANCH 119 128
BRANCH 122 130
ATOM    130  O   UNL     1       8.118   5.305   2.420  1.00  0.00    -0.502 OA
ATOM    131  H   UNL     1       8.215   6.100   2.907  1.00  0.00     0.293 HD
ENDBRANCH 122 130
BRANCH 124 132
ATOM    132  O   UNL     1       7.092   0.518  -1.783  1.00  0.00    -0.381 OA
ATOM    133  H   UNL     1       6.520  -0.176  -1.421  1.00  0.00     0.211 HD
ENDBRANCH 124 132
ENDBRANCH 114 116
ENDBRANCH 113 114
ENDBRANCH  83 113
BRANCH  86 134
ATOM    134  O   UNL     1       5.220   4.363  -2.041  1.00  0.00    -0.428 OA
BRANCH 134 135
ATOM    135  C   UNL     1       6.176   4.472  -2.990  1.00  0.00     0.340 C 
ATOM    136  O   UNL     1       6.684   3.575  -3.631  1.00  0.00    -0.246 OA
BRANCH 135 137
ATOM    137  C   UNL     1       6.614   5.887  -3.048  1.00  0.00     0.067 A 
ATOM    138  C   UNL     1       6.347   6.636  -4.191  1.00  0.00     0.066 A 
ATOM    139  C   UNL     1       7.321   6.463  -1.973  1.00  0.00     0.066 A 
ATOM    140  C   UNL     1       6.790   7.953  -4.239  1.00  0.00     0.162 A 
ATOM    141  C   UNL     1       7.669   7.806  -2.004  1.00  0.00     0.162 A 
ATOM    142  C   UNL     1       7.433   8.540  -3.152  1.00  0.00     0.200 A 
BRANCH 140 143
ATOM    143  O   UNL     1       6.603   8.672  -5.383  1.00  0.00    -0.504 OA
ATOM    144  H   UNL     1       6.171   8.281  -6.117  1.00  0.00     0.293 HD
ENDBRANCH 140 143
BRANCH 141 145
ATOM    145  O   UNL     1       8.253   8.435  -0.942  1.00  0.00    -0.504 OA
ATOM    146  H   UNL     1       8.474   9.343  -0.999  1.00  0.00     0.293 HD
ENDBRANCH 141 145
BRANCH 142 147
ATOM    147  O   UNL     1       7.842   9.842  -3.237  1.00  0.00    -0.502 OA
ATOM    148  H   UNL     1       7.679  10.335  -4.018  1.00  0.00     0.293 HD
ENDBRANCH 142 147
ENDBRANCH 135 137
ENDBRANCH 134 135
ENDBRANCH  86 134
ENDBRANCH  79  80
ENDBRANCH  77  79
ENDBRANCH   1  77
TORSDOF 24
