REMARK SMILES O=C(NC[C@@H]1CC[C@@H](C(=O)OCCOC(=O)c2ccc(-c3c4nc(c(-c5c(F)c(F)c(F)c(F)c5F)c5ccc([nH]5)c(-c5c(F)c(F)c(F)c(F)c5F)c5nc(c(-c6c(F)c(F)c(F)c(F)c6F)c6ccc3[nH]6)C=C5)C=C4)cc2)O1)c1cccc(O)c1
REMARK SMILES IDX 12 1 11 2 9 3 10 4 8 5 5 6 6 7 80 8 7 9 4 10 3 11 1 12 2 13
REMARK SMILES IDX 81 15 82 16 87 17 83 18 85 19 84 20 86 21 13 23 14 24 15 25
REMARK SMILES IDX 16 26 17 27 18 28 79 29 19 30 78 31 20 32 21 33 22 34 72 35
REMARK SMILES IDX 23 36 77 37 71 38 73 39 24 40 76 41 70 42 69 43 25 45 57 46
REMARK SMILES IDX 37 47 56 48 38 49 41 50 55 51 74 52 39 53 40 54 54 56 75 57
REMARK SMILES IDX 42 58 26 59 27 60 35 61 28 62 29 63 33 64 36 65 30 66 31 67
REMARK SMILES IDX 34 68 32 69 58 70 59 71 67 72 60 73 61 74 65 75 68 76 62 77
REMARK SMILES IDX 63 78 66 79 64 80 43 81 44 82 52 83 45 84 46 85 50 86 53 87
REMARK SMILES IDX 47 88 48 89 51 90 49 91
REMARK H PARENT 3 14 86 22 73 44 41 55
REMARK Flexibility Score: inf
ROOT
ATOM      1  C   UNL     1       6.099   6.978  -2.440  1.00  0.00     0.274 C 
ENDROOT
BRANCH   1   2
ATOM      2  O   UNL     1       5.714   6.291  -1.233  1.00  0.00    -0.460 OA
BRANCH   2   3
ATOM      3  C   UNL     1       4.476   5.730  -1.234  1.00  0.00     0.335 C 
ATOM      4  O   UNL     1       3.685   5.809  -2.170  1.00  0.00    -0.249 OA
BRANCH   3   5
ATOM      5  C   UNL     1       4.177   4.917   0.029  1.00  0.00     0.228 C 
ATOM      6  C   UNL     1       5.087   2.849   0.619  1.00  0.00     0.138 C 
ATOM      7  C   UNL     1       5.042   3.705   1.867  1.00  0.00     0.037 C 
ATOM      8  O   UNL     1       4.200   3.515  -0.291  1.00  0.00    -0.361 OA
ATOM      9  C   UNL     1       5.080   5.089   1.244  1.00  0.00     0.047 C 
BRANCH   6  10
ATOM     10  C   UNL     1       4.697   1.377   0.765  1.00  0.00     0.148 C 
BRANCH  10  11
ATOM     11  N   UNL     1       3.263   1.164   0.926  1.00  0.00    -0.349 N 
ATOM     12  O   UNL     1       1.237   0.335   0.410  1.00  0.00    -0.269 OA
ATOM     13  C   UNL     1       2.458   0.213   0.348  1.00  0.00     0.251 C 
ATOM     14  H   UNL     1       2.808   1.790   1.535  1.00  0.00     0.163 HD
BRANCH  13  15
ATOM     15  C   UNL     1       3.036  -0.949  -0.373  1.00  0.00     0.043 A 
ATOM     16  C   UNL     1       4.160  -1.634   0.108  1.00  0.00     0.014 A 
ATOM     17  C   UNL     1       2.381  -1.403  -1.526  1.00  0.00     0.060 A 
ATOM     18  C   UNL     1       4.673  -2.721  -0.600  1.00  0.00     0.005 A 
ATOM     19  C   UNL     1       2.889  -2.504  -2.205  1.00  0.00     0.116 A 
ATOM     20  C   UNL     1       4.037  -3.150  -1.761  1.00  0.00     0.046 A 
BRANCH  19  21
ATOM     21  O   UNL     1       2.282  -3.003  -3.316  1.00  0.00    -0.508 OA
ATOM     22  H   UNL     1       2.647  -3.747  -3.755  1.00  0.00     0.293 HD
ENDBRANCH  19  21
ENDBRANCH  13  15
ENDBRANCH  10  11
ENDBRANCH   6  10
ENDBRANCH   3   5
ENDBRANCH   2   3
ENDBRANCH   1   2
BRANCH   1  23
ATOM     23  C   UNL     1       6.988   6.106  -3.331  1.00  0.00     0.275 C 
BRANCH  23  24
ATOM     24  O   UNL     1       6.244   5.046  -3.960  1.00  0.00    -0.458 OA
BRANCH  24  25
ATOM     25  C   UNL     1       6.240   3.868  -3.299  1.00  0.00     0.338 C 
ATOM     26  O   UNL     1       6.817   3.602  -2.252  1.00  0.00    -0.246 OA
BRANCH  25  27
ATOM     27  C   UNL     1       5.373   2.913  -4.003  1.00  0.00     0.060 A 
ATOM     28  C   UNL     1       4.221   2.460  -3.361  1.00  0.00     0.016 A 
ATOM     29  C   UNL     1       5.732   2.400  -5.250  1.00  0.00     0.016 A 
ATOM     30  C   UNL     1       3.443   1.461  -3.934  1.00  0.00     0.010 A 
ATOM     31  C   UNL     1       4.930   1.419  -5.844  1.00  0.00     0.010 A 
ATOM     32  C   UNL     1       3.792   0.927  -5.180  1.00  0.00    -0.014 A 
BRANCH  32  33
ATOM     33  C   UNL     1       2.983  -0.169  -5.765  1.00  0.00     0.031 A 
ATOM     34  C   UNL     1       3.558  -1.551  -5.875  1.00  0.00     0.074 A 
ATOM     35  C   UNL     1       1.722   0.069  -6.170  1.00  0.00     0.049 A 
ATOM     36  N   UNL     1       3.033  -2.621  -6.418  1.00  0.00    -0.248 NA
ATOM     37  C   UNL     1       4.889  -1.761  -5.286  1.00  0.00     0.031 C 
ATOM     38  C   UNL     1       1.035   1.357  -6.077  1.00  0.00     0.029 A 
ATOM     39  N   UNL     1       0.801  -0.761  -6.761  1.00  0.00    -0.354 N 
ATOM     40  C   UNL     1       3.949  -3.640  -6.191  1.00  0.00     0.074 A 
ATOM     41  C   UNL     1       5.096  -3.046  -5.539  1.00  0.00     0.031 C 
ATOM     42  C   UNL     1      -0.183   1.243  -6.628  1.00  0.00     0.029 A 
ATOM     43  C   UNL     1      -0.343  -0.110  -7.154  1.00  0.00     0.049 A 
ATOM     44  H   UNL     1       0.947  -1.726  -6.891  1.00  0.00     0.167 HD
ATOM     45  C   UNL     1       3.825  -4.961  -6.460  1.00  0.00     0.037 A 
ATOM     46  C   UNL     1      -1.378  -0.538  -7.902  1.00  0.00     0.037 A 
ATOM     47  C   UNL     1       2.683  -5.558  -7.095  1.00  0.00     0.049 A 
ATOM     48  C   UNL     1      -1.406  -1.964  -8.373  1.00  0.00     0.074 A 
ATOM     49  C   UNL     1       2.450  -6.892  -7.377  1.00  0.00     0.029 A 
ATOM     50  N   UNL     1       1.584  -4.850  -7.556  1.00  0.00    -0.354 N 
ATOM     51  N   UNL     1      -0.551  -2.927  -8.131  1.00  0.00    -0.248 NA
ATOM     52  C   UNL     1      -2.537  -2.366  -9.222  1.00  0.00     0.031 C 
ATOM     53  C   UNL     1       1.230  -6.985  -8.055  1.00  0.00     0.029 A 
ATOM     54  C   UNL     1       0.689  -5.714  -8.164  1.00  0.00     0.049 A 
ATOM     55  H   UNL     1       1.459  -3.878  -7.464  1.00  0.00     0.167 HD
ATOM     56  C   UNL     1      -1.052  -4.054  -8.767  1.00  0.00     0.074 A 
ATOM     57  C   UNL     1      -2.285  -3.655  -9.414  1.00  0.00     0.031 C 
ATOM     58  C   UNL     1      -0.539  -5.308  -8.800  1.00  0.00     0.037 A 
BRANCH  45  59
ATOM     59  C   UNL     1       4.959  -5.851  -6.058  1.00  0.00     0.064 A 
ATOM     60  C   UNL     1       5.132  -6.249  -4.725  1.00  0.00     0.173 A 
ATOM     61  C   UNL     1       5.870  -6.323  -7.011  1.00  0.00     0.173 A 
ATOM     62  F   UNL     1       4.275  -5.840  -3.780  1.00  0.00    -0.203 F 
ATOM     63  C   UNL     1       6.204  -7.055  -4.352  1.00  0.00     0.198 A 
ATOM     64  C   UNL     1       6.927  -7.150  -6.639  1.00  0.00     0.198 A 
ATOM     65  F   UNL     1       5.737  -5.981  -8.301  1.00  0.00    -0.203 F 
ATOM     66  F   UNL     1       6.378  -7.383  -3.064  1.00  0.00    -0.200 F 
ATOM     67  C   UNL     1       7.099  -7.506  -5.309  1.00  0.00     0.200 A 
ATOM     68  F   UNL     1       7.785  -7.596  -7.567  1.00  0.00    -0.200 F 
ATOM     69  F   UNL     1       8.132  -8.280  -4.950  1.00  0.00    -0.200 F 
ENDBRANCH  45  59
BRANCH  46  70
ATOM     70  C   UNL     1      -2.438   0.426  -8.293  1.00  0.00     0.064 A 
ATOM     71  C   UNL     1      -3.733   0.344  -7.767  1.00  0.00     0.173 A 
ATOM     72  C   UNL     1      -2.161   1.470  -9.190  1.00  0.00     0.173 A 
ATOM     73  F   UNL     1      -4.053  -0.651  -6.928  1.00  0.00    -0.203 F 
ATOM     74  C   UNL     1      -4.712   1.271  -8.124  1.00  0.00     0.198 A 
ATOM     75  C   UNL     1      -3.132   2.410  -9.526  1.00  0.00     0.198 A 
ATOM     76  F   UNL     1      -0.936   1.588  -9.725  1.00  0.00    -0.203 F 
ATOM     77  F   UNL     1      -5.952   1.155  -7.631  1.00  0.00    -0.200 F 
ATOM     78  C   UNL     1      -4.408   2.307  -8.995  1.00  0.00     0.200 A 
ATOM     79  F   UNL     1      -2.829   3.415 -10.359  1.00  0.00    -0.200 F 
ATOM     80  F   UNL     1      -5.347   3.204  -9.328  1.00  0.00    -0.200 F 
ENDBRANCH  46  70
BRANCH  58  81
ATOM     81  C   UNL     1      -1.315  -6.359  -9.532  1.00  0.00     0.064 A 
ATOM     82  C   UNL     1      -1.316  -6.424 -10.932  1.00  0.00     0.173 A 
ATOM     83  C   UNL     1      -1.994  -7.363  -8.823  1.00  0.00     0.173 A 
ATOM     84  F   UNL     1      -0.696  -5.477 -11.652  1.00  0.00    -0.203 F 
ATOM     85  C   UNL     1      -1.971  -7.457 -11.597  1.00  0.00     0.198 A 
ATOM     86  C   UNL     1      -2.626  -8.407  -9.491  1.00  0.00     0.198 A 
ATOM     87  F   UNL     1      -2.017  -7.345  -7.482  1.00  0.00    -0.203 F 
ATOM     88  F   UNL     1      -1.978  -7.490 -12.937  1.00  0.00    -0.200 F 
ATOM     89  C   UNL     1      -2.614  -8.453 -10.877  1.00  0.00     0.200 A 
ATOM     90  F   UNL     1      -3.235  -9.375  -8.793  1.00  0.00    -0.200 F 
ATOM     91  F   UNL     1      -3.225  -9.459 -11.519  1.00  0.00    -0.200 F 
ENDBRANCH  58  81
ENDBRANCH  32  33
ENDBRANCH  25  27
ENDBRANCH  24  25
ENDBRANCH  23  24
ENDBRANCH   1  23
TORSDOF 15
