REMARK SMILES CC(=O)N1CCC[C@@H](Cc2nccnc2C(=O)OCCOC(=O)c2ccc(-c3c4nc(c(-c5c(F)c(F)c(F)c(F)c5F)c5ccc([nH]5)c(-c5c(F)c(F)c(F)c(F)c5F)c5nc(c(-c6c(F)c(F)c(F)c(F)c6F)c6ccc3[nH]6)C=C5)C=C4)cc2)C1
REMARK SMILES IDX 19 1 18 2 16 3 17 4 15 5 10 6 11 7 12 8 14 9 13 10 9 11 8 12
REMARK SMILES IDX 4 13 5 14 87 15 6 16 7 17 2 18 1 19 3 20 20 21 21 22 22 23
REMARK SMILES IDX 23 24 24 25 25 26 86 27 26 28 85 29 27 30 28 31 29 32 79 33
REMARK SMILES IDX 30 34 84 35 78 36 80 37 31 38 83 39 77 40 76 41 32 43 64 44
REMARK SMILES IDX 44 45 63 46 45 47 48 48 62 49 81 50 46 51 47 52 61 54 82 55
REMARK SMILES IDX 49 56 33 57 34 58 42 59 35 60 36 61 40 62 43 63 37 64 38 65
REMARK SMILES IDX 41 66 39 67 65 68 66 69 74 70 67 71 68 72 72 73 75 74 69 75
REMARK SMILES IDX 70 76 73 77 71 78 50 79 51 80 59 81 52 82 53 83 57 84 60 85
REMARK SMILES IDX 54 86 55 87 58 88 56 89
REMARK H PARENT 80 42 48 53
REMARK Flexibility Score: inf
ROOT
ATOM      1  C   UNL     1       4.615   8.407  -2.041  1.00  0.00     0.275 C 
ENDROOT
BRANCH   1   2
ATOM      2  O   UNL     1       4.249   7.296  -1.194  1.00  0.00    -0.457 OA
BRANCH   2   3
ATOM      3  C   UNL     1       5.147   6.949  -0.236  1.00  0.00     0.358 C 
ATOM      4  O   UNL     1       6.227   7.487  -0.047  1.00  0.00    -0.244 OA
BRANCH   3   5
ATOM      5  C   UNL     1       4.606   5.883   0.658  1.00  0.00     0.169 A 
ATOM      6  C   UNL     1       3.957   4.724   0.230  1.00  0.00     0.074 A 
ATOM      7  N   UNL     1       3.543   3.799   1.146  1.00  0.00    -0.257 NA
ATOM      8  C   UNL     1       3.731   4.072   2.453  1.00  0.00     0.131 A 
ATOM      9  N   UNL     1       4.833   6.128   1.989  1.00  0.00    -0.246 NA
ATOM     10  C   UNL     1       4.367   5.217   2.867  1.00  0.00     0.132 A 
BRANCH   6  11
ATOM     11  C   UNL     1       3.735   4.319  -1.206  1.00  0.00     0.064 C 
BRANCH  11  12
ATOM     12  C   UNL     1       2.284   3.913  -1.571  1.00  0.00     0.015 C 
ATOM     13  N   UNL     1       0.455   2.212  -1.189  1.00  0.00    -0.343 N 
ATOM     14  C   UNL     1      -0.539   3.278  -1.087  1.00  0.00     0.119 C 
ATOM     15  C   UNL     1       1.853   2.571  -0.950  1.00  0.00     0.123 C 
ATOM     16  C   UNL     1      -0.116   4.584  -1.742  1.00  0.00     0.022 C 
ATOM     17  C   UNL     1       1.267   5.018  -1.270  1.00  0.00     0.007 C 
BRANCH  13  18
ATOM     18  C   UNL     1      -0.019   0.907  -1.042  1.00  0.00     0.219 C 
ATOM     19  C   UNL     1       0.962  -0.140  -0.567  1.00  0.00     0.114 C 
ATOM     20  O   UNL     1      -1.202   0.606  -1.204  1.00  0.00    -0.275 OA
ENDBRANCH  13  18
ENDBRANCH  11  12
ENDBRANCH   6  11
ENDBRANCH   3   5
ENDBRANCH   2   3
ENDBRANCH   1   2
BRANCH   1  21
ATOM     21  C   UNL     1       3.538   9.493  -2.005  1.00  0.00     0.275 C 
BRANCH  21  22
ATOM     22  O   UNL     1       3.449  10.084  -0.695  1.00  0.00    -0.458 OA
BRANCH  22  23
ATOM     23  C   UNL     1       2.535   9.518   0.123  1.00  0.00     0.338 C 
ATOM     24  O   UNL     1       1.739   8.629  -0.149  1.00  0.00    -0.246 OA
BRANCH  23  25
ATOM     25  C   UNL     1       2.741  10.008   1.491  1.00  0.00     0.060 A 
ATOM     26  C   UNL     1       3.217   9.091   2.427  1.00  0.00     0.016 A 
ATOM     27  C   UNL     1       2.419  11.309   1.876  1.00  0.00     0.016 A 
ATOM     28  C   UNL     1       3.375   9.459   3.757  1.00  0.00     0.010 A 
ATOM     29  C   UNL     1       2.582  11.683   3.216  1.00  0.00     0.010 A 
ATOM     30  C   UNL     1       3.053  10.758   4.166  1.00  0.00    -0.014 A 
BRANCH  30  31
ATOM     31  C   UNL     1       3.162  11.114   5.602  1.00  0.00     0.031 A 
ATOM     32  C   UNL     1       1.920  11.297   6.423  1.00  0.00     0.074 A 
ATOM     33  C   UNL     1       4.373  11.219   6.180  1.00  0.00     0.049 A 
ATOM     34  N   UNL     1       1.797  11.683   7.668  1.00  0.00    -0.248 NA
ATOM     35  C   UNL     1       0.644  11.002   5.755  1.00  0.00     0.031 C 
ATOM     36  C   UNL     1       5.651  10.989   5.507  1.00  0.00     0.029 A 
ATOM     37  N   UNL     1       4.724  11.534   7.468  1.00  0.00    -0.354 N 
ATOM     38  C   UNL     1       0.432  11.713   7.921  1.00  0.00     0.074 A 
ATOM     39  C   UNL     1      -0.233  11.308   6.700  1.00  0.00     0.031 C 
ATOM     40  C   UNL     1       6.646  11.145   6.394  1.00  0.00     0.029 A 
ATOM     41  C   UNL     1       6.080  11.548   7.679  1.00  0.00     0.049 A 
ATOM     42  H   UNL     1       4.067  11.730   8.174  1.00  0.00     0.167 HD
ATOM     43  C   UNL     1      -0.204  12.052   9.067  1.00  0.00     0.037 A 
ATOM     44  C   UNL     1       6.787  11.878   8.776  1.00  0.00     0.037 A 
ATOM     45  C   UNL     1       0.463  12.421  10.288  1.00  0.00     0.049 A 
ATOM     46  C   UNL     1       6.058  12.330  10.010  1.00  0.00     0.074 A 
ATOM     47  C   UNL     1      -0.092  12.747  11.513  1.00  0.00     0.029 A 
ATOM     48  N   UNL     1       1.840  12.513  10.436  1.00  0.00    -0.354 N 
ATOM     49  N   UNL     1       4.768  12.386  10.235  1.00  0.00    -0.248 NA
ATOM     50  C   UNL     1       6.885  12.792  11.134  1.00  0.00     0.031 C 
ATOM     51  C   UNL     1       0.948  13.079  12.390  1.00  0.00     0.029 A 
ATOM     52  C   UNL     1       2.152  12.923  11.723  1.00  0.00     0.049 A 
ATOM     53  H   UNL     1       2.498  12.316   9.731  1.00  0.00     0.167 HD
ATOM     54  C   UNL     1       4.626  12.881  11.523  1.00  0.00     0.074 A 
ATOM     55  C   UNL     1       5.963  13.092  12.040  1.00  0.00     0.031 C 
ATOM     56  C   UNL     1       3.489  13.141  12.215  1.00  0.00     0.037 A 
BRANCH  43  57
ATOM     57  C   UNL     1      -1.703  12.086   9.035  1.00  0.00     0.064 A 
ATOM     58  C   UNL     1      -2.473  10.915   9.000  1.00  0.00     0.173 A 
ATOM     59  C   UNL     1      -2.378  13.316   9.043  1.00  0.00     0.173 A 
ATOM     60  F   UNL     1      -1.875   9.714   8.975  1.00  0.00    -0.203 F 
ATOM     61  C   UNL     1      -3.864  10.975   8.941  1.00  0.00     0.198 A 
ATOM     62  C   UNL     1      -3.768  13.373   9.009  1.00  0.00     0.198 A 
ATOM     63  F   UNL     1      -1.687  14.466   9.079  1.00  0.00    -0.203 F 
ATOM     64  F   UNL     1      -4.579   9.845   8.855  1.00  0.00    -0.200 F 
ATOM     65  C   UNL     1      -4.510  12.203   8.949  1.00  0.00     0.200 A 
ATOM     66  F   UNL     1      -4.390  14.560   9.024  1.00  0.00    -0.200 F 
ATOM     67  F   UNL     1      -5.847  12.259   8.887  1.00  0.00    -0.200 F 
ENDBRANCH  43  57
BRANCH  44  68
ATOM     68  C   UNL     1       8.271  11.819   8.743  1.00  0.00     0.064 A 
ATOM     69  C   UNL     1       8.967  10.846   9.471  1.00  0.00     0.173 A 
ATOM     70  C   UNL     1       9.020  12.722   7.973  1.00  0.00     0.173 A 
ATOM     71  F   UNL     1       8.295   9.980  10.243  1.00  0.00    -0.203 F 
ATOM     72  C   UNL     1      10.358  10.775   9.429  1.00  0.00     0.198 A 
ATOM     73  C   UNL     1      10.409  12.635   7.913  1.00  0.00     0.198 A 
ATOM     74  F   UNL     1       8.399  13.677   7.266  1.00  0.00    -0.203 F 
ATOM     75  F   UNL     1      11.002   9.853  10.156  1.00  0.00    -0.200 F 
ATOM     76  C   UNL     1      11.077  11.664   8.643  1.00  0.00     0.200 A 
ATOM     77  F   UNL     1      11.098  13.491   7.146  1.00  0.00    -0.200 F 
ATOM     78  F   UNL     1      12.414  11.589   8.594  1.00  0.00    -0.200 F 
ENDBRANCH  44  68
BRANCH  56  79
ATOM     79  C   UNL     1       3.645  13.679  13.605  1.00  0.00     0.064 A 
ATOM     80  C   UNL     1       4.023  15.010  13.833  1.00  0.00     0.173 A 
ATOM     81  C   UNL     1       3.381  12.869  14.719  1.00  0.00     0.173 A 
ATOM     82  F   UNL     1       4.304  15.818  12.800  1.00  0.00    -0.203 F 
ATOM     83  C   UNL     1       4.148  15.506  15.128  1.00  0.00     0.198 A 
ATOM     84  C   UNL     1       3.484  13.374  16.012  1.00  0.00     0.198 A 
ATOM     85  F   UNL     1       3.013  11.589  14.552  1.00  0.00    -0.203 F 
ATOM     86  F   UNL     1       4.548  16.770  15.325  1.00  0.00    -0.200 F 
ATOM     87  C   UNL     1       3.872  14.690  16.215  1.00  0.00     0.200 A 
ATOM     88  F   UNL     1       3.209  12.587  17.061  1.00  0.00    -0.200 F 
ATOM     89  F   UNL     1       3.988  15.170  17.461  1.00  0.00    -0.200 F 
ENDBRANCH  56  79
ENDBRANCH  30  31
ENDBRANCH  23  25
ENDBRANCH  22  23
ENDBRANCH  21  22
ENDBRANCH   1  21
TORSDOF 14
