REMARK SMILES Cc1ccc(S(=O)(=O)n2cc(C(=O)C(=O)NCC(=O)NCC(=O)OCCOC(=O)c3ccc(-c4c5nc(c(-c6c(F)c(F)c(F)c(F)c6F)c6ccc([nH]6)c(-c6c(F)c(F)c(F)c(F)c6F)c6nc(c(-c7c(F)c(F)c(F)c(F)c7F)c7ccc4[nH]7)C=C6)C=C5)cc3)c3ccccc32)cc1
REMARK SMILES IDX 22 1 23 2 21 3 20 4 18 5 19 6 17 8 16 9 14 10 15 11 12 13
REMARK SMILES IDX 13 14 11 15 9 16 10 17 98 18 93 19 97 20 94 21 96 22 95 23
REMARK SMILES IDX 6 24 7 25 8 26 5 27 1 28 2 29 3 30 100 31 4 32 99 33 24 34
REMARK SMILES IDX 25 35 26 36 27 37 28 38 29 39 30 40 31 41 92 42 32 43 91 44
REMARK SMILES IDX 33 45 34 46 35 47 85 48 36 49 90 50 84 51 86 52 37 53 89 54
REMARK SMILES IDX 83 55 82 56 38 58 70 59 50 60 69 61 51 62 54 63 68 64 87 65
REMARK SMILES IDX 52 66 53 67 67 69 88 70 55 71 39 72 40 73 48 74 41 75 42 76
REMARK SMILES IDX 46 77 49 78 43 79 44 80 47 81 45 82 71 83 72 84 80 85 73 86
REMARK SMILES IDX 74 87 78 88 81 89 75 90 76 91 79 92 77 93 56 94 57 95 65 96
REMARK SMILES IDX 58 97 59 98 63 99 66 100 60 101 61 102 64 103 62 104
REMARK H PARENT 20 7 16 12 86 57 54 68
REMARK Flexibility Score: inf
ROOT
ATOM      1  C   UNL     1     -10.169   2.238   1.288  1.00  0.00     0.325 C 
ATOM      2  O   UNL     1     -10.486   1.587   0.255  1.00  0.00    -0.250 OA
ENDROOT
BRANCH   1   3
ATOM      3  C   UNL     1      -9.349   4.253   1.538  1.00  0.00     0.238 C 
BRANCH   3   4
ATOM      4  N   UNL     1      -9.956   5.688   2.058  1.00  0.00    -0.344 N 
ATOM      5  C   UNL     1      -9.473   6.861   2.527  1.00  0.00     0.239 C 
ATOM      6  O   UNL     1     -10.316   7.744   2.732  1.00  0.00    -0.273 OA
ATOM      7  H   UNL     1     -10.940   5.697   2.016  1.00  0.00     0.164 HD
BRANCH   5   8
ATOM      8  C   UNL     1      -8.001   7.198   2.667  1.00  0.00     0.216 C 
BRANCH   8   9
ATOM      9  N   UNL     1      -7.144   6.111   3.072  1.00  0.00    -0.340 N 
ATOM     10  C   UNL     1      -6.109   5.497   2.403  1.00  0.00     0.292 C 
ATOM     11  O   UNL     1      -5.352   4.831   3.094  1.00  0.00    -0.265 OA
ATOM     12  H   UNL     1      -7.329   5.751   3.969  1.00  0.00     0.164 HD
BRANCH  10  13
ATOM     13  C   UNL     1      -5.854   5.684   0.873  1.00  0.00     0.252 C 
ATOM     14  O   UNL     1      -6.182   6.775   0.415  1.00  0.00    -0.283 OA
BRANCH  13  15
ATOM     15  C   UNL     1      -5.127   4.716  -0.009  1.00  0.00     0.054 A 
ATOM     16  N   UNL     1      -4.035   2.939  -0.819  1.00  0.00    -0.240 N 
ATOM     17  C   UNL     1      -5.110   3.332  -0.057  1.00  0.00     0.117 A 
ATOM     18  C   UNL     1      -3.749   3.917  -1.716  1.00  0.00     0.065 A 
ATOM     19  C   UNL     1      -4.413   5.054  -1.228  1.00  0.00     0.012 A 
ATOM     20  C   UNL     1      -2.999   3.894  -2.895  1.00  0.00     0.028 A 
ATOM     21  C   UNL     1      -4.309   6.232  -1.983  1.00  0.00     0.011 A 
ATOM     22  C   UNL     1      -2.961   5.065  -3.639  1.00  0.00     0.002 A 
ATOM     23  C   UNL     1      -3.609   6.214  -3.194  1.00  0.00     0.001 A 
BRANCH  16  24
ATOM     24  S   UNL     1      -3.403   1.373  -0.847  1.00  0.00     0.268 S 
ATOM     25  O   UNL     1      -3.738   0.852  -2.156  1.00  0.00    -0.201 OA
ATOM     26  O   UNL     1      -3.831   0.791   0.406  1.00  0.00    -0.201 OA
BRANCH  24  27
ATOM     27  C   UNL     1      -1.635   1.444  -0.747  1.00  0.00     0.088 A 
ATOM     28  C   UNL     1       2.607   1.086  -0.141  1.00  0.00     0.044 C 
ATOM     29  C   UNL     1       1.142   1.272  -0.416  1.00  0.00    -0.051 A 
ATOM     30  C   UNL     1       0.452   0.276  -1.107  1.00  0.00     0.005 A 
ATOM     31  C   UNL     1       0.433   2.386   0.054  1.00  0.00     0.005 A 
ATOM     32  C   UNL     1      -0.928   0.356  -1.267  1.00  0.00     0.022 A 
ATOM     33  C   UNL     1      -0.956   2.478  -0.108  1.00  0.00     0.022 A 
ENDBRANCH  24  27
ENDBRANCH  16  24
ENDBRANCH  13  15
ENDBRANCH  10  13
ENDBRANCH   8   9
ENDBRANCH   5   8
ENDBRANCH   3   4
ENDBRANCH   1   3
BRANCH   1  34
ATOM     34  O   UNL     1     -10.529   1.400   2.397  1.00  0.00    -0.461 OA
BRANCH  34  35
ATOM     35  C   UNL     1     -11.705   0.590   2.256  1.00  0.00     0.274 C 
BRANCH  35  36
ATOM     36  C   UNL     1     -12.954   1.478   2.356  1.00  0.00     0.275 C 
BRANCH  36  37
ATOM     37  O   UNL     1     -13.222   2.314   1.194  1.00  0.00    -0.458 OA
BRANCH  37  38
ATOM     38  C   UNL     1     -12.863   3.625   1.085  1.00  0.00     0.338 C 
ATOM     39  O   UNL     1     -13.551   4.487   0.565  1.00  0.00    -0.246 OA
BRANCH  38  40
ATOM     40  C   UNL     1     -11.424   3.864   1.289  1.00  0.00     0.060 A 
ATOM     41  C   UNL     1     -10.398   3.724  -0.192  1.00  0.00     0.016 A 
ATOM     42  C   UNL     1     -10.714   3.523   2.917  1.00  0.00     0.016 A 
ATOM     43  C   UNL     1      -8.730   2.989  -0.049  1.00  0.00     0.010 A 
ATOM     44  C   UNL     1      -9.049   2.831   3.047  1.00  0.00     0.010 A 
ATOM     45  C   UNL     1      -8.113   2.450   1.552  1.00  0.00    -0.014 A 
BRANCH  45  46
ATOM     46  C   UNL     1      -7.383   1.151   1.742  1.00  0.00     0.031 A 
ATOM     47  C   UNL     1      -6.355   1.076   2.803  1.00  0.00     0.074 A 
ATOM     48  C   UNL     1      -7.721   0.023   1.084  1.00  0.00     0.049 A 
ATOM     49  N   UNL     1      -6.130   0.188   3.712  1.00  0.00    -0.248 NA
ATOM     50  C   UNL     1      -5.428   2.180   2.859  1.00  0.00     0.031 C 
ATOM     51  C   UNL     1      -7.369  -1.343   1.452  1.00  0.00     0.029 A 
ATOM     52  N   UNL     1      -8.368  -0.108  -0.146  1.00  0.00    -0.354 N 
ATOM     53  C   UNL     1      -4.975   0.598   4.364  1.00  0.00     0.074 A 
ATOM     54  C   UNL     1      -4.691   1.937   3.921  1.00  0.00     0.031 C 
ATOM     55  C   UNL     1      -7.598  -2.156   0.411  1.00  0.00     0.029 A 
ATOM     56  C   UNL     1      -7.954  -1.327  -0.719  1.00  0.00     0.049 A 
ATOM     57  H   UNL     1      -9.001   0.535  -0.541  1.00  0.00     0.167 HD
ATOM     58  C   UNL     1      -3.875  -0.172   4.546  1.00  0.00     0.037 A 
ATOM     59  C   UNL     1      -7.307  -1.339  -1.919  1.00  0.00     0.037 A 
ATOM     60  C   UNL     1      -3.834  -1.304   3.633  1.00  0.00     0.049 A 
ATOM     61  C   UNL     1      -5.842  -1.744  -1.792  1.00  0.00     0.074 A 
ATOM     62  C   UNL     1      -4.518  -2.504   3.618  1.00  0.00     0.029 A 
ATOM     63  N   UNL     1      -3.324  -1.155   2.340  1.00  0.00    -0.354 N 
ATOM     64  N   UNL     1      -5.221  -1.915  -0.650  1.00  0.00    -0.248 NA
ATOM     65  C   UNL     1      -4.955  -1.953  -2.928  1.00  0.00     0.031 C 
ATOM     66  C   UNL     1      -4.389  -3.087   2.325  1.00  0.00     0.029 A 
ATOM     67  C   UNL     1      -3.571  -2.284   1.551  1.00  0.00     0.049 A 
ATOM     68  H   UNL     1      -2.849  -0.353   2.023  1.00  0.00     0.167 HD
ATOM     69  C   UNL     1      -3.898  -2.230  -0.855  1.00  0.00     0.074 A 
ATOM     70  C   UNL     1      -3.787  -2.219  -2.311  1.00  0.00     0.031 C 
ATOM     71  C   UNL     1      -3.014  -2.418   0.188  1.00  0.00     0.037 A 
BRANCH  58  72
ATOM     72  C   UNL     1      -3.028   0.141   5.769  1.00  0.00     0.064 A 
ATOM     73  C   UNL     1      -2.160  -0.837   6.271  1.00  0.00     0.173 A 
ATOM     74  C   UNL     1      -3.148   1.307   6.587  1.00  0.00     0.173 A 
ATOM     75  F   UNL     1      -1.926  -1.960   5.579  1.00  0.00    -0.203 F 
ATOM     76  C   UNL     1      -1.548  -0.711   7.526  1.00  0.00     0.198 A 
ATOM     77  C   UNL     1      -2.501   1.448   7.815  1.00  0.00     0.198 A 
ATOM     78  F   UNL     1      -3.929   2.347   6.265  1.00  0.00    -0.203 F 
ATOM     79  F   UNL     1      -0.803  -1.717   8.002  1.00  0.00    -0.200 F 
ATOM     80  C   UNL     1      -1.732   0.420   8.303  1.00  0.00     0.200 A 
ATOM     81  F   UNL     1      -2.672   2.568   8.535  1.00  0.00    -0.200 F 
ATOM     82  F   UNL     1      -1.186   0.512   9.523  1.00  0.00    -0.200 F 
ENDBRANCH  58  72
BRANCH  59  83
ATOM     83  C   UNL     1      -7.968  -0.405  -2.884  1.00  0.00     0.064 A 
ATOM     84  C   UNL     1      -9.328  -0.676  -3.169  1.00  0.00     0.173 A 
ATOM     85  C   UNL     1      -7.539   0.914  -3.070  1.00  0.00     0.173 A 
ATOM     86  F   UNL     1      -9.793  -1.931  -3.057  1.00  0.00    -0.203 F 
ATOM     87  C   UNL     1     -10.248   0.349  -3.388  1.00  0.00     0.198 A 
ATOM     88  C   UNL     1      -8.457   1.931  -3.361  1.00  0.00     0.198 A 
ATOM     89  F   UNL     1      -6.278   1.265  -2.796  1.00  0.00    -0.203 F 
ATOM     90  F   UNL     1     -11.560   0.073  -3.434  1.00  0.00    -0.200 F 
ATOM     91  C   UNL     1      -9.815   1.659  -3.445  1.00  0.00     0.200 A 
ATOM     92  F   UNL     1      -8.043   3.208  -3.391  1.00  0.00    -0.200 F 
ATOM     93  F   UNL     1     -10.701   2.663  -3.508  1.00  0.00    -0.200 F 
ENDBRANCH  59  83
BRANCH  71  94
ATOM     94  C   UNL     1      -1.517  -2.736   0.045  1.00  0.00     0.064 A 
ATOM     95  C   UNL     1      -0.915  -3.295  -1.098  1.00  0.00     0.173 A 
ATOM     96  C   UNL     1      -0.605  -2.463   1.099  1.00  0.00     0.173 A 
ATOM     97  F   UNL     1      -1.643  -3.792  -2.103  1.00  0.00    -0.203 F 
ATOM     98  C   UNL     1       0.478  -3.383  -1.248  1.00  0.00     0.198 A 
ATOM     99  C   UNL     1       0.780  -2.603   0.970  1.00  0.00     0.198 A 
ATOM    100  F   UNL     1      -1.007  -2.016   2.294  1.00  0.00    -0.203 F 
ATOM    101  F   UNL     1       0.995  -3.763  -2.426  1.00  0.00    -0.200 F 
ATOM    102  C   UNL     1       1.325  -3.024  -0.220  1.00  0.00     0.200 A 
ATOM    103  F   UNL     1       1.581  -2.264   1.990  1.00  0.00    -0.200 F 
ATOM    104  F   UNL     1       2.654  -3.038  -0.390  1.00  0.00    -0.200 F 
ENDBRANCH  71  94
ENDBRANCH  45  46
ENDBRANCH  38  40
ENDBRANCH  37  38
ENDBRANCH  36  37
ENDBRANCH  35  36
ENDBRANCH  34  35
ENDBRANCH   1  34
TORSDOF 18
