REMARK SMILES CC1(C)COCCN1C(=O)N1CCO[C@@H](CC(=O)OCCOC(=O)c2ccc(-c3c4nc(c(-c5c(F)c(F)c(F)c(F)c5F)c5ccc([nH]5)c(-c5c(F)c(F)c(F)c(F)c5F)c5nc(c(-c6c(F)c(F)c(F)c(F)c6F)c6ccc3[nH]6)C=C5)C=C4)cc2)C1
REMARK SMILES IDX 20 1 19 2 17 3 18 4 16 5 15 6 11 7 12 8 88 9 13 10 14 11
REMARK SMILES IDX 9 12 10 13 8 14 1 15 2 16 3 17 4 18 5 19 7 20 6 21 21 22
REMARK SMILES IDX 22 23 23 24 24 25 25 26 26 27 87 28 27 29 86 30 28 31 29 32
REMARK SMILES IDX 30 33 80 34 31 35 85 36 79 37 81 38 32 39 84 40 78 41 77 42
REMARK SMILES IDX 33 44 65 45 45 46 64 47 46 48 49 49 63 50 82 51 47 52 48 53
REMARK SMILES IDX 62 55 83 56 50 57 34 58 35 59 43 60 36 61 37 62 41 63 44 64
REMARK SMILES IDX 38 65 39 66 42 67 40 68 66 69 67 70 75 71 68 72 69 73 73 74
REMARK SMILES IDX 76 75 70 76 71 77 74 78 72 79 51 80 52 81 60 82 53 83 54 84
REMARK SMILES IDX 58 85 61 86 55 87 56 88 59 89 57 90
REMARK H PARENT 81 43 49 54
REMARK Flexibility Score: inf
ROOT
ATOM      1  C   UNL     1      -1.444   2.290  -3.707  1.00  0.00     0.274 C 
ENDROOT
BRANCH   1   2
ATOM      2  O   UNL     1      -2.003   0.971  -3.530  1.00  0.00    -0.462 OA
BRANCH   2   3
ATOM      3  C   UNL     1      -2.053   0.522  -2.252  1.00  0.00     0.308 C 
ATOM      4  O   UNL     1      -1.616   1.131  -1.282  1.00  0.00    -0.252 OA
BRANCH   3   5
ATOM      5  C   UNL     1      -2.823  -0.764  -2.112  1.00  0.00     0.156 C 
BRANCH   5   6
ATOM      6  C   UNL     1      -2.455  -1.896  -3.066  1.00  0.00     0.149 C 
ATOM      7  N   UNL     1      -0.090  -2.424  -2.489  1.00  0.00    -0.320 N 
ATOM      8  C   UNL     1      -0.518  -3.705  -1.934  1.00  0.00     0.150 C 
ATOM      9  C   UNL     1      -0.994  -1.966  -3.536  1.00  0.00     0.154 C 
ATOM     10  C   UNL     1      -1.976  -3.652  -1.472  1.00  0.00     0.182 C 
ATOM     11  O   UNL     1      -2.859  -3.170  -2.502  1.00  0.00    -0.374 OA
BRANCH   7  12
ATOM     12  C   UNL     1       1.250  -2.317  -2.788  1.00  0.00     0.320 C 
ATOM     13  O   UNL     1       1.671  -2.784  -3.847  1.00  0.00    -0.248 OA
BRANCH  12  14
ATOM     14  N   UNL     1       2.053  -1.599  -1.906  1.00  0.00    -0.315 N 
ATOM     15  C   UNL     1       2.730  -0.669   0.341  1.00  0.00     0.037 C 
ATOM     16  C   UNL     1       1.641  -0.697  -0.768  1.00  0.00     0.062 C 
ATOM     17  C   UNL     1       0.360  -1.088  -0.019  1.00  0.00     0.037 C 
ATOM     18  C   UNL     1       1.519   0.725  -1.380  1.00  0.00     0.188 C 
ATOM     19  O   UNL     1       2.774   1.158  -1.950  1.00  0.00    -0.377 OA
ATOM     20  C   UNL     1       3.338  -1.187  -2.494  1.00  0.00     0.150 C 
ATOM     21  C   UNL     1       3.220   0.265  -2.989  1.00  0.00     0.182 C 
ENDBRANCH  12  14
ENDBRANCH   7  12
ENDBRANCH   5   6
ENDBRANCH   3   5
ENDBRANCH   2   3
ENDBRANCH   1   2
BRANCH   1  22
ATOM     22  C   UNL     1      -2.549   3.342  -3.832  1.00  0.00     0.275 C 
BRANCH  22  23
ATOM     23  O   UNL     1      -3.238   3.535  -2.582  1.00  0.00    -0.458 OA
BRANCH  23  24
ATOM     24  C   UNL     1      -4.294   2.715  -2.380  1.00  0.00     0.338 C 
ATOM     25  O   UNL     1      -4.749   1.882  -3.143  1.00  0.00    -0.246 OA
BRANCH  24  26
ATOM     26  C   UNL     1      -4.780   2.869  -1.004  1.00  0.00     0.060 A 
ATOM     27  C   UNL     1      -4.556   1.829  -0.096  1.00  0.00     0.016 A 
ATOM     28  C   UNL     1      -5.567   3.965  -0.656  1.00  0.00     0.016 A 
ATOM     29  C   UNL     1      -5.147   1.857   1.158  1.00  0.00     0.010 A 
ATOM     30  C   UNL     1      -6.158   3.996   0.607  1.00  0.00     0.010 A 
ATOM     31  C   UNL     1      -5.972   2.929   1.504  1.00  0.00    -0.014 A 
BRANCH  31  32
ATOM     32  C   UNL     1      -6.752   2.865   2.754  1.00  0.00     0.031 A 
ATOM     33  C   UNL     1      -8.215   2.554   2.670  1.00  0.00     0.074 A 
ATOM     34  C   UNL     1      -6.148   3.054   3.938  1.00  0.00     0.049 A 
ATOM     35  N   UNL     1      -9.134   2.628   3.596  1.00  0.00    -0.248 NA
ATOM     36  C   UNL     1      -8.712   2.103   1.359  1.00  0.00     0.031 C 
ATOM     37  C   UNL     1      -4.713   3.265   4.129  1.00  0.00     0.029 A 
ATOM     38  N   UNL     1      -6.669   3.108   5.203  1.00  0.00    -0.354 N 
ATOM     39  C   UNL     1     -10.322   2.276   2.970  1.00  0.00     0.074 A 
ATOM     40  C   UNL     1     -10.011   1.983   1.589  1.00  0.00     0.031 C 
ATOM     41  C   UNL     1      -4.470   3.442   5.438  1.00  0.00     0.029 A 
ATOM     42  C   UNL     1      -5.737   3.418   6.161  1.00  0.00     0.049 A 
ATOM     43  H   UNL     1      -7.618   2.941   5.405  1.00  0.00     0.167 HD
ATOM     44  C   UNL     1     -11.562   2.217   3.511  1.00  0.00     0.037 A 
ATOM     45  C   UNL     1      -5.906   3.699   7.466  1.00  0.00     0.037 A 
ATOM     46  C   UNL     1     -11.840   2.492   4.895  1.00  0.00     0.049 A 
ATOM     47  C   UNL     1      -7.301   3.681   8.032  1.00  0.00     0.074 A 
ATOM     48  C   UNL     1     -13.055   2.481   5.554  1.00  0.00     0.029 A 
ATOM     49  N   UNL     1     -10.874   2.821   5.836  1.00  0.00    -0.354 N 
ATOM     50  N   UNL     1      -8.434   3.410   7.430  1.00  0.00    -0.248 NA
ATOM     51  C   UNL     1      -7.442   4.021   9.453  1.00  0.00     0.031 C 
ATOM     52  C   UNL     1     -12.828   2.836   6.889  1.00  0.00     0.029 A 
ATOM     53  C   UNL     1     -11.466   3.026   7.070  1.00  0.00     0.049 A 
ATOM     54  H   UNL     1      -9.909   2.898   5.653  1.00  0.00     0.167 HD
ATOM     55  C   UNL     1      -9.421   3.531   8.397  1.00  0.00     0.074 A 
ATOM     56  C   UNL     1      -8.749   3.884   9.632  1.00  0.00     0.031 C 
ATOM     57  C   UNL     1     -10.762   3.370   8.279  1.00  0.00     0.037 A 
BRANCH  44  58
ATOM     58  C   UNL     1     -12.702   1.894   2.592  1.00  0.00     0.064 A 
ATOM     59  C   UNL     1     -12.902   0.604   2.080  1.00  0.00     0.173 A 
ATOM     60  C   UNL     1     -13.612   2.896   2.222  1.00  0.00     0.173 A 
ATOM     61  F   UNL     1     -12.046  -0.383   2.386  1.00  0.00    -0.203 F 
ATOM     62  C   UNL     1     -13.959   0.334   1.214  1.00  0.00     0.198 A 
ATOM     63  C   UNL     1     -14.682   2.616   1.376  1.00  0.00     0.198 A 
ATOM     64  F   UNL     1     -13.464   4.148   2.681  1.00  0.00    -0.203 F 
ATOM     65  F   UNL     1     -14.104  -0.895   0.700  1.00  0.00    -0.200 F 
ATOM     66  C   UNL     1     -14.851   1.338   0.868  1.00  0.00     0.200 A 
ATOM     67  F   UNL     1     -15.546   3.587   1.048  1.00  0.00    -0.200 F 
ATOM     68  F   UNL     1     -15.868   1.076   0.035  1.00  0.00    -0.200 F 
ENDBRANCH  44  58
BRANCH  45  69
ATOM     69  C   UNL     1      -4.735   4.062   8.304  1.00  0.00     0.064 A 
ATOM     70  C   UNL     1      -4.281   3.212   9.320  1.00  0.00     0.173 A 
ATOM     71  C   UNL     1      -4.040   5.264   8.101  1.00  0.00     0.173 A 
ATOM     72  F   UNL     1      -4.926   2.062   9.569  1.00  0.00    -0.203 F 
ATOM     73  C   UNL     1      -3.183   3.554  10.108  1.00  0.00     0.198 A 
ATOM     74  C   UNL     1      -2.926   5.593   8.870  1.00  0.00     0.198 A 
ATOM     75  F   UNL     1      -4.435   6.115   7.141  1.00  0.00    -0.203 F 
ATOM     76  F   UNL     1      -2.793   2.740  11.099  1.00  0.00    -0.200 F 
ATOM     77  C   UNL     1      -2.502   4.740   9.878  1.00  0.00     0.200 A 
ATOM     78  F   UNL     1      -2.264   6.733   8.635  1.00  0.00    -0.200 F 
ATOM     79  F   UNL     1      -1.442   5.064  10.630  1.00  0.00    -0.200 F 
ENDBRANCH  45  69
BRANCH  57  80
ATOM     80  C   UNL     1     -11.577   3.543   9.525  1.00  0.00     0.064 A 
ATOM     81  C   UNL     1     -11.831   4.812  10.063  1.00  0.00     0.173 A 
ATOM     82  C   UNL     1     -12.142   2.428  10.161  1.00  0.00     0.173 A 
ATOM     83  F   UNL     1     -11.297   5.905   9.496  1.00  0.00    -0.203 F 
ATOM     84  C   UNL     1     -12.605   4.957  11.210  1.00  0.00     0.198 A 
ATOM     85  C   UNL     1     -12.936   2.579  11.293  1.00  0.00     0.198 A 
ATOM     86  F   UNL     1     -11.931   1.195   9.678  1.00  0.00    -0.203 F 
ATOM     87  F   UNL     1     -12.801   6.175  11.734  1.00  0.00    -0.200 F 
ATOM     88  C   UNL     1     -13.162   3.842  11.820  1.00  0.00     0.200 A 
ATOM     89  F   UNL     1     -13.482   1.503  11.875  1.00  0.00    -0.200 F 
ATOM     90  F   UNL     1     -13.911   3.985  12.922  1.00  0.00    -0.200 F 
ENDBRANCH  57  80
ENDBRANCH  31  32
ENDBRANCH  24  26
ENDBRANCH  23  24
ENDBRANCH  22  23
ENDBRANCH   1  22
TORSDOF 14
