REMARK SMILES CC(=O)O[C@@H]1[C@H](O)C(C)=C(CC[C@@H](C)CC(=O)OCCOC(=O)c2ccc(-c3c4nc(c(-c5c(F)c(F)c(F)c(F)c5F)c5ccc([nH]5)c(-c5c(F)c(F)c(F)c(F)c5F)c5nc(c(-c6c(F)c(F)c(F)c(F)c6F)c6ccc3[nH]6)C=C5)C=C4)cc2)[C@@]2(C)CCCC(C)(C)[C@H]12
REMARK SMILES IDX 16 1 17 2 15 3 13 4 14 5 12 6 11 7 10 8 5 9 6 10 95 11 8 12
REMARK SMILES IDX 87 13 92 14 9 15 89 16 88 17 91 18 93 19 94 20 90 21 4 22
REMARK SMILES IDX 2 23 1 24 3 25 7 26 18 28 19 29 20 30 21 31 22 32 23 33
REMARK SMILES IDX 24 34 25 35 86 36 26 37 85 38 27 39 28 40 29 41 79 42 30 43
REMARK SMILES IDX 84 44 78 45 80 46 31 47 83 48 77 49 76 50 32 52 64 53 44 54
REMARK SMILES IDX 63 55 45 56 48 57 62 58 81 59 46 60 47 61 61 63 82 64 49 65
REMARK SMILES IDX 33 66 34 67 42 68 35 69 36 70 40 71 43 72 37 73 38 74 41 75
REMARK SMILES IDX 39 76 65 77 66 78 74 79 67 80 68 81 72 82 75 83 69 84 70 85
REMARK SMILES IDX 73 86 71 87 50 88 51 89 59 90 52 91 53 92 57 93 60 94 54 95
REMARK SMILES IDX 55 96 58 97 56 98
REMARK H PARENT 7 27 80 51 48 62
REMARK Flexibility Score: inf
ROOT
ATOM      1  C   UNL     1       1.620  -2.498   0.923  1.00  0.00     0.306 C 
ATOM      2  O   UNL     1       0.543  -2.852   0.449  1.00  0.00    -0.252 OA
ENDROOT
BRANCH   1   3
ATOM      3  C   UNL     1       2.668  -1.785   0.094  1.00  0.00     0.126 C 
BRANCH   3   4
ATOM      4  C   UNL     1       3.589  -0.673   0.683  1.00  0.00    -0.003 C 
ATOM      5  C   UNL     1       4.186   0.039  -0.550  1.00  0.00     0.008 C 
BRANCH   4   6
ATOM      6  C   UNL     1       4.647  -1.173   1.716  1.00  0.00     0.008 C 
BRANCH   6   7
ATOM      7  C   UNL     1       5.564  -0.102   2.413  1.00  0.00     0.032 C 
BRANCH   7   8
ATOM      8  C   UNL     1       5.324   0.814   3.683  1.00  0.00    -0.062 C 
ATOM      9  C   UNL     1       2.492   1.573   4.060  1.00  0.00     0.213 C 
ATOM     10  C   UNL     1       3.151   0.175   4.430  1.00  0.00     0.181 C 
ATOM     11  C   UNL     1       3.610   2.514   3.149  1.00  0.00     0.049 C 
ATOM     12  C   UNL     1       4.588   0.446   4.779  1.00  0.00    -0.042 C 
ATOM     13  C   UNL     1       5.228   2.365   3.389  1.00  0.00    -0.004 C 
ATOM     14  C   UNL     1       3.200   3.740   2.249  1.00  0.00    -0.028 C 
ATOM     15  C   UNL     1       4.631   1.140   6.143  1.00  0.00     0.042 C 
ATOM     16  C   UNL     1       6.095   2.852   2.140  1.00  0.00     0.011 C 
ATOM     17  C   UNL     1       5.937   3.208   4.505  1.00  0.00     0.016 C 
ATOM     18  C   UNL     1       3.922   3.525   0.878  1.00  0.00     0.007 C 
ATOM     19  C   UNL     1       3.587   5.130   2.776  1.00  0.00     0.011 C 
ATOM     20  C   UNL     1       1.699   3.764   1.935  1.00  0.00     0.011 C 
ATOM     21  C   UNL     1       5.436   3.526   0.944  1.00  0.00     0.001 C 
BRANCH   9  22
ATOM     22  O   UNL     1       1.508   2.153   4.998  1.00  0.00    -0.459 OA
BRANCH  22  23
ATOM     23  C   UNL     1       1.016   1.395   6.037  1.00  0.00     0.303 C 
ATOM     24  C   UNL     1      -0.419   0.895   5.968  1.00  0.00     0.139 C 
ATOM     25  O   UNL     1       1.702   1.117   7.018  1.00  0.00    -0.253 OA
ENDBRANCH  22  23
ENDBRANCH   9  22
BRANCH  10  26
ATOM     26  O   UNL     1       2.547  -0.675   5.391  1.00  0.00    -0.385 OA
ATOM     27  H   UNL     1       2.602  -0.263   6.267  1.00  0.00     0.211 HD
ENDBRANCH  10  26
ENDBRANCH   7   8
ENDBRANCH   6   7
ENDBRANCH   4   6
ENDBRANCH   3   4
ENDBRANCH   1   3
BRANCH   1  28
ATOM     28  O   UNL     1       1.995  -2.716   2.203  1.00  0.00    -0.462 OA
BRANCH  28  29
ATOM     29  C   UNL     1       0.960  -3.215   3.067  1.00  0.00     0.274 C 
BRANCH  29  30
ATOM     30  C   UNL     1       0.183  -2.093   3.770  1.00  0.00     0.275 C 
BRANCH  30  31
ATOM     31  O   UNL     1      -0.705  -1.257   2.982  1.00  0.00    -0.458 OA
BRANCH  31  32
ATOM     32  C   UNL     1      -0.113  -0.286   2.270  1.00  0.00     0.338 C 
ATOM     33  O   UNL     1       1.094  -0.211   2.003  1.00  0.00    -0.246 OA
BRANCH  32  34
ATOM     34  C   UNL     1      -0.929   0.866   1.934  1.00  0.00     0.060 A 
ATOM     35  C   UNL     1      -1.173   1.213   0.613  1.00  0.00     0.016 A 
ATOM     36  C   UNL     1      -1.231   1.782   2.935  1.00  0.00     0.016 A 
ATOM     37  C   UNL     1      -1.869   2.396   0.346  1.00  0.00     0.010 A 
ATOM     38  C   UNL     1      -2.019   2.885   2.707  1.00  0.00     0.010 A 
ATOM     39  C   UNL     1      -2.377   3.182   1.404  1.00  0.00    -0.014 A 
BRANCH  39  40
ATOM     40  C   UNL     1      -3.474   4.145   1.206  1.00  0.00     0.031 A 
ATOM     41  C   UNL     1      -3.390   5.574   1.654  1.00  0.00     0.074 A 
ATOM     42  C   UNL     1      -4.641   3.608   0.800  1.00  0.00     0.049 A 
ATOM     43  N   UNL     1      -4.279   6.525   1.517  1.00  0.00    -0.248 NA
ATOM     44  C   UNL     1      -2.194   5.986   2.410  1.00  0.00     0.031 C 
ATOM     45  C   UNL     1      -4.876   2.172   0.586  1.00  0.00     0.029 A 
ATOM     46  N   UNL     1      -5.840   4.182   0.497  1.00  0.00    -0.354 N 
ATOM     47  C   UNL     1      -3.750   7.637   2.158  1.00  0.00     0.074 A 
ATOM     48  C   UNL     1      -2.509   7.222   2.772  1.00  0.00     0.031 C 
ATOM     49  C   UNL     1      -6.106   1.992   0.094  1.00  0.00     0.029 A 
ATOM     50  C   UNL     1      -6.755   3.289  -0.005  1.00  0.00     0.049 A 
ATOM     51  H   UNL     1      -6.032   5.139   0.625  1.00  0.00     0.167 HD
ATOM     52  C   UNL     1      -4.245   8.898   2.183  1.00  0.00     0.037 A 
ATOM     53  C   UNL     1      -7.972   3.508  -0.525  1.00  0.00     0.037 A 
ATOM     54  C   UNL     1      -5.484   9.262   1.544  1.00  0.00     0.049 A 
ATOM     55  C   UNL     1      -8.443   4.928  -0.601  1.00  0.00     0.074 A 
ATOM     56  C   UNL     1      -6.052  10.514   1.393  1.00  0.00     0.029 A 
ATOM     57  N   UNL     1      -6.353   8.353   0.951  1.00  0.00    -0.354 N 
ATOM     58  N   UNL     1      -7.856   6.016  -0.161  1.00  0.00    -0.248 NA
ATOM     59  C   UNL     1      -9.728   5.158  -1.265  1.00  0.00     0.031 C 
ATOM     60  C   UNL     1      -7.282  10.356   0.744  1.00  0.00     0.029 A 
ATOM     61  C   UNL     1      -7.457   9.013   0.443  1.00  0.00     0.049 A 
ATOM     62  H   UNL     1      -6.204   7.381   0.900  1.00  0.00     0.167 HD
ATOM     63  C   UNL     1      -8.687   7.065  -0.515  1.00  0.00     0.074 A 
ATOM     64  C   UNL     1      -9.805   6.480  -1.232  1.00  0.00     0.031 C 
ATOM     65  C   UNL     1      -8.548   8.391  -0.267  1.00  0.00     0.037 A 
BRANCH  52  66
ATOM     66  C   UNL     1      -3.432   9.967   2.863  1.00  0.00     0.064 A 
ATOM     67  C   UNL     1      -2.172  10.351   2.371  1.00  0.00     0.173 A 
ATOM     68  C   UNL     1      -3.924  10.654   3.984  1.00  0.00     0.173 A 
ATOM     69  F   UNL     1      -1.648   9.733   1.302  1.00  0.00    -0.203 F 
ATOM     70  C   UNL     1      -1.425  11.349   2.994  1.00  0.00     0.198 A 
ATOM     71  C   UNL     1      -3.188  11.675   4.585  1.00  0.00     0.198 A 
ATOM     72  F   UNL     1      -5.125  10.343   4.496  1.00  0.00    -0.203 F 
ATOM     73  F   UNL     1      -0.204  11.655   2.533  1.00  0.00    -0.200 F 
ATOM     74  C   UNL     1      -1.936  12.015   4.095  1.00  0.00     0.200 A 
ATOM     75  F   UNL     1      -3.691  12.331   5.640  1.00  0.00    -0.200 F 
ATOM     76  F   UNL     1      -1.220  12.981   4.688  1.00  0.00    -0.200 F 
ENDBRANCH  52  66
BRANCH  53  77
ATOM     77  C   UNL     1      -8.743   2.379  -1.101  1.00  0.00     0.064 A 
ATOM     78  C   UNL     1      -8.929   2.274  -2.487  1.00  0.00     0.173 A 
ATOM     79  C   UNL     1      -9.269   1.359  -0.295  1.00  0.00     0.173 A 
ATOM     80  F   UNL     1      -8.434   3.217  -3.302  1.00  0.00    -0.203 F 
ATOM     81  C   UNL     1      -9.645   1.216  -3.040  1.00  0.00     0.198 A 
ATOM     82  C   UNL     1      -9.957   0.284  -0.852  1.00  0.00     0.198 A 
ATOM     83  F   UNL     1      -9.086   1.392   1.034  1.00  0.00    -0.203 F 
ATOM     84  F   UNL     1      -9.849   1.168  -4.364  1.00  0.00    -0.200 F 
ATOM     85  C   UNL     1     -10.157   0.220  -2.223  1.00  0.00     0.200 A 
ATOM     86  F   UNL     1     -10.423  -0.692  -0.061  1.00  0.00    -0.200 F 
ATOM     87  F   UNL     1     -10.843  -0.800  -2.755  1.00  0.00    -0.200 F 
ENDBRANCH  53  77
BRANCH  65  88
ATOM     88  C   UNL     1      -9.624   9.286  -0.801  1.00  0.00     0.064 A 
ATOM     89  C   UNL     1     -10.914   9.290  -0.253  1.00  0.00     0.173 A 
ATOM     90  C   UNL     1      -9.349  10.168  -1.857  1.00  0.00     0.173 A 
ATOM     91  F   UNL     1     -11.226   8.451   0.747  1.00  0.00    -0.203 F 
ATOM     92  C   UNL     1     -11.902  10.123  -0.766  1.00  0.00     0.198 A 
ATOM     93  C   UNL     1     -10.330  11.025  -2.342  1.00  0.00     0.198 A 
ATOM     94  F   UNL     1      -8.127  10.203  -2.409  1.00  0.00    -0.203 F 
ATOM     95  F   UNL     1     -13.145  10.068  -0.268  1.00  0.00    -0.200 F 
ATOM     96  C   UNL     1     -11.608  10.995  -1.803  1.00  0.00     0.200 A 
ATOM     97  F   UNL     1     -10.040  11.878  -3.333  1.00  0.00    -0.200 F 
ATOM     98  F   UNL     1     -12.559  11.802  -2.291  1.00  0.00    -0.200 F 
ENDBRANCH  65  88
ENDBRANCH  39  40
ENDBRANCH  32  34
ENDBRANCH  31  32
ENDBRANCH  30  31
ENDBRANCH  29  30
ENDBRANCH  28  29
ENDBRANCH   1  28
TORSDOF 18
