REMARK SMILES COc1cccc(C(=O)N2[C@@H](C(=O)OCCOC(=O)c3ccc(-c4c5nc(c(-c6c(F)c(F)c(F)c(F)c6F)c6ccc([nH]6)c(-c6c(F)c(F)c(F)c(F)c6F)c6nc(c(-c7c(F)c(F)c(F)c(F)c7F)c7ccc4[nH]7)C=C6)C=C5)cc3)CS[C@@H]2c2ccccc2Cl)c1
REMARK SMILES IDX 15 1 14 2 12 3 13 4 11 5 10 6 85 7 83 8 84 9 8 10 9 11 7 12
REMARK SMILES IDX 3 13 4 14 93 15 5 16 6 17 2 18 1 19 86 20 87 21 91 22 88 23
REMARK SMILES IDX 90 24 92 25 89 26 16 27 17 28 18 29 19 30 20 31 21 32 82 33
REMARK SMILES IDX 22 34 81 35 23 36 24 37 25 38 75 39 26 40 80 41 74 42 76 43
REMARK SMILES IDX 27 44 79 45 73 46 72 47 28 49 60 50 40 51 59 52 41 53 44 54
REMARK SMILES IDX 58 55 77 56 42 57 43 58 57 60 78 61 45 62 29 63 30 64 38 65
REMARK SMILES IDX 31 66 32 67 36 68 39 69 33 70 34 71 37 72 35 73 61 74 62 75
REMARK SMILES IDX 70 76 63 77 64 78 68 79 71 80 65 81 66 82 69 83 67 84 46 85
REMARK SMILES IDX 47 86 55 87 48 88 49 89 53 90 56 91 50 92 51 93 54 94 52 95
REMARK H PARENT 76 48 44 59
REMARK Flexibility Score: inf
ROOT
ATOM      1  C   UNL     1       3.592  -6.319  -0.456  1.00  0.00     0.274 C 
ENDROOT
BRANCH   1   2
ATOM      2  O   UNL     1       4.113  -5.175   0.245  1.00  0.00    -0.461 OA
BRANCH   2   3
ATOM      3  C   UNL     1       5.453  -4.982   0.194  1.00  0.00     0.329 C 
ATOM      4  O   UNL     1       6.209  -5.591  -0.560  1.00  0.00    -0.250 OA
BRANCH   3   5
ATOM      5  C   UNL     1       5.976  -3.942   1.204  1.00  0.00     0.206 C 
ATOM      6  N   UNL     1       5.008  -3.162   2.015  1.00  0.00    -0.308 N 
ATOM      7  C   UNL     1       5.355  -1.751   2.178  1.00  0.00     0.176 C 
ATOM      8  C   UNL     1       6.835  -2.946   0.401  1.00  0.00     0.109 C 
ATOM      9  S   UNL     1       5.873  -1.406   0.433  1.00  0.00    -0.129 SA
BRANCH   6  10
ATOM     10  C   UNL     1       3.976  -3.823   2.667  1.00  0.00     0.255 C 
ATOM     11  O   UNL     1       4.080  -5.005   2.996  1.00  0.00    -0.269 OA
BRANCH  10  12
ATOM     12  C   UNL     1       2.644  -3.160   2.832  1.00  0.00     0.043 A 
ATOM     13  C   UNL     1       0.874  -1.665   2.080  1.00  0.00     0.119 A 
ATOM     14  C   UNL     1       0.037  -2.171   3.078  1.00  0.00     0.046 A 
ATOM     15  C   UNL     1       2.165  -2.183   1.940  1.00  0.00     0.060 A 
ATOM     16  C   UNL     1       0.479  -3.180   3.931  1.00  0.00     0.005 A 
ATOM     17  C   UNL     1       1.781  -3.668   3.813  1.00  0.00     0.014 A 
BRANCH  13  18
ATOM     18  O   UNL     1       0.306  -0.677   1.322  1.00  0.00    -0.497 OA
ATOM     19  C   UNL     1       1.022  -0.233   0.178  1.00  0.00     0.278 C 
ENDBRANCH  13  18
ENDBRANCH  10  12
ENDBRANCH   6  10
BRANCH   7  20
ATOM     20  C   UNL     1       6.538  -1.385   3.102  1.00  0.00     0.003 A 
ATOM     21  C   UNL     1       7.082  -0.080   2.945  1.00  0.00     0.008 A 
ATOM     22  C   UNL     1       7.184  -2.212   4.038  1.00  0.00     0.047 A 
ATOM     23  C   UNL     1       8.282   0.312   3.546  1.00  0.00     0.001 A 
ATOM     24  C   UNL     1       8.401  -1.820   4.626  1.00  0.00     0.021 A 
ATOM     25  Cl  UNL     1       6.576  -3.720   4.602  1.00  0.00    -0.084 Cl
ATOM     26  C   UNL     1       8.964  -0.576   4.361  1.00  0.00     0.002 A 
ENDBRANCH   7  20
ENDBRANCH   3   5
ENDBRANCH   2   3
ENDBRANCH   1   2
BRANCH   1  27
ATOM     27  C   UNL     1       2.462  -5.887  -1.379  1.00  0.00     0.275 C 
BRANCH  27  28
ATOM     28  O   UNL     1       2.981  -4.958  -2.347  1.00  0.00    -0.458 OA
BRANCH  28  29
ATOM     29  C   UNL     1       2.692  -3.665  -2.091  1.00  0.00     0.338 C 
ATOM     30  O   UNL     1       1.969  -3.211  -1.224  1.00  0.00    -0.246 OA
BRANCH  29  31
ATOM     31  C   UNL     1       3.428  -2.807  -3.022  1.00  0.00     0.060 A 
ATOM     32  C   UNL     1       4.802  -2.637  -2.852  1.00  0.00     0.016 A 
ATOM     33  C   UNL     1       2.727  -2.061  -3.965  1.00  0.00     0.016 A 
ATOM     34  C   UNL     1       5.473  -1.658  -3.582  1.00  0.00     0.010 A 
ATOM     35  C   UNL     1       3.417  -1.140  -4.753  1.00  0.00     0.010 A 
ATOM     36  C   UNL     1       4.791  -0.905  -4.548  1.00  0.00    -0.014 A 
BRANCH  36  37
ATOM     37  C   UNL     1       5.470   0.160  -5.332  1.00  0.00     0.031 A 
ATOM     38  C   UNL     1       4.960   1.573  -5.258  1.00  0.00     0.074 A 
ATOM     39  C   UNL     1       6.503  -0.130  -6.144  1.00  0.00     0.049 A 
ATOM     40  N   UNL     1       5.169   2.576  -6.072  1.00  0.00    -0.248 NA
ATOM     41  C   UNL     1       4.078   1.891  -4.124  1.00  0.00     0.031 C 
ATOM     42  C   UNL     1       7.146  -1.437  -6.271  1.00  0.00     0.029 A 
ATOM     43  N   UNL     1       7.184   0.664  -7.036  1.00  0.00    -0.354 N 
ATOM     44  C   UNL     1       4.385   3.618  -5.595  1.00  0.00     0.074 A 
ATOM     45  C   UNL     1       3.714   3.135  -4.406  1.00  0.00     0.031 C 
ATOM     46  C   UNL     1       8.133  -1.355  -7.175  1.00  0.00     0.029 A 
ATOM     47  C   UNL     1       8.134  -0.017  -7.756  1.00  0.00     0.049 A 
ATOM     48  H   UNL     1       7.007   1.626  -7.147  1.00  0.00     0.167 HD
ATOM     49  C   UNL     1       4.229   4.857  -6.118  1.00  0.00     0.037 A 
ATOM     50  C   UNL     1       8.880   0.374  -8.806  1.00  0.00     0.037 A 
ATOM     51  C   UNL     1       4.952   5.349  -7.261  1.00  0.00     0.049 A 
ATOM     52  C   UNL     1       8.697   1.755  -9.369  1.00  0.00     0.074 A 
ATOM     53  C   UNL     1       4.866   6.588  -7.873  1.00  0.00     0.029 A 
ATOM     54  N   UNL     1       5.918   4.630  -7.949  1.00  0.00    -0.354 N 
ATOM     55  N   UNL     1       7.879   2.703  -8.981  1.00  0.00    -0.248 NA
ATOM     56  C   UNL     1       9.520   2.111 -10.534  1.00  0.00     0.031 C 
ATOM     57  C   UNL     1       5.771   6.613  -8.941  1.00  0.00     0.029 A 
ATOM     58  C   UNL     1       6.440   5.401  -8.974  1.00  0.00     0.049 A 
ATOM     59  H   UNL     1       6.191   3.708  -7.739  1.00  0.00     0.167 HD
ATOM     60  C   UNL     1       8.093   3.768  -9.844  1.00  0.00     0.074 A 
ATOM     61  C   UNL     1       9.129   3.356 -10.769  1.00  0.00     0.031 C 
ATOM     62  C   UNL     1       7.480   4.976  -9.873  1.00  0.00     0.037 A 
BRANCH  49  63
ATOM     63  C   UNL     1       3.210   5.756  -5.486  1.00  0.00     0.064 A 
ATOM     64  C   UNL     1       3.437   6.392  -4.258  1.00  0.00     0.173 A 
ATOM     65  C   UNL     1       1.999   6.016  -6.148  1.00  0.00     0.173 A 
ATOM     66  F   UNL     1       4.571   6.163  -3.580  1.00  0.00    -0.203 F 
ATOM     67  C   UNL     1       2.482   7.242  -3.706  1.00  0.00     0.198 A 
ATOM     68  C   UNL     1       1.056   6.885  -5.605  1.00  0.00     0.198 A 
ATOM     69  F   UNL     1       1.735   5.434  -7.327  1.00  0.00    -0.203 F 
ATOM     70  F   UNL     1       2.703   7.811  -2.513  1.00  0.00    -0.200 F 
ATOM     71  C   UNL     1       1.296   7.493  -4.382  1.00  0.00     0.200 A 
ATOM     72  F   UNL     1      -0.084   7.132  -6.264  1.00  0.00    -0.200 F 
ATOM     73  F   UNL     1       0.382   8.317  -3.852  1.00  0.00    -0.200 F 
ENDBRANCH  49  63
BRANCH  50  74
ATOM     74  C   UNL     1       9.838  -0.580  -9.419  1.00  0.00     0.064 A 
ATOM     75  C   UNL     1      11.220  -0.410  -9.261  1.00  0.00     0.173 A 
ATOM     76  C   UNL     1       9.393  -1.692 -10.149  1.00  0.00     0.173 A 
ATOM     77  F   UNL     1      11.691   0.653  -8.593  1.00  0.00    -0.203 F 
ATOM     78  C   UNL     1      12.122  -1.317  -9.813  1.00  0.00     0.198 A 
ATOM     79  C   UNL     1      10.295  -2.612 -10.678  1.00  0.00     0.198 A 
ATOM     80  F   UNL     1       8.080  -1.897 -10.328  1.00  0.00    -0.203 F 
ATOM     81  F   UNL     1      13.439  -1.117  -9.673  1.00  0.00    -0.200 F 
ATOM     82  C   UNL     1      11.659  -2.422 -10.512  1.00  0.00     0.200 A 
ATOM     83  F   UNL     1       9.844  -3.685 -11.341  1.00  0.00    -0.200 F 
ATOM     84  F   UNL     1      12.527  -3.301 -11.031  1.00  0.00    -0.200 F 
ENDBRANCH  50  74
BRANCH  62  85
ATOM     85  C   UNL     1       7.940   5.950 -10.912  1.00  0.00     0.064 A 
ATOM     86  C   UNL     1       7.535   5.838 -12.249  1.00  0.00     0.173 A 
ATOM     87  C   UNL     1       8.759   7.031 -10.556  1.00  0.00     0.173 A 
ATOM     88  F   UNL     1       6.764   4.811 -12.637  1.00  0.00    -0.203 F 
ATOM     89  C   UNL     1       7.946   6.769 -13.199  1.00  0.00     0.198 A 
ATOM     90  C   UNL     1       9.153   7.970 -11.504  1.00  0.00     0.198 A 
ATOM     91  F   UNL     1       9.168   7.179  -9.287  1.00  0.00    -0.203 F 
ATOM     92  F   UNL     1       7.573   6.629 -14.478  1.00  0.00    -0.200 F 
ATOM     93  C   UNL     1       8.749   7.837 -12.825  1.00  0.00     0.200 A 
ATOM     94  F   UNL     1       9.925   9.004 -11.141  1.00  0.00    -0.200 F 
ATOM     95  F   UNL     1       9.141   8.735 -13.739  1.00  0.00    -0.200 F 
ENDBRANCH  62  85
ENDBRANCH  36  37
ENDBRANCH  29  31
ENDBRANCH  28  29
ENDBRANCH  27  28
ENDBRANCH   1  27
TORSDOF 15
