REMARK SMILES O=C(C[C@@H](NC(=O)C1CC=CC1)C1CC1)OCCOC(=O)c1ccc(-c2c3nc(c(-c4c(F)c(F)c(F)c(F)c4F)c4ccc([nH]4)c(-c4c(F)c(F)c(F)c(F)c4F)c4nc(c(-c5c(F)c(F)c(F)c(F)c5F)c5ccc2[nH]5)C=C4)C=C3)cc1
REMARK SMILES IDX 17 1 16 2 2 3 1 4 3 5 4 6 5 7 6 8 7 10 8 11 9 12 12 13 10 14
REMARK SMILES IDX 11 15 13 16 14 17 15 18 18 19 19 20 20 21 21 22 22 23 23 24
REMARK SMILES IDX 84 25 24 26 83 27 25 28 26 29 27 30 77 31 28 32 82 33 76 34
REMARK SMILES IDX 78 35 29 36 81 37 75 38 74 39 30 41 62 42 42 43 61 44 43 45
REMARK SMILES IDX 46 46 60 47 79 48 44 49 45 50 59 52 80 53 47 54 31 55 32 56
REMARK SMILES IDX 40 57 33 58 34 59 38 60 41 61 35 62 36 63 39 64 37 65 63 66
REMARK SMILES IDX 64 67 72 68 65 69 66 70 70 71 73 72 67 73 68 74 71 75 69 76
REMARK SMILES IDX 48 77 49 78 57 79 50 80 51 81 55 82 58 83 52 84 53 85 56 86
REMARK SMILES IDX 54 87
REMARK H PARENT 5 9 78 40 46 51
REMARK Flexibility Score: inf
ROOT
ATOM      1  C   UNL     1       4.411  -0.391   1.093  1.00  0.00     0.274 C 
ENDROOT
BRANCH   1   2
ATOM      2  O   UNL     1       3.159   0.285   0.854  1.00  0.00    -0.462 OA
BRANCH   2   3
ATOM      3  C   UNL     1       2.904   1.019  -0.253  1.00  0.00     0.308 C 
ATOM      4  O   UNL     1       2.095   1.943  -0.215  1.00  0.00    -0.252 OA
BRANCH   3   5
ATOM      5  C   UNL     1       3.550   0.619  -1.556  1.00  0.00     0.147 C 
BRANCH   5   6
ATOM      6  C   UNL     1       4.301   1.788  -2.195  1.00  0.00     0.096 C 
BRANCH   6   7
ATOM      7  N   UNL     1       5.436   2.196  -1.363  1.00  0.00    -0.352 N 
ATOM      8  C   UNL     1       6.698   1.734  -1.162  1.00  0.00     0.223 C 
ATOM      9  H   UNL     1       5.237   2.994  -0.821  1.00  0.00     0.163 HD
ATOM     10  O   UNL     1       7.206   2.026  -0.076  1.00  0.00    -0.275 OA
BRANCH   8  11
ATOM     11  C   UNL     1       7.452   0.939  -2.218  1.00  0.00     0.086 C 
ATOM     12  C   UNL     1       8.981   1.044  -2.018  1.00  0.00     0.040 C 
ATOM     13  C   UNL     1       7.119  -0.558  -2.201  1.00  0.00     0.040 C 
ATOM     14  C   UNL     1       9.455  -0.369  -2.047  1.00  0.00    -0.030 C 
ATOM     15  C   UNL     1       8.447  -1.237  -2.145  1.00  0.00    -0.030 C 
ENDBRANCH   8  11
ENDBRANCH   6   7
BRANCH   6  16
ATOM     16  C   UNL     1       4.680   1.588  -3.642  1.00  0.00     0.012 C 
ATOM     17  C   UNL     1       4.437   0.301  -4.404  1.00  0.00     0.006 C 
ATOM     18  C   UNL     1       3.597   1.509  -4.692  1.00  0.00     0.006 C 
ENDBRANCH   6  16
ENDBRANCH   5   6
ENDBRANCH   3   5
ENDBRANCH   2   3
ENDBRANCH   1   2
BRANCH   1  19
ATOM     19  C   UNL     1       4.248  -1.910   1.058  1.00  0.00     0.275 C 
BRANCH  19  20
ATOM     20  O   UNL     1       3.860  -2.346  -0.259  1.00  0.00    -0.458 OA
BRANCH  20  21
ATOM     21  C   UNL     1       2.529  -2.556  -0.434  1.00  0.00     0.338 C 
ATOM     22  O   UNL     1       1.665  -2.520   0.418  1.00  0.00    -0.246 OA
BRANCH  21  23
ATOM     23  C   UNL     1       2.240  -2.685  -1.884  1.00  0.00     0.060 A 
ATOM     24  C   UNL     1       1.018  -2.184  -2.354  1.00  0.00     0.016 A 
ATOM     25  C   UNL     1       3.148  -3.263  -2.776  1.00  0.00     0.016 A 
ATOM     26  C   UNL     1       0.696  -2.272  -3.711  1.00  0.00     0.010 A 
ATOM     27  C   UNL     1       2.825  -3.351  -4.134  1.00  0.00     0.010 A 
ATOM     28  C   UNL     1       1.590  -2.872  -4.607  1.00  0.00    -0.014 A 
BRANCH  28  29
ATOM     29  C   UNL     1       1.197  -3.122  -6.016  1.00  0.00     0.031 A 
ATOM     30  C   UNL     1       0.719  -4.489  -6.403  1.00  0.00     0.074 A 
ATOM     31  C   UNL     1       1.297  -2.161  -6.951  1.00  0.00     0.049 A 
ATOM     32  N   UNL     1       0.381  -4.946  -7.581  1.00  0.00    -0.248 NA
ATOM     33  C   UNL     1       0.608  -5.473  -5.316  1.00  0.00     0.031 C 
ATOM     34  C   UNL     1       1.721  -0.790  -6.702  1.00  0.00     0.029 A 
ATOM     35  N   UNL     1       1.078  -2.202  -8.306  1.00  0.00    -0.354 N 
ATOM     36  C   UNL     1       0.008  -6.266  -7.377  1.00  0.00     0.074 A 
ATOM     37  C   UNL     1       0.206  -6.551  -5.971  1.00  0.00     0.031 C 
ATOM     38  C   UNL     1       1.786  -0.128  -7.869  1.00  0.00     0.029 A 
ATOM     39  C   UNL     1       1.409  -1.035  -8.951  1.00  0.00     0.049 A 
ATOM     40  H   UNL     1       0.718  -2.992  -8.771  1.00  0.00     0.167 HD
ATOM     41  C   UNL     1      -0.475  -7.154  -8.276  1.00  0.00     0.037 A 
ATOM     42  C   UNL     1       1.423  -0.740 -10.265  1.00  0.00     0.037 A 
ATOM     43  C   UNL     1      -0.666  -6.875  -9.673  1.00  0.00     0.049 A 
ATOM     44  C   UNL     1       0.961  -1.770 -11.261  1.00  0.00     0.074 A 
ATOM     45  C   UNL     1      -1.197  -7.697 -10.652  1.00  0.00     0.029 A 
ATOM     46  N   UNL     1      -0.314  -5.687 -10.294  1.00  0.00    -0.354 N 
ATOM     47  N   UNL     1       0.534  -2.991 -11.048  1.00  0.00    -0.248 NA
ATOM     48  C   UNL     1       0.968  -1.378 -12.679  1.00  0.00     0.031 C 
ATOM     49  C   UNL     1      -1.120  -7.023 -11.876  1.00  0.00     0.029 A 
ATOM     50  C   UNL     1      -0.583  -5.765 -11.651  1.00  0.00     0.049 A 
ATOM     51  H   UNL     1       0.071  -4.903  -9.839  1.00  0.00     0.167 HD
ATOM     52  C   UNL     1       0.185  -3.497 -12.293  1.00  0.00     0.074 A 
ATOM     53  C   UNL     1       0.453  -2.453 -13.260  1.00  0.00     0.031 C 
ATOM     54  C   UNL     1      -0.323  -4.715 -12.603  1.00  0.00     0.037 A 
BRANCH  41  55
ATOM     55  C   UNL     1      -0.816  -8.519  -7.765  1.00  0.00     0.064 A 
ATOM     56  C   UNL     1      -1.939  -8.737  -6.952  1.00  0.00     0.173 A 
ATOM     57  C   UNL     1      -0.012  -9.621  -8.090  1.00  0.00     0.173 A 
ATOM     58  F   UNL     1      -2.727  -7.710  -6.600  1.00  0.00    -0.203 F 
ATOM     59  C   UNL     1      -2.226 -10.006  -6.456  1.00  0.00     0.198 A 
ATOM     60  C   UNL     1      -0.317 -10.892  -7.613  1.00  0.00     0.198 A 
ATOM     61  F   UNL     1       1.072  -9.462  -8.864  1.00  0.00    -0.203 F 
ATOM     62  F   UNL     1      -3.272 -10.182  -5.637  1.00  0.00    -0.200 F 
ATOM     63  C   UNL     1      -1.417 -11.082  -6.790  1.00  0.00     0.200 A 
ATOM     64  F   UNL     1       0.462 -11.933  -7.940  1.00  0.00    -0.200 F 
ATOM     65  F   UNL     1      -1.692 -12.302  -6.308  1.00  0.00    -0.200 F 
ENDBRANCH  41  55
BRANCH  42  66
ATOM     66  C   UNL     1       1.896   0.593 -10.720  1.00  0.00     0.064 A 
ATOM     67  C   UNL     1       1.003   1.542 -11.234  1.00  0.00     0.173 A 
ATOM     68  C   UNL     1       3.255   0.935 -10.665  1.00  0.00     0.173 A 
ATOM     69  F   UNL     1      -0.303   1.251 -11.328  1.00  0.00    -0.203 F 
ATOM     70  C   UNL     1       1.454   2.779 -11.693  1.00  0.00     0.198 A 
ATOM     71  C   UNL     1       3.702   2.180 -11.104  1.00  0.00     0.198 A 
ATOM     72  F   UNL     1       4.149   0.060 -10.181  1.00  0.00    -0.203 F 
ATOM     73  F   UNL     1       0.585   3.653 -12.218  1.00  0.00    -0.200 F 
ATOM     74  C   UNL     1       2.802   3.098 -11.624  1.00  0.00     0.200 A 
ATOM     75  F   UNL     1       5.004   2.487 -11.028  1.00  0.00    -0.200 F 
ATOM     76  F   UNL     1       3.235   4.286 -12.067  1.00  0.00    -0.200 F 
ENDBRANCH  42  66
BRANCH  54  77
ATOM     77  C   UNL     1      -0.661  -4.983 -14.039  1.00  0.00     0.064 A 
ATOM     78  C   UNL     1       0.334  -5.226 -14.996  1.00  0.00     0.173 A 
ATOM     79  C   UNL     1      -2.002  -5.067 -14.447  1.00  0.00     0.173 A 
ATOM     80  F   UNL     1       1.630  -5.141 -14.659  1.00  0.00    -0.203 F 
ATOM     81  C   UNL     1      -0.001  -5.536 -16.312  1.00  0.00     0.198 A 
ATOM     82  C   UNL     1      -2.333  -5.401 -15.757  1.00  0.00     0.198 A 
ATOM     83  F   UNL     1      -2.990  -4.847 -13.567  1.00  0.00    -0.203 F 
ATOM     84  F   UNL     1       0.966  -5.736 -17.218  1.00  0.00    -0.200 F 
ATOM     85  C   UNL     1      -1.333  -5.633 -16.689  1.00  0.00     0.200 A 
ATOM     86  F   UNL     1      -3.620  -5.507 -16.115  1.00  0.00    -0.200 F 
ATOM     87  F   UNL     1      -1.652  -5.947 -17.952  1.00  0.00    -0.200 F 
ENDBRANCH  54  77
ENDBRANCH  28  29
ENDBRANCH  21  23
ENDBRANCH  20  21
ENDBRANCH  19  20
ENDBRANCH   1  19
TORSDOF 15
