REMARK SMILES O=C(OCCOC(=O)c1c(F)cccc1Oc1cccc(Cl)c1)c1ccc(-c2c3nc(c(-c4c(F)c(F)c(F)c(F)c4F)c4ccc([nH]4)c(-c4c(F)c(F)c(F)c(F)c4F)c4nc(c(-c5c(F)c(F)c(F)c(F)c5F)c5ccc2[nH]5)C=C4)C=C3)cc1
REMARK SMILES IDX 4 1 3 2 2 3 1 4 24 5 25 6 86 7 26 8 85 9 27 10 28 11 29 12
REMARK SMILES IDX 79 13 30 14 84 15 78 16 80 17 31 18 83 19 77 20 76 21 32 23
REMARK SMILES IDX 64 24 44 25 63 26 45 27 48 28 62 29 81 30 46 31 47 32 61 34
REMARK SMILES IDX 82 35 49 36 33 37 34 38 42 39 35 40 36 41 40 42 43 43 37 44
REMARK SMILES IDX 38 45 41 46 39 47 65 48 66 49 74 50 67 51 68 52 72 53 75 54
REMARK SMILES IDX 69 55 70 56 73 57 71 58 50 59 51 60 59 61 52 62 53 63 57 64
REMARK SMILES IDX 60 65 54 66 55 67 58 68 56 69 5 70 6 71 7 72 8 73 9 74 10 75
REMARK SMILES IDX 15 76 11 77 12 78 14 79 13 80 16 81 17 82 18 83 23 84 19 85
REMARK SMILES IDX 21 86 20 87 22 88
REMARK H PARENT 80 22 48 33
REMARK Flexibility Score: inf
ROOT
ATOM      1  C   UNL     1       4.779  -1.661  -1.724  1.00  0.00     0.275 C 
ENDROOT
BRANCH   1   2
ATOM      2  O   UNL     1       5.483  -0.858  -0.770  1.00  0.00    -0.458 OA
BRANCH   2   3
ATOM      3  C   UNL     1       4.715  -0.448   0.272  1.00  0.00     0.338 C 
ATOM      4  O   UNL     1       3.773  -1.043   0.760  1.00  0.00    -0.246 OA
BRANCH   3   5
ATOM      5  C   UNL     1       5.021   0.979   0.522  1.00  0.00     0.060 A 
ATOM      6  C   UNL     1       6.236   1.525   0.106  1.00  0.00     0.016 A 
ATOM      7  C   UNL     1       4.007   1.806   1.026  1.00  0.00     0.016 A 
ATOM      8  C   UNL     1       6.425   2.894   0.164  1.00  0.00     0.010 A 
ATOM      9  C   UNL     1       4.181   3.186   1.055  1.00  0.00     0.010 A 
ATOM     10  C   UNL     1       5.396   3.727   0.625  1.00  0.00    -0.014 A 
BRANCH  10  11
ATOM     11  C   UNL     1       5.689   5.165   0.715  1.00  0.00     0.031 A 
ATOM     12  C   UNL     1       6.161   5.699   2.023  1.00  0.00     0.074 A 
ATOM     13  C   UNL     1       5.704   5.901  -0.409  1.00  0.00     0.049 A 
ATOM     14  N   UNL     1       6.824   6.795   2.267  1.00  0.00    -0.248 NA
ATOM     15  C   UNL     1       5.900   4.867   3.209  1.00  0.00     0.031 C 
ATOM     16  C   UNL     1       5.288   5.425  -1.728  1.00  0.00     0.029 A 
ATOM     17  N   UNL     1       6.124   7.184  -0.632  1.00  0.00    -0.354 N 
ATOM     18  C   UNL     1       7.135   6.740   3.616  1.00  0.00     0.074 A 
ATOM     19  C   UNL     1       6.507   5.559   4.161  1.00  0.00     0.031 C 
ATOM     20  C   UNL     1       5.465   6.406  -2.627  1.00  0.00     0.029 A 
ATOM     21  C   UNL     1       6.048   7.561  -1.950  1.00  0.00     0.049 A 
ATOM     22  H   UNL     1       6.449   7.779   0.082  1.00  0.00     0.167 HD
ATOM     23  C   UNL     1       7.925   7.584   4.314  1.00  0.00     0.037 A 
ATOM     24  C   UNL     1       6.451   8.698  -2.545  1.00  0.00     0.037 A 
ATOM     25  C   UNL     1       8.489   8.778   3.749  1.00  0.00     0.049 A 
ATOM     26  C   UNL     1       7.220   9.690  -1.717  1.00  0.00     0.074 A 
ATOM     27  C   UNL     1       9.273   9.738   4.356  1.00  0.00     0.029 A 
ATOM     28  N   UNL     1       8.299   9.180   2.431  1.00  0.00    -0.354 N 
ATOM     29  N   UNL     1       7.581   9.601  -0.457  1.00  0.00    -0.248 NA
ATOM     30  C   UNL     1       7.673  10.912  -2.389  1.00  0.00     0.031 C 
ATOM     31  C   UNL     1       9.517  10.747   3.417  1.00  0.00     0.029 A 
ATOM     32  C   UNL     1       8.923  10.393   2.213  1.00  0.00     0.049 A 
ATOM     33  H   UNL     1       7.794   8.674   1.754  1.00  0.00     0.167 HD
ATOM     34  C   UNL     1       8.327  10.739  -0.190  1.00  0.00     0.074 A 
ATOM     35  C   UNL     1       8.368  11.502  -1.424  1.00  0.00     0.031 C 
ATOM     36  C   UNL     1       8.931  11.117   0.964  1.00  0.00     0.037 A 
BRANCH  23  37
ATOM     37  C   UNL     1       8.202   7.227   5.742  1.00  0.00     0.064 A 
ATOM     38  C   UNL     1       7.609   7.942   6.790  1.00  0.00     0.173 A 
ATOM     39  C   UNL     1       9.039   6.148   6.070  1.00  0.00     0.173 A 
ATOM     40  F   UNL     1       6.793   8.973   6.528  1.00  0.00    -0.203 F 
ATOM     41  C   UNL     1       7.840   7.587   8.117  1.00  0.00     0.198 A 
ATOM     42  C   UNL     1       9.250   5.783   7.397  1.00  0.00     0.198 A 
ATOM     43  F   UNL     1       9.609   5.416   5.101  1.00  0.00    -0.203 F 
ATOM     44  F   UNL     1       7.260   8.283   9.105  1.00  0.00    -0.200 F 
ATOM     45  C   UNL     1       8.653   6.504   8.419  1.00  0.00     0.200 A 
ATOM     46  F   UNL     1      10.011   4.717   7.685  1.00  0.00    -0.200 F 
ATOM     47  F   UNL     1       8.848   6.147   9.696  1.00  0.00    -0.200 F 
ENDBRANCH  23  37
BRANCH  24  48
ATOM     48  C   UNL     1       6.186   8.898  -3.993  1.00  0.00     0.064 A 
ATOM     49  C   UNL     1       4.876   9.091  -4.459  1.00  0.00     0.173 A 
ATOM     50  C   UNL     1       7.212   8.834  -4.944  1.00  0.00     0.173 A 
ATOM     51  F   UNL     1       3.856   9.149  -3.589  1.00  0.00    -0.203 F 
ATOM     52  C   UNL     1       4.601   9.195  -5.821  1.00  0.00     0.198 A 
ATOM     53  C   UNL     1       6.938   8.956  -6.307  1.00  0.00     0.198 A 
ATOM     54  F   UNL     1       8.481   8.659  -4.550  1.00  0.00    -0.203 F 
ATOM     55  F   UNL     1       3.336   9.346  -6.238  1.00  0.00    -0.200 F 
ATOM     56  C   UNL     1       5.632   9.128  -6.745  1.00  0.00     0.200 A 
ATOM     57  F   UNL     1       7.938   8.903  -7.197  1.00  0.00    -0.200 F 
ATOM     58  F   UNL     1       5.369   9.227  -8.055  1.00  0.00    -0.200 F 
ENDBRANCH  24  48
BRANCH  36  59
ATOM     59  C   UNL     1       9.686  12.409   0.946  1.00  0.00     0.064 A 
ATOM     60  C   UNL     1      11.087  12.412   0.998  1.00  0.00     0.173 A 
ATOM     61  C   UNL     1       9.016  13.640   0.979  1.00  0.00     0.173 A 
ATOM     62  F   UNL     1      11.767  11.256   0.978  1.00  0.00    -0.203 F 
ATOM     63  C   UNL     1      11.793  13.605   1.105  1.00  0.00     0.198 A 
ATOM     64  C   UNL     1       9.727  14.832   1.061  1.00  0.00     0.198 A 
ATOM     65  F   UNL     1       7.677  13.681   0.920  1.00  0.00    -0.203 F 
ATOM     66  F   UNL     1      13.130  13.586   1.193  1.00  0.00    -0.200 F 
ATOM     67  C   UNL     1      11.112  14.814   1.135  1.00  0.00     0.200 A 
ATOM     68  F   UNL     1       9.070  16.001   1.070  1.00  0.00    -0.200 F 
ATOM     69  F   UNL     1      11.793  15.963   1.237  1.00  0.00    -0.200 F 
ENDBRANCH  36  59
ENDBRANCH  10  11
ENDBRANCH   3   5
ENDBRANCH   2   3
ENDBRANCH   1   2
BRANCH   1  70
ATOM     70  C   UNL     1       4.007  -0.761  -2.701  1.00  0.00     0.275 C 
BRANCH  70  71
ATOM     71  O   UNL     1       3.347   0.326  -2.017  1.00  0.00    -0.458 OA
BRANCH  71  72
ATOM     72  C   UNL     1       2.019   0.511  -2.207  1.00  0.00     0.345 C 
ATOM     73  O   UNL     1       1.259  -0.209  -2.824  1.00  0.00    -0.246 OA
BRANCH  72  74
ATOM     74  C   UNL     1       1.667   1.835  -1.663  1.00  0.00     0.138 A 
ATOM     75  C   UNL     1       2.272   2.919  -2.320  1.00  0.00     0.141 A 
ATOM     76  C   UNL     1       0.722   2.099  -0.661  1.00  0.00     0.144 A 
ATOM     77  F   UNL     1       3.135   2.713  -3.328  1.00  0.00    -0.206 F 
ATOM     78  C   UNL     1       1.977   4.240  -1.989  1.00  0.00     0.040 A 
ATOM     79  C   UNL     1       0.461   3.441  -0.310  1.00  0.00     0.048 A 
ATOM     80  C   UNL     1       1.084   4.505  -0.962  1.00  0.00     0.007 A 
BRANCH  76  81
ATOM     81  O   UNL     1      -0.154   1.235  -0.043  1.00  0.00    -0.456 OA
BRANCH  81  82
ATOM     82  C   UNL     1       0.261   0.016   0.415  1.00  0.00     0.128 A 
ATOM     83  C   UNL     1       0.789  -0.123   1.699  1.00  0.00     0.047 A 
ATOM     84  C   UNL     1      -0.095  -1.112  -0.320  1.00  0.00     0.067 A 
ATOM     85  C   UNL     1       1.049  -1.400   2.208  1.00  0.00     0.005 A 
ATOM     86  C   UNL     1       0.177  -2.380   0.184  1.00  0.00     0.044 A 
ATOM     87  C   UNL     1       0.755  -2.530   1.442  1.00  0.00     0.021 A 
ATOM     88  Cl  UNL     1      -0.231  -3.768  -0.745  1.00  0.00    -0.084 Cl
ENDBRANCH  81  82
ENDBRANCH  76  81
ENDBRANCH  72  74
ENDBRANCH  71  72
ENDBRANCH  70  71
ENDBRANCH   1  70
TORSDOF 13
