REMARK SMILES O=C(OCCOC(=O)[C@H](c1ccccc1)N1C(=O)/C(=C\c2ccc(Br)cc2)SC1=S)c1ccc(-c2c3nc(c(-c4c(F)c(F)c(F)c(F)c4F)c4ccc([nH]4)c(-c4c(F)c(F)c(F)c(F)c4F)c4nc(c(-c5c(F)c(F)c(F)c(F)c5F)c5ccc2[nH]5)C=C4)C=C3)cc1
REMARK SMILES IDX 4 1 3 2 2 3 1 4 31 5 32 6 93 7 33 8 92 9 34 10 35 11 36 12
REMARK SMILES IDX 86 13 37 14 91 15 85 16 87 17 38 18 90 19 84 20 83 21 39 23
REMARK SMILES IDX 71 24 51 25 70 26 52 27 55 28 69 29 88 30 53 31 54 32 68 34
REMARK SMILES IDX 89 35 56 36 40 37 41 38 49 39 42 40 43 41 47 42 50 43 44 44
REMARK SMILES IDX 45 45 48 46 46 47 72 48 73 49 81 50 74 51 75 52 79 53 82 54
REMARK SMILES IDX 76 55 77 56 80 57 78 58 57 59 58 60 66 61 59 62 60 63 64 64
REMARK SMILES IDX 67 65 61 66 62 67 65 68 63 69 5 70 6 71 7 72 8 73 9 74 16 75
REMARK SMILES IDX 17 76 29 77 18 78 19 79 28 80 30 81 20 82 21 83 22 84 27 85
REMARK SMILES IDX 23 86 26 87 24 88 25 89 10 90 11 91 15 92 12 93 14 94 13 95
REMARK H PARENT 87 22 55 33
REMARK Flexibility Score: inf
ROOT
ATOM      1  C   UNL     1       3.111   4.906   1.241  1.00  0.00     0.275 C 
ENDROOT
BRANCH   1   2
ATOM      2  O   UNL     1       2.882   3.680   1.965  1.00  0.00    -0.458 OA
BRANCH   2   3
ATOM      3  C   UNL     1       2.143   2.593   1.642  1.00  0.00     0.338 C 
ATOM      4  O   UNL     1       2.270   1.584   2.336  1.00  0.00    -0.246 OA
BRANCH   3   5
ATOM      5  C   UNL     1       1.203   2.506   0.470  1.00  0.00     0.060 A 
ATOM      6  C   UNL     1       0.693   3.576  -0.275  1.00  0.00     0.016 A 
ATOM      7  C   UNL     1       0.816   1.210   0.083  1.00  0.00     0.016 A 
ATOM      8  C   UNL     1      -0.087   3.366  -1.420  1.00  0.00     0.010 A 
ATOM      9  C   UNL     1       0.011   0.995  -1.041  1.00  0.00     0.010 A 
ATOM     10  C   UNL     1      -0.433   2.074  -1.812  1.00  0.00    -0.014 A 
BRANCH  10  11
ATOM     11  C   UNL     1      -1.421   1.861  -2.894  1.00  0.00     0.031 A 
ATOM     12  C   UNL     1      -2.821   1.523  -2.486  1.00  0.00     0.074 A 
ATOM     13  C   UNL     1      -1.093   1.975  -4.194  1.00  0.00     0.049 A 
ATOM     14  N   UNL     1      -3.863   1.260  -3.226  1.00  0.00    -0.248 NA
ATOM     15  C   UNL     1      -3.071   1.456  -1.037  1.00  0.00     0.031 C 
ATOM     16  C   UNL     1       0.231   2.324  -4.695  1.00  0.00     0.029 A 
ATOM     17  N   UNL     1      -1.842   1.812  -5.333  1.00  0.00    -0.354 N 
ATOM     18  C   UNL     1      -4.887   0.991  -2.332  1.00  0.00     0.074 A 
ATOM     19  C   UNL     1      -4.328   1.052  -1.001  1.00  0.00     0.031 C 
ATOM     20  C   UNL     1       0.210   2.350  -6.038  1.00  0.00     0.029 A 
ATOM     21  C   UNL     1      -1.132   2.002  -6.496  1.00  0.00     0.049 A 
ATOM     22  H   UNL     1      -2.798   1.579  -5.319  1.00  0.00     0.167 HD
ATOM     23  C   UNL     1      -6.190   0.743  -2.597  1.00  0.00     0.037 A 
ATOM     24  C   UNL     1      -1.531   1.906  -7.780  1.00  0.00     0.037 A 
ATOM     25  C   UNL     1      -6.729   0.682  -3.925  1.00  0.00     0.049 A 
ATOM     26  C   UNL     1      -2.977   1.574  -8.055  1.00  0.00     0.074 A 
ATOM     27  C   UNL     1      -8.028   0.428  -4.320  1.00  0.00     0.029 A 
ATOM     28  N   UNL     1      -5.982   0.873  -5.081  1.00  0.00    -0.354 N 
ATOM     29  N   UNL     1      -3.952   1.359  -7.203  1.00  0.00    -0.248 NA
ATOM     30  C   UNL     1      -3.384   1.482  -9.464  1.00  0.00     0.031 C 
ATOM     31  C   UNL     1      -8.058   0.421  -5.719  1.00  0.00     0.029 A 
ATOM     32  C   UNL     1      -6.790   0.728  -6.194  1.00  0.00     0.049 A 
ATOM     33  H   UNL     1      -5.020   1.081  -5.104  1.00  0.00     0.167 HD
ATOM     34  C   UNL     1      -5.091   1.145  -7.967  1.00  0.00     0.074 A 
ATOM     35  C   UNL     1      -4.687   1.263  -9.354  1.00  0.00     0.031 C 
ATOM     36  C   UNL     1      -6.357   0.877  -7.561  1.00  0.00     0.037 A 
BRANCH  23  37
ATOM     37  C   UNL     1      -7.074   0.493  -1.412  1.00  0.00     0.064 A 
ATOM     38  C   UNL     1      -7.367   1.509  -0.487  1.00  0.00     0.173 A 
ATOM     39  C   UNL     1      -7.557  -0.796  -1.148  1.00  0.00     0.173 A 
ATOM     40  F   UNL     1      -6.901   2.752  -0.678  1.00  0.00    -0.203 F 
ATOM     41  C   UNL     1      -8.059   1.228   0.688  1.00  0.00     0.198 A 
ATOM     42  C   UNL     1      -8.280  -1.064   0.010  1.00  0.00     0.198 A 
ATOM     43  F   UNL     1      -7.300  -1.802  -1.997  1.00  0.00    -0.203 F 
ATOM     44  F   UNL     1      -8.243   2.192   1.601  1.00  0.00    -0.200 F 
ATOM     45  C   UNL     1      -8.515  -0.057   0.935  1.00  0.00     0.200 A 
ATOM     46  F   UNL     1      -8.724  -2.306   0.247  1.00  0.00    -0.200 F 
ATOM     47  F   UNL     1      -9.162  -0.331   2.076  1.00  0.00    -0.200 F 
ENDBRANCH  23  37
BRANCH  24  48
ATOM     48  C   UNL     1      -0.574   2.147  -8.896  1.00  0.00     0.064 A 
ATOM     49  C   UNL     1      -0.712   3.257  -9.744  1.00  0.00     0.173 A 
ATOM     50  C   UNL     1       0.483   1.263  -9.159  1.00  0.00     0.173 A 
ATOM     51  F   UNL     1      -1.714   4.127  -9.550  1.00  0.00    -0.203 F 
ATOM     52  C   UNL     1       0.150   3.457 -10.822  1.00  0.00     0.198 A 
ATOM     53  C   UNL     1       1.361   1.478 -10.222  1.00  0.00     0.198 A 
ATOM     54  F   UNL     1       0.667   0.188  -8.379  1.00  0.00    -0.203 F 
ATOM     55  F   UNL     1      -0.036   4.501 -11.641  1.00  0.00    -0.200 F 
ATOM     56  C   UNL     1       1.188   2.570 -11.058  1.00  0.00     0.200 A 
ATOM     57  F   UNL     1       2.371   0.624 -10.439  1.00  0.00    -0.200 F 
ATOM     58  F   UNL     1       2.016   2.763 -12.094  1.00  0.00    -0.200 F 
ENDBRANCH  24  48
BRANCH  36  59
ATOM     59  C   UNL     1      -7.410   0.748  -8.622  1.00  0.00     0.064 A 
ATOM     60  C   UNL     1      -7.481  -0.372  -9.461  1.00  0.00     0.173 A 
ATOM     61  C   UNL     1      -8.411   1.725  -8.739  1.00  0.00     0.173 A 
ATOM     62  F   UNL     1      -6.538  -1.325  -9.397  1.00  0.00    -0.203 F 
ATOM     63  C   UNL     1      -8.510  -0.504 -10.389  1.00  0.00     0.198 A 
ATOM     64  C   UNL     1      -9.456   1.574  -9.644  1.00  0.00     0.198 A 
ATOM     65  F   UNL     1      -8.390   2.812  -7.952  1.00  0.00    -0.203 F 
ATOM     66  F   UNL     1      -8.540  -1.565 -11.206  1.00  0.00    -0.200 F 
ATOM     67  C   UNL     1      -9.502   0.462 -10.471  1.00  0.00     0.200 A 
ATOM     68  F   UNL     1     -10.423   2.499  -9.709  1.00  0.00    -0.200 F 
ATOM     69  F   UNL     1     -10.504   0.322 -11.350  1.00  0.00    -0.200 F 
ENDBRANCH  36  59
ENDBRANCH  10  11
ENDBRANCH   3   5
ENDBRANCH   2   3
ENDBRANCH   1   2
BRANCH   1  70
ATOM     70  C   UNL     1       3.972   4.725  -0.011  1.00  0.00     0.274 C 
BRANCH  70  71
ATOM     71  O   UNL     1       3.528   3.584  -0.758  1.00  0.00    -0.460 OA
BRANCH  71  72
ATOM     72  C   UNL     1       4.434   2.905  -1.517  1.00  0.00     0.334 C 
ATOM     73  O   UNL     1       5.627   3.183  -1.588  1.00  0.00    -0.249 OA
BRANCH  72  74
ATOM     74  C   UNL     1       3.705   1.829  -2.378  1.00  0.00     0.232 C 
BRANCH  74  75
ATOM     75  N   UNL     1       3.979   2.139  -3.808  1.00  0.00    -0.274 N 
ATOM     76  C   UNL     1       3.612   3.428  -4.178  1.00  0.00     0.267 C 
ATOM     77  C   UNL     1       4.310   1.315  -4.863  1.00  0.00     0.149 C 
ATOM     78  O   UNL     1       2.977   4.199  -3.472  1.00  0.00    -0.268 OA
ATOM     79  C   UNL     1       3.982   3.719  -5.583  1.00  0.00     0.081 C 
ATOM     80  S   UNL     1       4.455   2.266  -6.352  1.00  0.00    -0.054 SA
ATOM     81  S   UNL     1       4.532  -0.332  -4.965  1.00  0.00    -0.052 S 
ATOM     82  C   UNL     1       3.955   4.910  -6.195  1.00  0.00     0.029 C 
BRANCH  82  83
ATOM     83  C   UNL     1       3.608   6.179  -5.548  1.00  0.00    -0.024 A 
ATOM     84  C   UNL     1       2.530   6.930  -6.028  1.00  0.00     0.009 A 
ATOM     85  C   UNL     1       4.346   6.656  -4.454  1.00  0.00     0.009 A 
ATOM     86  C   UNL     1       2.173   8.127  -5.401  1.00  0.00     0.016 A 
ATOM     87  C   UNL     1       3.983   7.845  -3.820  1.00  0.00     0.016 A 
ATOM     88  C   UNL     1       2.896   8.573  -4.295  1.00  0.00     0.018 A 
ATOM     89  Br  UNL     1       2.395  10.177  -3.430  1.00  0.00    -0.051 Br
ENDBRANCH  82  83
ENDBRANCH  74  75
BRANCH  74  90
ATOM     90  C   UNL     1       3.961   0.419  -1.873  1.00  0.00    -0.014 A 
ATOM     91  C   UNL     1       5.210  -0.007  -1.398  1.00  0.00     0.006 A 
ATOM     92  C   UNL     1       2.916  -0.524  -1.914  1.00  0.00     0.006 A 
ATOM     93  C   UNL     1       5.397  -1.327  -0.975  1.00  0.00     0.000 A 
ATOM     94  C   UNL     1       3.096  -1.834  -1.470  1.00  0.00     0.000 A 
ATOM     95  C   UNL     1       4.342  -2.237  -1.005  1.00  0.00     0.000 A 
ENDBRANCH  74  90
ENDBRANCH  72  74
ENDBRANCH  71  72
ENDBRANCH  70  71
ENDBRANCH   1  70
TORSDOF 14
