REMARK SMILES CCCCCCNC(=O)Oc1cccc(-c2ccc([C@@H](C)C(=O)OCCOC(=O)c3ccc(-c4c5nc(c(-c6c(F)c(F)c(F)c(F)c6F)c6ccc([nH]6)c(-c6c(F)c(F)c(F)c(F)c6F)c6nc(c(-c7c(F)c(F)c(F)c(F)c7F)c7ccc4[nH]7)C=C6)C=C5)cc3)cc2N)c1
REMARK SMILES IDX 20 1 21 2 19 3 16 4 17 5 94 6 18 7 93 8 15 9 11 10 12 11
REMARK SMILES IDX 96 12 13 13 14 14 10 15 8 16 7 17 9 19 6 20 5 21 4 22 3 23
REMARK SMILES IDX 2 24 1 25 95 26 22 29 23 30 24 31 25 32 26 33 27 34 28 35
REMARK SMILES IDX 29 36 30 37 31 38 92 39 32 40 91 41 33 42 34 43 35 44 85 45
REMARK SMILES IDX 36 46 90 47 84 48 86 49 37 50 89 51 83 52 82 53 38 55 70 56
REMARK SMILES IDX 50 57 69 58 51 59 54 60 68 61 87 62 52 63 53 64 67 66 88 67
REMARK SMILES IDX 55 68 39 69 40 70 48 71 41 72 42 73 46 74 49 75 43 76 44 77
REMARK SMILES IDX 47 78 45 79 71 80 72 81 80 82 73 83 74 84 78 85 81 86 75 87
REMARK SMILES IDX 76 88 79 89 77 90 56 91 57 92 65 93 58 94 59 95 63 96 66 97
REMARK SMILES IDX 60 98 61 99 64 100 62 101
REMARK H PARENT 7 18 95 27 95 28 86 54 54 65
REMARK Flexibility Score: inf
ROOT
ATOM      1  C   UNL     1      -4.786  -5.732 -12.858  1.00  0.00     0.126 C 
ATOM      2  C   UNL     1      -5.980  -5.756 -13.810  1.00  0.00     0.025 C 
ENDROOT
BRANCH   1   3
ATOM      3  C   UNL     1      -4.884  -4.623 -11.822  1.00  0.00    -0.032 A 
ATOM      4  C   UNL     1      -5.065  -2.599  -9.832  1.00  0.00     0.005 A 
ATOM      5  C   UNL     1      -5.077  -2.287 -11.205  1.00  0.00     0.011 A 
ATOM      6  C   UNL     1      -4.944  -3.954  -9.453  1.00  0.00     0.040 A 
ATOM      7  C   UNL     1      -4.993  -3.279 -12.183  1.00  0.00     0.005 A 
ATOM      8  C   UNL     1      -4.881  -4.941 -10.452  1.00  0.00     0.030 A 
BRANCH   4   9
ATOM      9  C   UNL     1      -5.176  -1.498  -8.855  1.00  0.00    -0.013 A 
ATOM     10  C   UNL     1      -4.296  -0.195  -7.007  1.00  0.00     0.133 A 
ATOM     11  C   UNL     1      -5.430   0.614  -7.002  1.00  0.00     0.047 A 
ATOM     12  C   UNL     1      -4.160  -1.244  -7.918  1.00  0.00     0.056 A 
ATOM     13  C   UNL     1      -6.437   0.384  -7.936  1.00  0.00     0.004 A 
ATOM     14  C   UNL     1      -6.311  -0.665  -8.850  1.00  0.00     0.009 A 
BRANCH  10  15
ATOM     15  O   UNL     1      -3.368   0.018  -5.974  1.00  0.00    -0.410 OA
BRANCH  15  16
ATOM     16  C   UNL     1      -2.031   0.182  -6.303  1.00  0.00     0.412 C 
ATOM     17  N   UNL     1      -1.230   0.373  -5.209  1.00  0.00    -0.321 N 
ATOM     18  H   UNL     1      -0.266   0.475  -5.383  1.00  0.00     0.167 HD
ATOM     19  O   UNL     1      -1.558   0.180  -7.432  1.00  0.00    -0.224 OA
BRANCH  17  20
ATOM     20  C   UNL     1      -1.648   0.440  -3.823  1.00  0.00     0.119 C 
BRANCH  20  21
ATOM     21  C   UNL     1      -1.040  -0.681  -2.981  1.00  0.00     0.021 C 
BRANCH  21  22
ATOM     22  C   UNL     1       0.490  -0.652  -2.872  1.00  0.00     0.002 C 
BRANCH  22  23
ATOM     23  C   UNL     1       1.090   0.633  -2.290  1.00  0.00    -0.000 C 
BRANCH  23  24
ATOM     24  C   UNL     1       0.610   1.008  -0.886  1.00  0.00    -0.003 C 
ATOM     25  C   UNL     1       0.976  -0.020   0.173  1.00  0.00     0.004 C 
ENDBRANCH  23  24
ENDBRANCH  22  23
ENDBRANCH  21  22
ENDBRANCH  20  21
ENDBRANCH  17  20
ENDBRANCH  15  16
ENDBRANCH  10  15
ENDBRANCH   4   9
BRANCH   6  26
ATOM     26  N   UNL     1      -5.037  -4.369  -8.124  1.00  0.00    -0.398 N 
ATOM     27  H   UNL     1      -5.083  -3.702  -7.401  1.00  0.00     0.156 HD
ATOM     28  H   UNL     1      -5.058  -5.330  -7.909  1.00  0.00     0.156 HD
ENDBRANCH   6  26
ENDBRANCH   1   3
BRANCH   1  29
ATOM     29  C   UNL     1      -3.485  -5.784 -13.652  1.00  0.00     0.313 C 
ATOM     30  O   UNL     1      -3.000  -6.843 -14.041  1.00  0.00    -0.252 OA
BRANCH  29  31
ATOM     31  O   UNL     1      -2.960  -4.560 -13.920  1.00  0.00    -0.462 OA
BRANCH  31  32
ATOM     32  C   UNL     1      -1.713  -4.523 -14.640  1.00  0.00     0.274 C 
BRANCH  32  33
ATOM     33  C   UNL     1      -0.524  -4.322 -13.697  1.00  0.00     0.275 C 
BRANCH  33  34
ATOM     34  O   UNL     1      -0.292  -5.495 -12.896  1.00  0.00    -0.458 OA
BRANCH  34  35
ATOM     35  C   UNL     1      -0.836  -5.454 -11.658  1.00  0.00     0.338 C 
ATOM     36  O   UNL     1      -1.429  -4.528 -11.136  1.00  0.00    -0.246 OA
BRANCH  35  37
ATOM     37  C   UNL     1      -0.728  -6.777 -11.027  1.00  0.00     0.060 A 
ATOM     38  C   UNL     1      -1.913  -7.449 -10.723  1.00  0.00     0.016 A 
ATOM     39  C   UNL     1       0.507  -7.305 -10.649  1.00  0.00     0.016 A 
ATOM     40  C   UNL     1      -1.876  -8.646 -10.017  1.00  0.00     0.010 A 
ATOM     41  C   UNL     1       0.545  -8.514  -9.945  1.00  0.00     0.010 A 
ATOM     42  C   UNL     1      -0.647  -9.178  -9.608  1.00  0.00    -0.014 A 
BRANCH  42  43
ATOM     43  C   UNL     1      -0.635 -10.399  -8.771  1.00  0.00     0.031 A 
ATOM     44  C   UNL     1      -0.383 -10.292  -7.296  1.00  0.00     0.074 A 
ATOM     45  C   UNL     1      -0.896 -11.594  -9.329  1.00  0.00     0.049 A 
ATOM     46  N   UNL     1      -0.339 -11.238  -6.391  1.00  0.00    -0.248 NA
ATOM     47  C   UNL     1      -0.147  -8.941  -6.768  1.00  0.00     0.031 C 
ATOM     48  C   UNL     1      -1.179 -11.816 -10.745  1.00  0.00     0.029 A 
ATOM     49  N   UNL     1      -0.969 -12.844  -8.768  1.00  0.00    -0.354 N 
ATOM     50  C   UNL     1      -0.059 -10.599  -5.192  1.00  0.00     0.074 A 
ATOM     51  C   UNL     1       0.082  -9.188  -5.487  1.00  0.00     0.031 C 
ATOM     52  C   UNL     1      -1.397 -13.126 -10.945  1.00  0.00     0.029 A 
ATOM     53  C   UNL     1      -1.241 -13.835  -9.677  1.00  0.00     0.049 A 
ATOM     54  H   UNL     1      -0.839 -13.014  -7.808  1.00  0.00     0.167 HD
ATOM     55  C   UNL     1       0.063 -11.141  -3.957  1.00  0.00     0.037 A 
ATOM     56  C   UNL     1      -1.339 -15.167  -9.507  1.00  0.00     0.037 A 
ATOM     57  C   UNL     1      -0.086 -12.543  -3.666  1.00  0.00     0.049 A 
ATOM     58  C   UNL     1      -1.174 -15.749  -8.132  1.00  0.00     0.074 A 
ATOM     59  C   UNL     1      -0.007 -13.186  -2.443  1.00  0.00     0.029 A 
ATOM     60  N   UNL     1      -0.343 -13.522  -4.616  1.00  0.00    -0.354 N 
ATOM     61  N   UNL     1      -0.931 -15.136  -6.999  1.00  0.00    -0.248 NA
ATOM     62  C   UNL     1      -1.302 -17.208  -8.009  1.00  0.00     0.031 C 
ATOM     63  C   UNL     1      -0.175 -14.559  -2.658  1.00  0.00     0.029 A 
ATOM     64  C   UNL     1      -0.402 -14.767  -4.010  1.00  0.00     0.049 A 
ATOM     65  H   UNL     1      -0.464 -13.356  -5.579  1.00  0.00     0.167 HD
ATOM     66  C   UNL     1      -0.888 -16.127  -6.029  1.00  0.00     0.074 A 
ATOM     67  C   UNL     1      -1.147 -17.383  -6.704  1.00  0.00     0.031 C 
ATOM     68  C   UNL     1      -0.654 -16.007  -4.699  1.00  0.00     0.037 A 
BRANCH  55  69
ATOM     69  C   UNL     1       0.404 -10.209  -2.832  1.00  0.00     0.064 A 
ATOM     70  C   UNL     1      -0.529  -9.294  -2.323  1.00  0.00     0.173 A 
ATOM     71  C   UNL     1       1.682 -10.234  -2.253  1.00  0.00     0.173 A 
ATOM     72  F   UNL     1      -1.760  -9.220  -2.852  1.00  0.00    -0.203 F 
ATOM     73  C   UNL     1      -0.185  -8.415  -1.298  1.00  0.00     0.198 A 
ATOM     74  C   UNL     1       2.014  -9.373  -1.212  1.00  0.00     0.198 A 
ATOM     75  F   UNL     1       2.610 -11.093  -2.701  1.00  0.00    -0.203 F 
ATOM     76  F   UNL     1      -1.076  -7.513  -0.864  1.00  0.00    -0.200 F 
ATOM     77  C   UNL     1       1.084  -8.458  -0.741  1.00  0.00     0.200 A 
ATOM     78  F   UNL     1       3.239  -9.420  -0.669  1.00  0.00    -0.200 F 
ATOM     79  F   UNL     1       1.415  -7.609   0.242  1.00  0.00    -0.200 F 
ENDBRANCH  55  69
BRANCH  56  80
ATOM     80  C   UNL     1      -1.607 -16.030 -10.684  1.00  0.00     0.064 A 
ATOM     81  C   UNL     1      -2.856 -16.637 -10.866  1.00  0.00     0.173 A 
ATOM     82  C   UNL     1      -0.628 -16.233 -11.668  1.00  0.00     0.173 A 
ATOM     83  F   UNL     1      -3.814 -16.490  -9.939  1.00  0.00    -0.203 F 
ATOM     84  C   UNL     1      -3.116 -17.418 -11.990  1.00  0.00     0.198 A 
ATOM     85  C   UNL     1      -0.897 -16.994 -12.803  1.00  0.00     0.198 A 
ATOM     86  F   UNL     1       0.582 -15.671 -11.537  1.00  0.00    -0.203 F 
ATOM     87  F   UNL     1      -4.310 -18.009 -12.131  1.00  0.00    -0.200 F 
ATOM     88  C   UNL     1      -2.140 -17.588 -12.962  1.00  0.00     0.200 A 
ATOM     89  F   UNL     1       0.044 -17.147 -13.744  1.00  0.00    -0.200 F 
ATOM     90  F   UNL     1      -2.397 -18.327 -14.050  1.00  0.00    -0.200 F 
ENDBRANCH  56  80
BRANCH  68  91
ATOM     91  C   UNL     1      -0.678 -17.266  -3.883  1.00  0.00     0.064 A 
ATOM     92  C   UNL     1       0.374 -18.192  -3.936  1.00  0.00     0.173 A 
ATOM     93  C   UNL     1      -1.744 -17.529  -3.010  1.00  0.00     0.173 A 
ATOM     94  F   UNL     1       1.408 -17.992  -4.767  1.00  0.00    -0.203 F 
ATOM     95  C   UNL     1       0.350 -19.346  -3.157  1.00  0.00     0.198 A 
ATOM     96  C   UNL     1      -1.754 -18.672  -2.216  1.00  0.00     0.198 A 
ATOM     97  F   UNL     1      -2.771 -16.671  -2.920  1.00  0.00    -0.203 F 
ATOM     98  F   UNL     1       1.347 -20.237  -3.251  1.00  0.00    -0.200 F 
ATOM     99  C   UNL     1      -0.710 -19.582  -2.294  1.00  0.00     0.200 A 
ATOM    100  F   UNL     1      -2.774 -18.893  -1.375  1.00  0.00    -0.200 F 
ATOM    101  F   UNL     1      -0.729 -20.691  -1.541  1.00  0.00    -0.200 F 
ENDBRANCH  68  91
ENDBRANCH  42  43
ENDBRANCH  35  37
ENDBRANCH  34  35
ENDBRANCH  33  34
ENDBRANCH  32  33
ENDBRANCH  31  32
ENDBRANCH  29  31
ENDBRANCH   1  29
TORSDOF 21
