REMARK SMILES CCC[NH2+][C@]1(C(=O)OCCOC(=O)c2ccc(-c3c4nc(c(-c5c(F)c(F)c(F)c(F)c5F)c5ccc([nH]5)c(-c5c(F)c(F)c(F)c(F)c5F)c5nc(c(-c6c(F)c(F)c(F)c(F)c6F)c6ccc3[nH]6)C=C5)C=C4)cc2)CC[C@@H](OC(C)(C)C)C1
REMARK SMILES IDX 9 1 8 2 6 3 7 4 5 5 77 6 85 7 78 8 79 9 4 10 3 13 2 14 1 15
REMARK SMILES IDX 80 16 81 17 82 18 83 19 84 20 10 21 11 22 12 23 13 24 14 25
REMARK SMILES IDX 15 26 76 27 16 28 75 29 17 30 18 31 19 32 69 33 20 34 74 35
REMARK SMILES IDX 68 36 70 37 21 38 73 39 67 40 66 41 22 43 54 44 34 45 53 46
REMARK SMILES IDX 35 47 38 48 52 49 71 50 36 51 37 52 51 54 72 55 39 56 23 57
REMARK SMILES IDX 24 58 32 59 25 60 26 61 30 62 33 63 27 64 28 65 31 66 29 67
REMARK SMILES IDX 55 68 56 69 64 70 57 71 58 72 62 73 65 74 59 75 60 76 63 77
REMARK SMILES IDX 61 78 40 79 41 80 49 81 42 82 43 83 47 84 50 85 44 86 45 87
REMARK SMILES IDX 48 88 46 89
REMARK H PARENT 4 11 4 12 70 42 38 53
REMARK Flexibility Score: inf
ROOT
ATOM      1  C   UNL     1      -0.714   0.036  -1.669  1.00  0.00     0.274 C 
ENDROOT
BRANCH   1   2
ATOM      2  O   UNL     1      -0.439  -0.744  -2.852  1.00  0.00    -0.457 OA
BRANCH   2   3
ATOM      3  C   UNL     1       0.872  -0.978  -3.115  1.00  0.00     0.368 C 
ATOM      4  O   UNL     1       1.795  -0.618  -2.385  1.00  0.00    -0.245 OA
BRANCH   3   5
ATOM      5  C   UNL     1       1.129  -1.817  -4.412  1.00  0.00     0.196 C 
ATOM      6  C   UNL     1       0.801  -3.300  -4.154  1.00  0.00     0.084 C 
ATOM      7  C   UNL     1       0.160  -1.442  -5.557  1.00  0.00     0.113 C 
ATOM      8  C   UNL     1       0.455  -3.889  -5.513  1.00  0.00     0.039 C 
ATOM      9  C   UNL     1      -0.237  -2.757  -6.253  1.00  0.00     0.126 C 
BRANCH   5  10
ATOM     10  N   UNL     1       2.547  -1.518  -4.772  1.00  0.00    -0.332 N 
ATOM     11  H   UNL     1       2.530  -0.684  -5.359  1.00  0.00     0.347 HD
ATOM     12  H   UNL     1       3.004  -1.448  -3.863  1.00  0.00     0.347 HD
BRANCH  10  13
ATOM     13  C   UNL     1       3.354  -2.505  -5.471  1.00  0.00     0.261 C 
BRANCH  13  14
ATOM     14  C   UNL     1       4.852  -2.197  -5.319  1.00  0.00     0.058 C 
ATOM     15  C   UNL     1       5.394  -2.572  -3.942  1.00  0.00     0.010 C 
ENDBRANCH  13  14
ENDBRANCH  10  13
ENDBRANCH   5  10
BRANCH   9  16
ATOM     16  O   UNL     1      -1.613  -2.919  -6.560  1.00  0.00    -0.372 OA
BRANCH  16  17
ATOM     17  C   UNL     1      -2.669  -3.263  -5.657  1.00  0.00     0.060 C 
ATOM     18  C   UNL     1      -2.562  -4.674  -5.067  1.00  0.00     0.042 C 
ATOM     19  C   UNL     1      -2.883  -2.244  -4.541  1.00  0.00     0.042 C 
ATOM     20  C   UNL     1      -3.924  -3.249  -6.553  1.00  0.00     0.042 C 
ENDBRANCH  16  17
ENDBRANCH   9  16
ENDBRANCH   3   5
ENDBRANCH   2   3
ENDBRANCH   1   2
BRANCH   1  21
ATOM     21  C   UNL     1      -1.084  -0.872  -0.499  1.00  0.00     0.275 C 
BRANCH  21  22
ATOM     22  O   UNL     1       0.018  -1.752  -0.219  1.00  0.00    -0.458 OA
BRANCH  22  23
ATOM     23  C   UNL     1      -0.310  -3.027   0.088  1.00  0.00     0.338 C 
ATOM     24  O   UNL     1      -1.427  -3.486   0.249  1.00  0.00    -0.246 OA
BRANCH  23  25
ATOM     25  C   UNL     1       0.914  -3.849   0.161  1.00  0.00     0.060 A 
ATOM     26  C   UNL     1       1.846  -3.799  -0.873  1.00  0.00     0.016 A 
ATOM     27  C   UNL     1       1.072  -4.774   1.191  1.00  0.00     0.016 A 
ATOM     28  C   UNL     1       2.865  -4.743  -0.949  1.00  0.00     0.010 A 
ATOM     29  C   UNL     1       2.161  -5.654   1.171  1.00  0.00     0.010 A 
ATOM     30  C   UNL     1       3.042  -5.683   0.075  1.00  0.00    -0.014 A 
BRANCH  30  31
ATOM     31  C   UNL     1       4.098  -6.727  -0.045  1.00  0.00     0.031 A 
ATOM     32  C   UNL     1       3.721  -8.187  -0.066  1.00  0.00     0.074 A 
ATOM     33  C   UNL     1       5.392  -6.377  -0.196  1.00  0.00     0.049 A 
ATOM     34  N   UNL     1       4.494  -9.244  -0.040  1.00  0.00    -0.248 NA
ATOM     35  C   UNL     1       2.284  -8.501  -0.116  1.00  0.00     0.031 C 
ATOM     36  C   UNL     1       5.901  -5.005  -0.245  1.00  0.00     0.029 A 
ATOM     37  N   UNL     1       6.516  -7.151  -0.359  1.00  0.00    -0.354 N 
ATOM     38  C   UNL     1       3.641 -10.340  -0.023  1.00  0.00     0.074 A 
ATOM     39  C   UNL     1       2.289  -9.824  -0.036  1.00  0.00     0.031 C 
ATOM     40  C   UNL     1       7.222  -5.033  -0.476  1.00  0.00     0.029 A 
ATOM     41  C   UNL     1       7.669  -6.421  -0.515  1.00  0.00     0.049 A 
ATOM     42  H   UNL     1       6.496  -8.135  -0.363  1.00  0.00     0.167 HD
ATOM     43  C   UNL     1       3.954 -11.658  -0.002  1.00  0.00     0.037 A 
ATOM     44  C   UNL     1       8.948  -6.822  -0.647  1.00  0.00     0.037 A 
ATOM     45  C   UNL     1       5.295 -12.179  -0.039  1.00  0.00     0.049 A 
ATOM     46  C   UNL     1       9.267  -8.290  -0.616  1.00  0.00     0.074 A 
ATOM     47  C   UNL     1       5.715 -13.497   0.025  1.00  0.00     0.029 A 
ATOM     48  N   UNL     1       6.435 -11.403  -0.181  1.00  0.00    -0.354 N 
ATOM     49  N   UNL     1       8.455  -9.312  -0.505  1.00  0.00    -0.248 NA
ATOM     50  C   UNL     1      10.687  -8.660  -0.709  1.00  0.00     0.031 C 
ATOM     51  C   UNL     1       7.112 -13.518  -0.069  1.00  0.00     0.029 A 
ATOM     52  C   UNL     1       7.557 -12.216  -0.219  1.00  0.00     0.049 A 
ATOM     53  H   UNL     1       6.446 -10.421  -0.246  1.00  0.00     0.167 HD
ATOM     54  C   UNL     1       9.260 -10.441  -0.516  1.00  0.00     0.074 A 
ATOM     55  C   UNL     1      10.624  -9.983  -0.677  1.00  0.00     0.031 C 
ATOM     56  C   UNL     1       8.904 -11.742  -0.388  1.00  0.00     0.037 A 
BRANCH  43  57
ATOM     57  C   UNL     1       2.823 -12.638   0.081  1.00  0.00     0.064 A 
ATOM     58  C   UNL     1       2.027 -12.938  -1.034  1.00  0.00     0.173 A 
ATOM     59  C   UNL     1       2.563 -13.321   1.279  1.00  0.00     0.173 A 
ATOM     60  F   UNL     1       2.226 -12.298  -2.196  1.00  0.00    -0.203 F 
ATOM     61  C   UNL     1       1.002 -13.876  -0.948  1.00  0.00     0.198 A 
ATOM     62  C   UNL     1       1.552 -14.274   1.355  1.00  0.00     0.198 A 
ATOM     63  F   UNL     1       3.300 -13.071   2.372  1.00  0.00    -0.203 F 
ATOM     64  F   UNL     1       0.232 -14.125  -2.016  1.00  0.00    -0.200 F 
ATOM     65  C   UNL     1       0.770 -14.549   0.244  1.00  0.00     0.200 A 
ATOM     66  F   UNL     1       1.335 -14.929   2.505  1.00  0.00    -0.200 F 
ATOM     67  F   UNL     1      -0.211 -15.459   0.322  1.00  0.00    -0.200 F 
ENDBRANCH  43  57
BRANCH  44  68
ATOM     68  C   UNL     1      10.031  -5.816  -0.793  1.00  0.00     0.064 A 
ATOM     69  C   UNL     1      10.732  -5.682  -1.999  1.00  0.00     0.173 A 
ATOM     70  C   UNL     1      10.400  -4.984   0.274  1.00  0.00     0.173 A 
ATOM     71  F   UNL     1      10.433  -6.475  -3.039  1.00  0.00    -0.203 F 
ATOM     72  C   UNL     1      11.771  -4.763  -2.128  1.00  0.00     0.198 A 
ATOM     73  C   UNL     1      11.419  -4.046   0.135  1.00  0.00     0.198 A 
ATOM     74  F   UNL     1       9.761  -5.077   1.450  1.00  0.00    -0.203 F 
ATOM     75  F   UNL     1      12.455  -4.685  -3.277  1.00  0.00    -0.200 F 
ATOM     76  C   UNL     1      12.110  -3.941  -1.063  1.00  0.00     0.200 A 
ATOM     77  F   UNL     1      11.736  -3.248   1.164  1.00  0.00    -0.200 F 
ATOM     78  F   UNL     1      13.108  -3.057  -1.187  1.00  0.00    -0.200 F 
ENDBRANCH  44  68
BRANCH  56  79
ATOM     79  C   UNL     1      10.006 -12.755  -0.438  1.00  0.00     0.064 A 
ATOM     80  C   UNL     1      10.868 -12.948   0.651  1.00  0.00     0.173 A 
ATOM     81  C   UNL     1      10.193 -13.549  -1.578  1.00  0.00     0.173 A 
ATOM     82  F   UNL     1      10.736 -12.199   1.756  1.00  0.00    -0.203 F 
ATOM     83  C   UNL     1      11.896 -13.883   0.591  1.00  0.00     0.198 A 
ATOM     84  C   UNL     1      11.210 -14.498  -1.628  1.00  0.00     0.198 A 
ATOM     85  F   UNL     1       9.392 -13.402  -2.644  1.00  0.00    -0.203 F 
ATOM     86  F   UNL     1      12.737 -14.021   1.625  1.00  0.00    -0.200 F 
ATOM     87  C   UNL     1      12.064 -14.660  -0.547  1.00  0.00     0.200 A 
ATOM     88  F   UNL     1      11.369 -15.251  -2.725  1.00  0.00    -0.200 F 
ATOM     89  F   UNL     1      13.058 -15.557  -0.605  1.00  0.00    -0.200 F 
ENDBRANCH  56  79
ENDBRANCH  30  31
ENDBRANCH  23  25
ENDBRANCH  22  23
ENDBRANCH  21  22
ENDBRANCH   1  21
TORSDOF 16
