REMARK SMILES CC(=O)CCCCC/C=C/C(=O)OCCOC(=O)c1ccc(-c2c3nc(c(-c4c(F)c(F)c(F)c(F)c4F)c4ccc([nH]4)c(-c4c(F)c(F)c(F)c(F)c4F)c4nc(c(-c5c(F)c(F)c(F)c(F)c5F)c5ccc2[nH]5)C=C4)C=C3)cc1
REMARK SMILES IDX 11 1 12 2 10 3 9 4 8 5 7 6 6 7 5 8 4 9 2 10 1 11 3 12 13 13
REMARK SMILES IDX 14 14 15 15 16 16 17 17 18 18 19 19 20 20 81 21 21 22 80 23
REMARK SMILES IDX 22 24 23 25 24 26 74 27 25 28 79 29 73 30 75 31 26 32 78 33
REMARK SMILES IDX 72 34 71 35 27 37 59 38 39 39 58 40 40 41 43 42 57 43 76 44
REMARK SMILES IDX 41 45 42 46 56 48 77 49 44 50 28 51 29 52 37 53 30 54 31 55
REMARK SMILES IDX 35 56 38 57 32 58 33 59 36 60 34 61 60 62 61 63 69 64 62 65
REMARK SMILES IDX 63 66 67 67 70 68 64 69 65 70 68 71 66 72 45 73 46 74 54 75
REMARK SMILES IDX 47 76 48 77 52 78 55 79 49 80 50 81 53 82 51 83
REMARK H PARENT 75 36 43 47
REMARK Flexibility Score: inf
ROOT
ATOM      1  C   UNL     1       2.435  -0.280   8.033  1.00  0.00     0.330 C 
ATOM      2  O   UNL     1       3.055  -0.132   9.076  1.00  0.00    -0.247 OA
ENDROOT
BRANCH   1   3
ATOM      3  C   UNL     1       2.857   0.385   6.781  1.00  0.00     0.089 C 
ATOM      4  C   UNL     1       2.145   0.397   5.645  1.00  0.00    -0.019 C 
BRANCH   4   5
ATOM      5  C   UNL     1       2.673   0.936   4.345  1.00  0.00     0.027 C 
BRANCH   5   6
ATOM      6  C   UNL     1       2.377  -0.001   3.166  1.00  0.00     0.004 C 
BRANCH   6   7
ATOM      7  C   UNL     1       0.892  -0.142   2.802  1.00  0.00     0.001 C 
BRANCH   7   8
ATOM      8  C   UNL     1       0.164   1.164   2.462  1.00  0.00     0.008 C 
BRANCH   8   9
ATOM      9  C   UNL     1       0.752   1.962   1.302  1.00  0.00     0.075 C 
BRANCH   9  10
ATOM     10  C   UNL     1       0.322   1.436  -0.053  1.00  0.00     0.129 C 
ATOM     11  C   UNL     1       0.984   0.190  -0.575  1.00  0.00     0.087 C 
ATOM     12  O   UNL     1      -0.578   1.986  -0.691  1.00  0.00    -0.300 OA
ENDBRANCH   9  10
ENDBRANCH   8   9
ENDBRANCH   7   8
ENDBRANCH   6   7
ENDBRANCH   5   6
ENDBRANCH   4   5
ENDBRANCH   1   3
BRANCH   1  13
ATOM     13  O   UNL     1       1.399  -1.126   7.823  1.00  0.00    -0.459 OA
BRANCH  13  14
ATOM     14  C   UNL     1       1.074  -2.015   8.905  1.00  0.00     0.275 C 
BRANCH  14  15
ATOM     15  C   UNL     1       1.678  -3.405   8.678  1.00  0.00     0.275 C 
BRANCH  15  16
ATOM     16  O   UNL     1       3.117  -3.384   8.758  1.00  0.00    -0.458 OA
BRANCH  16  17
ATOM     17  C   UNL     1       3.760  -3.238   7.575  1.00  0.00     0.338 C 
ATOM     18  O   UNL     1       3.259  -3.170   6.465  1.00  0.00    -0.246 OA
BRANCH  17  19
ATOM     19  C   UNL     1       5.202  -3.032   7.810  1.00  0.00     0.060 A 
ATOM     20  C   UNL     1       5.810  -1.934   7.193  1.00  0.00     0.016 A 
ATOM     21  C   UNL     1       5.962  -3.925   8.569  1.00  0.00     0.016 A 
ATOM     22  C   UNL     1       7.178  -1.717   7.340  1.00  0.00     0.010 A 
ATOM     23  C   UNL     1       7.340  -3.713   8.707  1.00  0.00     0.010 A 
ATOM     24  C   UNL     1       7.956  -2.611   8.088  1.00  0.00    -0.014 A 
BRANCH  24  25
ATOM     25  C   UNL     1       9.423  -2.407   8.173  1.00  0.00     0.031 A 
ATOM     26  C   UNL     1      10.345  -3.239   7.329  1.00  0.00     0.074 A 
ATOM     27  C   UNL     1       9.922  -1.448   8.974  1.00  0.00     0.049 A 
ATOM     28  N   UNL     1      11.653  -3.236   7.280  1.00  0.00    -0.248 NA
ATOM     29  C   UNL     1       9.709  -4.198   6.414  1.00  0.00     0.031 C 
ATOM     30  C   UNL     1       9.125  -0.552   9.812  1.00  0.00     0.029 A 
ATOM     31  N   UNL     1      11.219  -1.068   9.215  1.00  0.00    -0.354 N 
ATOM     32  C   UNL     1      11.998  -4.188   6.330  1.00  0.00     0.074 A 
ATOM     33  C   UNL     1      10.763  -4.770   5.848  1.00  0.00     0.031 C 
ATOM     34  C   UNL     1       9.951   0.269  10.481  1.00  0.00     0.029 A 
ATOM     35  C   UNL     1      11.334  -0.066  10.146  1.00  0.00     0.049 A 
ATOM     36  H   UNL     1      11.993  -1.476   8.763  1.00  0.00     0.167 HD
ATOM     37  C   UNL     1      13.232  -4.536   5.894  1.00  0.00     0.037 A 
ATOM     38  C   UNL     1      12.431   0.499  10.686  1.00  0.00     0.037 A 
ATOM     39  C   UNL     1      14.460  -3.961   6.380  1.00  0.00     0.049 A 
ATOM     40  C   UNL     1      13.793   0.047  10.230  1.00  0.00     0.074 A 
ATOM     41  C   UNL     1      15.760  -4.263   6.014  1.00  0.00     0.029 A 
ATOM     42  N   UNL     1      14.537  -2.962   7.340  1.00  0.00    -0.354 N 
ATOM     43  N   UNL     1      14.109  -0.855   9.333  1.00  0.00    -0.248 NA
ATOM     44  C   UNL     1      14.953   0.695  10.861  1.00  0.00     0.031 C 
ATOM     45  C   UNL     1      16.626  -3.472   6.777  1.00  0.00     0.029 A 
ATOM     46  C   UNL     1      15.864  -2.646   7.586  1.00  0.00     0.049 A 
ATOM     47  H   UNL     1      13.764  -2.541   7.780  1.00  0.00     0.167 HD
ATOM     48  C   UNL     1      15.496  -0.869   9.276  1.00  0.00     0.074 A 
ATOM     49  C   UNL     1      15.963   0.129  10.216  1.00  0.00     0.031 C 
ATOM     50  C   UNL     1      16.311  -1.642   8.518  1.00  0.00     0.037 A 
BRANCH  37  51
ATOM     51  C   UNL     1      13.320  -5.602   4.843  1.00  0.00     0.064 A 
ATOM     52  C   UNL     1      12.963  -5.347   3.511  1.00  0.00     0.173 A 
ATOM     53  C   UNL     1      13.813  -6.876   5.159  1.00  0.00     0.173 A 
ATOM     54  F   UNL     1      12.474  -4.148   3.161  1.00  0.00    -0.203 F 
ATOM     55  C   UNL     1      13.080  -6.335   2.537  1.00  0.00     0.198 A 
ATOM     56  C   UNL     1      13.952  -7.854   4.178  1.00  0.00     0.198 A 
ATOM     57  F   UNL     1      14.173  -7.169   6.418  1.00  0.00    -0.203 F 
ATOM     58  F   UNL     1      12.700  -6.081   1.277  1.00  0.00    -0.200 F 
ATOM     59  C   UNL     1      13.581  -7.585   2.869  1.00  0.00     0.200 A 
ATOM     60  F   UNL     1      14.447  -9.058   4.499  1.00  0.00    -0.200 F 
ATOM     61  F   UNL     1      13.702  -8.532   1.929  1.00  0.00    -0.200 F 
ENDBRANCH  37  51
BRANCH  38  62
ATOM     62  C   UNL     1      12.290   1.536  11.742  1.00  0.00     0.064 A 
ATOM     63  C   UNL     1      12.662   2.867  11.509  1.00  0.00     0.173 A 
ATOM     64  C   UNL     1      11.805   1.206  13.017  1.00  0.00     0.173 A 
ATOM     65  F   UNL     1      13.156   3.225  10.315  1.00  0.00    -0.203 F 
ATOM     66  C   UNL     1      12.575   3.824  12.518  1.00  0.00     0.198 A 
ATOM     67  C   UNL     1      11.691   2.171  14.015  1.00  0.00     0.198 A 
ATOM     68  F   UNL     1      11.440  -0.054  13.291  1.00  0.00    -0.203 F 
ATOM     69  F   UNL     1      12.987   5.078  12.286  1.00  0.00    -0.200 F 
ATOM     70  C   UNL     1      12.084   3.477  13.768  1.00  0.00     0.200 A 
ATOM     71  F   UNL     1      11.207   1.832  15.218  1.00  0.00    -0.200 F 
ATOM     72  F   UNL     1      12.003   4.397  14.738  1.00  0.00    -0.200 F 
ENDBRANCH  38  62
BRANCH  50  73
ATOM     73  C   UNL     1      17.789  -1.418   8.648  1.00  0.00     0.064 A 
ATOM     74  C   UNL     1      18.498  -1.838   9.783  1.00  0.00     0.173 A 
ATOM     75  C   UNL     1      18.509  -0.809   7.609  1.00  0.00     0.173 A 
ATOM     76  F   UNL     1      17.852  -2.411  10.809  1.00  0.00    -0.203 F 
ATOM     77  C   UNL     1      19.872  -1.634   9.883  1.00  0.00     0.198 A 
ATOM     78  C   UNL     1      19.887  -0.632   7.702  1.00  0.00     0.198 A 
ATOM     79  F   UNL     1      17.878  -0.396   6.500  1.00  0.00    -0.203 F 
ATOM     80  F   UNL     1      20.523  -2.003  10.995  1.00  0.00    -0.200 F 
ATOM     81  C   UNL     1      20.566  -1.038   8.840  1.00  0.00     0.200 A 
ATOM     82  F   UNL     1      20.557  -0.066   6.689  1.00  0.00    -0.200 F 
ATOM     83  F   UNL     1      21.889  -0.848   8.936  1.00  0.00    -0.200 F 
ENDBRANCH  50  73
ENDBRANCH  24  25
ENDBRANCH  17  19
ENDBRANCH  16  17
ENDBRANCH  15  16
ENDBRANCH  14  15
ENDBRANCH  13  14
ENDBRANCH   1  13
TORSDOF 17
