REMARK SMILES C[NH2+]CCCC(=O)NC[C@@H]1CC[C@H](C(=O)OCCOC(=O)c2ccc(-c3c4nc(c(-c5c(F)c(F)c(F)c(F)c5F)c5ccc([nH]5)c(-c5c(F)c(F)c(F)c(F)c5F)c5nc(c(-c6c(F)c(F)c(F)c(F)c6F)c6ccc3[nH]6)C=C5)C=C4)cc2)O1
REMARK SMILES IDX 14 1 15 2 13 3 10 4 11 5 85 6 12 7 9 8 8 9 6 10 7 11 5 13
REMARK SMILES IDX 4 14 3 15 2 16 1 17 16 20 17 21 18 22 19 23 20 24 21 25
REMARK SMILES IDX 22 26 23 27 84 28 24 29 83 30 25 31 26 32 27 33 77 34 28 35
REMARK SMILES IDX 82 36 76 37 78 38 29 39 81 40 75 41 74 42 30 44 62 45 42 46
REMARK SMILES IDX 61 47 43 48 46 49 60 50 79 51 44 52 45 53 59 55 80 56 47 57
REMARK SMILES IDX 31 58 32 59 40 60 33 61 34 62 38 63 41 64 35 65 36 66 39 67
REMARK SMILES IDX 37 68 63 69 64 70 72 71 65 72 66 73 70 74 73 75 67 76 68 77
REMARK SMILES IDX 71 78 69 79 48 80 49 81 57 82 50 83 51 84 55 85 58 86 52 87
REMARK SMILES IDX 53 88 56 89 54 90
REMARK H PARENT 8 12 2 18 2 19 78 43 46 54
REMARK Flexibility Score: inf
ROOT
ATOM      1  C   UNL     1      -3.392  -1.402   1.308  1.00  0.00     0.335 C 
ATOM      2  O   UNL     1      -3.320  -0.177   1.249  1.00  0.00    -0.249 OA
ENDROOT
BRANCH   1   3
ATOM      3  C   UNL     1      -2.685  -2.215   2.401  1.00  0.00     0.228 C 
ATOM      4  C   UNL     1      -1.195  -3.907   1.770  1.00  0.00     0.138 C 
ATOM      5  C   UNL     1      -2.561  -4.551   1.980  1.00  0.00     0.037 C 
ATOM      6  O   UNL     1      -1.340  -2.505   2.026  1.00  0.00    -0.361 OA
ATOM      7  C   UNL     1      -3.317  -3.533   2.800  1.00  0.00     0.047 C 
BRANCH   4   8
ATOM      8  C   UNL     1      -0.534  -4.120   0.390  1.00  0.00     0.147 C 
BRANCH   8   9
ATOM      9  N   UNL     1      -1.461  -4.005  -0.732  1.00  0.00    -0.353 N 
ATOM     10  C   UNL     1      -1.468  -3.210  -1.829  1.00  0.00     0.220 C 
ATOM     11  O   UNL     1      -2.433  -3.295  -2.594  1.00  0.00    -0.275 OA
ATOM     12  H   UNL     1      -2.226  -4.622  -0.682  1.00  0.00     0.163 HD
BRANCH  10  13
ATOM     13  C   UNL     1      -0.332  -2.260  -2.129  1.00  0.00     0.106 C 
BRANCH  13  14
ATOM     14  C   UNL     1      -0.696  -0.806  -1.820  1.00  0.00     0.071 C 
BRANCH  14  15
ATOM     15  C   UNL     1      -0.348  -0.367  -0.398  1.00  0.00     0.260 C 
BRANCH  15  16
ATOM     16  N   UNL     1       1.088  -0.325  -0.119  1.00  0.00    -0.349 N 
ATOM     17  C   UNL     1       1.641   1.005  -0.321  1.00  0.00     0.330 C 
ATOM     18  H   UNL     1       1.245  -0.604   0.849  1.00  0.00     0.346 HD
ATOM     19  H   UNL     1       1.554  -0.962  -0.765  1.00  0.00     0.346 HD
ENDBRANCH  15  16
ENDBRANCH  14  15
ENDBRANCH  13  14
ENDBRANCH  10  13
ENDBRANCH   8   9
ENDBRANCH   4   8
ENDBRANCH   1   3
BRANCH   1  20
ATOM     20  O   UNL     1      -4.060  -2.173   0.409  1.00  0.00    -0.460 OA
BRANCH  20  21
ATOM     21  C   UNL     1      -4.697  -1.467  -0.676  1.00  0.00     0.274 C 
BRANCH  21  22
ATOM     22  C   UNL     1      -6.185  -1.216  -0.412  1.00  0.00     0.275 C 
BRANCH  22  23
ATOM     23  O   UNL     1      -6.397  -0.276   0.658  1.00  0.00    -0.458 OA
BRANCH  23  24
ATOM     24  C   UNL     1      -6.493  -0.833   1.886  1.00  0.00     0.338 C 
ATOM     25  O   UNL     1      -6.472  -2.020   2.166  1.00  0.00    -0.246 OA
BRANCH  24  26
ATOM     26  C   UNL     1      -6.473   0.209   2.923  1.00  0.00     0.060 A 
ATOM     27  C   UNL     1      -5.425   0.171   3.846  1.00  0.00     0.016 A 
ATOM     28  C   UNL     1      -7.515   1.125   3.067  1.00  0.00     0.016 A 
ATOM     29  C   UNL     1      -5.421   1.030   4.936  1.00  0.00     0.010 A 
ATOM     30  C   UNL     1      -7.516   1.986   4.170  1.00  0.00     0.010 A 
ATOM     31  C   UNL     1      -6.482   1.923   5.121  1.00  0.00    -0.014 A 
BRANCH  31  32
ATOM     32  C   UNL     1      -6.536   2.699   6.379  1.00  0.00     0.031 A 
ATOM     33  C   UNL     1      -7.432   2.238   7.491  1.00  0.00     0.074 A 
ATOM     34  C   UNL     1      -5.725   3.757   6.549  1.00  0.00     0.049 A 
ATOM     35  N   UNL     1      -7.618   2.759   8.677  1.00  0.00    -0.248 NA
ATOM     36  C   UNL     1      -8.223   1.024   7.236  1.00  0.00     0.031 C 
ATOM     37  C   UNL     1      -4.779   4.260   5.554  1.00  0.00     0.029 A 
ATOM     38  N   UNL     1      -5.559   4.590   7.625  1.00  0.00    -0.354 N 
ATOM     39  C   UNL     1      -8.558   1.950   9.300  1.00  0.00     0.074 A 
ATOM     40  C   UNL     1      -8.916   0.910   8.359  1.00  0.00     0.031 C 
ATOM     41  C   UNL     1      -4.126   5.315   6.069  1.00  0.00     0.029 A 
ATOM     42  C   UNL     1      -4.630   5.577   7.415  1.00  0.00     0.049 A 
ATOM     43  H   UNL     1      -6.059   4.489   8.468  1.00  0.00     0.167 HD
ATOM     44  C   UNL     1      -9.073   2.067  10.547  1.00  0.00     0.037 A 
ATOM     45  C   UNL     1      -4.242   6.587   8.216  1.00  0.00     0.037 A 
ATOM     46  C   UNL     1      -8.698   3.091  11.485  1.00  0.00     0.049 A 
ATOM     47  C   UNL     1      -4.845   6.706   9.589  1.00  0.00     0.074 A 
ATOM     48  C   UNL     1      -9.154   3.292  12.776  1.00  0.00     0.029 A 
ATOM     49  N   UNL     1      -7.768   4.089  11.229  1.00  0.00    -0.354 N 
ATOM     50  N   UNL     1      -5.736   5.939  10.170  1.00  0.00    -0.248 NA
ATOM     51  C   UNL     1      -4.387   7.829  10.419  1.00  0.00     0.031 C 
ATOM     52  C   UNL     1      -8.525   4.432  13.289  1.00  0.00     0.029 A 
ATOM     53  C   UNL     1      -7.648   4.918  12.333  1.00  0.00     0.049 A 
ATOM     54  H   UNL     1      -7.268   4.194  10.387  1.00  0.00     0.167 HD
ATOM     55  C   UNL     1      -5.933   6.473  11.436  1.00  0.00     0.074 A 
ATOM     56  C   UNL     1      -5.056   7.622  11.544  1.00  0.00     0.031 C 
ATOM     57  C   UNL     1      -6.766   6.053  12.419  1.00  0.00     0.037 A 
BRANCH  44  58
ATOM     58  C   UNL     1     -10.124   1.079  10.953  1.00  0.00     0.064 A 
ATOM     59  C   UNL     1      -9.809  -0.252  11.263  1.00  0.00     0.173 A 
ATOM     60  C   UNL     1     -11.466   1.477  11.050  1.00  0.00     0.173 A 
ATOM     61  F   UNL     1      -8.543  -0.685  11.168  1.00  0.00    -0.203 F 
ATOM     62  C   UNL     1     -10.802  -1.155  11.634  1.00  0.00     0.198 A 
ATOM     63  C   UNL     1     -12.454   0.578  11.444  1.00  0.00     0.198 A 
ATOM     64  F   UNL     1     -11.820   2.739  10.764  1.00  0.00    -0.203 F 
ATOM     65  F   UNL     1     -10.485  -2.432  11.885  1.00  0.00    -0.200 F 
ATOM     66  C   UNL     1     -12.122  -0.738  11.729  1.00  0.00     0.200 A 
ATOM     67  F   UNL     1     -13.727   0.984  11.542  1.00  0.00    -0.200 F 
ATOM     68  F   UNL     1     -13.076  -1.608  12.089  1.00  0.00    -0.200 F 
ENDBRANCH  44  58
BRANCH  45  69
ATOM     69  C   UNL     1      -3.235   7.563   7.731  1.00  0.00     0.064 A 
ATOM     70  C   UNL     1      -1.938   7.589   8.259  1.00  0.00     0.173 A 
ATOM     71  C   UNL     1      -3.549   8.482   6.719  1.00  0.00     0.173 A 
ATOM     72  F   UNL     1      -1.599   6.746   9.245  1.00  0.00    -0.203 F 
ATOM     73  C   UNL     1      -0.994   8.505   7.798  1.00  0.00     0.198 A 
ATOM     74  C   UNL     1      -2.598   9.380   6.242  1.00  0.00     0.198 A 
ATOM     75  F   UNL     1      -4.779   8.497   6.184  1.00  0.00    -0.203 F 
ATOM     76  F   UNL     1       0.230   8.534   8.343  1.00  0.00    -0.200 F 
ATOM     77  C   UNL     1      -1.322   9.394   6.785  1.00  0.00     0.200 A 
ATOM     78  F   UNL     1      -2.917  10.231   5.257  1.00  0.00    -0.200 F 
ATOM     79  F   UNL     1      -0.412  10.269   6.338  1.00  0.00    -0.200 F 
ENDBRANCH  45  69
BRANCH  57  80
ATOM     80  C   UNL     1      -6.749   6.825  13.704  1.00  0.00     0.064 A 
ATOM     81  C   UNL     1      -7.352   8.087  13.806  1.00  0.00     0.173 A 
ATOM     82  C   UNL     1      -6.157   6.280  14.852  1.00  0.00     0.173 A 
ATOM     83  F   UNL     1      -7.918   8.654  12.731  1.00  0.00    -0.203 F 
ATOM     84  C   UNL     1      -7.343   8.786  15.010  1.00  0.00     0.198 A 
ATOM     85  C   UNL     1      -6.171   6.971  16.060  1.00  0.00     0.198 A 
ATOM     86  F   UNL     1      -5.574   5.073  14.805  1.00  0.00    -0.203 F 
ATOM     87  F   UNL     1      -7.889  10.008  15.078  1.00  0.00    -0.200 F 
ATOM     88  C   UNL     1      -6.758   8.225  16.137  1.00  0.00     0.200 A 
ATOM     89  F   UNL     1      -5.614   6.425  17.150  1.00  0.00    -0.200 F 
ATOM     90  F   UNL     1      -6.754   8.898  17.296  1.00  0.00    -0.200 F 
ENDBRANCH  57  80
ENDBRANCH  31  32
ENDBRANCH  24  26
ENDBRANCH  23  24
ENDBRANCH  22  23
ENDBRANCH  21  22
ENDBRANCH  20  21
ENDBRANCH   1  20
TORSDOF 17
