REMARK SMILES C[NH2+][C@]1(C(=O)OCCOC(=O)c2ccc(-c3c4nc(c(-c5c(F)c(F)c(F)c(F)c5F)c5ccc([nH]5)c(-c5c(F)c(F)c(F)c(F)c5F)c5nc(c(-c6c(F)c(F)c(F)c(F)c6F)c6ccc3[nH]6)C=C5)C=C4)cc2)CCC[C@@H]1CCn1nc(C)c(Cl)c1C
REMARK SMILES IDX 7 1 6 2 4 3 5 4 3 5 75 6 78 7 76 8 77 9 2 10 1 11 79 14
REMARK SMILES IDX 80 15 81 16 82 17 87 18 83 19 85 20 88 21 84 22 86 23 8 24
REMARK SMILES IDX 9 25 10 26 11 27 12 28 13 29 74 30 14 31 73 32 15 33 16 34
REMARK SMILES IDX 17 35 67 36 18 37 72 38 66 39 68 40 19 41 71 42 65 43 64 44
REMARK SMILES IDX 20 46 52 47 32 48 51 49 33 50 36 51 50 52 69 53 34 54 35 55
REMARK SMILES IDX 49 57 70 58 37 59 21 60 22 61 30 62 23 63 24 64 28 65 31 66
REMARK SMILES IDX 25 67 26 68 29 69 27 70 53 71 54 72 62 73 55 74 56 75 60 76
REMARK SMILES IDX 63 77 57 78 58 79 61 80 59 81 38 82 39 83 47 84 40 85 41 86
REMARK SMILES IDX 45 87 48 88 42 89 43 90 46 91 44 92
REMARK H PARENT 2 12 2 13 68 45 36 56
REMARK Flexibility Score: inf
ROOT
ATOM      1  C   UNL     1       2.625   0.887  -2.388  1.00  0.00     0.274 C 
ENDROOT
BRANCH   1   2
ATOM      2  O   UNL     1       1.191   0.824  -2.328  1.00  0.00    -0.457 OA
BRANCH   2   3
ATOM      3  C   UNL     1       0.668  -0.169  -1.561  1.00  0.00     0.368 C 
ATOM      4  O   UNL     1       1.335  -1.086  -1.092  1.00  0.00    -0.245 OA
BRANCH   3   5
ATOM      5  C   UNL     1      -0.866  -0.016  -1.342  1.00  0.00     0.197 C 
ATOM      6  C   UNL     1      -1.460   1.206  -2.088  1.00  0.00     0.081 C 
ATOM      7  C   UNL     1      -1.617  -1.146  -2.090  1.00  0.00     0.064 C 
ATOM      8  C   UNL     1      -2.943   0.904  -2.278  1.00  0.00     0.008 C 
ATOM      9  C   UNL     1      -3.053  -0.620  -2.274  1.00  0.00     0.011 C 
BRANCH   5  10
ATOM     10  N   UNL     1      -1.266   0.097   0.091  1.00  0.00    -0.334 N 
ATOM     11  C   UNL     1      -0.376  -0.512   1.072  1.00  0.00     0.331 C 
ATOM     12  H   UNL     1      -1.338   1.089   0.314  1.00  0.00     0.347 HD
ATOM     13  H   UNL     1      -2.140  -0.424   0.165  1.00  0.00     0.347 HD
ENDBRANCH   5  10
BRANCH   7  14
ATOM     14  C   UNL     1      -1.553  -2.537  -1.436  1.00  0.00     0.034 C 
BRANCH  14  15
ATOM     15  C   UNL     1      -1.714  -3.709  -2.409  1.00  0.00     0.145 C 
BRANCH  15  16
ATOM     16  N   UNL     1      -0.667  -3.763  -3.418  1.00  0.00    -0.268 N 
ATOM     17  N   UNL     1       0.504  -4.348  -3.094  1.00  0.00    -0.176 NA
ATOM     18  C   UNL     1      -0.679  -3.243  -4.691  1.00  0.00     0.054 A 
ATOM     19  C   UNL     1       1.285  -4.148  -4.164  1.00  0.00     0.078 A 
ATOM     20  C   UNL     1       0.593  -3.452  -5.179  1.00  0.00     0.084 A 
ATOM     21  C   UNL     1      -1.834  -2.560  -5.325  1.00  0.00     0.068 C 
ATOM     22  C   UNL     1       2.682  -4.649  -4.161  1.00  0.00     0.070 C 
ATOM     23  Cl  UNL     1       1.208  -2.972  -6.686  1.00  0.00    -0.080 Cl
ENDBRANCH  15  16
ENDBRANCH  14  15
ENDBRANCH   7  14
ENDBRANCH   3   5
ENDBRANCH   2   3
ENDBRANCH   1   2
BRANCH   1  24
ATOM     24  C   UNL     1       3.113   2.167  -1.708  1.00  0.00     0.275 C 
BRANCH  24  25
ATOM     25  O   UNL     1       2.603   2.288  -0.366  1.00  0.00    -0.458 OA
BRANCH  25  26
ATOM     26  C   UNL     1       1.482   3.044  -0.235  1.00  0.00     0.338 C 
ATOM     27  O   UNL     1       0.883   3.631  -1.123  1.00  0.00    -0.246 OA
BRANCH  26  28
ATOM     28  C   UNL     1       1.009   2.995   1.164  1.00  0.00     0.060 A 
ATOM     29  C   UNL     1      -0.357   2.816   1.397  1.00  0.00     0.016 A 
ATOM     30  C   UNL     1       1.889   3.128   2.242  1.00  0.00     0.016 A 
ATOM     31  C   UNL     1      -0.839   2.681   2.697  1.00  0.00     0.010 A 
ATOM     32  C   UNL     1       1.398   3.052   3.550  1.00  0.00     0.010 A 
ATOM     33  C   UNL     1       0.034   2.814   3.782  1.00  0.00    -0.014 A 
BRANCH  33  34
ATOM     34  C   UNL     1      -0.524   2.841   5.152  1.00  0.00     0.031 A 
ATOM     35  C   UNL     1      -1.086   4.131   5.667  1.00  0.00     0.074 A 
ATOM     36  C   UNL     1      -0.575   1.725   5.901  1.00  0.00     0.049 A 
ATOM     37  N   UNL     1      -1.634   4.398   6.824  1.00  0.00    -0.248 NA
ATOM     38  C   UNL     1      -1.037   5.275   4.743  1.00  0.00     0.031 C 
ATOM     39  C   UNL     1      -0.131   0.400   5.473  1.00  0.00     0.029 A 
ATOM     40  N   UNL     1      -1.028   1.530   7.182  1.00  0.00    -0.354 N 
ATOM     41  C   UNL     1      -2.010   5.732   6.761  1.00  0.00     0.074 A 
ATOM     42  C   UNL     1      -1.611   6.228   5.462  1.00  0.00     0.031 C 
ATOM     43  C   UNL     1      -0.320  -0.470   6.481  1.00  0.00     0.029 A 
ATOM     44  C   UNL     1      -0.866   0.243   7.634  1.00  0.00     0.049 A 
ATOM     45  H   UNL     1      -1.430   2.246   7.726  1.00  0.00     0.167 HD
ATOM     46  C   UNL     1      -2.629   6.477   7.706  1.00  0.00     0.037 A 
ATOM     47  C   UNL     1      -1.109  -0.283   8.851  1.00  0.00     0.037 A 
ATOM     48  C   UNL     1      -2.971   5.992   9.016  1.00  0.00     0.049 A 
ATOM     49  C   UNL     1      -1.681   0.605   9.931  1.00  0.00     0.074 A 
ATOM     50  C   UNL     1      -3.561   6.676  10.063  1.00  0.00     0.029 A 
ATOM     51  N   UNL     1      -2.729   4.701   9.465  1.00  0.00    -0.354 N 
ATOM     52  N   UNL     1      -2.046   1.863   9.864  1.00  0.00    -0.248 NA
ATOM     53  C   UNL     1      -1.872  -0.001  11.257  1.00  0.00     0.031 C 
ATOM     54  C   UNL     1      -3.616   5.818  11.166  1.00  0.00     0.029 A 
ATOM     55  C   UNL     1      -3.128   4.577  10.786  1.00  0.00     0.049 A 
ATOM     56  H   UNL     1      -2.333   3.980   8.924  1.00  0.00     0.167 HD
ATOM     57  C   UNL     1      -2.539   2.189  11.122  1.00  0.00     0.074 A 
ATOM     58  C   UNL     1      -2.439   0.991  11.930  1.00  0.00     0.031 C 
ATOM     59  C   UNL     1      -3.030   3.371  11.570  1.00  0.00     0.037 A 
BRANCH  46  60
ATOM     60  C   UNL     1      -2.911   7.911   7.368  1.00  0.00     0.064 A 
ATOM     61  C   UNL     1      -3.887   8.271   6.426  1.00  0.00     0.173 A 
ATOM     62  C   UNL     1      -2.188   8.940   7.990  1.00  0.00     0.173 A 
ATOM     63  F   UNL     1      -4.591   7.324   5.787  1.00  0.00    -0.203 F 
ATOM     64  C   UNL     1      -4.106   9.606   6.098  1.00  0.00     0.198 A 
ATOM     65  C   UNL     1      -2.432  10.275   7.682  1.00  0.00     0.198 A 
ATOM     66  F   UNL     1      -1.243   8.650   8.897  1.00  0.00    -0.203 F 
ATOM     67  F   UNL     1      -5.003   9.924   5.153  1.00  0.00    -0.200 F 
ATOM     68  C   UNL     1      -3.383  10.607   6.729  1.00  0.00     0.200 A 
ATOM     69  F   UNL     1      -1.738  11.240   8.301  1.00  0.00    -0.200 F 
ATOM     70  F   UNL     1      -3.594  11.891   6.411  1.00  0.00    -0.200 F 
ENDBRANCH  46  60
BRANCH  47  71
ATOM     71  C   UNL     1      -0.789  -1.710   9.135  1.00  0.00     0.064 A 
ATOM     72  C   UNL     1      -1.795  -2.635   9.451  1.00  0.00     0.173 A 
ATOM     73  C   UNL     1       0.538  -2.168   9.145  1.00  0.00     0.173 A 
ATOM     74  F   UNL     1      -3.077  -2.244   9.486  1.00  0.00    -0.203 F 
ATOM     75  C   UNL     1      -1.485  -3.952   9.790  1.00  0.00     0.198 A 
ATOM     76  C   UNL     1       0.844  -3.493   9.452  1.00  0.00     0.198 A 
ATOM     77  F   UNL     1       1.542  -1.326   8.860  1.00  0.00    -0.203 F 
ATOM     78  F   UNL     1      -2.461  -4.796  10.148  1.00  0.00    -0.200 F 
ATOM     79  C   UNL     1      -0.166  -4.381   9.786  1.00  0.00     0.200 A 
ATOM     80  F   UNL     1       2.119  -3.904   9.437  1.00  0.00    -0.200 F 
ATOM     81  F   UNL     1       0.131  -5.645  10.116  1.00  0.00    -0.200 F 
ENDBRANCH  47  71
BRANCH  59  82
ATOM     82  C   UNL     1      -3.542   3.421  12.982  1.00  0.00     0.064 A 
ATOM     83  C   UNL     1      -2.679   3.359  14.086  1.00  0.00     0.173 A 
ATOM     84  C   UNL     1      -4.913   3.591  13.231  1.00  0.00     0.173 A 
ATOM     85  F   UNL     1      -1.361   3.184  13.905  1.00  0.00    -0.203 F 
ATOM     86  C   UNL     1      -3.172   3.439  15.386  1.00  0.00     0.198 A 
ATOM     87  C   UNL     1      -5.398   3.707  14.531  1.00  0.00     0.198 A 
ATOM     88  F   UNL     1      -5.782   3.667  12.212  1.00  0.00    -0.203 F 
ATOM     89  F   UNL     1      -2.335   3.328  16.427  1.00  0.00    -0.200 F 
ATOM     90  C   UNL     1      -4.529   3.623  15.607  1.00  0.00     0.200 A 
ATOM     91  F   UNL     1      -6.707   3.904  14.740  1.00  0.00    -0.200 F 
ATOM     92  F   UNL     1      -5.000   3.714  16.858  1.00  0.00    -0.200 F 
ENDBRANCH  59  82
ENDBRANCH  33  34
ENDBRANCH  26  28
ENDBRANCH  25  26
ENDBRANCH  24  25
ENDBRANCH   1  24
TORSDOF 15
