REMARK SMILES CS(=O)(=O)c1ccc(-c2cc(Cl)cnc2-c2ccc(C(=O)OCCOC(=O)c3ccc(-c4c5nc(c(-c6c(F)c(F)c(F)c(F)c6F)c6ccc([nH]6)c(-c6c(F)c(F)c(F)c(F)c6F)c6nc(c(-c7c(F)c(F)c(F)c(F)c7F)c7ccc4[nH]7)C=C6)C=C5)cc3)nc2)cc1
REMARK SMILES IDX 23 1 22 2 20 3 21 4 19 5 16 6 17 7 92 8 18 9 91 10 15 11
REMARK SMILES IDX 9 12 10 13 11 14 14 15 12 16 13 17 8 18 5 19 6 20 94 21 7 22
REMARK SMILES IDX 93 23 2 24 1 25 3 26 4 27 24 28 25 29 26 30 27 31 28 32
REMARK SMILES IDX 29 33 90 34 30 35 89 36 31 37 32 38 33 39 83 40 34 41 88 42
REMARK SMILES IDX 82 43 84 44 35 45 87 46 81 47 80 48 36 50 68 51 48 52 67 53
REMARK SMILES IDX 49 54 52 55 66 56 85 57 50 58 51 59 65 61 86 62 53 63 37 64
REMARK SMILES IDX 38 65 46 66 39 67 40 68 44 69 47 70 41 71 42 72 45 73 43 74
REMARK SMILES IDX 69 75 70 76 78 77 71 78 72 79 76 80 79 81 73 82 74 83 77 84
REMARK SMILES IDX 75 85 54 86 55 87 63 88 56 89 57 90 61 91 64 92 58 93 59 94
REMARK SMILES IDX 62 95 60 96
REMARK H PARENT 84 49 52 60
REMARK Flexibility Score: inf
ROOT
ATOM      1  C   UNL     1      -1.857  -1.876  -8.456  1.00  0.00     0.275 C 
ENDROOT
BRANCH   1   2
ATOM      2  O   UNL     1      -1.476  -0.582  -7.949  1.00  0.00    -0.457 OA
BRANCH   2   3
ATOM      3  C   UNL     1      -0.201  -0.501  -7.487  1.00  0.00     0.357 C 
ATOM      4  O   UNL     1       0.578  -1.438  -7.385  1.00  0.00    -0.244 OA
BRANCH   3   5
ATOM      5  C   UNL     1       0.184   0.919  -7.220  1.00  0.00     0.148 A 
ATOM      6  C   UNL     1       1.135   3.434  -6.620  1.00  0.00     0.019 A 
ATOM      7  C   UNL     1      -0.234   3.154  -6.496  1.00  0.00     0.014 A 
ATOM      8  C   UNL     1       1.942   2.427  -7.126  1.00  0.00     0.122 A 
ATOM      9  C   UNL     1      -0.725   1.883  -6.811  1.00  0.00     0.037 A 
ATOM     10  N   UNL     1       1.510   1.179  -7.376  1.00  0.00    -0.249 NA
BRANCH   6  11
ATOM     11  C   UNL     1       1.758   4.625  -6.042  1.00  0.00     0.080 A 
ATOM     12  C   UNL     1       2.080   4.678  -4.664  1.00  0.00     0.010 A 
ATOM     13  C   UNL     1       2.696   5.841  -4.191  1.00  0.00     0.033 A 
ATOM     14  C   UNL     1       2.996   6.870  -5.079  1.00  0.00     0.060 A 
ATOM     15  N   UNL     1       2.059   5.613  -6.921  1.00  0.00    -0.254 NA
ATOM     16  Cl  UNL     1       3.760   8.303  -4.523  1.00  0.00    -0.083 Cl
ATOM     17  C   UNL     1       2.673   6.711  -6.418  1.00  0.00     0.132 A 
BRANCH  12  18
ATOM     18  C   UNL     1       1.786   3.547  -3.765  1.00  0.00    -0.016 A 
ATOM     19  C   UNL     1       0.976   1.255  -2.367  1.00  0.00     0.067 A 
ATOM     20  C   UNL     1       2.095   1.192  -3.194  1.00  0.00     0.021 A 
ATOM     21  C   UNL     1       0.275   2.453  -2.203  1.00  0.00     0.021 A 
ATOM     22  C   UNL     1       2.509   2.343  -3.869  1.00  0.00     0.010 A 
ATOM     23  C   UNL     1       0.684   3.595  -2.897  1.00  0.00     0.010 A 
BRANCH  19  24
ATOM     24  S   UNL     1       0.372  -0.222  -1.585  1.00  0.00     0.175 S 
ATOM     25  C   UNL     1       1.022  -0.105   0.059  1.00  0.00     0.163 C 
ATOM     26  O   UNL     1       0.997  -1.357  -2.235  1.00  0.00    -0.224 OA
ATOM     27  O   UNL     1      -1.073  -0.108  -1.514  1.00  0.00    -0.224 OA
ENDBRANCH  19  24
ENDBRANCH  12  18
ENDBRANCH   6  11
ENDBRANCH   3   5
ENDBRANCH   2   3
ENDBRANCH   1   2
BRANCH   1  28
ATOM     28  C   UNL     1      -1.703  -1.949  -9.979  1.00  0.00     0.275 C 
BRANCH  28  29
ATOM     29  O   UNL     1      -0.320  -1.938 -10.388  1.00  0.00    -0.458 OA
BRANCH  29  30
ATOM     30  C   UNL     1       0.163  -0.729 -10.754  1.00  0.00     0.338 C 
ATOM     31  O   UNL     1      -0.445   0.329 -10.793  1.00  0.00    -0.246 OA
BRANCH  30  32
ATOM     32  C   UNL     1       1.605  -0.818 -11.035  1.00  0.00     0.060 A 
ATOM     33  C   UNL     1       2.483  -0.351 -10.063  1.00  0.00     0.016 A 
ATOM     34  C   UNL     1       2.094  -1.210 -12.279  1.00  0.00     0.016 A 
ATOM     35  C   UNL     1       3.837  -0.199 -10.332  1.00  0.00     0.010 A 
ATOM     36  C   UNL     1       3.472  -1.121 -12.534  1.00  0.00     0.010 A 
ATOM     37  C   UNL     1       4.352  -0.592 -11.570  1.00  0.00    -0.014 A 
BRANCH  37  38
ATOM     38  C   UNL     1       5.802  -0.407 -11.846  1.00  0.00     0.031 A 
ATOM     39  C   UNL     1       6.250   0.554 -12.912  1.00  0.00     0.074 A 
ATOM     40  C   UNL     1       6.718  -1.060 -11.104  1.00  0.00     0.049 A 
ATOM     41  N   UNL     1       7.453   0.767 -13.384  1.00  0.00    -0.248 NA
ATOM     42  C   UNL     1       5.207   1.388 -13.530  1.00  0.00     0.031 C 
ATOM     43  C   UNL     1       6.418  -1.967  -9.994  1.00  0.00     0.029 A 
ATOM     44  N   UNL     1       8.091  -1.058 -11.166  1.00  0.00    -0.354 N 
ATOM     45  C   UNL     1       7.308   1.736 -14.369  1.00  0.00     0.074 A 
ATOM     46  C   UNL     1       5.899   2.058 -14.442  1.00  0.00     0.031 C 
ATOM     47  C   UNL     1       7.568  -2.424  -9.475  1.00  0.00     0.029 A 
ATOM     48  C   UNL     1       8.683  -1.902 -10.257  1.00  0.00     0.049 A 
ATOM     49  H   UNL     1       8.601  -0.505 -11.801  1.00  0.00     0.167 HD
ATOM     50  C   UNL     1       8.267   2.308 -15.136  1.00  0.00     0.037 A 
ATOM     51  C   UNL     1       9.974  -2.250 -10.100  1.00  0.00     0.037 A 
ATOM     52  C   UNL     1       9.672   2.002 -15.043  1.00  0.00     0.049 A 
ATOM     53  C   UNL     1      11.008  -1.652 -11.015  1.00  0.00     0.074 A 
ATOM     54  C   UNL     1      10.718   2.507 -15.795  1.00  0.00     0.029 A 
ATOM     55  N   UNL     1      10.227   1.119 -14.128  1.00  0.00    -0.354 N 
ATOM     56  N   UNL     1      10.856  -0.773 -11.975  1.00  0.00    -0.248 NA
ATOM     57  C   UNL     1      12.395  -2.102 -10.830  1.00  0.00     0.031 C 
ATOM     58  C   UNL     1      11.903   1.906 -15.358  1.00  0.00     0.029 A 
ATOM     59  C   UNL     1      11.601   1.061 -14.303  1.00  0.00     0.049 A 
ATOM     60  H   UNL     1       9.721   0.610 -13.455  1.00  0.00     0.167 HD
ATOM     61  C   UNL     1      12.125  -0.548 -12.491  1.00  0.00     0.074 A 
ATOM     62  C   UNL     1      13.040  -1.366 -11.723  1.00  0.00     0.031 C 
ATOM     63  C   UNL     1      12.498   0.258 -13.514  1.00  0.00     0.037 A 
BRANCH  50  64
ATOM     64  C   UNL     1       7.834   3.314 -16.162  1.00  0.00     0.064 A 
ATOM     65  C   UNL     1       7.420   4.603 -15.799  1.00  0.00     0.173 A 
ATOM     66  C   UNL     1       7.894   3.004 -17.529  1.00  0.00     0.173 A 
ATOM     67  F   UNL     1       7.335   4.945 -14.504  1.00  0.00    -0.203 F 
ATOM     68  C   UNL     1       7.067   5.541 -16.766  1.00  0.00     0.198 A 
ATOM     69  C   UNL     1       7.566   3.952 -18.495  1.00  0.00     0.198 A 
ATOM     70  F   UNL     1       8.290   1.787 -17.931  1.00  0.00    -0.203 F 
ATOM     71  F   UNL     1       6.644   6.758 -16.395  1.00  0.00    -0.200 F 
ATOM     72  C   UNL     1       7.149   5.218 -18.113  1.00  0.00     0.200 A 
ATOM     73  F   UNL     1       7.660   3.643 -19.796  1.00  0.00    -0.200 F 
ATOM     74  F   UNL     1       6.825   6.127 -19.043  1.00  0.00    -0.200 F 
ENDBRANCH  50  64
BRANCH  51  75
ATOM     75  C   UNL     1      10.361  -3.252  -9.071  1.00  0.00     0.064 A 
ATOM     76  C   UNL     1      11.171  -2.901  -7.983  1.00  0.00     0.173 A 
ATOM     77  C   UNL     1       9.961  -4.593  -9.178  1.00  0.00     0.173 A 
ATOM     78  F   UNL     1      11.603  -1.638  -7.850  1.00  0.00    -0.203 F 
ATOM     79  C   UNL     1      11.591  -3.857  -7.059  1.00  0.00     0.198 A 
ATOM     80  C   UNL     1      10.351  -5.541  -8.235  1.00  0.00     0.198 A 
ATOM     81  F   UNL     1       9.188  -4.985 -10.202  1.00  0.00    -0.203 F 
ATOM     82  F   UNL     1      12.418  -3.506  -6.065  1.00  0.00    -0.200 F 
ATOM     83  C   UNL     1      11.176  -5.174  -7.183  1.00  0.00     0.200 A 
ATOM     84  F   UNL     1       9.938  -6.810  -8.353  1.00  0.00    -0.200 F 
ATOM     85  F   UNL     1      11.584  -6.094  -6.298  1.00  0.00    -0.200 F 
ENDBRANCH  51  75
BRANCH  63  86
ATOM     86  C   UNL     1      13.963   0.331 -13.829  1.00  0.00     0.064 A 
ATOM     87  C   UNL     1      14.639  -0.733 -14.445  1.00  0.00     0.173 A 
ATOM     88  C   UNL     1      14.693   1.493 -13.535  1.00  0.00     0.173 A 
ATOM     89  F   UNL     1      13.988  -1.871 -14.729  1.00  0.00    -0.203 F 
ATOM     90  C   UNL     1      15.998  -0.645 -14.731  1.00  0.00     0.198 A 
ATOM     91  C   UNL     1      16.045   1.588 -13.850  1.00  0.00     0.198 A 
ATOM     92  F   UNL     1      14.092   2.540 -12.951  1.00  0.00    -0.203 F 
ATOM     93  F   UNL     1      16.635  -1.692 -15.274  1.00  0.00    -0.200 F 
ATOM     94  C   UNL     1      16.698   0.516 -14.440  1.00  0.00     0.200 A 
ATOM     95  F   UNL     1      16.718   2.715 -13.579  1.00  0.00    -0.200 F 
ATOM     96  F   UNL     1      18.006   0.600 -14.721  1.00  0.00    -0.200 F 
ENDBRANCH  63  86
ENDBRANCH  37  38
ENDBRANCH  30  32
ENDBRANCH  29  30
ENDBRANCH  28  29
ENDBRANCH   1  28
TORSDOF 14
