REMARK SMILES C[C@@H]1CN(C(=O)C[NH+]2CCC(CC(=O)OCCOC(=O)c3ccc(-c4c5nc(c(-c6c(F)c(F)c(F)c(F)c6F)c6ccc([nH]6)c(-c6c(F)c(F)c(F)c(F)c6F)c6nc(c(-c7c(F)c(F)c(F)c(F)c7F)c7ccc4[nH]7)C=C6)C=C5)cc3)CC2)C[C@@H](C)O1
REMARK SMILES IDX 16 1 15 2 13 3 14 4 12 5 11 6 8 7 9 8 85 9 10 11 84 12 7 13
REMARK SMILES IDX 5 14 1 15 2 16 3 17 89 18 4 19 87 20 86 21 88 22 6 23 17 24
REMARK SMILES IDX 18 25 19 26 20 27 21 28 22 29 83 30 23 31 82 32 24 33 25 34
REMARK SMILES IDX 26 35 76 36 27 37 81 38 75 39 77 40 28 41 80 42 74 43 73 44
REMARK SMILES IDX 29 46 61 47 41 48 60 49 42 50 45 51 59 52 78 53 43 54 44 55
REMARK SMILES IDX 58 57 79 58 46 59 30 60 31 61 39 62 32 63 33 64 37 65 40 66
REMARK SMILES IDX 34 67 35 68 38 69 36 70 62 71 63 72 71 73 64 74 65 75 69 76
REMARK SMILES IDX 72 77 66 78 67 79 70 80 68 81 47 82 48 83 56 84 49 85 50 86
REMARK SMILES IDX 54 87 57 88 51 89 52 90 55 91 53 92
REMARK H PARENT 8 10 77 45 45 56
REMARK Flexibility Score: inf
ROOT
ATOM      1  C   UNL     1      -4.018  -1.279  -3.268  1.00  0.00     0.274 C 
ENDROOT
BRANCH   1   2
ATOM      2  O   UNL     1      -3.380  -1.240  -1.981  1.00  0.00    -0.462 OA
BRANCH   2   3
ATOM      3  C   UNL     1      -2.034  -1.102  -2.019  1.00  0.00     0.306 C 
ATOM      4  O   UNL     1      -1.310  -1.356  -2.975  1.00  0.00    -0.252 OA
BRANCH   3   5
ATOM      5  C   UNL     1      -1.522  -0.424  -0.776  1.00  0.00     0.126 C 
BRANCH   5   6
ATOM      6  C   UNL     1      -1.577  -1.177   0.564  1.00  0.00     0.011 C 
ATOM      7  N   UNL     1       0.109  -3.216   1.913  1.00  0.00    -0.327 N 
ATOM      8  C   UNL     1       0.338  -1.828   2.268  1.00  0.00     0.262 C 
ATOM      9  C   UNL     1      -1.315  -3.453   1.664  1.00  0.00     0.262 C 
ATOM     10  H   UNL     1       0.444  -3.685   2.754  1.00  0.00     0.348 HD
ATOM     11  C   UNL     1      -0.347  -0.764   1.410  1.00  0.00     0.066 C 
ATOM     12  C   UNL     1      -1.800  -2.687   0.435  1.00  0.00     0.066 C 
BRANCH   7  13
ATOM     13  C   UNL     1       0.954  -3.890   0.909  1.00  0.00     0.363 C 
BRANCH  13  14
ATOM     14  C   UNL     1       2.400  -3.411   0.701  1.00  0.00     0.277 C 
ATOM     15  C   UNL     1       2.606   0.307  -0.799  1.00  0.00     0.040 C 
ATOM     16  C   UNL     1       2.285  -0.747  -1.860  1.00  0.00     0.135 C 
ATOM     17  C   UNL     1       1.697  -2.059  -1.313  1.00  0.00     0.151 C 
ATOM     18  O   UNL     1       3.447  -1.035  -2.646  1.00  0.00    -0.372 OA
ATOM     19  N   UNL     1       2.675  -2.780  -0.512  1.00  0.00    -0.333 N 
ATOM     20  C   UNL     1       4.476  -1.728  -1.914  1.00  0.00     0.135 C 
ATOM     21  C   UNL     1       3.958  -2.984  -1.182  1.00  0.00     0.151 C 
ATOM     22  C   UNL     1       5.525  -2.099  -2.956  1.00  0.00     0.040 C 
ATOM     23  O   UNL     1       3.296  -3.702   1.495  1.00  0.00    -0.268 OA
ENDBRANCH  13  14
ENDBRANCH   7  13
ENDBRANCH   5   6
ENDBRANCH   3   5
ENDBRANCH   2   3
ENDBRANCH   1   2
BRANCH   1  24
ATOM     24  C   UNL     1      -4.532   0.124  -3.589  1.00  0.00     0.275 C 
BRANCH  24  25
ATOM     25  O   UNL     1      -3.430   1.052  -3.722  1.00  0.00    -0.458 OA
BRANCH  25  26
ATOM     26  C   UNL     1      -3.273   1.915  -2.691  1.00  0.00     0.338 C 
ATOM     27  O   UNL     1      -3.937   1.977  -1.670  1.00  0.00    -0.246 OA
BRANCH  26  28
ATOM     28  C   UNL     1      -2.172   2.856  -2.956  1.00  0.00     0.060 A 
ATOM     29  C   UNL     1      -0.836   2.443  -2.999  1.00  0.00     0.016 A 
ATOM     30  C   UNL     1      -2.493   4.212  -3.019  1.00  0.00     0.016 A 
ATOM     31  C   UNL     1       0.185   3.402  -3.056  1.00  0.00     0.010 A 
ATOM     32  C   UNL     1      -1.477   5.159  -3.141  1.00  0.00     0.010 A 
ATOM     33  C   UNL     1      -0.126   4.771  -3.131  1.00  0.00    -0.014 A 
BRANCH  33  34
ATOM     34  C   UNL     1       0.915   5.836  -3.183  1.00  0.00     0.031 A 
ATOM     35  C   UNL     1       0.974   6.881  -2.099  1.00  0.00     0.074 A 
ATOM     36  C   UNL     1       1.738   5.941  -4.242  1.00  0.00     0.049 A 
ATOM     37  N   UNL     1       1.588   8.038  -2.087  1.00  0.00    -0.248 NA
ATOM     38  C   UNL     1       0.220   6.588  -0.871  1.00  0.00     0.031 C 
ATOM     39  C   UNL     1       1.823   4.991  -5.349  1.00  0.00     0.029 A 
ATOM     40  N   UNL     1       2.642   6.923  -4.573  1.00  0.00    -0.354 N 
ATOM     41  C   UNL     1       1.255   8.632  -0.876  1.00  0.00     0.074 A 
ATOM     42  C   UNL     1       0.380   7.709  -0.182  1.00  0.00     0.031 C 
ATOM     43  C   UNL     1       2.725   5.436  -6.239  1.00  0.00     0.029 A 
ATOM     44  C   UNL     1       3.227   6.735  -5.800  1.00  0.00     0.049 A 
ATOM     45  H   UNL     1       2.849   7.687  -3.987  1.00  0.00     0.167 HD
ATOM     46  C   UNL     1       1.640   9.838  -0.390  1.00  0.00     0.037 A 
ATOM     47  C   UNL     1       4.038   7.536  -6.517  1.00  0.00     0.037 A 
ATOM     48  C   UNL     1       2.540  10.740  -1.062  1.00  0.00     0.049 A 
ATOM     49  C   UNL     1       4.415   8.890  -5.982  1.00  0.00     0.074 A 
ATOM     50  C   UNL     1       3.019  11.966  -0.630  1.00  0.00     0.029 A 
ATOM     51  N   UNL     1       3.104  10.510  -2.308  1.00  0.00    -0.354 N 
ATOM     52  N   UNL     1       4.075   9.458  -4.852  1.00  0.00    -0.248 NA
ATOM     53  C   UNL     1       5.278   9.721  -6.836  1.00  0.00     0.031 C 
ATOM     54  C   UNL     1       3.841  12.495  -1.631  1.00  0.00     0.029 A 
ATOM     55  C   UNL     1       3.910  11.579  -2.668  1.00  0.00     0.049 A 
ATOM     56  H   UNL     1       2.954   9.706  -2.856  1.00  0.00     0.167 HD
ATOM     57  C   UNL     1       4.696  10.700  -4.847  1.00  0.00     0.074 A 
ATOM     58  C   UNL     1       5.442  10.800  -6.084  1.00  0.00     0.031 C 
ATOM     59  C   UNL     1       4.651  11.669  -3.900  1.00  0.00     0.037 A 
BRANCH  46  60
ATOM     60  C   UNL     1       1.062  10.270   0.927  1.00  0.00     0.064 A 
ATOM     61  C   UNL     1       1.451   9.679   2.138  1.00  0.00     0.173 A 
ATOM     62  C   UNL     1       0.125  11.314   0.979  1.00  0.00     0.173 A 
ATOM     63  F   UNL     1       2.335   8.670   2.143  1.00  0.00    -0.203 F 
ATOM     64  C   UNL     1       0.899  10.095   3.348  1.00  0.00     0.198 A 
ATOM     65  C   UNL     1      -0.403  11.747   2.193  1.00  0.00     0.198 A 
ATOM     66  F   UNL     1      -0.275  11.920  -0.149  1.00  0.00    -0.203 F 
ATOM     67  F   UNL     1       1.248   9.481   4.487  1.00  0.00    -0.200 F 
ATOM     68  C   UNL     1      -0.022  11.131   3.375  1.00  0.00     0.200 A 
ATOM     69  F   UNL     1      -1.284  12.756   2.217  1.00  0.00    -0.200 F 
ATOM     70  F   UNL     1      -0.550  11.531   4.540  1.00  0.00    -0.200 F 
ENDBRANCH  46  60
BRANCH  47  71
ATOM     71  C   UNL     1       4.536   7.078  -7.839  1.00  0.00     0.064 A 
ATOM     72  C   UNL     1       5.878   6.715  -8.009  1.00  0.00     0.173 A 
ATOM     73  C   UNL     1       3.683   6.974  -8.947  1.00  0.00     0.173 A 
ATOM     74  F   UNL     1       6.736   6.826  -6.984  1.00  0.00    -0.203 F 
ATOM     75  C   UNL     1       6.350   6.266  -9.239  1.00  0.00     0.198 A 
ATOM     76  C   UNL     1       4.150   6.500 -10.171  1.00  0.00     0.198 A 
ATOM     77  F   UNL     1       2.390   7.313  -8.834  1.00  0.00    -0.203 F 
ATOM     78  F   UNL     1       7.645   5.954  -9.384  1.00  0.00    -0.200 F 
ATOM     79  C   UNL     1       5.484   6.150 -10.317  1.00  0.00     0.200 A 
ATOM     80  F   UNL     1       3.308   6.379 -11.206  1.00  0.00    -0.200 F 
ATOM     81  F   UNL     1       5.936   5.705 -11.497  1.00  0.00    -0.200 F 
ENDBRANCH  47  71
BRANCH  59  82
ATOM     82  C   UNL     1       5.460  12.909  -4.146  1.00  0.00     0.064 A 
ATOM     83  C   UNL     1       5.061  13.874  -5.082  1.00  0.00     0.173 A 
ATOM     84  C   UNL     1       6.633  13.147  -3.415  1.00  0.00     0.173 A 
ATOM     85  F   UNL     1       3.956  13.683  -5.819  1.00  0.00    -0.203 F 
ATOM     86  C   UNL     1       5.820  15.023  -5.293  1.00  0.00     0.198 A 
ATOM     87  C   UNL     1       7.376  14.309  -3.610  1.00  0.00     0.198 A 
ATOM     88  F   UNL     1       7.056  12.257  -2.505  1.00  0.00    -0.203 F 
ATOM     89  F   UNL     1       5.443  15.912  -6.222  1.00  0.00    -0.200 F 
ATOM     90  C   UNL     1       6.972  15.242  -4.553  1.00  0.00     0.200 A 
ATOM     91  F   UNL     1       8.484  14.523  -2.888  1.00  0.00    -0.200 F 
ATOM     92  F   UNL     1       7.699  16.350  -4.754  1.00  0.00    -0.200 F 
ENDBRANCH  59  82
ENDBRANCH  33  34
ENDBRANCH  26  28
ENDBRANCH  25  26
ENDBRANCH  24  25
ENDBRANCH   1  24
TORSDOF 14
