REMARK SMILES Cc1cc(OCCc2nc(CC(=O)OCCOC(=O)c3ccc(-c4c5nc(c(-c6c(F)c(F)c(F)c(F)c6F)c6ccc([nH]6)c(-c6c(F)c(F)c(F)c(F)c6F)c6nc(c(-c7c(F)c(F)c(F)c(F)c7F)c7ccc4[nH]7)C=C6)C=C5)cc3)cs2)ccc1Cl
REMARK SMILES IDX 14 1 12 2 13 3 11 4 10 5 8 6 9 7 84 8 83 9 7 10 6 11 5 12
REMARK SMILES IDX 4 13 1 14 2 15 3 16 87 17 86 18 88 19 85 20 15 21 16 22
REMARK SMILES IDX 17 23 18 24 19 25 20 26 21 27 82 28 22 29 81 30 23 31 24 32
REMARK SMILES IDX 25 33 75 34 26 35 80 36 74 37 76 38 27 39 79 40 73 41 72 42
REMARK SMILES IDX 28 44 60 45 40 46 59 47 41 48 44 49 58 50 77 51 42 52 43 53
REMARK SMILES IDX 57 55 78 56 45 57 29 58 30 59 38 60 31 61 32 62 36 63 39 64
REMARK SMILES IDX 33 65 34 66 37 67 35 68 61 69 62 70 70 71 63 72 64 73 68 74
REMARK SMILES IDX 71 75 65 76 66 77 69 78 67 79 46 80 47 81 55 82 48 83 49 84
REMARK SMILES IDX 53 85 56 86 50 87 51 88 54 89 52 90
REMARK H PARENT 76 43 44 54
REMARK Flexibility Score: inf
ROOT
ATOM      1  O   UNL     1       1.685   1.119  -0.488  1.00  0.00    -0.462 OA
ENDROOT
BRANCH   1   2
ATOM      2  C   UNL     1       1.745   0.175   0.486  1.00  0.00     0.312 C 
ATOM      3  O   UNL     1       2.615  -0.694   0.529  1.00  0.00    -0.252 OA
BRANCH   2   4
ATOM      4  C   UNL     1       0.701   0.265   1.577  1.00  0.00     0.179 C 
BRANCH   4   5
ATOM      5  C   UNL     1      -0.347   1.335   1.552  1.00  0.00     0.063 A 
ATOM      6  C   UNL     1      -2.489   1.954   1.771  1.00  0.00     0.096 A 
ATOM      7  N   UNL     1      -1.659   0.932   1.784  1.00  0.00    -0.246 NA
ATOM      8  S   UNL     1      -1.736   3.484   1.578  1.00  0.00    -0.127 S 
ATOM      9  C   UNL     1      -0.207   2.708   1.501  1.00  0.00     0.091 A 
BRANCH   6  10
ATOM     10  C   UNL     1      -3.974   1.842   1.970  1.00  0.00     0.109 C 
BRANCH  10  11
ATOM     11  C   UNL     1      -4.756   1.467   0.707  1.00  0.00     0.237 C 
BRANCH  11  12
ATOM     12  O   UNL     1      -4.600   0.096   0.320  1.00  0.00    -0.493 OA
BRANCH  12  13
ATOM     13  C   UNL     1      -3.477  -0.227  -0.390  1.00  0.00     0.119 A 
ATOM     14  C   UNL     1      -0.794   1.360  -2.517  1.00  0.00     0.046 C 
ATOM     15  C   UNL     1      -1.564   0.274  -1.820  1.00  0.00    -0.029 A 
ATOM     16  C   UNL     1      -2.779   0.648  -1.222  1.00  0.00     0.051 A 
ATOM     17  C   UNL     1      -1.101  -1.034  -1.626  1.00  0.00     0.044 A 
ATOM     18  C   UNL     1      -1.818  -1.928  -0.826  1.00  0.00     0.024 A 
ATOM     19  Cl  UNL     1       0.343  -1.628  -2.356  1.00  0.00    -0.084 Cl
ATOM     20  C   UNL     1      -3.003  -1.525  -0.210  1.00  0.00     0.048 A 
ENDBRANCH  12  13
ENDBRANCH  11  12
ENDBRANCH  10  11
ENDBRANCH   6  10
ENDBRANCH   4   5
ENDBRANCH   2   4
ENDBRANCH   1   2
BRANCH   1  21
ATOM     21  C   UNL     1       2.647   0.981  -1.567  1.00  0.00     0.274 C 
BRANCH  21  22
ATOM     22  C   UNL     1       3.082   2.347  -2.101  1.00  0.00     0.275 C 
BRANCH  22  23
ATOM     23  O   UNL     1       3.928   2.965  -1.123  1.00  0.00    -0.458 OA
BRANCH  23  24
ATOM     24  C   UNL     1       3.266   3.725  -0.225  1.00  0.00     0.338 C 
ATOM     25  O   UNL     1       2.147   4.193  -0.307  1.00  0.00    -0.246 OA
BRANCH  24  26
ATOM     26  C   UNL     1       4.031   3.652   1.021  1.00  0.00     0.060 A 
ATOM     27  C   UNL     1       3.542   2.818   2.030  1.00  0.00     0.016 A 
ATOM     28  C   UNL     1       5.204   4.380   1.190  1.00  0.00     0.016 A 
ATOM     29  C   UNL     1       4.207   2.718   3.238  1.00  0.00     0.010 A 
ATOM     30  C   UNL     1       5.880   4.277   2.403  1.00  0.00     0.010 A 
ATOM     31  C   UNL     1       5.373   3.459   3.432  1.00  0.00    -0.014 A 
BRANCH  31  32
ATOM     32  C   UNL     1       6.007   3.471   4.760  1.00  0.00     0.031 A 
ATOM     33  C   UNL     1       5.833   4.684   5.617  1.00  0.00     0.074 A 
ATOM     34  C   UNL     1       6.709   2.405   5.178  1.00  0.00     0.049 A 
ATOM     35  N   UNL     1       6.441   5.012   6.724  1.00  0.00    -0.248 NA
ATOM     36  C   UNL     1       4.842   5.670   5.154  1.00  0.00     0.031 C 
ATOM     37  C   UNL     1       6.850   1.146   4.446  1.00  0.00     0.029 A 
ATOM     38  N   UNL     1       7.445   2.219   6.317  1.00  0.00    -0.354 N 
ATOM     39  C   UNL     1       5.936   6.258   7.070  1.00  0.00     0.074 A 
ATOM     40  C   UNL     1       4.976   6.631   6.054  1.00  0.00     0.031 C 
ATOM     41  C   UNL     1       7.643   0.321   5.149  1.00  0.00     0.029 A 
ATOM     42  C   UNL     1       8.111   1.020   6.342  1.00  0.00     0.049 A 
ATOM     43  H   UNL     1       7.493   2.880   7.045  1.00  0.00     0.167 HD
ATOM     44  C   UNL     1       6.261   7.017   8.141  1.00  0.00     0.037 A 
ATOM     45  C   UNL     1       9.032   0.568   7.212  1.00  0.00     0.037 A 
ATOM     46  C   UNL     1       7.215   6.608   9.138  1.00  0.00     0.049 A 
ATOM     47  C   UNL     1       9.429   1.461   8.357  1.00  0.00     0.074 A 
ATOM     48  C   UNL     1       7.643   7.292  10.260  1.00  0.00     0.029 A 
ATOM     49  N   UNL     1       7.888   5.392   9.126  1.00  0.00    -0.354 N 
ATOM     50  N   UNL     1       8.990   2.659   8.664  1.00  0.00    -0.248 NA
ATOM     51  C   UNL     1      10.455   0.945   9.271  1.00  0.00     0.031 C 
ATOM     52  C   UNL     1       8.606   6.507  10.904  1.00  0.00     0.029 A 
ATOM     53  C   UNL     1       8.739   5.311  10.214  1.00  0.00     0.049 A 
ATOM     54  H   UNL     1       7.775   4.691   8.444  1.00  0.00     0.167 HD
ATOM     55  C   UNL     1       9.666   3.032   9.817  1.00  0.00     0.074 A 
ATOM     56  C   UNL     1      10.535   1.924  10.162  1.00  0.00     0.031 C 
ATOM     57  C   UNL     1       9.582   4.184  10.528  1.00  0.00     0.037 A 
BRANCH  44  58
ATOM     58  C   UNL     1       5.624   8.370   8.247  1.00  0.00     0.064 A 
ATOM     59  C   UNL     1       4.260   8.530   8.538  1.00  0.00     0.173 A 
ATOM     60  C   UNL     1       6.390   9.528   8.046  1.00  0.00     0.173 A 
ATOM     61  F   UNL     1       3.477   7.455   8.715  1.00  0.00    -0.203 F 
ATOM     62  C   UNL     1       3.683   9.796   8.595  1.00  0.00     0.198 A 
ATOM     63  C   UNL     1       5.816  10.794   8.133  1.00  0.00     0.198 A 
ATOM     64  F   UNL     1       7.697   9.433   7.760  1.00  0.00    -0.203 F 
ATOM     65  F   UNL     1       2.367   9.922   8.817  1.00  0.00    -0.200 F 
ATOM     66  C   UNL     1       4.462  10.927   8.398  1.00  0.00     0.200 A 
ATOM     67  F   UNL     1       6.572  11.885   7.949  1.00  0.00    -0.200 F 
ATOM     68  F   UNL     1       3.904  12.144   8.452  1.00  0.00    -0.200 F 
ENDBRANCH  44  58
BRANCH  45  69
ATOM     69  C   UNL     1       9.658  -0.764   7.011  1.00  0.00     0.064 A 
ATOM     70  C   UNL     1       9.422  -1.815   7.907  1.00  0.00     0.173 A 
ATOM     71  C   UNL     1      10.504  -1.017   5.920  1.00  0.00     0.173 A 
ATOM     72  F   UNL     1       8.639  -1.619   8.978  1.00  0.00    -0.203 F 
ATOM     73  C   UNL     1      10.019  -3.062   7.728  1.00  0.00     0.198 A 
ATOM     74  C   UNL     1      11.076  -2.272   5.725  1.00  0.00     0.198 A 
ATOM     75  F   UNL     1      10.765  -0.045   5.033  1.00  0.00    -0.203 F 
ATOM     76  F   UNL     1       9.810  -4.037   8.624  1.00  0.00    -0.200 F 
ATOM     77  C   UNL     1      10.839  -3.292   6.634  1.00  0.00     0.200 A 
ATOM     78  F   UNL     1      11.858  -2.492   4.660  1.00  0.00    -0.200 F 
ATOM     79  F   UNL     1      11.408  -4.492   6.460  1.00  0.00    -0.200 F 
ENDBRANCH  45  69
BRANCH  57  80
ATOM     80  C   UNL     1      10.418   4.277  11.769  1.00  0.00     0.064 A 
ATOM     81  C   UNL     1      11.809   4.442  11.709  1.00  0.00     0.173 A 
ATOM     82  C   UNL     1       9.810   4.238  13.033  1.00  0.00     0.173 A 
ATOM     83  F   UNL     1      12.435   4.469  10.523  1.00  0.00    -0.203 F 
ATOM     84  C   UNL     1      12.566   4.538  12.873  1.00  0.00     0.198 A 
ATOM     85  C   UNL     1      10.566   4.366  14.193  1.00  0.00     0.198 A 
ATOM     86  F   UNL     1       8.482   4.089  13.140  1.00  0.00    -0.203 F 
ATOM     87  F   UNL     1      13.899   4.646  12.796  1.00  0.00    -0.200 F 
ATOM     88  C   UNL     1      11.944   4.508  14.113  1.00  0.00     0.200 A 
ATOM     89  F   UNL     1       9.962   4.351  15.389  1.00  0.00    -0.200 F 
ATOM     90  F   UNL     1      12.673   4.608  15.232  1.00  0.00    -0.200 F 
ENDBRANCH  57  80
ENDBRANCH  31  32
ENDBRANCH  24  26
ENDBRANCH  23  24
ENDBRANCH  22  23
ENDBRANCH  21  22
ENDBRANCH   1  21
TORSDOF 16
