REMARK SMILES C[C@H](CNC(=O)Cn1cccc1C(=O)OCCOC(=O)c1ccc(-c2c3nc(c(-c4c(F)c(F)c(F)c(F)c4F)c4ccc([nH]4)c(-c4c(F)c(F)c(F)c(F)c4F)c4nc(c(-c5c(F)c(F)c(F)c(F)c5F)c5ccc2[nH]5)C=C4)C=C3)cc1)[NH+](C)C
REMARK SMILES IDX 15 1 13 2 14 3 12 4 8 5 9 6 10 7 11 8 7 9 5 10 4 11 6 13
REMARK SMILES IDX 3 14 2 15 1 16 84 17 85 18 86 19 16 21 17 22 18 23 19 24
REMARK SMILES IDX 20 25 21 26 22 27 83 28 23 29 82 30 24 31 25 32 26 33 76 34
REMARK SMILES IDX 27 35 81 36 75 37 77 38 28 39 80 40 74 41 73 42 29 44 61 45
REMARK SMILES IDX 41 46 60 47 42 48 45 49 59 50 78 51 43 52 44 53 58 55 79 56
REMARK SMILES IDX 46 57 30 58 31 59 39 60 32 61 33 62 37 63 40 64 34 65 35 66
REMARK SMILES IDX 38 67 36 68 62 69 63 70 71 71 64 72 65 73 69 74 72 75 66 76
REMARK SMILES IDX 67 77 70 78 68 79 47 80 48 81 56 82 49 83 50 84 54 85 57 86
REMARK SMILES IDX 51 87 52 88 55 89 53 90
REMARK H PARENT 4 12 84 20 77 43 45 54
REMARK Flexibility Score: inf
ROOT
ATOM      1  O   UNL     1       2.672   0.619   3.228  1.00  0.00    -0.457 OA
ENDROOT
BRANCH   1   2
ATOM      2  C   UNL     1       2.054   1.690   2.642  1.00  0.00     0.355 C 
ATOM      3  O   UNL     1       1.159   2.327   3.158  1.00  0.00    -0.244 OA
BRANCH   2   4
ATOM      4  C   UNL     1       2.675   2.024   1.360  1.00  0.00     0.128 A 
ATOM      5  N   UNL     1       3.491   1.254   0.547  1.00  0.00    -0.333 N 
ATOM      6  C   UNL     1       3.894   1.992  -0.546  1.00  0.00     0.087 A 
ATOM      7  C   UNL     1       3.276   3.217  -0.495  1.00  0.00     0.020 A 
ATOM      8  C   UNL     1       2.503   3.232   0.685  1.00  0.00     0.035 A 
BRANCH   5   9
ATOM      9  C   UNL     1       3.872  -0.139   0.718  1.00  0.00     0.222 C 
BRANCH   9  10
ATOM     10  C   UNL     1       3.345  -1.061  -0.358  1.00  0.00     0.240 C 
ATOM     11  N   UNL     1       2.011  -1.191  -0.600  1.00  0.00    -0.349 N 
ATOM     12  H   UNL     1       1.780  -1.934  -1.204  1.00  0.00     0.163 HD
ATOM     13  O   UNL     1       4.111  -1.797  -0.987  1.00  0.00    -0.273 OA
BRANCH  11  14
ATOM     14  C   UNL     1       0.865  -0.427  -0.125  1.00  0.00     0.180 C 
BRANCH  14  15
ATOM     15  C   UNL     1       0.321   0.640  -1.139  1.00  0.00     0.199 C 
ATOM     16  C   UNL     1       0.914   0.485  -2.550  1.00  0.00     0.077 C 
BRANCH  15  17
ATOM     17  N   UNL     1      -1.162   0.749  -1.101  1.00  0.00    -0.336 N 
ATOM     18  C   UNL     1      -1.657   1.904  -1.859  1.00  0.00     0.332 C 
ATOM     19  C   UNL     1      -1.866  -0.457  -1.537  1.00  0.00     0.332 C 
ATOM     20  H   UNL     1      -1.373   0.879  -0.112  1.00  0.00     0.347 HD
ENDBRANCH  15  17
ENDBRANCH  14  15
ENDBRANCH  11  14
ENDBRANCH   9  10
ENDBRANCH   5   9
ENDBRANCH   2   4
ENDBRANCH   1   2
BRANCH   1  21
ATOM     21  C   UNL     1       2.331   0.306   4.595  1.00  0.00     0.275 C 
BRANCH  21  22
ATOM     22  C   UNL     1       3.234   1.022   5.596  1.00  0.00     0.275 C 
BRANCH  22  23
ATOM     23  O   UNL     1       3.005   2.425   5.531  1.00  0.00    -0.458 OA
BRANCH  23  24
ATOM     24  C   UNL     1       3.760   3.015   4.583  1.00  0.00     0.338 C 
ATOM     25  O   UNL     1       4.567   2.478   3.837  1.00  0.00    -0.246 OA
BRANCH  24  26
ATOM     26  C   UNL     1       3.619   4.468   4.653  1.00  0.00     0.060 A 
ATOM     27  C   UNL     1       4.128   5.102   3.515  1.00  0.00     0.016 A 
ATOM     28  C   UNL     1       3.821   4.952   5.950  1.00  0.00     0.016 A 
ATOM     29  C   UNL     1       5.154   5.989   3.696  1.00  0.00     0.010 A 
ATOM     30  C   UNL     1       4.868   5.816   6.139  1.00  0.00     0.010 A 
ATOM     31  C   UNL     1       5.552   6.278   5.007  1.00  0.00    -0.014 A 
BRANCH  31  32
ATOM     32  C   UNL     1       6.538   7.334   5.165  1.00  0.00     0.031 A 
ATOM     33  C   UNL     1       5.769   8.694   5.080  1.00  0.00     0.074 A 
ATOM     34  C   UNL     1       7.827   6.881   5.308  1.00  0.00     0.049 A 
ATOM     35  N   UNL     1       6.199   9.896   4.862  1.00  0.00    -0.248 NA
ATOM     36  C   UNL     1       4.273   8.716   5.232  1.00  0.00     0.031 C 
ATOM     37  C   UNL     1       8.271   5.457   5.372  1.00  0.00     0.029 A 
ATOM     38  N   UNL     1       9.040   7.516   5.412  1.00  0.00    -0.354 N 
ATOM     39  C   UNL     1       5.125  10.794   5.085  1.00  0.00     0.074 A 
ATOM     40  C   UNL     1       3.945  10.007   5.211  1.00  0.00     0.031 C 
ATOM     41  C   UNL     1       9.625   5.359   5.386  1.00  0.00     0.029 A 
ATOM     42  C   UNL     1      10.202   6.688   5.353  1.00  0.00     0.049 A 
ATOM     43  H   UNL     1       9.106   8.492   5.522  1.00  0.00     0.167 HD
ATOM     44  C   UNL     1       5.310  12.133   5.268  1.00  0.00     0.037 A 
ATOM     45  C   UNL     1      11.511   7.089   5.220  1.00  0.00     0.037 A 
ATOM     46  C   UNL     1       6.680  12.450   5.059  1.00  0.00     0.049 A 
ATOM     47  C   UNL     1      11.414   8.550   5.330  1.00  0.00     0.074 A 
ATOM     48  C   UNL     1       7.396  12.542   3.896  1.00  0.00     0.029 A 
ATOM     49  N   UNL     1       7.538  12.257   6.113  1.00  0.00    -0.354 N 
ATOM     50  N   UNL     1      11.130   9.185   6.427  1.00  0.00    -0.248 NA
ATOM     51  C   UNL     1      11.458   9.341   4.098  1.00  0.00     0.031 C 
ATOM     52  C   UNL     1       8.580  11.852   4.216  1.00  0.00     0.029 A 
ATOM     53  C   UNL     1       8.672  11.673   5.601  1.00  0.00     0.049 A 
ATOM     54  H   UNL     1       7.373  12.492   7.055  1.00  0.00     0.167 HD
ATOM     55  C   UNL     1      10.640  10.377   5.957  1.00  0.00     0.074 A 
ATOM     56  C   UNL     1      11.140  10.527   4.605  1.00  0.00     0.031 C 
ATOM     57  C   UNL     1       9.509  10.908   6.491  1.00  0.00     0.037 A 
BRANCH  44  58
ATOM     58  C   UNL     1       4.435  13.232   5.790  1.00  0.00     0.064 A 
ATOM     59  C   UNL     1       4.809  14.567   5.490  1.00  0.00     0.173 A 
ATOM     60  C   UNL     1       3.536  13.060   6.848  1.00  0.00     0.173 A 
ATOM     61  F   UNL     1       5.605  14.840   4.444  1.00  0.00    -0.203 F 
ATOM     62  C   UNL     1       4.454  15.634   6.309  1.00  0.00     0.198 A 
ATOM     63  C   UNL     1       3.136  14.146   7.636  1.00  0.00     0.198 A 
ATOM     64  F   UNL     1       3.112  11.840   7.202  1.00  0.00    -0.203 F 
ATOM     65  F   UNL     1       4.969  16.850   6.081  1.00  0.00    -0.200 F 
ATOM     66  C   UNL     1       3.635  15.418   7.398  1.00  0.00     0.200 A 
ATOM     67  F   UNL     1       2.326  13.941   8.684  1.00  0.00    -0.200 F 
ATOM     68  F   UNL     1       3.352  16.425   8.235  1.00  0.00    -0.200 F 
ENDBRANCH  44  58
BRANCH  45  69
ATOM     69  C   UNL     1      12.888   6.544   4.880  1.00  0.00     0.064 A 
ATOM     70  C   UNL     1      13.242   5.199   4.732  1.00  0.00     0.173 A 
ATOM     71  C   UNL     1      13.941   7.455   4.548  1.00  0.00     0.173 A 
ATOM     72  F   UNL     1      12.413   4.227   5.130  1.00  0.00    -0.203 F 
ATOM     73  C   UNL     1      14.479   4.811   4.166  1.00  0.00     0.198 A 
ATOM     74  C   UNL     1      15.132   7.078   3.926  1.00  0.00     0.198 A 
ATOM     75  F   UNL     1      13.843   8.766   4.804  1.00  0.00    -0.203 F 
ATOM     76  F   UNL     1      14.775   3.510   4.034  1.00  0.00    -0.200 F 
ATOM     77  C   UNL     1      15.395   5.749   3.714  1.00  0.00     0.200 A 
ATOM     78  F   UNL     1      15.995   8.019   3.515  1.00  0.00    -0.200 F 
ATOM     79  F   UNL     1      16.523   5.379   3.092  1.00  0.00    -0.200 F 
ENDBRANCH  45  69
BRANCH  57  80
ATOM     80  C   UNL     1       9.116  10.349   7.856  1.00  0.00     0.064 A 
ATOM     81  C   UNL     1       9.985  10.495   8.947  1.00  0.00     0.173 A 
ATOM     82  C   UNL     1       7.960   9.587   8.110  1.00  0.00     0.173 A 
ATOM     83  F   UNL     1      11.097  11.233   8.816  1.00  0.00    -0.203 F 
ATOM     84  C   UNL     1       9.724   9.902  10.188  1.00  0.00     0.198 A 
ATOM     85  C   UNL     1       7.697   8.984   9.344  1.00  0.00     0.198 A 
ATOM     86  F   UNL     1       7.032   9.423   7.177  1.00  0.00    -0.203 F 
ATOM     87  F   UNL     1      10.580  10.081  11.204  1.00  0.00    -0.200 F 
ATOM     88  C   UNL     1       8.584   9.141  10.386  1.00  0.00     0.200 A 
ATOM     89  F   UNL     1       6.575   8.267   9.517  1.00  0.00    -0.200 F 
ATOM     90  F   UNL     1       8.329   8.586  11.579  1.00  0.00    -0.200 F 
ENDBRANCH  57  80
ENDBRANCH  31  32
ENDBRANCH  24  26
ENDBRANCH  23  24
ENDBRANCH  22  23
ENDBRANCH  21  22
ENDBRANCH   1  21
TORSDOF 16
