REMARK SMILES CCc1nn(C)c(C[C@@H](C(=O)OCCOC(=O)c2ccc(-c3c4nc(c(-c5c(F)c(F)c(F)c(F)c5F)c5ccc([nH]5)c(-c5c(F)c(F)c(F)c(F)c5F)c5nc(c(-c6c(F)c(F)c(F)c(F)c6F)c6ccc3[nH]6)C=C5)C=C4)cc2)c2cccc(C)c2)c1Br
REMARK SMILES IDX 13 1 12 2 10 3 11 4 9 5 8 6 7 7 3 8 4 9 88 10 5 11 89 12
REMARK SMILES IDX 6 13 2 14 1 15 81 16 82 17 87 18 83 19 85 20 84 21 86 22
REMARK SMILES IDX 14 23 15 24 16 25 17 26 18 27 19 28 80 29 20 30 79 31 21 32
REMARK SMILES IDX 22 33 23 34 73 35 24 36 78 37 72 38 74 39 25 40 77 41 71 42
REMARK SMILES IDX 70 43 26 45 58 46 38 47 57 48 39 49 42 50 56 51 75 52 40 53
REMARK SMILES IDX 41 54 55 56 76 57 43 58 27 59 28 60 36 61 29 62 30 63 34 64
REMARK SMILES IDX 37 65 31 66 32 67 35 68 33 69 59 70 60 71 68 72 61 73 62 74
REMARK SMILES IDX 66 75 69 76 63 77 64 78 67 79 65 80 44 81 45 82 53 83 46 84
REMARK SMILES IDX 47 85 51 86 54 87 48 88 49 89 52 90 50 91
REMARK H PARENT 74 44 42 55
REMARK Flexibility Score: inf
ROOT
ATOM      1  C   UNL     1      -0.556   5.771  -5.346  1.00  0.00     0.274 C 
ENDROOT
BRANCH   1   2
ATOM      2  O   UNL     1       0.076   4.502  -5.055  1.00  0.00    -0.462 OA
BRANCH   2   3
ATOM      3  C   UNL     1       0.419   3.731  -6.130  1.00  0.00     0.313 C 
ATOM      4  O   UNL     1       0.201   4.070  -7.289  1.00  0.00    -0.252 OA
BRANCH   3   5
ATOM      5  C   UNL     1       1.014   2.369  -5.714  1.00  0.00     0.135 C 
BRANCH   5   6
ATOM      6  C   UNL     1       2.087   2.433  -4.602  1.00  0.00     0.077 C 
BRANCH   6   7
ATOM      7  C   UNL     1       1.558   2.408  -3.196  1.00  0.00     0.054 A 
ATOM      8  C   UNL     1       0.783   1.863  -1.165  1.00  0.00     0.077 A 
ATOM      9  N   UNL     1       1.082   3.167  -1.107  1.00  0.00    -0.177 NA
ATOM     10  C   UNL     1       1.046   1.360  -2.458  1.00  0.00     0.062 A 
ATOM     11  N   UNL     1       1.583   3.464  -2.320  1.00  0.00    -0.271 N 
ATOM     12  Br  UNL     1       0.790  -0.398  -3.059  1.00  0.00    -0.047 Br
ATOM     13  C   UNL     1       2.076   4.807  -2.500  1.00  0.00     0.174 C 
BRANCH   8  14
ATOM     14  C   UNL     1       0.231   1.228   0.070  1.00  0.00     0.056 C 
ATOM     15  C   UNL     1       0.806  -0.131   0.427  1.00  0.00     0.011 C 
ENDBRANCH   8  14
ENDBRANCH   6   7
ENDBRANCH   5   6
BRANCH   5  16
ATOM     16  C   UNL     1       1.617   1.652  -6.934  1.00  0.00    -0.033 A 
ATOM     17  C   UNL     1       1.032   0.490  -7.450  1.00  0.00     0.004 A 
ATOM     18  C   UNL     1       2.769   2.155  -7.564  1.00  0.00     0.008 A 
ATOM     19  C   UNL     1       1.577  -0.134  -8.575  1.00  0.00     0.001 A 
ATOM     20  C   UNL     1       3.313   1.548  -8.704  1.00  0.00    -0.051 A 
ATOM     21  C   UNL     1       2.701   0.400  -9.208  1.00  0.00     0.003 A 
ATOM     22  C   UNL     1       4.482   2.164  -9.415  1.00  0.00     0.044 C 
ENDBRANCH   5  16
ENDBRANCH   3   5
ENDBRANCH   2   3
ENDBRANCH   1   2
BRANCH   1  23
ATOM     23  C   UNL     1       0.396   6.967  -5.219  1.00  0.00     0.275 C 
BRANCH  23  24
ATOM     24  O   UNL     1       1.253   7.171  -6.355  1.00  0.00    -0.458 OA
BRANCH  24  25
ATOM     25  C   UNL     1       2.334   6.368  -6.362  1.00  0.00     0.338 C 
ATOM     26  O   UNL     1       2.556   5.422  -5.630  1.00  0.00    -0.246 OA
BRANCH  25  27
ATOM     27  C   UNL     1       3.381   6.824  -7.268  1.00  0.00     0.060 A 
ATOM     28  C   UNL     1       4.093   5.832  -7.938  1.00  0.00     0.016 A 
ATOM     29  C   UNL     1       3.862   8.128  -7.177  1.00  0.00     0.016 A 
ATOM     30  C   UNL     1       5.365   6.103  -8.395  1.00  0.00     0.010 A 
ATOM     31  C   UNL     1       5.115   8.416  -7.704  1.00  0.00     0.010 A 
ATOM     32  C   UNL     1       5.901   7.389  -8.248  1.00  0.00    -0.014 A 
BRANCH  32  33
ATOM     33  C   UNL     1       7.253   7.606  -8.781  1.00  0.00     0.031 A 
ATOM     34  C   UNL     1       7.474   7.120 -10.176  1.00  0.00     0.074 A 
ATOM     35  C   UNL     1       8.222   8.299  -8.149  1.00  0.00     0.049 A 
ATOM     36  N   UNL     1       8.450   6.399 -10.634  1.00  0.00    -0.248 NA
ATOM     37  C   UNL     1       6.426   7.416 -11.169  1.00  0.00     0.031 C 
ATOM     38  C   UNL     1       8.104   9.029  -6.885  1.00  0.00     0.029 A 
ATOM     39  N   UNL     1       9.486   8.616  -8.578  1.00  0.00    -0.354 N 
ATOM     40  C   UNL     1       8.214   6.274 -11.999  1.00  0.00     0.074 A 
ATOM     41  C   UNL     1       6.907   6.819 -12.258  1.00  0.00     0.031 C 
ATOM     42  C   UNL     1       9.125   9.904  -6.787  1.00  0.00     0.029 A 
ATOM     43  C   UNL     1      10.030   9.699  -7.907  1.00  0.00     0.049 A 
ATOM     44  H   UNL     1       9.957   8.124  -9.289  1.00  0.00     0.167 HD
ATOM     45  C   UNL     1       9.192   5.939 -12.880  1.00  0.00     0.037 A 
ATOM     46  C   UNL     1      11.101  10.441  -8.266  1.00  0.00     0.037 A 
ATOM     47  C   UNL     1      10.338   5.344 -12.261  1.00  0.00     0.049 A 
ATOM     48  C   UNL     1      11.970   9.650  -9.165  1.00  0.00     0.074 A 
ATOM     49  C   UNL     1      10.700   4.097 -11.806  1.00  0.00     0.029 A 
ATOM     50  N   UNL     1      11.270   6.230 -11.803  1.00  0.00    -0.354 N 
ATOM     51  N   UNL     1      12.662   8.614  -8.785  1.00  0.00    -0.248 NA
ATOM     52  C   UNL     1      11.923   9.872 -10.607  1.00  0.00     0.031 C 
ATOM     53  C   UNL     1      11.793   4.295 -10.910  1.00  0.00     0.029 A 
ATOM     54  C   UNL     1      12.050   5.661 -10.831  1.00  0.00     0.049 A 
ATOM     55  H   UNL     1      11.370   7.154 -12.129  1.00  0.00     0.167 HD
ATOM     56  C   UNL     1      12.766   7.841  -9.923  1.00  0.00     0.074 A 
ATOM     57  C   UNL     1      12.491   8.740 -11.030  1.00  0.00     0.031 C 
ATOM     58  C   UNL     1      12.710   6.482  -9.844  1.00  0.00     0.037 A 
BRANCH  45  59
ATOM     59  C   UNL     1       9.277   6.544 -14.255  1.00  0.00     0.064 A 
ATOM     60  C   UNL     1      10.071   5.945 -15.248  1.00  0.00     0.173 A 
ATOM     61  C   UNL     1       8.836   7.859 -14.525  1.00  0.00     0.173 A 
ATOM     62  F   UNL     1      10.588   4.722 -15.059  1.00  0.00    -0.203 F 
ATOM     63  C   UNL     1      10.407   6.623 -16.424  1.00  0.00     0.198 A 
ATOM     64  C   UNL     1       9.128   8.511 -15.719  1.00  0.00     0.198 A 
ATOM     65  F   UNL     1       8.204   8.590 -13.595  1.00  0.00    -0.203 F 
ATOM     66  F   UNL     1      11.241   6.055 -17.306  1.00  0.00    -0.200 F 
ATOM     67  C   UNL     1       9.930   7.902 -16.661  1.00  0.00     0.200 A 
ATOM     68  F   UNL     1       8.684   9.761 -15.915  1.00  0.00    -0.200 F 
ATOM     69  F   UNL     1      10.282   8.566 -17.770  1.00  0.00    -0.200 F 
ENDBRANCH  45  59
BRANCH  46  70
ATOM     70  C   UNL     1      11.342  11.874  -7.988  1.00  0.00     0.064 A 
ATOM     71  C   UNL     1      12.633  12.421  -8.057  1.00  0.00     0.173 A 
ATOM     72  C   UNL     1      10.277  12.790  -7.875  1.00  0.00     0.173 A 
ATOM     73  F   UNL     1      13.698  11.622  -8.219  1.00  0.00    -0.203 F 
ATOM     74  C   UNL     1      12.844  13.802  -8.025  1.00  0.00     0.198 A 
ATOM     75  C   UNL     1      10.491  14.166  -7.823  1.00  0.00     0.198 A 
ATOM     76  F   UNL     1       9.003  12.374  -7.901  1.00  0.00    -0.203 F 
ATOM     77  F   UNL     1      14.086  14.289  -8.156  1.00  0.00    -0.200 F 
ATOM     78  C   UNL     1      11.774  14.673  -7.910  1.00  0.00     0.200 A 
ATOM     79  F   UNL     1       9.443  14.998  -7.743  1.00  0.00    -0.200 F 
ATOM     80  F   UNL     1      11.973  15.998  -7.925  1.00  0.00    -0.200 F 
ENDBRANCH  46  70
BRANCH  58  81
ATOM     81  C   UNL     1      13.149   5.864  -8.556  1.00  0.00     0.064 A 
ATOM     82  C   UNL     1      12.481   6.038  -7.334  1.00  0.00     0.173 A 
ATOM     83  C   UNL     1      14.288   5.047  -8.565  1.00  0.00     0.173 A 
ATOM     84  F   UNL     1      11.335   6.731  -7.269  1.00  0.00    -0.203 F 
ATOM     85  C   UNL     1      12.977   5.477  -6.160  1.00  0.00     0.198 A 
ATOM     86  C   UNL     1      14.759   4.455  -7.397  1.00  0.00     0.198 A 
ATOM     87  F   UNL     1      14.936   4.807  -9.716  1.00  0.00    -0.203 F 
ATOM     88  F   UNL     1      12.349   5.692  -4.994  1.00  0.00    -0.200 F 
ATOM     89  C   UNL     1      14.115   4.686  -6.192  1.00  0.00     0.200 A 
ATOM     90  F   UNL     1      15.835   3.657  -7.441  1.00  0.00    -0.200 F 
ATOM     91  F   UNL     1      14.584   4.134  -5.064  1.00  0.00    -0.200 F 
ENDBRANCH  58  81
ENDBRANCH  32  33
ENDBRANCH  25  27
ENDBRANCH  24  25
ENDBRANCH  23  24
ENDBRANCH   1  23
TORSDOF 15
