REMARK SMILES CCOC(=O)[C@H]1CCCN(c2cc(C(=O)OCCOC(=O)c3ccc(-c4c5nc(c(-c6c(F)c(F)c(F)c(F)c6F)c6ccc([nH]6)c(-c6c(F)c(F)c(F)c(F)c6F)c6nc(c(-c7c(F)c(F)c(F)c(F)c7F)c7ccc4[nH]7)C=C6)C=C5)cc3)c3cc(NC(=O)c4ccc(Cl)cc4)ccc3n2)C1
REMARK SMILES IDX 17 1 16 2 14 3 15 4 13 5 11 6 12 7 101 8 100 9 85 10 99 11
REMARK SMILES IDX 86 12 98 13 87 14 10 15 6 16 7 17 102 18 8 19 9 20 4 21 5 22
REMARK SMILES IDX 3 23 2 24 1 25 88 26 89 27 90 29 91 30 92 31 97 32 93 33
REMARK SMILES IDX 96 34 94 35 95 36 18 37 19 38 20 39 21 40 22 41 23 42 84 43
REMARK SMILES IDX 24 44 83 45 25 46 26 47 27 48 77 49 28 50 82 51 76 52 78 53
REMARK SMILES IDX 29 54 81 55 75 56 74 57 30 59 62 60 42 61 61 62 43 63 46 64
REMARK SMILES IDX 60 65 79 66 44 67 45 68 59 70 80 71 47 72 31 73 32 74 40 75
REMARK SMILES IDX 33 76 34 77 38 78 41 79 35 80 36 81 39 82 37 83 63 84 64 85
REMARK SMILES IDX 72 86 65 87 66 88 70 89 73 90 67 91 68 92 71 93 69 94 48 95
REMARK SMILES IDX 49 96 57 97 50 98 51 99 55 100 58 101 52 102 53 103 56 104
REMARK SMILES IDX 54 105
REMARK H PARENT 88 28 78 58 46 69
REMARK Flexibility Score: inf
ROOT
ATOM      1  C   UNL     1       3.864  -2.138  -2.809  1.00  0.00     0.275 C 
ENDROOT
BRANCH   1   2
ATOM      2  O   UNL     1       4.476  -0.992  -2.184  1.00  0.00    -0.458 OA
BRANCH   2   3
ATOM      3  C   UNL     1       3.640   0.038  -1.912  1.00  0.00     0.339 C 
ATOM      4  O   UNL     1       2.429   0.053  -2.054  1.00  0.00    -0.246 OA
BRANCH   3   5
ATOM      5  C   UNL     1       4.374   1.175  -1.321  1.00  0.00     0.073 A 
ATOM      6  C   UNL     1       4.442   2.795   0.445  1.00  0.00     0.130 A 
ATOM      7  C   UNL     1       3.930   1.626  -0.081  1.00  0.00     0.063 A 
ATOM      8  N   UNL     1       5.309   3.547  -0.260  1.00  0.00    -0.231 NA
ATOM      9  C   UNL     1       5.736   3.124  -1.468  1.00  0.00     0.074 A 
ATOM     10  C   UNL     1       5.322   1.912  -2.046  1.00  0.00     0.017 A 
ATOM     11  C   UNL     1       6.598   3.928  -2.203  1.00  0.00     0.031 A 
ATOM     12  C   UNL     1       5.819   1.530  -3.317  1.00  0.00     0.037 A 
ATOM     13  C   UNL     1       7.033   3.573  -3.489  1.00  0.00     0.028 A 
ATOM     14  C   UNL     1       6.625   2.373  -4.068  1.00  0.00     0.042 A 
BRANCH   6  15
ATOM     15  N   UNL     1       3.965   3.244   1.653  1.00  0.00    -0.356 N 
ATOM     16  C   UNL     1       2.916   2.375   3.687  1.00  0.00     0.118 C 
ATOM     17  C   UNL     1       2.132   3.696   3.768  1.00  0.00     0.019 C 
ATOM     18  C   UNL     1       4.226   2.537   2.904  1.00  0.00     0.133 C 
ATOM     19  C   UNL     1       1.981   4.361   2.400  1.00  0.00     0.022 C 
ATOM     20  C   UNL     1       3.341   4.551   1.726  1.00  0.00     0.118 C 
BRANCH  16  21
ATOM     21  C   UNL     1       3.101   1.832   5.091  1.00  0.00     0.310 C 
ATOM     22  O   UNL     1       2.182   1.764   5.897  1.00  0.00    -0.252 OA
BRANCH  21  23
ATOM     23  O   UNL     1       4.369   1.409   5.333  1.00  0.00    -0.466 OA
BRANCH  23  24
ATOM     24  C   UNL     1       4.561   0.755   6.596  1.00  0.00     0.229 C 
ATOM     25  C   UNL     1       4.802   1.739   7.723  1.00  0.00     0.049 C 
ENDBRANCH  23  24
ENDBRANCH  21  23
ENDBRANCH  16  21
ENDBRANCH   6  15
BRANCH  14  26
ATOM     26  N   UNL     1       7.086   2.074  -5.360  1.00  0.00    -0.322 N 
ATOM     27  C   UNL     1       6.770   1.090  -6.272  1.00  0.00     0.255 C 
ATOM     28  H   UNL     1       7.779   2.695  -5.681  1.00  0.00     0.170 HD
ATOM     29  O   UNL     1       7.537   0.889  -7.215  1.00  0.00    -0.269 OA
BRANCH  27  30
ATOM     30  C   UNL     1       5.518   0.296  -6.228  1.00  0.00     0.040 A 
ATOM     31  C   UNL     1       5.590  -1.068  -6.551  1.00  0.00     0.015 A 
ATOM     32  C   UNL     1       4.269   0.881  -5.976  1.00  0.00     0.015 A 
ATOM     33  C   UNL     1       4.430  -1.846  -6.592  1.00  0.00     0.021 A 
ATOM     34  C   UNL     1       3.112   0.094  -5.989  1.00  0.00     0.021 A 
ATOM     35  C   UNL     1       3.196  -1.262  -6.306  1.00  0.00     0.041 A 
ATOM     36  Cl  UNL     1       1.777  -2.235  -6.292  1.00  0.00    -0.084 Cl
ENDBRANCH  27  30
ENDBRANCH  14  26
ENDBRANCH   3   5
ENDBRANCH   2   3
ENDBRANCH   1   2
BRANCH   1  37
ATOM     37  C   UNL     1       4.571  -3.433  -2.407  1.00  0.00     0.275 C 
BRANCH  37  38
ATOM     38  O   UNL     1       4.117  -3.818  -1.101  1.00  0.00    -0.458 OA
BRANCH  38  39
ATOM     39  C   UNL     1       4.782  -3.219  -0.094  1.00  0.00     0.338 C 
ATOM     40  O   UNL     1       5.865  -2.653  -0.136  1.00  0.00    -0.246 OA
BRANCH  39  41
ATOM     41  C   UNL     1       3.845  -3.058   1.018  1.00  0.00     0.060 A 
ATOM     42  C   UNL     1       3.350  -1.773   1.214  1.00  0.00     0.016 A 
ATOM     43  C   UNL     1       3.517  -4.088   1.891  1.00  0.00     0.016 A 
ATOM     44  C   UNL     1       2.611  -1.471   2.343  1.00  0.00     0.010 A 
ATOM     45  C   UNL     1       2.733  -3.792   3.013  1.00  0.00     0.010 A 
ATOM     46  C   UNL     1       2.331  -2.467   3.281  1.00  0.00    -0.014 A 
BRANCH  46  47
ATOM     47  C   UNL     1       1.807  -2.073   4.617  1.00  0.00     0.031 A 
ATOM     48  C   UNL     1       2.676  -2.311   5.829  1.00  0.00     0.074 A 
ATOM     49  C   UNL     1       0.643  -1.405   4.743  1.00  0.00     0.049 A 
ATOM     50  N   UNL     1       2.399  -2.168   7.100  1.00  0.00    -0.248 NA
ATOM     51  C   UNL     1       4.057  -2.762   5.572  1.00  0.00     0.031 C 
ATOM     52  C   UNL     1      -0.240  -1.020   3.640  1.00  0.00     0.029 A 
ATOM     53  N   UNL     1       0.010  -0.914   5.858  1.00  0.00    -0.354 N 
ATOM     54  C   UNL     1       3.563  -2.503   7.782  1.00  0.00     0.074 A 
ATOM     55  C   UNL     1       4.524  -2.943   6.798  1.00  0.00     0.031 C 
ATOM     56  C   UNL     1      -1.289  -0.342   4.131  1.00  0.00     0.029 A 
ATOM     57  C   UNL     1      -1.199  -0.319   5.588  1.00  0.00     0.049 A 
ATOM     58  H   UNL     1       0.386  -0.981   6.765  1.00  0.00     0.167 HD
ATOM     59  C   UNL     1       3.836  -2.369   9.101  1.00  0.00     0.037 A 
ATOM     60  C   UNL     1      -2.152   0.139   6.423  1.00  0.00     0.037 A 
ATOM     61  C   UNL     1       2.906  -1.845  10.065  1.00  0.00     0.049 A 
ATOM     62  C   UNL     1      -1.917   0.047   7.907  1.00  0.00     0.074 A 
ATOM     63  C   UNL     1       3.081  -1.667  11.425  1.00  0.00     0.029 A 
ATOM     64  N   UNL     1       1.628  -1.394   9.762  1.00  0.00    -0.354 N 
ATOM     65  N   UNL     1      -0.844  -0.337   8.555  1.00  0.00    -0.248 NA
ATOM     66  C   UNL     1      -3.038   0.427   8.780  1.00  0.00     0.031 C 
ATOM     67  C   UNL     1       1.891  -1.157  11.955  1.00  0.00     0.029 A 
ATOM     68  C   UNL     1       0.988  -0.980  10.919  1.00  0.00     0.049 A 
ATOM     69  H   UNL     1       1.235  -1.372   8.860  1.00  0.00     0.167 HD
ATOM     70  C   UNL     1      -1.145  -0.218   9.904  1.00  0.00     0.074 A 
ATOM     71  C   UNL     1      -2.504   0.279   9.984  1.00  0.00     0.031 C 
ATOM     72  C   UNL     1      -0.367  -0.493  10.979  1.00  0.00     0.037 A 
BRANCH  59  73
ATOM     73  C   UNL     1       5.201  -2.775   9.576  1.00  0.00     0.064 A 
ATOM     74  C   UNL     1       6.337  -1.996   9.309  1.00  0.00     0.173 A 
ATOM     75  C   UNL     1       5.373  -3.936  10.343  1.00  0.00     0.173 A 
ATOM     76  F   UNL     1       6.236  -0.887   8.564  1.00  0.00    -0.203 F 
ATOM     77  C   UNL     1       7.595  -2.370   9.776  1.00  0.00     0.198 A 
ATOM     78  C   UNL     1       6.628  -4.297  10.828  1.00  0.00     0.198 A 
ATOM     79  F   UNL     1       4.321  -4.718  10.629  1.00  0.00    -0.203 F 
ATOM     80  F   UNL     1       8.667  -1.626   9.474  1.00  0.00    -0.200 F 
ATOM     81  C   UNL     1       7.738  -3.516  10.541  1.00  0.00     0.200 A 
ATOM     82  F   UNL     1       6.764  -5.402  11.573  1.00  0.00    -0.200 F 
ATOM     83  F   UNL     1       8.947  -3.873  10.995  1.00  0.00    -0.200 F 
ENDBRANCH  59  73
BRANCH  60  84
ATOM     84  C   UNL     1      -3.451   0.627   5.880  1.00  0.00     0.064 A 
ATOM     85  C   UNL     1      -3.876   1.950   6.060  1.00  0.00     0.173 A 
ATOM     86  C   UNL     1      -4.314  -0.241   5.191  1.00  0.00     0.173 A 
ATOM     87  F   UNL     1      -3.111   2.814   6.743  1.00  0.00    -0.203 F 
ATOM     88  C   UNL     1      -5.112   2.382   5.578  1.00  0.00     0.198 A 
ATOM     89  C   UNL     1      -5.531   0.200   4.679  1.00  0.00     0.198 A 
ATOM     90  F   UNL     1      -3.969  -1.524   5.004  1.00  0.00    -0.203 F 
ATOM     91  F   UNL     1      -5.515   3.640   5.806  1.00  0.00    -0.200 F 
ATOM     92  C   UNL     1      -5.934   1.510   4.880  1.00  0.00     0.200 A 
ATOM     93  F   UNL     1      -6.314  -0.646   3.996  1.00  0.00    -0.200 F 
ATOM     94  F   UNL     1      -7.117   1.928   4.412  1.00  0.00    -0.200 F 
ENDBRANCH  60  84
BRANCH  72  95
ATOM     95  C   UNL     1      -0.962  -0.238  12.333  1.00  0.00     0.064 A 
ATOM     96  C   UNL     1      -1.962  -1.068  12.860  1.00  0.00     0.173 A 
ATOM     97  C   UNL     1      -0.509   0.830  13.123  1.00  0.00     0.173 A 
ATOM     98  F   UNL     1      -2.442  -2.091  12.136  1.00  0.00    -0.203 F 
ATOM     99  C   UNL     1      -2.506  -0.822  14.117  1.00  0.00     0.198 A 
ATOM    100  C   UNL     1      -1.032   1.053  14.393  1.00  0.00     0.198 A 
ATOM    101  F   UNL     1       0.451   1.649  12.668  1.00  0.00    -0.203 F 
ATOM    102  F   UNL     1      -3.497  -1.597  14.580  1.00  0.00    -0.200 F 
ATOM    103  C   UNL     1      -2.036   0.233  14.886  1.00  0.00     0.200 A 
ATOM    104  F   UNL     1      -0.566   2.063  15.139  1.00  0.00    -0.200 F 
ATOM    105  F   UNL     1      -2.556   0.464  16.099  1.00  0.00    -0.200 F 
ENDBRANCH  72  95
ENDBRANCH  46  47
ENDBRANCH  39  41
ENDBRANCH  38  39
ENDBRANCH  37  38
ENDBRANCH   1  37
TORSDOF 17
