REMARK SMILES CSc1nc(N)cc(Nc2cccc(C(=O)OCCOC(=O)c3ccc(-c4c5nc(c(-c6c(F)c(F)c(F)c(F)c6F)c6ccc([nH]6)c(-c6c(F)c(F)c(F)c(F)c6F)c6nc(c(-c7c(F)c(F)c(F)c(F)c7F)c7ccc4[nH]7)C=C6)C=C5)cc3)c2)n1
REMARK SMILES IDX 18 1 17 2 15 3 16 4 14 5 10 6 11 7 86 8 12 9 13 10 9 11 8 13
REMARK SMILES IDX 3 14 4 15 87 16 5 17 7 18 2 19 1 20 6 21 19 24 20 25 21 26
REMARK SMILES IDX 22 27 23 28 24 29 85 30 25 31 84 32 26 33 27 34 28 35 78 36
REMARK SMILES IDX 29 37 83 38 77 39 79 40 30 41 82 42 76 43 75 44 31 46 63 47
REMARK SMILES IDX 43 48 62 49 44 50 47 51 61 52 80 53 45 54 46 55 60 57 81 58
REMARK SMILES IDX 48 59 32 60 33 61 41 62 34 63 35 64 39 65 42 66 36 67 37 68
REMARK SMILES IDX 40 69 38 70 64 71 65 72 73 73 66 74 67 75 71 76 74 77 68 78
REMARK SMILES IDX 69 79 72 80 70 81 49 82 50 83 58 84 51 85 52 86 56 87 59 88
REMARK SMILES IDX 53 89 54 90 57 91 55 92
REMARK H PARENT 9 12 6 22 6 23 79 45 47 56
REMARK Flexibility Score: inf
ROOT
ATOM      1  C   UNL     1       6.265   0.872  -0.458  1.00  0.00     0.275 C 
ENDROOT
BRANCH   1   2
ATOM      2  O   UNL     1       5.456   0.195  -1.440  1.00  0.00    -0.458 OA
BRANCH   2   3
ATOM      3  C   UNL     1       4.419   0.896  -1.966  1.00  0.00     0.338 C 
ATOM      4  O   UNL     1       4.071   2.022  -1.671  1.00  0.00    -0.246 OA
BRANCH   3   5
ATOM      5  C   UNL     1       3.812   0.123  -3.077  1.00  0.00     0.062 A 
ATOM      6  C   UNL     1       3.022  -1.975  -3.991  1.00  0.00     0.040 A 
ATOM      7  C   UNL     1       2.641  -1.314  -5.165  1.00  0.00     0.026 A 
ATOM      8  C   UNL     1       3.664  -1.256  -2.976  1.00  0.00     0.041 A 
ATOM      9  C   UNL     1       2.788   0.067  -5.273  1.00  0.00     0.003 A 
ATOM     10  C   UNL     1       3.319   0.788  -4.206  1.00  0.00     0.016 A 
BRANCH   6  11
ATOM     11  N   UNL     1       2.569  -3.287  -3.752  1.00  0.00    -0.340 N 
ATOM     12  H   UNL     1       2.787  -3.981  -4.416  1.00  0.00     0.168 HD
BRANCH  11  13
ATOM     13  C   UNL     1       1.819  -3.666  -2.616  1.00  0.00     0.137 A 
ATOM     14  C   UNL     1       0.746  -3.123  -0.659  1.00  0.00     0.191 A 
ATOM     15  N   UNL     1       0.396  -4.391  -0.412  1.00  0.00    -0.206 NA
ATOM     16  N   UNL     1       1.438  -2.728  -1.730  1.00  0.00    -0.205 NA
ATOM     17  C   UNL     1       0.778  -5.305  -1.307  1.00  0.00     0.130 A 
ATOM     18  C   UNL     1       1.519  -4.994  -2.423  1.00  0.00     0.093 A 
BRANCH  14  19
ATOM     19  S   UNL     1       0.224  -1.907   0.530  1.00  0.00    -0.090 SA
ATOM     20  C   UNL     1       1.016  -0.419  -0.135  1.00  0.00     0.094 C 
ENDBRANCH  14  19
BRANCH  17  21
ATOM     21  N   UNL     1       0.439  -6.616  -1.029  1.00  0.00    -0.383 N 
ATOM     22  H   UNL     1      -0.091  -6.828  -0.227  1.00  0.00     0.158 HD
ATOM     23  H   UNL     1       0.729  -7.338  -1.633  1.00  0.00     0.158 HD
ENDBRANCH  17  21
ENDBRANCH  11  13
ENDBRANCH   6  11
ENDBRANCH   3   5
ENDBRANCH   2   3
ENDBRANCH   1   2
BRANCH   1  24
ATOM     24  C   UNL     1       7.616   1.258  -1.058  1.00  0.00     0.275 C 
BRANCH  24  25
ATOM     25  O   UNL     1       7.426   2.265  -2.069  1.00  0.00    -0.458 OA
BRANCH  25  26
ATOM     26  C   UNL     1       7.666   1.880  -3.342  1.00  0.00     0.338 C 
ATOM     27  O   UNL     1       8.107   0.815  -3.737  1.00  0.00    -0.246 OA
BRANCH  26  28
ATOM     28  C   UNL     1       7.237   2.952  -4.252  1.00  0.00     0.060 A 
ATOM     29  C   UNL     1       5.874   3.186  -4.394  1.00  0.00     0.016 A 
ATOM     30  C   UNL     1       8.147   3.648  -5.039  1.00  0.00     0.016 A 
ATOM     31  C   UNL     1       5.398   4.046  -5.375  1.00  0.00     0.010 A 
ATOM     32  C   UNL     1       7.674   4.607  -5.944  1.00  0.00     0.010 A 
ATOM     33  C   UNL     1       6.292   4.807  -6.134  1.00  0.00    -0.014 A 
BRANCH  33  34
ATOM     34  C   UNL     1       5.783   5.819  -7.101  1.00  0.00     0.031 A 
ATOM     35  C   UNL     1       6.180   5.750  -8.550  1.00  0.00     0.074 A 
ATOM     36  C   UNL     1       4.966   6.808  -6.680  1.00  0.00     0.049 A 
ATOM     37  N   UNL     1       6.042   6.649  -9.492  1.00  0.00    -0.248 NA
ATOM     38  C   UNL     1       6.824   4.506  -9.001  1.00  0.00     0.031 C 
ATOM     39  C   UNL     1       4.444   6.959  -5.319  1.00  0.00     0.029 A 
ATOM     40  N   UNL     1       4.435   7.882  -7.353  1.00  0.00    -0.354 N 
ATOM     41  C   UNL     1       6.620   6.101 -10.630  1.00  0.00     0.074 A 
ATOM     42  C   UNL     1       7.116   4.792 -10.262  1.00  0.00     0.031 C 
ATOM     43  C   UNL     1       3.653   8.040  -5.264  1.00  0.00     0.029 A 
ATOM     44  C   UNL     1       3.701   8.723  -6.550  1.00  0.00     0.049 A 
ATOM     45  H   UNL     1       4.567   8.035  -8.317  1.00  0.00     0.167 HD
ATOM     46  C   UNL     1       6.724   6.647 -11.865  1.00  0.00     0.037 A 
ATOM     47  C   UNL     1       3.183   9.942  -6.793  1.00  0.00     0.037 A 
ATOM     48  C   UNL     1       6.195   7.937 -12.227  1.00  0.00     0.049 A 
ATOM     49  C   UNL     1       3.403  10.567  -8.142  1.00  0.00     0.074 A 
ATOM     50  C   UNL     1       6.248   8.580 -13.452  1.00  0.00     0.029 A 
ATOM     51  N   UNL     1       5.506   8.778 -11.365  1.00  0.00    -0.354 N 
ATOM     52  N   UNL     1       3.997  10.068  -9.198  1.00  0.00    -0.248 NA
ATOM     53  C   UNL     1       2.906  11.937  -8.324  1.00  0.00     0.031 C 
ATOM     54  C   UNL     1       5.631   9.828 -13.319  1.00  0.00     0.029 A 
ATOM     55  C   UNL     1       5.150   9.943 -12.025  1.00  0.00     0.049 A 
ATOM     56  H   UNL     1       5.300   8.576 -10.424  1.00  0.00     0.167 HD
ATOM     57  C   UNL     1       3.933  11.053 -10.172  1.00  0.00     0.074 A 
ATOM     58  C   UNL     1       3.219  12.170  -9.590  1.00  0.00     0.031 C 
ATOM     59  C   UNL     1       4.432  11.040 -11.431  1.00  0.00     0.037 A 
BRANCH  46  60
ATOM     60  C   UNL     1       7.461   5.871 -12.918  1.00  0.00     0.064 A 
ATOM     61  C   UNL     1       6.912   4.729 -13.518  1.00  0.00     0.173 A 
ATOM     62  C   UNL     1       8.708   6.320 -13.383  1.00  0.00     0.173 A 
ATOM     63  F   UNL     1       5.729   4.252 -13.103  1.00  0.00    -0.203 F 
ATOM     64  C   UNL     1       7.590   4.057 -14.533  1.00  0.00     0.198 A 
ATOM     65  C   UNL     1       9.370   5.662 -14.416  1.00  0.00     0.198 A 
ATOM     66  F   UNL     1       9.276   7.412 -12.848  1.00  0.00    -0.203 F 
ATOM     67  F   UNL     1       7.061   2.948 -15.069  1.00  0.00    -0.200 F 
ATOM     68  C   UNL     1       8.812   4.529 -14.987  1.00  0.00     0.200 A 
ATOM     69  F   UNL     1      10.544   6.129 -14.863  1.00  0.00    -0.200 F 
ATOM     70  F   UNL     1       9.455   3.890 -15.975  1.00  0.00    -0.200 F 
ENDBRANCH  46  60
BRANCH  47  71
ATOM     71  C   UNL     1       2.477  10.687  -5.715  1.00  0.00     0.064 A 
ATOM     72  C   UNL     1       1.115  11.001  -5.825  1.00  0.00     0.173 A 
ATOM     73  C   UNL     1       3.154  11.128  -4.567  1.00  0.00     0.173 A 
ATOM     74  F   UNL     1       0.429  10.629  -6.916  1.00  0.00    -0.203 F 
ATOM     75  C   UNL     1       0.465  11.743  -4.840  1.00  0.00     0.198 A 
ATOM     76  C   UNL     1       2.494  11.835  -3.565  1.00  0.00     0.198 A 
ATOM     77  F   UNL     1       4.460  10.861  -4.411  1.00  0.00    -0.203 F 
ATOM     78  F   UNL     1      -0.822  12.079  -5.000  1.00  0.00    -0.200 F 
ATOM     79  C   UNL     1       1.153  12.153  -3.708  1.00  0.00     0.200 A 
ATOM     80  F   UNL     1       3.160  12.216  -2.467  1.00  0.00    -0.200 F 
ATOM     81  F   UNL     1       0.526  12.865  -2.762  1.00  0.00    -0.200 F 
ENDBRANCH  47  71
BRANCH  59  82
ATOM     82  C   UNL     1       4.194  12.260 -12.272  1.00  0.00     0.064 A 
ATOM     83  C   UNL     1       4.880  13.459 -12.031  1.00  0.00     0.173 A 
ATOM     84  C   UNL     1       3.296  12.218 -13.348  1.00  0.00     0.173 A 
ATOM     85  F   UNL     1       5.734  13.554 -11.001  1.00  0.00    -0.203 F 
ATOM     86  C   UNL     1       4.658  14.580 -12.826  1.00  0.00     0.198 A 
ATOM     87  C   UNL     1       3.100  13.331 -14.160  1.00  0.00     0.198 A 
ATOM     88  F   UNL     1       2.619  11.092 -13.621  1.00  0.00    -0.203 F 
ATOM     89  F   UNL     1       5.288  15.730 -12.550  1.00  0.00    -0.200 F 
ATOM     90  C   UNL     1       3.775  14.513 -13.894  1.00  0.00     0.200 A 
ATOM     91  F   UNL     1       2.256  13.261 -15.198  1.00  0.00    -0.200 F 
ATOM     92  F   UNL     1       3.570  15.591 -14.663  1.00  0.00    -0.200 F 
ENDBRANCH  59  82
ENDBRANCH  33  34
ENDBRANCH  26  28
ENDBRANCH  25  26
ENDBRANCH  24  25
ENDBRANCH   1  24
TORSDOF 15
