REMARK SMILES CC(C)CC(=O)Nc1ccc(NC(=O)[C@@H]2CCCC[C@@H]2C(=O)OCCOC(=O)c2ccc(-c3c4nc(c(-c5c(F)c(F)c(F)c(F)c5F)c5ccc([nH]5)c(-c5c(F)c(F)c(F)c(F)c5F)c5nc(c(-c6c(F)c(F)c(F)c(F)c6F)c6ccc3[nH]6)C=C5)C=C4)cc2)cc1
REMARK SMILES IDX 23 1 21 2 22 3 20 4 15 5 16 6 17 7 19 8 18 9 13 10 12 11
REMARK SMILES IDX 14 13 11 14 8 15 9 16 93 17 10 18 92 19 7 20 5 21 6 22 4 24
REMARK SMILES IDX 2 25 1 26 3 27 24 28 25 29 26 30 27 31 28 32 29 33 30 34
REMARK SMILES IDX 91 35 31 36 90 37 32 38 33 39 34 40 84 41 35 42 89 43 83 44
REMARK SMILES IDX 85 45 36 46 88 47 82 48 81 49 37 51 69 52 49 53 68 54 50 55
REMARK SMILES IDX 53 56 67 57 86 58 51 59 52 60 66 62 87 63 54 64 38 65 39 66
REMARK SMILES IDX 47 67 40 68 41 69 45 70 48 71 42 72 43 73 46 74 44 75 70 76
REMARK SMILES IDX 71 77 79 78 72 79 73 80 77 81 80 82 74 83 75 84 78 85 76 86
REMARK SMILES IDX 55 87 56 88 64 89 57 90 58 91 62 92 65 93 59 94 60 95 63 96
REMARK SMILES IDX 61 97
REMARK H PARENT 12 12 7 23 85 50 53 61
REMARK Flexibility Score: inf
ROOT
ATOM      1  O   UNL     1      -1.384   5.228   3.646  1.00  0.00    -0.462 OA
ENDROOT
BRANCH   1   2
ATOM      2  C   UNL     1      -0.371   5.904   3.027  1.00  0.00     0.309 C 
ATOM      3  O   UNL     1       0.595   6.384   3.598  1.00  0.00    -0.252 OA
BRANCH   2   4
ATOM      4  C   UNL     1      -0.614   5.929   1.518  1.00  0.00     0.111 C 
ATOM      5  C   UNL     1       0.451   6.657   0.665  1.00  0.00     0.093 C 
ATOM      6  C   UNL     1       0.553   8.140   1.052  1.00  0.00     0.014 C 
ATOM      7  C   UNL     1      -0.792   8.832   0.852  1.00  0.00     0.001 C 
ATOM      8  C   UNL     1      -1.967   6.594   1.215  1.00  0.00     0.016 C 
ATOM      9  C   UNL     1      -1.948   8.093   1.526  1.00  0.00     0.001 C 
BRANCH   5  10
ATOM     10  C   UNL     1       1.816   6.001   0.585  1.00  0.00     0.228 C 
ATOM     11  N   UNL     1       1.996   4.756   0.068  1.00  0.00    -0.326 N 
ATOM     12  H   UNL     1       2.944   4.490   0.048  1.00  0.00     0.169 HD
ATOM     13  O   UNL     1       2.832   6.573   0.992  1.00  0.00    -0.274 OA
BRANCH  11  14
ATOM     14  C   UNL     1       1.151   3.765  -0.441  1.00  0.00     0.041 A 
ATOM     15  C   UNL     1      -0.440   1.547  -1.163  1.00  0.00     0.041 A 
ATOM     16  C   UNL     1      -0.868   2.846  -1.438  1.00  0.00     0.028 A 
ATOM     17  C   UNL     1       0.824   1.381  -0.620  1.00  0.00     0.028 A 
ATOM     18  C   UNL     1      -0.077   3.952  -1.073  1.00  0.00     0.028 A 
ATOM     19  C   UNL     1       1.619   2.466  -0.273  1.00  0.00     0.028 A 
BRANCH  15  20
ATOM     20  N   UNL     1      -1.239   0.456  -1.541  1.00  0.00    -0.326 N 
ATOM     21  C   UNL     1      -1.197  -0.862  -1.161  1.00  0.00     0.224 C 
ATOM     22  O   UNL     1      -1.738  -1.698  -1.890  1.00  0.00    -0.275 OA
ATOM     23  H   UNL     1      -1.950   0.674  -2.186  1.00  0.00     0.169 HD
BRANCH  21  24
ATOM     24  C   UNL     1      -0.670  -1.263   0.214  1.00  0.00     0.103 C 
BRANCH  24  25
ATOM     25  C   UNL     1       0.365  -2.407   0.218  1.00  0.00    -0.008 C 
ATOM     26  C   UNL     1       1.780  -1.961  -0.158  1.00  0.00     0.008 C 
ATOM     27  C   UNL     1       0.415  -3.042   1.611  1.00  0.00     0.008 C 
ENDBRANCH  24  25
ENDBRANCH  21  24
ENDBRANCH  15  20
ENDBRANCH  11  14
ENDBRANCH   5  10
ENDBRANCH   2   4
ENDBRANCH   1   2
BRANCH   1  28
ATOM     28  C   UNL     1      -1.362   5.176   5.087  1.00  0.00     0.274 C 
BRANCH  28  29
ATOM     29  C   UNL     1      -0.920   3.800   5.574  1.00  0.00     0.275 C 
BRANCH  29  30
ATOM     30  O   UNL     1       0.467   3.603   5.254  1.00  0.00    -0.458 OA
BRANCH  30  31
ATOM     31  C   UNL     1       0.745   2.595   4.404  1.00  0.00     0.338 C 
ATOM     32  O   UNL     1      -0.025   1.772   3.929  1.00  0.00    -0.246 OA
BRANCH  31  33
ATOM     33  C   UNL     1       2.169   2.643   4.055  1.00  0.00     0.060 A 
ATOM     34  C   UNL     1       2.616   3.662   3.222  1.00  0.00     0.016 A 
ATOM     35  C   UNL     1       3.033   1.619   4.436  1.00  0.00     0.016 A 
ATOM     36  C   UNL     1       3.903   3.616   2.695  1.00  0.00     0.010 A 
ATOM     37  C   UNL     1       4.352   1.617   3.960  1.00  0.00     0.010 A 
ATOM     38  C   UNL     1       4.789   2.588   3.040  1.00  0.00    -0.014 A 
BRANCH  38  39
ATOM     39  C   UNL     1       6.117   2.486   2.363  1.00  0.00     0.031 A 
ATOM     40  C   UNL     1       6.486   1.229   1.613  1.00  0.00     0.074 A 
ATOM     41  C   UNL     1       6.975   3.527   2.339  1.00  0.00     0.049 A 
ATOM     42  N   UNL     1       7.641   0.868   1.111  1.00  0.00    -0.248 NA
ATOM     43  C   UNL     1       5.413   0.244   1.403  1.00  0.00     0.031 C 
ATOM     44  C   UNL     1       6.735   4.841   2.937  1.00  0.00     0.029 A 
ATOM     45  N   UNL     1       8.217   3.652   1.761  1.00  0.00    -0.354 N 
ATOM     46  C   UNL     1       7.454  -0.411   0.602  1.00  0.00     0.074 A 
ATOM     47  C   UNL     1       6.069  -0.760   0.838  1.00  0.00     0.031 C 
ATOM     48  C   UNL     1       7.759   5.654   2.640  1.00  0.00     0.029 A 
ATOM     49  C   UNL     1       8.781   4.894   1.929  1.00  0.00     0.049 A 
ATOM     50  H   UNL     1       8.660   2.920   1.274  1.00  0.00     0.167 HD
ATOM     51  C   UNL     1       8.357  -1.222   0.000  1.00  0.00     0.037 A 
ATOM     52  C   UNL     1       9.999   5.361   1.595  1.00  0.00     0.037 A 
ATOM     53  C   UNL     1       9.712  -0.847  -0.310  1.00  0.00     0.049 A 
ATOM     54  C   UNL     1      10.993   4.436   0.950  1.00  0.00     0.074 A 
ATOM     55  C   UNL     1      10.701  -1.604  -0.916  1.00  0.00     0.029 A 
ATOM     56  N   UNL     1      10.261   0.402  -0.066  1.00  0.00    -0.354 N 
ATOM     57  N   UNL     1      10.843   3.189   0.579  1.00  0.00    -0.248 NA
ATOM     58  C   UNL     1      12.339   4.976   0.710  1.00  0.00     0.031 C 
ATOM     59  C   UNL     1      11.857  -0.822  -1.012  1.00  0.00     0.029 A 
ATOM     60  C   UNL     1      11.576   0.435  -0.503  1.00  0.00     0.049 A 
ATOM     61  H   UNL     1       9.787   1.155   0.357  1.00  0.00     0.167 HD
ATOM     62  C   UNL     1      12.070   2.795   0.063  1.00  0.00     0.074 A 
ATOM     63  C   UNL     1      12.947   3.944   0.141  1.00  0.00     0.031 C 
ATOM     64  C   UNL     1      12.439   1.583  -0.419  1.00  0.00     0.037 A 
BRANCH  51  65
ATOM     65  C   UNL     1       7.925  -2.623  -0.324  1.00  0.00     0.064 A 
ATOM     66  C   UNL     1       7.053  -2.911  -1.382  1.00  0.00     0.173 A 
ATOM     67  C   UNL     1       8.433  -3.700   0.421  1.00  0.00     0.173 A 
ATOM     68  F   UNL     1       6.525  -1.917  -2.112  1.00  0.00    -0.203 F 
ATOM     69  C   UNL     1       6.688  -4.225  -1.670  1.00  0.00     0.198 A 
ATOM     70  C   UNL     1       8.089  -5.012   0.114  1.00  0.00     0.198 A 
ATOM     71  F   UNL     1       9.274  -3.477   1.442  1.00  0.00    -0.203 F 
ATOM     72  F   UNL     1       5.819  -4.476  -2.658  1.00  0.00    -0.200 F 
ATOM     73  C   UNL     1       7.212  -5.274  -0.927  1.00  0.00     0.200 A 
ATOM     74  F   UNL     1       8.605  -6.024   0.826  1.00  0.00    -0.200 F 
ATOM     75  F   UNL     1       6.866  -6.537  -1.212  1.00  0.00    -0.200 F 
ENDBRANCH  51  65
BRANCH  52  76
ATOM     76  C   UNL     1      10.370   6.764   1.921  1.00  0.00     0.064 A 
ATOM     77  C   UNL     1      10.591   7.708   0.910  1.00  0.00     0.173 A 
ATOM     78  C   UNL     1      10.514   7.187   3.252  1.00  0.00     0.173 A 
ATOM     79  F   UNL     1      10.501   7.344  -0.378  1.00  0.00    -0.203 F 
ATOM     80  C   UNL     1      10.946   9.021   1.217  1.00  0.00     0.198 A 
ATOM     81  C   UNL     1      10.836   8.507   3.558  1.00  0.00     0.198 A 
ATOM     82  F   UNL     1      10.326   6.320   4.257  1.00  0.00    -0.203 F 
ATOM     83  F   UNL     1      11.196   9.893   0.230  1.00  0.00    -0.200 F 
ATOM     84  C   UNL     1      11.058   9.421   2.540  1.00  0.00     0.200 A 
ATOM     85  F   UNL     1      10.932   8.891   4.838  1.00  0.00    -0.200 F 
ATOM     86  F   UNL     1      11.391  10.685   2.834  1.00  0.00    -0.200 F 
ENDBRANCH  52  76
BRANCH  64  87
ATOM     87  C   UNL     1      13.847   1.445  -0.917  1.00  0.00     0.064 A 
ATOM     88  C   UNL     1      14.933   1.379  -0.031  1.00  0.00     0.173 A 
ATOM     89  C   UNL     1      14.111   1.350  -2.291  1.00  0.00     0.173 A 
ATOM     90  F   UNL     1      14.732   1.482   1.291  1.00  0.00    -0.203 F 
ATOM     91  C   UNL     1      16.235   1.247  -0.505  1.00  0.00     0.198 A 
ATOM     92  C   UNL     1      15.412   1.193  -2.760  1.00  0.00     0.198 A 
ATOM     93  F   UNL     1      13.106   1.403  -3.178  1.00  0.00    -0.203 F 
ATOM     94  F   UNL     1      17.261   1.230   0.356  1.00  0.00    -0.200 F 
ATOM     95  C   UNL     1      16.473   1.148  -1.868  1.00  0.00     0.200 A 
ATOM     96  F   UNL     1      15.640   1.088  -4.077  1.00  0.00    -0.200 F 
ATOM     97  F   UNL     1      17.727   1.018  -2.323  1.00  0.00    -0.200 F 
ENDBRANCH  64  87
ENDBRANCH  38  39
ENDBRANCH  31  33
ENDBRANCH  30  31
ENDBRANCH  29  30
ENDBRANCH  28  29
ENDBRANCH   1  28
TORSDOF 16
