REMARK SMILES Cc1ccc(/C=C/C(=O)N[C@](C)(C(=O)OCCOC(=O)c2ccc(-c3c4nc(c(-c5c(F)c(F)c(F)c(F)c5F)c5ccc([nH]5)c(-c5c(F)c(F)c(F)c(F)c5F)c5nc(c(-c6c(F)c(F)c(F)c(F)c6F)c6ccc3[nH]6)C=C5)C=C4)cc2)C(F)(F)F)o1
REMARK SMILES IDX 16 1 15 2 13 3 14 4 11 5 12 6 10 7 8 8 9 9 7 11 6 12 5 13
REMARK SMILES IDX 1 14 2 15 3 16 88 17 4 18 84 19 85 20 86 21 87 22 17 23
REMARK SMILES IDX 18 24 19 25 20 26 21 27 22 28 83 29 23 30 82 31 24 32 25 33
REMARK SMILES IDX 26 34 76 35 27 36 81 37 75 38 77 39 28 40 80 41 74 42 73 43
REMARK SMILES IDX 29 45 61 46 41 47 60 48 42 49 45 50 59 51 78 52 43 53 44 54
REMARK SMILES IDX 58 56 79 57 46 58 30 59 31 60 39 61 32 62 33 63 37 64 40 65
REMARK SMILES IDX 34 66 35 67 38 68 36 69 62 70 63 71 71 72 64 73 65 74 69 75
REMARK SMILES IDX 72 76 66 77 67 78 70 79 68 80 47 81 48 82 56 83 49 84 50 85
REMARK SMILES IDX 54 86 57 87 51 88 52 89 55 90 53 91
REMARK H PARENT 10 10 77 44 45 55
REMARK Flexibility Score: inf
ROOT
ATOM      1  C   UNL     1      -7.277   1.899  -2.171  1.00  0.00     0.274 C 
ENDROOT
BRANCH   1   2
ATOM      2  O   UNL     1      -6.293   2.357  -1.214  1.00  0.00    -0.460 OA
BRANCH   2   3
ATOM      3  C   UNL     1      -5.932   1.480  -0.232  1.00  0.00     0.341 C 
ATOM      4  O   UNL     1      -6.335   0.324  -0.181  1.00  0.00    -0.249 OA
BRANCH   3   5
ATOM      5  C   UNL     1      -5.148   2.158   0.897  1.00  0.00     0.231 C 
ATOM      6  C   UNL     1      -4.276   3.330   0.426  1.00  0.00     0.058 C 
BRANCH   5   7
ATOM      7  N   UNL     1      -6.187   2.462   1.934  1.00  0.00    -0.329 N 
ATOM      8  C   UNL     1      -6.963   3.525   2.242  1.00  0.00     0.245 C 
ATOM      9  O   UNL     1      -7.884   3.387   3.041  1.00  0.00    -0.270 OA
ATOM     10  H   UNL     1      -6.342   1.701   2.539  1.00  0.00     0.165 HD
BRANCH   8  11
ATOM     11  C   UNL     1      -6.639   4.857   1.726  1.00  0.00     0.075 C 
ATOM     12  C   UNL     1      -6.924   5.211   0.467  1.00  0.00     0.053 C 
BRANCH  12  13
ATOM     13  C   UNL     1      -6.535   6.496   0.011  1.00  0.00     0.127 A 
ATOM     14  C   UNL     1      -6.330  10.019   0.659  1.00  0.00     0.087 C 
ATOM     15  C   UNL     1      -6.206   8.690   0.032  1.00  0.00     0.101 A 
ATOM     16  C   UNL     1      -5.694   8.243  -1.162  1.00  0.00     0.046 A 
ATOM     17  O   UNL     1      -6.690   7.644   0.751  1.00  0.00    -0.462 OA
ATOM     18  C   UNL     1      -5.921   6.846  -1.186  1.00  0.00     0.050 A 
ENDBRANCH  12  13
ENDBRANCH   8  11
ENDBRANCH   5   7
BRANCH   5  19
ATOM     19  C   UNL     1      -4.179   1.080   1.430  1.00  0.00     0.422 C 
ATOM     20  F   UNL     1      -3.359   0.601   0.468  1.00  0.00    -0.168 F 
ATOM     21  F   UNL     1      -3.378   1.601   2.395  1.00  0.00    -0.168 F 
ATOM     22  F   UNL     1      -4.820   0.031   1.991  1.00  0.00    -0.168 F 
ENDBRANCH   5  19
ENDBRANCH   3   5
ENDBRANCH   2   3
ENDBRANCH   1   2
BRANCH   1  23
ATOM     23  C   UNL     1      -6.803   2.198  -3.589  1.00  0.00     0.275 C 
BRANCH  23  24
ATOM     24  O   UNL     1      -5.616   1.425  -3.830  1.00  0.00    -0.458 OA
BRANCH  24  25
ATOM     25  C   UNL     1      -4.474   2.127  -3.983  1.00  0.00     0.338 C 
ATOM     26  O   UNL     1      -4.337   3.334  -4.094  1.00  0.00    -0.246 OA
BRANCH  25  27
ATOM     27  C   UNL     1      -3.351   1.192  -3.859  1.00  0.00     0.060 A 
ATOM     28  C   UNL     1      -3.100   0.629  -2.607  1.00  0.00     0.016 A 
ATOM     29  C   UNL     1      -2.496   0.949  -4.931  1.00  0.00     0.016 A 
ATOM     30  C   UNL     1      -1.958  -0.136  -2.401  1.00  0.00     0.010 A 
ATOM     31  C   UNL     1      -1.382   0.126  -4.738  1.00  0.00     0.010 A 
ATOM     32  C   UNL     1      -1.086  -0.398  -3.465  1.00  0.00    -0.014 A 
BRANCH  32  33
ATOM     33  C   UNL     1       0.172  -1.154  -3.231  1.00  0.00     0.031 A 
ATOM     34  C   UNL     1       1.496  -0.473  -3.440  1.00  0.00     0.074 A 
ATOM     35  C   UNL     1       0.141  -2.433  -2.810  1.00  0.00     0.049 A 
ATOM     36  N   UNL     1       2.697  -0.990  -3.486  1.00  0.00    -0.248 NA
ATOM     37  C   UNL     1       1.462   0.985  -3.638  1.00  0.00     0.031 C 
ATOM     38  C   UNL     1      -1.069  -3.197  -2.508  1.00  0.00     0.029 A 
ATOM     39  N   UNL     1       1.163  -3.315  -2.560  1.00  0.00    -0.354 N 
ATOM     40  C   UNL     1       3.550   0.064  -3.786  1.00  0.00     0.074 A 
ATOM     41  C   UNL     1       2.734   1.254  -3.893  1.00  0.00     0.031 C 
ATOM     42  C   UNL     1      -0.720  -4.423  -2.088  1.00  0.00     0.029 A 
ATOM     43  C   UNL     1       0.732  -4.556  -2.163  1.00  0.00     0.049 A 
ATOM     44  H   UNL     1       2.114  -3.079  -2.656  1.00  0.00     0.167 HD
ATOM     45  C   UNL     1       4.891   0.034  -3.967  1.00  0.00     0.037 A 
ATOM     46  C   UNL     1       1.425  -5.686  -1.923  1.00  0.00     0.037 A 
ATOM     47  C   UNL     1       5.709  -1.136  -3.789  1.00  0.00     0.049 A 
ATOM     48  C   UNL     1       2.916  -5.690  -2.114  1.00  0.00     0.074 A 
ATOM     49  C   UNL     1       7.078  -1.265  -3.942  1.00  0.00     0.029 A 
ATOM     50  N   UNL     1       5.231  -2.375  -3.391  1.00  0.00    -0.354 N 
ATOM     51  N   UNL     1       3.704  -4.711  -2.483  1.00  0.00    -0.248 NA
ATOM     52  C   UNL     1       3.611  -6.964  -1.878  1.00  0.00     0.031 C 
ATOM     53  C   UNL     1       7.428  -2.589  -3.652  1.00  0.00     0.029 A 
ATOM     54  C   UNL     1       6.279  -3.275  -3.293  1.00  0.00     0.049 A 
ATOM     55  H   UNL     1       4.287  -2.584  -3.205  1.00  0.00     0.167 HD
ATOM     56  C   UNL     1       4.982  -5.247  -2.529  1.00  0.00     0.074 A 
ATOM     57  C   UNL     1       4.871  -6.633  -2.123  1.00  0.00     0.031 C 
ATOM     58  C   UNL     1       6.144  -4.650  -2.890  1.00  0.00     0.037 A 
BRANCH  45  59
ATOM     59  C   UNL     1       5.555   1.297  -4.422  1.00  0.00     0.064 A 
ATOM     60  C   UNL     1       5.804   2.362  -3.547  1.00  0.00     0.173 A 
ATOM     61  C   UNL     1       5.978   1.423  -5.754  1.00  0.00     0.173 A 
ATOM     62  F   UNL     1       5.399   2.295  -2.270  1.00  0.00    -0.203 F 
ATOM     63  C   UNL     1       6.440   3.518  -3.994  1.00  0.00     0.198 A 
ATOM     64  C   UNL     1       6.632   2.571  -6.192  1.00  0.00     0.198 A 
ATOM     65  F   UNL     1       5.762   0.430  -6.629  1.00  0.00    -0.203 F 
ATOM     66  F   UNL     1       6.637   4.541  -3.150  1.00  0.00    -0.200 F 
ATOM     67  C   UNL     1       6.859   3.619  -5.312  1.00  0.00     0.200 A 
ATOM     68  F   UNL     1       7.041   2.664  -7.465  1.00  0.00    -0.200 F 
ATOM     69  F   UNL     1       7.475   4.730  -5.739  1.00  0.00    -0.200 F 
ENDBRANCH  45  59
BRANCH  46  70
ATOM     70  C   UNL     1       0.704  -6.920  -1.522  1.00  0.00     0.064 A 
ATOM     71  C   UNL     1       0.810  -7.426  -0.220  1.00  0.00     0.173 A 
ATOM     72  C   UNL     1      -0.110  -7.613  -2.429  1.00  0.00     0.173 A 
ATOM     73  F   UNL     1       1.600  -6.813   0.674  1.00  0.00    -0.203 F 
ATOM     74  C   UNL     1       0.131  -8.582   0.159  1.00  0.00     0.198 A 
ATOM     75  C   UNL     1      -0.808  -8.755  -2.043  1.00  0.00     0.198 A 
ATOM     76  F   UNL     1      -0.240  -7.170  -3.689  1.00  0.00    -0.203 F 
ATOM     77  F   UNL     1       0.275  -9.065   1.401  1.00  0.00    -0.200 F 
ATOM     78  C   UNL     1      -0.684  -9.241  -0.750  1.00  0.00     0.200 A 
ATOM     79  F   UNL     1      -1.602  -9.381  -2.922  1.00  0.00    -0.200 F 
ATOM     80  F   UNL     1      -1.343 -10.348  -0.383  1.00  0.00    -0.200 F 
ENDBRANCH  46  70
BRANCH  58  81
ATOM     81  C   UNL     1       7.381  -5.491  -2.857  1.00  0.00     0.064 A 
ATOM     82  C   UNL     1       7.656  -6.417  -3.873  1.00  0.00     0.173 A 
ATOM     83  C   UNL     1       8.316  -5.344  -1.823  1.00  0.00     0.173 A 
ATOM     84  F   UNL     1       6.781  -6.600  -4.873  1.00  0.00    -0.203 F 
ATOM     85  C   UNL     1       8.820  -7.180  -3.846  1.00  0.00     0.198 A 
ATOM     86  C   UNL     1       9.488  -6.096  -1.809  1.00  0.00     0.198 A 
ATOM     87  F   UNL     1       8.096  -4.468  -0.831  1.00  0.00    -0.203 F 
ATOM     88  F   UNL     1       9.050  -8.082  -4.810  1.00  0.00    -0.200 F 
ATOM     89  C   UNL     1       9.736  -7.015  -2.818  1.00  0.00     0.200 A 
ATOM     90  F   UNL     1      10.375  -5.933  -0.818  1.00  0.00    -0.200 F 
ATOM     91  F   UNL     1      10.857  -7.749  -2.795  1.00  0.00    -0.200 F 
ENDBRANCH  58  81
ENDBRANCH  32  33
ENDBRANCH  25  27
ENDBRANCH  24  25
ENDBRANCH  23  24
ENDBRANCH   1  23
TORSDOF 15
