REMARK SMILES O=C(OCCOC(=O)[C@]1([NH2+]C2CC2)CCC[C@@H](n2cc(Br)cn2)C1)c1ccc(-c2c3nc(c(-c4c(F)c(F)c(F)c(F)c4F)c4ccc([nH]4)c(-c4c(F)c(F)c(F)c(F)c4F)c4nc(c(-c5c(F)c(F)c(F)c(F)c5F)c5ccc2[nH]5)C=C4)C=C3)cc1
REMARK SMILES IDX 4 1 3 2 2 3 1 4 25 5 26 6 87 7 27 8 86 9 28 10 29 11 30 12
REMARK SMILES IDX 80 13 31 14 85 15 79 16 81 17 32 18 84 19 78 20 77 21 33 23
REMARK SMILES IDX 65 24 45 25 64 26 46 27 49 28 63 29 82 30 47 31 48 32 62 34
REMARK SMILES IDX 83 35 50 36 34 37 35 38 43 39 36 40 37 41 41 42 44 43 38 44
REMARK SMILES IDX 39 45 42 46 40 47 66 48 67 49 75 50 68 51 69 52 73 53 76 54
REMARK SMILES IDX 70 55 71 56 74 57 72 58 51 59 52 60 60 61 53 62 54 63 58 64
REMARK SMILES IDX 61 65 55 66 56 67 59 68 57 69 5 70 6 71 7 72 8 73 9 74 14 75
REMARK SMILES IDX 24 76 15 77 17 78 16 79 10 80 11 83 12 84 13 85 18 86 19 87
REMARK SMILES IDX 23 88 20 89 22 90 21 91
REMARK H PARENT 81 22 49 33 10 81 10 82
REMARK Flexibility Score: inf
ROOT
ATOM      1  C   UNL     1       4.812   0.656  -5.183  1.00  0.00     0.275 C 
ENDROOT
BRANCH   1   2
ATOM      2  O   UNL     1       5.540   0.959  -3.974  1.00  0.00    -0.458 OA
BRANCH   2   3
ATOM      3  C   UNL     1       5.150   1.248  -2.716  1.00  0.00     0.338 C 
ATOM      4  O   UNL     1       5.984   1.128  -1.817  1.00  0.00    -0.246 OA
BRANCH   3   5
ATOM      5  C   UNL     1       3.821   1.809  -2.322  1.00  0.00     0.060 A 
ATOM      6  C   UNL     1       2.936   2.481  -3.167  1.00  0.00     0.016 A 
ATOM      7  C   UNL     1       3.535   1.802  -0.937  1.00  0.00     0.016 A 
ATOM      8  C   UNL     1       1.825   3.149  -2.639  1.00  0.00     0.010 A 
ATOM      9  C   UNL     1       2.453   2.502  -0.403  1.00  0.00     0.010 A 
ATOM     10  C   UNL     1       1.610   3.201  -1.256  1.00  0.00    -0.014 A 
BRANCH  10  11
ATOM     11  C   UNL     1       0.434   3.920  -0.758  1.00  0.00     0.031 A 
ATOM     12  C   UNL     1      -0.860   3.224  -1.007  1.00  0.00     0.074 A 
ATOM     13  C   UNL     1       0.484   5.079  -0.060  1.00  0.00     0.049 A 
ATOM     14  N   UNL     1      -1.835   3.622  -1.756  1.00  0.00    -0.248 NA
ATOM     15  C   UNL     1      -1.069   1.889  -0.428  1.00  0.00     0.031 C 
ATOM     16  C   UNL     1       1.669   5.715   0.523  1.00  0.00     0.029 A 
ATOM     17  N   UNL     1      -0.534   5.903   0.349  1.00  0.00    -0.354 N 
ATOM     18  C   UNL     1      -2.854   2.677  -1.617  1.00  0.00     0.074 A 
ATOM     19  C   UNL     1      -2.286   1.578  -0.884  1.00  0.00     0.031 C 
ATOM     20  C   UNL     1       1.283   6.690   1.379  1.00  0.00     0.029 A 
ATOM     21  C   UNL     1      -0.160   6.849   1.300  1.00  0.00     0.049 A 
ATOM     22  H   UNL     1      -1.452   5.830   0.000  1.00  0.00     0.167 HD
ATOM     23  C   UNL     1      -4.143   3.002  -1.923  1.00  0.00     0.037 A 
ATOM     24  C   UNL     1      -0.977   7.684   1.994  1.00  0.00     0.037 A 
ATOM     25  C   UNL     1      -4.198   4.233  -2.662  1.00  0.00     0.049 A 
ATOM     26  C   UNL     1      -2.233   7.841   1.228  1.00  0.00     0.074 A 
ATOM     27  C   UNL     1      -4.169   4.648  -3.970  1.00  0.00     0.029 A 
ATOM     28  N   UNL     1      -4.023   5.336  -1.879  1.00  0.00    -0.354 N 
ATOM     29  N   UNL     1      -2.310   8.469   0.089  1.00  0.00    -0.248 NA
ATOM     30  C   UNL     1      -3.391   7.024   1.575  1.00  0.00     0.031 C 
ATOM     31  C   UNL     1      -3.817   6.031  -3.943  1.00  0.00     0.029 A 
ATOM     32  C   UNL     1      -3.724   6.443  -2.617  1.00  0.00     0.049 A 
ATOM     33  H   UNL     1      -4.103   5.333  -0.898  1.00  0.00     0.167 HD
ATOM     34  C   UNL     1      -3.289   7.789  -0.601  1.00  0.00     0.074 A 
ATOM     35  C   UNL     1      -4.040   7.053   0.408  1.00  0.00     0.031 C 
ATOM     36  C   UNL     1      -3.191   7.604  -1.949  1.00  0.00     0.037 A 
BRANCH  23  37
ATOM     37  C   UNL     1      -5.383   2.552  -1.169  1.00  0.00     0.064 A 
ATOM     38  C   UNL     1      -6.649   2.989  -1.629  1.00  0.00     0.173 A 
ATOM     39  C   UNL     1      -5.359   2.063   0.152  1.00  0.00     0.173 A 
ATOM     40  F   UNL     1      -6.800   3.460  -2.877  1.00  0.00    -0.203 F 
ATOM     41  C   UNL     1      -7.767   3.043  -0.792  1.00  0.00     0.198 A 
ATOM     42  C   UNL     1      -6.491   2.077   0.971  1.00  0.00     0.198 A 
ATOM     43  F   UNL     1      -4.226   1.663   0.740  1.00  0.00    -0.203 F 
ATOM     44  F   UNL     1      -8.906   3.594  -1.234  1.00  0.00    -0.200 F 
ATOM     45  C   UNL     1      -7.683   2.602   0.513  1.00  0.00     0.200 A 
ATOM     46  F   UNL     1      -6.390   1.657   2.240  1.00  0.00    -0.200 F 
ATOM     47  F   UNL     1      -8.729   2.720   1.341  1.00  0.00    -0.200 F 
ENDBRANCH  23  37
BRANCH  24  48
ATOM     48  C   UNL     1      -0.857   8.197   3.383  1.00  0.00     0.064 A 
ATOM     49  C   UNL     1      -1.631   9.284   3.833  1.00  0.00     0.173 A 
ATOM     50  C   UNL     1      -0.219   7.434   4.377  1.00  0.00     0.173 A 
ATOM     51  F   UNL     1      -2.305  10.043   2.957  1.00  0.00    -0.203 F 
ATOM     52  C   UNL     1      -1.793   9.558   5.196  1.00  0.00     0.198 A 
ATOM     53  C   UNL     1      -0.378   7.712   5.737  1.00  0.00     0.198 A 
ATOM     54  F   UNL     1       0.485   6.340   4.054  1.00  0.00    -0.203 F 
ATOM     55  F   UNL     1      -2.600  10.555   5.588  1.00  0.00    -0.200 F 
ATOM     56  C   UNL     1      -1.178   8.762   6.147  1.00  0.00     0.200 A 
ATOM     57  F   UNL     1       0.192   6.910   6.648  1.00  0.00    -0.200 F 
ATOM     58  F   UNL     1      -1.392   8.976   7.453  1.00  0.00    -0.200 F 
ENDBRANCH  24  48
BRANCH  36  59
ATOM     59  C   UNL     1      -2.360   8.569  -2.729  1.00  0.00     0.064 A 
ATOM     60  C   UNL     1      -0.980   8.760  -2.554  1.00  0.00     0.173 A 
ATOM     61  C   UNL     1      -2.991   9.302  -3.743  1.00  0.00     0.173 A 
ATOM     62  F   UNL     1      -0.286   8.031  -1.669  1.00  0.00    -0.203 F 
ATOM     63  C   UNL     1      -0.281   9.688  -3.324  1.00  0.00     0.198 A 
ATOM     64  C   UNL     1      -2.283  10.192  -4.541  1.00  0.00     0.198 A 
ATOM     65  F   UNL     1      -4.302   9.132  -3.982  1.00  0.00    -0.203 F 
ATOM     66  F   UNL     1       1.030   9.881  -3.117  1.00  0.00    -0.200 F 
ATOM     67  C   UNL     1      -0.932  10.398  -4.320  1.00  0.00     0.200 A 
ATOM     68  F   UNL     1      -2.909  10.838  -5.534  1.00  0.00    -0.200 F 
ATOM     69  F   UNL     1      -0.254  11.268  -5.082  1.00  0.00    -0.200 F 
ENDBRANCH  36  59
ENDBRANCH  10  11
ENDBRANCH   3   5
ENDBRANCH   2   3
ENDBRANCH   1   2
BRANCH   1  70
ATOM     70  C   UNL     1       4.386  -0.800  -5.227  1.00  0.00     0.274 C 
BRANCH  70  71
ATOM     71  O   UNL     1       3.369  -0.989  -4.234  1.00  0.00    -0.457 OA
BRANCH  71  72
ATOM     72  C   UNL     1       3.560  -1.989  -3.337  1.00  0.00     0.368 C 
ATOM     73  O   UNL     1       4.545  -2.732  -3.342  1.00  0.00    -0.245 OA
BRANCH  72  74
ATOM     74  C   UNL     1       2.345  -2.148  -2.374  1.00  0.00     0.196 C 
ATOM     75  C   UNL     1       1.819  -3.597  -2.505  1.00  0.00     0.081 C 
ATOM     76  C   UNL     1       1.179  -1.160  -2.680  1.00  0.00     0.108 C 
ATOM     77  C   UNL     1       1.137  -3.859  -3.851  1.00  0.00     0.009 C 
ATOM     78  C   UNL     1       0.475  -1.442  -4.018  1.00  0.00     0.114 C 
ATOM     79  C   UNL     1      -0.016  -2.892  -4.092  1.00  0.00     0.028 C 
BRANCH  74  80
ATOM     80  N   UNL     1       2.778  -1.839  -0.976  1.00  0.00    -0.330 N 
ATOM     81  H   UNL     1       1.979  -1.996  -0.361  1.00  0.00     0.347 HD
ATOM     82  H   UNL     1       3.108  -0.875  -0.999  1.00  0.00     0.347 HD
BRANCH  80  83
ATOM     83  C   UNL     1       3.906  -2.630  -0.456  1.00  0.00     0.183 C 
ATOM     84  C   UNL     1       5.264  -2.004  -0.317  1.00  0.00     0.071 C 
ATOM     85  C   UNL     1       4.446  -2.283   0.907  1.00  0.00     0.071 C 
ENDBRANCH  80  83
ENDBRANCH  74  80
BRANCH  78  86
ATOM     86  N   UNL     1      -0.558  -0.454  -4.315  1.00  0.00    -0.268 N 
ATOM     87  C   UNL     1      -0.361   0.681  -5.056  1.00  0.00     0.124 A 
ATOM     88  N   UNL     1      -1.855  -0.671  -4.007  1.00  0.00    -0.180 NA
ATOM     89  C   UNL     1      -1.613   1.150  -5.339  1.00  0.00     0.055 A 
ATOM     90  C   UNL     1      -2.500   0.301  -4.668  1.00  0.00     0.150 A 
ATOM     91  Br  UNL     1      -2.062   2.580  -6.446  1.00  0.00    -0.047 Br
ENDBRANCH  78  86
ENDBRANCH  72  74
ENDBRANCH  71  72
ENDBRANCH  70  71
ENDBRANCH   1  70
TORSDOF 14
