REMARK SMILES C[C@H]1[C@H](C(=O)OCCOC(=O)c2ccc(-c3c4nc(c(-c5c(F)c(F)c(F)c(F)c5F)c5ccc([nH]5)c(-c5c(F)c(F)c(F)c(F)c5F)c5nc(c(-c6c(F)c(F)c(F)c(F)c6F)c6ccc3[nH]6)C=C5)C=C4)cc2)CC[N@@H+]1[C@@H](c1ccccc1)c1ccco1
REMARK SMILES IDX 7 1 6 2 4 3 5 4 3 5 1 6 2 7 77 8 75 9 76 10 78 12 79 13
REMARK SMILES IDX 80 14 84 15 81 16 83 17 82 18 85 19 86 20 89 21 87 22 88 23
REMARK SMILES IDX 8 24 9 25 10 26 11 27 12 28 13 29 74 30 14 31 73 32 15 33
REMARK SMILES IDX 16 34 17 35 67 36 18 37 72 38 66 39 68 40 19 41 71 42 65 43
REMARK SMILES IDX 64 44 20 46 52 47 32 48 51 49 33 50 36 51 50 52 69 53 34 54
REMARK SMILES IDX 35 55 49 57 70 58 37 59 21 60 22 61 30 62 23 63 24 64 28 65
REMARK SMILES IDX 31 66 25 67 26 68 29 69 27 70 53 71 54 72 62 73 55 74 56 75
REMARK SMILES IDX 60 76 63 77 57 78 58 79 61 80 59 81 38 82 39 83 47 84 40 85
REMARK SMILES IDX 41 86 45 87 48 88 42 89 43 90 46 91 44 92
REMARK H PARENT 77 11 68 45 36 56
REMARK Flexibility Score: inf
ROOT
ATOM      1  C   UNL     1      -0.358   3.115   3.258  1.00  0.00     0.274 C 
ENDROOT
BRANCH   1   2
ATOM      2  O   UNL     1      -0.224   2.037   2.312  1.00  0.00    -0.462 OA
BRANCH   2   3
ATOM      3  C   UNL     1      -0.739   2.221   1.075  1.00  0.00     0.315 C 
ATOM      4  O   UNL     1      -1.354   3.223   0.721  1.00  0.00    -0.252 OA
BRANCH   3   5
ATOM      5  C   UNL     1      -0.439   1.091   0.106  1.00  0.00     0.162 C 
ATOM      6  C   UNL     1       1.683  -0.223  -0.256  1.00  0.00     0.076 C 
ATOM      7  C   UNL     1       0.425  -0.070   0.614  1.00  0.00     0.196 C 
ATOM      8  N   UNL     1      -0.378  -1.289   0.445  1.00  0.00    -0.319 N 
ATOM      9  C   UNL     1      -1.732   0.479  -0.410  1.00  0.00     0.083 C 
ATOM     10  C   UNL     1      -1.451  -1.005  -0.501  1.00  0.00     0.264 C 
ATOM     11  H   UNL     1       0.196  -2.024   0.030  1.00  0.00     0.349 HD
BRANCH   8  12
ATOM     12  C   UNL     1      -0.747  -1.976   1.705  1.00  0.00     0.283 C 
BRANCH  12  13
ATOM     13  C   UNL     1      -1.474  -1.134   2.759  1.00  0.00     0.017 A 
ATOM     14  C   UNL     1      -0.819  -0.814   3.963  1.00  0.00     0.010 A 
ATOM     15  C   UNL     1      -2.788  -0.670   2.587  1.00  0.00     0.010 A 
ATOM     16  C   UNL     1      -1.448  -0.045   4.946  1.00  0.00     0.001 A 
ATOM     17  C   UNL     1      -3.408   0.121   3.557  1.00  0.00     0.001 A 
ATOM     18  C   UNL     1      -2.739   0.431   4.737  1.00  0.00     0.000 A 
ENDBRANCH  12  13
BRANCH  12  19
ATOM     19  C   UNL     1      -1.376  -3.321   1.415  1.00  0.00     0.165 A 
ATOM     20  C   UNL     1      -0.934  -4.405   0.678  1.00  0.00     0.052 A 
ATOM     21  O   UNL     1      -2.622  -3.587   1.909  1.00  0.00    -0.463 OA
ATOM     22  C   UNL     1      -1.963  -5.374   0.723  1.00  0.00     0.042 A 
ATOM     23  C   UNL     1      -2.966  -4.829   1.487  1.00  0.00     0.195 A 
ENDBRANCH  12  19
ENDBRANCH   8  12
ENDBRANCH   3   5
ENDBRANCH   2   3
ENDBRANCH   1   2
BRANCH   1  24
ATOM     24  C   UNL     1       1.017   3.697   3.584  1.00  0.00     0.275 C 
BRANCH  24  25
ATOM     25  O   UNL     1       1.558   4.383   2.441  1.00  0.00    -0.458 OA
BRANCH  25  26
ATOM     26  C   UNL     1       2.301   3.612   1.616  1.00  0.00     0.338 C 
ATOM     27  O   UNL     1       2.632   2.450   1.763  1.00  0.00    -0.246 OA
BRANCH  26  28
ATOM     28  C   UNL     1       2.566   4.367   0.388  1.00  0.00     0.060 A 
ATOM     29  C   UNL     1       1.839   4.042  -0.759  1.00  0.00     0.016 A 
ATOM     30  C   UNL     1       3.572   5.326   0.348  1.00  0.00     0.016 A 
ATOM     31  C   UNL     1       2.136   4.646  -1.972  1.00  0.00     0.010 A 
ATOM     32  C   UNL     1       3.848   5.961  -0.863  1.00  0.00     0.010 A 
ATOM     33  C   UNL     1       3.142   5.612  -2.030  1.00  0.00    -0.014 A 
BRANCH  33  34
ATOM     34  C   UNL     1       3.501   6.240  -3.318  1.00  0.00     0.031 A 
ATOM     35  C   UNL     1       4.837   5.941  -3.924  1.00  0.00     0.074 A 
ATOM     36  C   UNL     1       2.648   7.092  -3.912  1.00  0.00     0.049 A 
ATOM     37  N   UNL     1       5.468   6.561  -4.885  1.00  0.00    -0.248 NA
ATOM     38  C   UNL     1       5.566   4.793  -3.361  1.00  0.00     0.031 C 
ATOM     39  C   UNL     1       1.292   7.391  -3.451  1.00  0.00     0.029 A 
ATOM     40  N   UNL     1       2.808   7.883  -5.020  1.00  0.00    -0.354 N 
ATOM     41  C   UNL     1       6.689   5.913  -5.008  1.00  0.00     0.074 A 
ATOM     42  C   UNL     1       6.709   4.847  -4.030  1.00  0.00     0.031 C 
ATOM     43  C   UNL     1       0.749   8.316  -4.259  1.00  0.00     0.029 A 
ATOM     44  C   UNL     1       1.746   8.724  -5.243  1.00  0.00     0.049 A 
ATOM     45  H   UNL     1       3.605   7.852  -5.597  1.00  0.00     0.167 HD
ATOM     46  C   UNL     1       7.701   6.201  -5.859  1.00  0.00     0.037 A 
ATOM     47  C   UNL     1       1.620   9.749  -6.106  1.00  0.00     0.037 A 
ATOM     48  C   UNL     1       7.644   7.250  -6.842  1.00  0.00     0.049 A 
ATOM     49  C   UNL     1       2.779  10.088  -7.002  1.00  0.00     0.074 A 
ATOM     50  C   UNL     1       8.607   7.631  -7.758  1.00  0.00     0.029 A 
ATOM     51  N   UNL     1       6.549   8.081  -7.039  1.00  0.00    -0.354 N 
ATOM     52  N   UNL     1       3.953   9.511  -7.086  1.00  0.00    -0.248 NA
ATOM     53  C   UNL     1       2.605  11.230  -7.909  1.00  0.00     0.031 C 
ATOM     54  C   UNL     1       8.108   8.716  -8.486  1.00  0.00     0.029 A 
ATOM     55  C   UNL     1       6.818   8.982  -8.054  1.00  0.00     0.049 A 
ATOM     56  H   UNL     1       5.707   8.036  -6.532  1.00  0.00     0.167 HD
ATOM     57  C   UNL     1       4.648  10.198  -8.071  1.00  0.00     0.074 A 
ATOM     58  C   UNL     1       3.762  11.236  -8.557  1.00  0.00     0.031 C 
ATOM     59  C   UNL     1       5.905   9.988  -8.532  1.00  0.00     0.037 A 
BRANCH  46  60
ATOM     60  C   UNL     1       8.964   5.404  -5.732  1.00  0.00     0.064 A 
ATOM     61  C   UNL     1       9.043   4.068  -6.149  1.00  0.00     0.173 A 
ATOM     62  C   UNL     1      10.121   5.998  -5.206  1.00  0.00     0.173 A 
ATOM     63  F   UNL     1       7.960   3.449  -6.643  1.00  0.00    -0.203 F 
ATOM     64  C   UNL     1      10.230   3.349  -6.025  1.00  0.00     0.198 A 
ATOM     65  C   UNL     1      11.312   5.285  -5.107  1.00  0.00     0.198 A 
ATOM     66  F   UNL     1      10.098   7.274  -4.792  1.00  0.00    -0.203 F 
ATOM     67  F   UNL     1      10.273   2.060  -6.390  1.00  0.00    -0.200 F 
ATOM     68  C   UNL     1      11.364   3.960  -5.510  1.00  0.00     0.200 A 
ATOM     69  F   UNL     1      12.409   5.880  -4.617  1.00  0.00    -0.200 F 
ATOM     70  F   UNL     1      12.507   3.268  -5.396  1.00  0.00    -0.200 F 
ENDBRANCH  46  60
BRANCH  47  71
ATOM     71  C   UNL     1       0.367  10.547  -6.126  1.00  0.00     0.064 A 
ATOM     72  C   UNL     1      -0.511  10.480  -7.215  1.00  0.00     0.173 A 
ATOM     73  C   UNL     1       0.015  11.377  -5.051  1.00  0.00     0.173 A 
ATOM     74  F   UNL     1      -0.206   9.718  -8.275  1.00  0.00    -0.203 F 
ATOM     75  C   UNL     1      -1.692  11.220  -7.232  1.00  0.00     0.198 A 
ATOM     76  C   UNL     1      -1.179  12.096  -5.058  1.00  0.00     0.198 A 
ATOM     77  F   UNL     1       0.822  11.476  -3.985  1.00  0.00    -0.203 F 
ATOM     78  F   UNL     1      -2.498  11.166  -8.301  1.00  0.00    -0.200 F 
ATOM     79  C   UNL     1      -2.029  12.021  -6.151  1.00  0.00     0.200 A 
ATOM     80  F   UNL     1      -1.506  12.857  -4.005  1.00  0.00    -0.200 F 
ATOM     81  F   UNL     1      -3.169  12.725  -6.165  1.00  0.00    -0.200 F 
ENDBRANCH  47  71
BRANCH  59  82
ATOM     82  C   UNL     1       6.377  10.860  -9.655  1.00  0.00     0.064 A 
ATOM     83  C   UNL     1       6.784  12.183  -9.436  1.00  0.00     0.173 A 
ATOM     84  C   UNL     1       6.493  10.335 -10.951  1.00  0.00     0.173 A 
ATOM     85  F   UNL     1       6.676  12.730  -8.216  1.00  0.00    -0.203 F 
ATOM     86  C   UNL     1       7.284  12.955 -10.481  1.00  0.00     0.198 A 
ATOM     87  C   UNL     1       7.015  11.102 -11.987  1.00  0.00     0.198 A 
ATOM     88  F   UNL     1       6.121   9.072 -11.204  1.00  0.00    -0.203 F 
ATOM     89  F   UNL     1       7.644  14.226 -10.259  1.00  0.00    -0.200 F 
ATOM     90  C   UNL     1       7.408  12.411 -11.752  1.00  0.00     0.200 A 
ATOM     91  F   UNL     1       7.146  10.572 -13.211  1.00  0.00    -0.200 F 
ATOM     92  F   UNL     1       7.905  13.152 -12.752  1.00  0.00    -0.200 F 
ENDBRANCH  59  82
ENDBRANCH  33  34
ENDBRANCH  26  28
ENDBRANCH  25  26
ENDBRANCH  24  25
ENDBRANCH   1  24
TORSDOF 14
