REMARK SMILES Cc1nsc(N[C@H](C)c2cccc(Br)c2)c1C(=O)OCCOC(=O)c1ccc(-c2c3nc(c(-c4c(F)c(F)c(F)c(F)c4F)c4ccc([nH]4)c(-c4c(F)c(F)c(F)c(F)c4F)c4nc(c(-c5c(F)c(F)c(F)c(F)c5F)c5ccc2[nH]5)C=C4)C=C3)cc1
REMARK SMILES IDX 20 1 19 2 17 3 18 4 16 5 1 6 2 7 3 8 4 9 5 10 6 11 7 13 8 14
REMARK SMILES IDX 9 15 10 16 15 17 11 18 13 19 12 20 14 21 21 22 22 23 23 24
REMARK SMILES IDX 24 25 25 26 26 27 87 28 27 29 86 30 28 31 29 32 30 33 80 34
REMARK SMILES IDX 31 35 85 36 79 37 81 38 32 39 84 40 78 41 77 42 33 44 65 45
REMARK SMILES IDX 45 46 64 47 46 48 49 49 63 50 82 51 47 52 48 53 62 55 83 56
REMARK SMILES IDX 50 57 34 58 35 59 43 60 36 61 37 62 41 63 44 64 38 65 39 66
REMARK SMILES IDX 42 67 40 68 66 69 67 70 75 71 68 72 69 73 73 74 76 75 70 76
REMARK SMILES IDX 71 77 74 78 72 79 51 80 52 81 60 82 53 83 54 84 58 85 61 86
REMARK SMILES IDX 55 87 56 88 59 89 57 90
REMARK H PARENT 6 12 81 43 49 54
REMARK Flexibility Score: inf
ROOT
ATOM      1  C   UNL     1      -5.957   6.300  -3.122  1.00  0.00     0.275 C 
ENDROOT
BRANCH   1   2
ATOM      2  O   UNL     1      -4.933   7.217  -3.543  1.00  0.00    -0.458 OA
BRANCH   2   3
ATOM      3  C   UNL     1      -3.634   6.861  -3.312  1.00  0.00     0.343 C 
ATOM      4  O   UNL     1      -3.305   5.935  -2.576  1.00  0.00    -0.246 OA
BRANCH   3   5
ATOM      5  C   UNL     1      -2.688   7.617  -4.130  1.00  0.00     0.117 A 
ATOM      6  C   UNL     1      -4.197   9.658  -4.822  1.00  0.00     0.069 C 
ATOM      7  C   UNL     1      -2.957   8.830  -4.871  1.00  0.00     0.068 A 
ATOM      8  N   UNL     1      -1.988   9.240  -5.688  1.00  0.00    -0.195 NA
ATOM      9  S   UNL     1      -0.754   8.154  -5.633  1.00  0.00    -0.018 S 
ATOM     10  C   UNL     1      -1.369   7.199  -4.343  1.00  0.00     0.124 A 
BRANCH  10  11
ATOM     11  N   UNL     1      -0.703   6.236  -3.633  1.00  0.00    -0.368 N 
ATOM     12  H   UNL     1      -0.890   6.211  -2.667  1.00  0.00     0.162 HD
BRANCH  11  13
ATOM     13  C   UNL     1       0.251   5.240  -4.122  1.00  0.00     0.107 C 
ATOM     14  C   UNL     1       0.675   4.386  -2.913  1.00  0.00     0.036 C 
BRANCH  13  15
ATOM     15  C   UNL     1       1.510   5.720  -4.825  1.00  0.00    -0.025 A 
ATOM     16  C   UNL     1       2.106   6.968  -4.605  1.00  0.00     0.006 A 
ATOM     17  C   UNL     1       2.159   4.825  -5.703  1.00  0.00     0.021 A 
ATOM     18  C   UNL     1       3.244   7.355  -5.324  1.00  0.00     0.002 A 
ATOM     19  C   UNL     1       3.323   5.195  -6.375  1.00  0.00     0.018 A 
ATOM     20  C   UNL     1       3.854   6.469  -6.211  1.00  0.00     0.016 A 
ATOM     21  Br  UNL     1       4.190   3.948  -7.502  1.00  0.00    -0.051 Br
ENDBRANCH  13  15
ENDBRANCH  11  13
ENDBRANCH  10  11
ENDBRANCH   3   5
ENDBRANCH   2   3
ENDBRANCH   1   2
BRANCH   1  22
ATOM     22  C   UNL     1      -6.422   5.442  -4.297  1.00  0.00     0.275 C 
BRANCH  22  23
ATOM     23  O   UNL     1      -5.500   4.386  -4.596  1.00  0.00    -0.458 OA
BRANCH  23  24
ATOM     24  C   UNL     1      -4.570   4.690  -5.530  1.00  0.00     0.338 C 
ATOM     25  O   UNL     1      -4.290   5.795  -5.955  1.00  0.00    -0.246 OA
BRANCH  24  26
ATOM     26  C   UNL     1      -3.992   3.458  -6.083  1.00  0.00     0.060 A 
ATOM     27  C   UNL     1      -2.729   3.529  -6.675  1.00  0.00     0.016 A 
ATOM     28  C   UNL     1      -4.772   2.299  -6.176  1.00  0.00     0.016 A 
ATOM     29  C   UNL     1      -2.277   2.458  -7.430  1.00  0.00     0.010 A 
ATOM     30  C   UNL     1      -4.315   1.227  -6.924  1.00  0.00     0.010 A 
ATOM     31  C   UNL     1      -3.092   1.329  -7.593  1.00  0.00    -0.014 A 
BRANCH  31  32
ATOM     32  C   UNL     1      -2.595   0.238  -8.431  1.00  0.00     0.031 A 
ATOM     33  C   UNL     1      -1.346  -0.414  -7.954  1.00  0.00     0.074 A 
ATOM     34  C   UNL     1      -3.271  -0.245  -9.493  1.00  0.00     0.049 A 
ATOM     35  N   UNL     1      -0.258  -0.642  -8.618  1.00  0.00    -0.248 NA
ATOM     36  C   UNL     1      -1.282  -0.819  -6.540  1.00  0.00     0.031 C 
ATOM     37  C   UNL     1      -4.629   0.119  -9.911  1.00  0.00     0.029 A 
ATOM     38  N   UNL     1      -2.931  -1.244 -10.367  1.00  0.00    -0.354 N 
ATOM     39  C   UNL     1       0.569  -1.357  -7.757  1.00  0.00     0.074 A 
ATOM     40  C   UNL     1      -0.063  -1.350  -6.464  1.00  0.00     0.031 C 
ATOM     41  C   UNL     1      -5.076  -0.785 -10.806  1.00  0.00     0.029 A 
ATOM     42  C   UNL     1      -3.996  -1.704 -11.126  1.00  0.00     0.049 A 
ATOM     43  H   UNL     1      -2.017  -1.602 -10.448  1.00  0.00     0.167 HD
ATOM     44  C   UNL     1       1.606  -2.101  -8.224  1.00  0.00     0.037 A 
ATOM     45  C   UNL     1      -4.031  -2.785 -11.939  1.00  0.00     0.037 A 
ATOM     46  C   UNL     1       1.996  -1.724  -9.552  1.00  0.00     0.049 A 
ATOM     47  C   UNL     1      -2.652  -3.135 -12.343  1.00  0.00     0.074 A 
ATOM     48  C   UNL     1       2.784  -0.753 -10.127  1.00  0.00     0.029 A 
ATOM     49  N   UNL     1       1.266  -2.302 -10.551  1.00  0.00    -0.354 N 
ATOM     50  N   UNL     1      -1.915  -2.394 -13.121  1.00  0.00    -0.248 NA
ATOM     51  C   UNL     1      -1.950  -4.225 -11.671  1.00  0.00     0.031 C 
ATOM     52  C   UNL     1       2.382  -0.661 -11.493  1.00  0.00     0.029 A 
ATOM     53  C   UNL     1       1.352  -1.572 -11.708  1.00  0.00     0.049 A 
ATOM     54  H   UNL     1       0.746  -3.133 -10.454  1.00  0.00     0.167 HD
ATOM     55  C   UNL     1      -0.623  -2.656 -12.713  1.00  0.00     0.074 A 
ATOM     56  C   UNL     1      -0.690  -3.907 -11.976  1.00  0.00     0.031 C 
ATOM     57  C   UNL     1       0.316  -1.671 -12.706  1.00  0.00     0.037 A 
BRANCH  44  58
ATOM     58  C   UNL     1       1.988  -3.449  -7.661  1.00  0.00     0.064 A 
ATOM     59  C   UNL     1       3.191  -4.058  -8.069  1.00  0.00     0.173 A 
ATOM     60  C   UNL     1       1.067  -4.293  -7.002  1.00  0.00     0.173 A 
ATOM     61  F   UNL     1       4.122  -3.356  -8.732  1.00  0.00    -0.203 F 
ATOM     62  C   UNL     1       3.428  -5.423  -7.877  1.00  0.00     0.198 A 
ATOM     63  C   UNL     1       1.329  -5.641  -6.767  1.00  0.00     0.198 A 
ATOM     64  F   UNL     1      -0.160  -3.873  -6.667  1.00  0.00    -0.203 F 
ATOM     65  F   UNL     1       4.537  -5.984  -8.377  1.00  0.00    -0.200 F 
ATOM     66  C   UNL     1       2.496  -6.213  -7.229  1.00  0.00     0.200 A 
ATOM     67  F   UNL     1       0.402  -6.397  -6.161  1.00  0.00    -0.200 F 
ATOM     68  F   UNL     1       2.697  -7.530  -7.091  1.00  0.00    -0.200 F 
ENDBRANCH  44  58
BRANCH  45  69
ATOM     69  C   UNL     1      -5.200  -3.622 -12.282  1.00  0.00     0.064 A 
ATOM     70  C   UNL     1      -5.237  -4.392 -13.453  1.00  0.00     0.173 A 
ATOM     71  C   UNL     1      -6.219  -3.858 -11.338  1.00  0.00     0.173 A 
ATOM     72  F   UNL     1      -4.277  -4.261 -14.379  1.00  0.00    -0.203 F 
ATOM     73  C   UNL     1      -6.233  -5.351 -13.664  1.00  0.00     0.198 A 
ATOM     74  C   UNL     1      -7.219  -4.804 -11.555  1.00  0.00     0.198 A 
ATOM     75  F   UNL     1      -6.215  -3.233 -10.152  1.00  0.00    -0.203 F 
ATOM     76  F   UNL     1      -6.208  -6.107 -14.770  1.00  0.00    -0.200 F 
ATOM     77  C   UNL     1      -7.219  -5.559 -12.713  1.00  0.00     0.200 A 
ATOM     78  F   UNL     1      -8.148  -5.018 -10.612  1.00  0.00    -0.200 F 
ATOM     79  F   UNL     1      -8.145  -6.511 -12.893  1.00  0.00    -0.200 F 
ENDBRANCH  45  69
BRANCH  57  80
ATOM     80  C   UNL     1       0.098  -0.525 -13.639  1.00  0.00     0.064 A 
ATOM     81  C   UNL     1      -0.933   0.415 -13.488  1.00  0.00     0.173 A 
ATOM     82  C   UNL     1       0.984  -0.357 -14.709  1.00  0.00     0.173 A 
ATOM     83  F   UNL     1      -1.767   0.358 -12.441  1.00  0.00    -0.203 F 
ATOM     84  C   UNL     1      -1.102   1.446 -14.409  1.00  0.00     0.198 A 
ATOM     85  C   UNL     1       0.834   0.694 -15.607  1.00  0.00     0.198 A 
ATOM     86  F   UNL     1       2.014  -1.204 -14.869  1.00  0.00    -0.203 F 
ATOM     87  F   UNL     1      -2.115   2.314 -14.268  1.00  0.00    -0.200 F 
ATOM     88  C   UNL     1      -0.218   1.585 -15.466  1.00  0.00     0.200 A 
ATOM     89  F   UNL     1       1.714   0.848 -16.606  1.00  0.00    -0.200 F 
ATOM     90  F   UNL     1      -0.369   2.589 -16.343  1.00  0.00    -0.200 F 
ENDBRANCH  57  80
ENDBRANCH  31  32
ENDBRANCH  24  26
ENDBRANCH  23  24
ENDBRANCH  22  23
ENDBRANCH   1  22
TORSDOF 14
