REMARK SMILES O=C(OCCOC(=O)[C@H]1[C@H]2CC[C@H](CC2)[C@@H]1C(=O)Nc1ccc(Cc2ccncc2)cc1)c1ccc(-c2c3nc(c(-c4c(F)c(F)c(F)c(F)c4F)c4ccc([nH]4)c(-c4c(F)c(F)c(F)c(F)c4F)c4nc(c(-c5c(F)c(F)c(F)c(F)c5F)c5ccc2[nH]5)C=C4)C=C3)cc1
REMARK SMILES IDX 5 1 4 2 3 3 2 4 1 5 33 6 34 7 95 8 35 9 94 10 36 11 37 12
REMARK SMILES IDX 38 13 88 14 39 15 93 16 87 17 89 18 40 19 92 20 86 21 85 22
REMARK SMILES IDX 41 24 73 25 53 26 72 27 54 28 57 29 71 30 90 31 55 32 56 33
REMARK SMILES IDX 70 35 91 36 58 37 42 38 43 39 51 40 44 41 45 42 49 43 52 44
REMARK SMILES IDX 46 45 47 46 50 47 48 48 74 49 75 50 83 51 76 52 77 53 81 54
REMARK SMILES IDX 84 55 78 56 79 57 82 58 80 59 59 60 60 61 68 62 61 63 62 64
REMARK SMILES IDX 66 65 69 66 63 67 64 68 67 69 65 70 6 71 7 72 8 73 9 74
REMARK SMILES IDX 10 75 16 76 15 77 11 78 13 79 14 80 12 81 17 82 18 83 19 84
REMARK SMILES IDX 20 86 21 87 32 88 22 89 31 90 23 91 24 92 25 93 26 94 30 95
REMARK SMILES IDX 27 96 29 97 28 98
REMARK H PARENT 89 23 57 34 19 85
REMARK Flexibility Score: inf
ROOT
ATOM      1  C   UNL     1       4.063   1.112  -1.372  1.00  0.00     0.274 C 
ENDROOT
BRANCH   1   2
ATOM      2  C   UNL     1       4.333  -0.389  -1.449  1.00  0.00     0.275 C 
BRANCH   2   3
ATOM      3  O   UNL     1       3.320  -1.200  -0.818  1.00  0.00    -0.458 OA
BRANCH   3   4
ATOM      4  C   UNL     1       3.039  -1.454   0.483  1.00  0.00     0.338 C 
ATOM      5  O   UNL     1       1.972  -2.019   0.727  1.00  0.00    -0.246 OA
BRANCH   4   6
ATOM      6  C   UNL     1       3.889  -1.069   1.673  1.00  0.00     0.060 A 
ATOM      7  C   UNL     1       5.200  -0.578   1.655  1.00  0.00     0.016 A 
ATOM      8  C   UNL     1       3.255  -1.131   2.936  1.00  0.00     0.016 A 
ATOM      9  C   UNL     1       5.811  -0.062   2.825  1.00  0.00     0.010 A 
ATOM     10  C   UNL     1       3.861  -0.617   4.101  1.00  0.00     0.010 A 
ATOM     11  C   UNL     1       5.139  -0.038   4.056  1.00  0.00    -0.014 A 
BRANCH  11  12
ATOM     12  C   UNL     1       5.836   0.401   5.314  1.00  0.00     0.031 A 
ATOM     13  C   UNL     1       6.389  -0.674   6.173  1.00  0.00     0.074 A 
ATOM     14  C   UNL     1       5.991   1.680   5.726  1.00  0.00     0.049 A 
ATOM     15  N   UNL     1       7.072  -0.557   7.276  1.00  0.00    -0.248 NA
ATOM     16  C   UNL     1       6.123  -2.057   5.750  1.00  0.00     0.031 C 
ATOM     17  C   UNL     1       5.425   2.798   5.031  1.00  0.00     0.029 A 
ATOM     18  N   UNL     1       6.605   2.298   6.793  1.00  0.00    -0.354 N 
ATOM     19  C   UNL     1       7.353  -1.851   7.659  1.00  0.00     0.074 A 
ATOM     20  C   UNL     1       6.684  -2.737   6.732  1.00  0.00     0.031 C 
ATOM     21  C   UNL     1       5.699   3.963   5.619  1.00  0.00     0.029 A 
ATOM     22  C   UNL     1       6.463   3.679   6.804  1.00  0.00     0.049 A 
ATOM     23  H   UNL     1       7.100   1.804   7.486  1.00  0.00     0.167 HD
ATOM     24  C   UNL     1       8.140  -2.253   8.677  1.00  0.00     0.037 A 
ATOM     25  C   UNL     1       6.870   4.633   7.663  1.00  0.00     0.037 A 
ATOM     26  C   UNL     1       8.726  -1.356   9.631  1.00  0.00     0.049 A 
ATOM     27  C   UNL     1       7.655   4.158   8.838  1.00  0.00     0.074 A 
ATOM     28  C   UNL     1       9.510  -1.656  10.726  1.00  0.00     0.029 A 
ATOM     29  N   UNL     1       8.558   0.027   9.622  1.00  0.00    -0.354 N 
ATOM     30  N   UNL     1       7.976   2.925   9.144  1.00  0.00    -0.248 NA
ATOM     31  C   UNL     1       8.140   5.171   9.778  1.00  0.00     0.031 C 
ATOM     32  C   UNL     1       9.774  -0.463  11.409  1.00  0.00     0.029 A 
ATOM     33  C   UNL     1       9.211   0.592  10.707  1.00  0.00     0.049 A 
ATOM     34  H   UNL     1       8.050   0.530   8.945  1.00  0.00     0.167 HD
ATOM     35  C   UNL     1       8.723   3.007  10.298  1.00  0.00     0.074 A 
ATOM     36  C   UNL     1       8.823   4.418  10.629  1.00  0.00     0.031 C 
ATOM     37  C   UNL     1       9.279   2.001  11.013  1.00  0.00     0.037 A 
BRANCH  24  38
ATOM     38  C   UNL     1       8.338  -3.731   8.774  1.00  0.00     0.064 A 
ATOM     39  C   UNL     1       9.052  -4.432   7.785  1.00  0.00     0.173 A 
ATOM     40  C   UNL     1       7.679  -4.469   9.763  1.00  0.00     0.173 A 
ATOM     41  F   UNL     1       9.653  -3.767   6.786  1.00  0.00    -0.203 F 
ATOM     42  C   UNL     1       9.050  -5.822   7.756  1.00  0.00     0.198 A 
ATOM     43  C   UNL     1       7.707  -5.859   9.748  1.00  0.00     0.198 A 
ATOM     44  F   UNL     1       6.961  -3.844  10.708  1.00  0.00    -0.203 F 
ATOM     45  F   UNL     1       9.646  -6.470   6.745  1.00  0.00    -0.200 F 
ATOM     46  C   UNL     1       8.377  -6.534   8.736  1.00  0.00     0.200 A 
ATOM     47  F   UNL     1       7.049  -6.549  10.689  1.00  0.00    -0.200 F 
ATOM     48  F   UNL     1       8.347  -7.873   8.689  1.00  0.00    -0.200 F 
ENDBRANCH  24  38
BRANCH  25  49
ATOM     49  C   UNL     1       6.568   6.084   7.446  1.00  0.00     0.064 A 
ATOM     50  C   UNL     1       7.588   7.011   7.180  1.00  0.00     0.173 A 
ATOM     51  C   UNL     1       5.255   6.583   7.503  1.00  0.00     0.173 A 
ATOM     52  F   UNL     1       8.864   6.602   7.120  1.00  0.00    -0.203 F 
ATOM     53  C   UNL     1       7.314   8.371   7.009  1.00  0.00     0.198 A 
ATOM     54  C   UNL     1       4.978   7.938   7.301  1.00  0.00     0.198 A 
ATOM     55  F   UNL     1       4.230   5.751   7.739  1.00  0.00    -0.203 F 
ATOM     56  F   UNL     1       8.318   9.235   6.802  1.00  0.00    -0.200 F 
ATOM     57  C   UNL     1       6.009   8.832   7.065  1.00  0.00     0.200 A 
ATOM     58  F   UNL     1       3.711   8.375   7.334  1.00  0.00    -0.200 F 
ATOM     59  F   UNL     1       5.746  10.136   6.896  1.00  0.00    -0.200 F 
ENDBRANCH  25  49
BRANCH  37  60
ATOM     60  C   UNL     1      10.082   2.418  12.200  1.00  0.00     0.064 A 
ATOM     61  C   UNL     1       9.480   2.931  13.357  1.00  0.00     0.173 A 
ATOM     62  C   UNL     1      11.478   2.299  12.170  1.00  0.00     0.173 A 
ATOM     63  F   UNL     1       8.149   3.096  13.411  1.00  0.00    -0.203 F 
ATOM     64  C   UNL     1      10.255   3.335  14.438  1.00  0.00     0.198 A 
ATOM     65  C   UNL     1      12.245   2.668  13.267  1.00  0.00     0.198 A 
ATOM     66  F   UNL     1      12.094   1.823  11.077  1.00  0.00    -0.203 F 
ATOM     67  F   UNL     1       9.668   3.883  15.511  1.00  0.00    -0.200 F 
ATOM     68  C   UNL     1      11.634   3.193  14.396  1.00  0.00     0.200 A 
ATOM     69  F   UNL     1      13.577   2.523  13.228  1.00  0.00    -0.200 F 
ATOM     70  F   UNL     1      12.379   3.576  15.441  1.00  0.00    -0.200 F 
ENDBRANCH  37  60
ENDBRANCH  11  12
ENDBRANCH   4   6
ENDBRANCH   3   4
ENDBRANCH   2   3
ENDBRANCH   1   2
BRANCH   1  71
ATOM     71  O   UNL     1       3.446   1.427  -0.124  1.00  0.00    -0.462 OA
BRANCH  71  72
ATOM     72  C   UNL     1       2.403   2.308  -0.108  1.00  0.00     0.310 C 
ATOM     73  O   UNL     1       1.904   2.818  -1.094  1.00  0.00    -0.252 OA
BRANCH  72  74
ATOM     74  C   UNL     1       1.968   2.597   1.335  1.00  0.00     0.115 C 
ATOM     75  C   UNL     1       3.073   2.259   2.339  1.00  0.00     0.004 C 
ATOM     76  C   UNL     1       1.682   4.094   1.557  1.00  0.00     0.096 C 
ATOM     77  C   UNL     1       4.294   3.178   2.016  1.00  0.00     0.005 C 
ATOM     78  C   UNL     1       2.419   2.417   3.734  1.00  0.00     0.005 C 
ATOM     79  C   UNL     1       2.492   4.698   2.764  1.00  0.00     0.002 C 
ATOM     80  C   UNL     1       3.979   4.613   2.402  1.00  0.00     0.005 C 
ATOM     81  C   UNL     1       2.222   3.891   4.040  1.00  0.00     0.005 C 
BRANCH  76  82
ATOM     82  C   UNL     1       0.205   4.402   1.784  1.00  0.00     0.228 C 
ATOM     83  O   UNL     1      -0.573   3.584   2.271  1.00  0.00    -0.274 OA
ATOM     84  N   UNL     1      -0.178   5.716   1.628  1.00  0.00    -0.326 N 
ATOM     85  H   UNL     1      -1.068   5.977   1.959  1.00  0.00     0.169 HD
BRANCH  84  86
ATOM     86  C   UNL     1       0.611   6.704   1.029  1.00  0.00     0.041 A 
ATOM     87  C   UNL     1       0.911   7.850   1.757  1.00  0.00     0.026 A 
ATOM     88  C   UNL     1       1.209   6.478  -0.215  1.00  0.00     0.026 A 
ATOM     89  C   UNL     1       1.900   8.710   1.285  1.00  0.00     0.006 A 
ATOM     90  C   UNL     1       2.198   7.330  -0.683  1.00  0.00     0.006 A 
ATOM     91  C   UNL     1       2.548   8.458   0.062  1.00  0.00    -0.043 A 
BRANCH  91  92
ATOM     92  C   UNL     1       3.463   9.493  -0.550  1.00  0.00     0.071 C 
BRANCH  92  93
ATOM     93  C   UNL     1       2.654  10.418  -1.429  1.00  0.00    -0.041 A 
ATOM     94  C   UNL     1       1.723  11.294  -0.857  1.00  0.00     0.024 A 
ATOM     95  C   UNL     1       2.707  10.322  -2.821  1.00  0.00     0.024 A 
ATOM     96  C   UNL     1       0.876  12.003  -1.688  1.00  0.00     0.111 A 
ATOM     97  C   UNL     1       1.828  11.090  -3.568  1.00  0.00     0.111 A 
ATOM     98  N   UNL     1       0.911  11.926  -3.033  1.00  0.00    -0.265 NA
ENDBRANCH  92  93
ENDBRANCH  91  92
ENDBRANCH  84  86
ENDBRANCH  76  82
ENDBRANCH  72  74
ENDBRANCH  71  72
ENDBRANCH   1  71
TORSDOF 15
