REMARK SMILES O=C(COc1cc(-c2ccccc2)nc(Nc2ccccc2Br)n1)OCCOC(=O)c1ccc(-c2c3nc(c(-c4c(F)c(F)c(F)c(F)c4F)c4ccc([nH]4)c(-c4c(F)c(F)c(F)c(F)c4F)c4nc(c(-c5c(F)c(F)c(F)c(F)c5F)c5ccc2[nH]5)C=C4)C=C3)cc1
REMARK SMILES IDX 26 1 25 2 2 3 1 4 3 5 4 6 5 7 6 8 24 9 7 10 15 11 14 12 8 13
REMARK SMILES IDX 9 14 13 15 10 16 12 17 11 18 16 19 17 21 18 22 22 23 19 24
REMARK SMILES IDX 21 25 23 26 20 27 27 28 28 29 29 30 30 31 31 32 32 33 93 34
REMARK SMILES IDX 33 35 92 36 34 37 35 38 36 39 86 40 37 41 91 42 85 43 87 44
REMARK SMILES IDX 38 45 90 46 84 47 83 48 39 50 71 51 51 52 70 53 52 54 55 55
REMARK SMILES IDX 69 56 88 57 53 58 54 59 68 61 89 62 56 63 40 64 41 65 49 66
REMARK SMILES IDX 42 67 43 68 47 69 50 70 44 71 45 72 48 73 46 74 72 75 73 76
REMARK SMILES IDX 81 77 74 78 75 79 79 80 82 81 76 82 77 83 80 84 78 85 57 86
REMARK SMILES IDX 58 87 66 88 59 89 60 90 64 91 67 92 61 93 62 94 65 95 63 96
REMARK H PARENT 16 20 87 49 55 60
REMARK Flexibility Score: inf
ROOT
ATOM      1  C   UNL     1       4.471  -1.216  -0.102  1.00  0.00     0.274 C 
ENDROOT
BRANCH   1   2
ATOM      2  O   UNL     1       3.123  -1.006   0.372  1.00  0.00    -0.460 OA
BRANCH   2   3
ATOM      3  C   UNL     1       2.476   0.180   0.267  1.00  0.00     0.344 C 
ATOM      4  O   UNL     1       1.251   0.233   0.351  1.00  0.00    -0.248 OA
BRANCH   3   5
ATOM      5  C   UNL     1       3.308   1.445   0.135  1.00  0.00     0.353 C 
BRANCH   5   6
ATOM      6  O   UNL     1       4.198   1.614   1.232  1.00  0.00    -0.466 OA
BRANCH   6   7
ATOM      7  C   UNL     1       3.626   2.383   2.209  1.00  0.00     0.219 A 
ATOM      8  C   UNL     1       2.564   1.935   2.938  1.00  0.00     0.097 A 
ATOM      9  N   UNL     1       4.204   3.566   2.400  1.00  0.00    -0.177 NA
ATOM     10  C   UNL     1       2.067   2.808   3.880  1.00  0.00     0.080 A 
ATOM     11  C   UNL     1       3.666   4.366   3.334  1.00  0.00     0.231 A 
ATOM     12  N   UNL     1       2.600   4.035   4.083  1.00  0.00    -0.212 NA
BRANCH  10  13
ATOM     13  C   UNL     1       0.899   2.414   4.681  1.00  0.00     0.000 A 
ATOM     14  C   UNL     1      -0.248   3.218   4.757  1.00  0.00     0.010 A 
ATOM     15  C   UNL     1       0.865   1.153   5.310  1.00  0.00     0.010 A 
ATOM     16  C   UNL     1      -1.401   2.758   5.404  1.00  0.00     0.001 A 
ATOM     17  C   UNL     1      -0.283   0.695   5.956  1.00  0.00     0.001 A 
ATOM     18  C   UNL     1      -1.419   1.495   5.995  1.00  0.00     0.000 A 
ENDBRANCH  10  13
BRANCH  11  19
ATOM     19  N   UNL     1       4.207   5.645   3.493  1.00  0.00    -0.323 N 
ATOM     20  H   UNL     1       4.064   6.109   4.349  1.00  0.00     0.170 HD
BRANCH  19  21
ATOM     21  C   UNL     1       4.946   6.304   2.494  1.00  0.00     0.055 A 
ATOM     22  C   UNL     1       6.285   6.631   2.739  1.00  0.00     0.027 A 
ATOM     23  C   UNL     1       4.386   6.667   1.256  1.00  0.00     0.041 A 
ATOM     24  C   UNL     1       7.074   7.207   1.739  1.00  0.00     0.002 A 
ATOM     25  C   UNL     1       5.180   7.221   0.247  1.00  0.00     0.018 A 
ATOM     26  Br  UNL     1       2.524   6.448   0.926  1.00  0.00    -0.049 Br
ATOM     27  C   UNL     1       6.528   7.481   0.487  1.00  0.00     0.001 A 
ENDBRANCH  19  21
ENDBRANCH  11  19
ENDBRANCH   6   7
ENDBRANCH   5   6
ENDBRANCH   3   5
ENDBRANCH   2   3
ENDBRANCH   1   2
BRANCH   1  28
ATOM     28  C   UNL     1       4.457  -1.661  -1.565  1.00  0.00     0.275 C 
BRANCH  28  29
ATOM     29  O   UNL     1       3.993  -0.580  -2.398  1.00  0.00    -0.458 OA
BRANCH  29  30
ATOM     30  C   UNL     1       2.700  -0.651  -2.807  1.00  0.00     0.338 C 
ATOM     31  O   UNL     1       1.924  -1.573  -2.632  1.00  0.00    -0.246 OA
BRANCH  30  32
ATOM     32  C   UNL     1       2.307   0.672  -3.342  1.00  0.00     0.060 A 
ATOM     33  C   UNL     1       1.084   1.223  -2.940  1.00  0.00     0.016 A 
ATOM     34  C   UNL     1       3.147   1.380  -4.206  1.00  0.00     0.016 A 
ATOM     35  C   UNL     1       0.699   2.486  -3.400  1.00  0.00     0.010 A 
ATOM     36  C   UNL     1       2.753   2.636  -4.677  1.00  0.00     0.010 A 
ATOM     37  C   UNL     1       1.525   3.193  -4.285  1.00  0.00    -0.014 A 
BRANCH  37  38
ATOM     38  C   UNL     1       1.093   4.489  -4.863  1.00  0.00     0.031 A 
ATOM     39  C   UNL     1       0.418   4.517  -6.201  1.00  0.00     0.074 A 
ATOM     40  C   UNL     1       1.356   5.646  -4.230  1.00  0.00     0.049 A 
ATOM     41  N   UNL     1       0.051   5.548  -6.918  1.00  0.00    -0.248 NA
ATOM     42  C   UNL     1       0.127   3.214  -6.817  1.00  0.00     0.031 C 
ATOM     43  C   UNL     1       2.008   5.759  -2.931  1.00  0.00     0.029 A 
ATOM     44  N   UNL     1       1.126   6.948  -4.610  1.00  0.00    -0.354 N 
ATOM     45  C   UNL     1      -0.504   5.022  -8.074  1.00  0.00     0.074 A 
ATOM     46  C   UNL     1      -0.416   3.580  -7.970  1.00  0.00     0.031 C 
ATOM     47  C   UNL     1       2.145   7.062  -2.635  1.00  0.00     0.029 A 
ATOM     48  C   UNL     1       1.611   7.873  -3.720  1.00  0.00     0.049 A 
ATOM     49  H   UNL     1       0.659   7.192  -5.442  1.00  0.00     0.167 HD
ATOM     50  C   UNL     1      -1.038   5.686  -9.127  1.00  0.00     0.037 A 
ATOM     51  C   UNL     1       1.649   9.219  -3.769  1.00  0.00     0.037 A 
ATOM     52  C   UNL     1      -1.131   7.117  -9.236  1.00  0.00     0.049 A 
ATOM     53  C   UNL     1       1.088   9.927  -4.970  1.00  0.00     0.074 A 
ATOM     54  C   UNL     1      -1.717   7.866 -10.243  1.00  0.00     0.029 A 
ATOM     55  N   UNL     1      -0.614   8.018  -8.318  1.00  0.00    -0.354 N 
ATOM     56  N   UNL     1       0.512   9.420  -6.031  1.00  0.00    -0.248 NA
ATOM     57  C   UNL     1       1.195  11.394  -4.988  1.00  0.00     0.031 C 
ATOM     58  C   UNL     1      -1.509   9.220  -9.961  1.00  0.00     0.029 A 
ATOM     59  C   UNL     1      -0.831   9.315  -8.757  1.00  0.00     0.049 A 
ATOM     60  H   UNL     1      -0.161   7.773  -7.480  1.00  0.00     0.167 HD
ATOM     61  C   UNL     1       0.184  10.500  -6.838  1.00  0.00     0.074 A 
ATOM     62  C   UNL     1       0.599  11.694  -6.133  1.00  0.00     0.031 C 
ATOM     63  C   UNL     1      -0.401  10.498  -8.059  1.00  0.00     0.037 A 
BRANCH  50  64
ATOM     64  C   UNL     1      -1.548   4.867 -10.270  1.00  0.00     0.064 A 
ATOM     65  C   UNL     1      -2.768   4.180 -10.193  1.00  0.00     0.173 A 
ATOM     66  C   UNL     1      -0.839   4.825 -11.479  1.00  0.00     0.173 A 
ATOM     67  F   UNL     1      -3.473   4.182  -9.052  1.00  0.00    -0.203 F 
ATOM     68  C   UNL     1      -3.257   3.474 -11.288  1.00  0.00     0.198 A 
ATOM     69  C   UNL     1      -1.341   4.135 -12.578  1.00  0.00     0.198 A 
ATOM     70  F   UNL     1       0.332   5.468 -11.598  1.00  0.00    -0.203 F 
ATOM     71  F   UNL     1      -4.414   2.804 -11.188  1.00  0.00    -0.200 F 
ATOM     72  C   UNL     1      -2.548   3.458 -12.481  1.00  0.00     0.200 A 
ATOM     73  F   UNL     1      -0.660   4.128 -13.732  1.00  0.00    -0.200 F 
ATOM     74  F   UNL     1      -3.028   2.789 -13.538  1.00  0.00    -0.200 F 
ENDBRANCH  50  64
BRANCH  51  75
ATOM     75  C   UNL     1       2.266   9.995  -2.659  1.00  0.00     0.064 A 
ATOM     76  C   UNL     1       1.486  10.812  -1.828  1.00  0.00     0.173 A 
ATOM     77  C   UNL     1       3.649   9.962  -2.427  1.00  0.00     0.173 A 
ATOM     78  F   UNL     1       0.163  10.900  -2.028  1.00  0.00    -0.203 F 
ATOM     79  C   UNL     1       2.070  11.584  -0.824  1.00  0.00     0.198 A 
ATOM     80  C   UNL     1       4.227  10.712  -1.406  1.00  0.00     0.198 A 
ATOM     81  F   UNL     1       4.441   9.194  -3.190  1.00  0.00    -0.203 F 
ATOM     82  F   UNL     1       1.309  12.400  -0.082  1.00  0.00    -0.200 F 
ATOM     83  C   UNL     1       3.439  11.530  -0.611  1.00  0.00     0.200 A 
ATOM     84  F   UNL     1       5.550  10.647  -1.199  1.00  0.00    -0.200 F 
ATOM     85  F   UNL     1       4.000  12.278   0.348  1.00  0.00    -0.200 F 
ENDBRANCH  51  75
BRANCH  63  86
ATOM     86  C   UNL     1      -0.621  11.827  -8.716  1.00  0.00     0.064 A 
ATOM     87  C   UNL     1       0.448  12.556  -9.259  1.00  0.00     0.173 A 
ATOM     88  C   UNL     1      -1.911  12.363  -8.836  1.00  0.00     0.173 A 
ATOM     89  F   UNL     1       1.703  12.094  -9.152  1.00  0.00    -0.203 F 
ATOM     90  C   UNL     1       0.234  13.782  -9.883  1.00  0.00     0.198 A 
ATOM     91  C   UNL     1      -2.125  13.577  -9.482  1.00  0.00     0.198 A 
ATOM     92  F   UNL     1      -2.967  11.704  -8.335  1.00  0.00    -0.203 F 
ATOM     93  F   UNL     1       1.274  14.480 -10.358  1.00  0.00    -0.200 F 
ATOM     94  C   UNL     1      -1.052  14.288 -10.000  1.00  0.00     0.200 A 
ATOM     95  F   UNL     1      -3.369  14.061  -9.604  1.00  0.00    -0.200 F 
ATOM     96  F   UNL     1      -1.257  15.465 -10.606  1.00  0.00    -0.200 F 
ENDBRANCH  63  86
ENDBRANCH  37  38
ENDBRANCH  30  32
ENDBRANCH  29  30
ENDBRANCH  28  29
ENDBRANCH   1  28
TORSDOF 16
