REMARK SMILES C/C=C(\C)[C@@H]1C(C)=C[C@@H]2[C@H]([C@@H]1/C=C/C=C/C(=O)OCCOC(=O)c1ccc(-c3c4nc(c(-c5c(F)c(F)c(F)c(F)c5F)c5ccc([nH]5)c(-c5c(F)c(F)c(F)c(F)c5F)c5nc(c(-c6c(F)c(F)c(F)c(F)c6F)c6ccc3[nH]6)C=C5)C=C4)cc1)[C@@H](C)CC[C@@H]2O
REMARK SMILES IDX 19 1 18 2 16 3 17 4 15 5 14 6 13 7 12 8 11 9 5 10 6 11 7 12
REMARK SMILES IDX 8 13 10 14 9 15 87 16 91 17 88 18 89 19 90 20 3 21 1 22 2 23
REMARK SMILES IDX 4 24 92 25 20 27 21 28 22 29 23 30 24 31 25 32 86 33 26 34
REMARK SMILES IDX 85 35 27 36 28 37 29 38 79 39 30 40 84 41 78 42 80 43 31 44
REMARK SMILES IDX 83 45 77 46 76 47 32 49 64 50 44 51 63 52 45 53 48 54 62 55
REMARK SMILES IDX 81 56 46 57 47 58 61 60 82 61 49 62 33 63 34 64 42 65 35 66
REMARK SMILES IDX 36 67 40 68 43 69 37 70 38 71 41 72 39 73 65 74 66 75 74 76
REMARK SMILES IDX 67 77 68 78 72 79 75 80 69 81 70 82 73 83 71 84 50 85 51 86
REMARK SMILES IDX 59 87 52 88 53 89 57 90 60 91 54 92 55 93 58 94 56 95
REMARK H PARENT 92 26 80 48 48 59
REMARK Flexibility Score: inf
ROOT
ATOM      1  C   UNL     1      -9.224  -3.979   3.100  1.00  0.00     0.275 C 
ENDROOT
BRANCH   1   2
ATOM      2  O   UNL     1      -7.831  -3.651   2.970  1.00  0.00    -0.459 OA
BRANCH   2   3
ATOM      3  C   UNL     1      -7.541  -2.343   2.775  1.00  0.00     0.330 C 
ATOM      4  O   UNL     1      -8.346  -1.436   2.621  1.00  0.00    -0.247 OA
BRANCH   3   5
ATOM      5  C   UNL     1      -6.088  -2.089   2.769  1.00  0.00     0.093 C 
ATOM      6  C   UNL     1      -5.161  -2.967   3.178  1.00  0.00     0.007 C 
BRANCH   6   7
ATOM      7  C   UNL     1      -3.749  -2.680   3.086  1.00  0.00    -0.004 C 
ATOM      8  C   UNL     1      -2.813  -3.638   3.170  1.00  0.00    -0.022 C 
BRANCH   8   9
ATOM      9  C   UNL     1      -1.352  -3.386   2.832  1.00  0.00     0.027 C 
ATOM     10  C   UNL     1      -1.061  -3.330   1.270  1.00  0.00     0.047 C 
ATOM     11  C   UNL     1       0.155  -4.132   0.832  1.00  0.00    -0.069 C 
ATOM     12  C   UNL     1       0.857  -3.676  -0.418  1.00  0.00     0.040 C 
ATOM     13  C   UNL     1       0.578  -5.199   1.529  1.00  0.00    -0.021 C 
ATOM     14  C   UNL     1      -0.425  -4.352   3.652  1.00  0.00     0.009 C 
ATOM     15  C   UNL     1      -0.090  -5.618   2.821  1.00  0.00     0.044 C 
ATOM     16  C   UNL     1       0.890  -3.684   4.189  1.00  0.00    -0.010 C 
ATOM     17  C   UNL     1       0.749  -6.600   3.665  1.00  0.00     0.121 C 
ATOM     18  C   UNL     1       0.620  -2.511   5.140  1.00  0.00     0.008 C 
ATOM     19  C   UNL     1       1.773  -4.707   4.941  1.00  0.00     0.006 C 
ATOM     20  C   UNL     1       2.051  -5.975   4.146  1.00  0.00     0.033 C 
BRANCH  10  21
ATOM     21  C   UNL     1      -2.228  -3.616   0.295  1.00  0.00    -0.070 C 
ATOM     22  C   UNL     1      -3.650  -2.883  -1.679  1.00  0.00     0.035 C 
ATOM     23  C   UNL     1      -2.563  -2.723  -0.661  1.00  0.00    -0.031 C 
ATOM     24  C   UNL     1      -2.927  -4.953   0.381  1.00  0.00     0.040 C 
ENDBRANCH  10  21
BRANCH  17  25
ATOM     25  O   UNL     1       1.005  -7.815   2.963  1.00  0.00    -0.393 OA
ATOM     26  H   UNL     1       1.537  -7.626   2.174  1.00  0.00     0.210 HD
ENDBRANCH  17  25
ENDBRANCH   8   9
ENDBRANCH   6   7
ENDBRANCH   3   5
ENDBRANCH   2   3
ENDBRANCH   1   2
BRANCH   1  27
ATOM     27  C   UNL     1      -9.615  -4.144   4.571  1.00  0.00     0.275 C 
BRANCH  27  28
ATOM     28  O   UNL     1      -9.543  -2.895   5.282  1.00  0.00    -0.458 OA
BRANCH  28  29
ATOM     29  C   UNL     1      -8.351  -2.627   5.862  1.00  0.00     0.338 C 
ATOM     30  O   UNL     1      -7.362  -3.349   5.892  1.00  0.00    -0.246 OA
BRANCH  29  31
ATOM     31  C   UNL     1      -8.348  -1.250   6.382  1.00  0.00     0.060 A 
ATOM     32  C   UNL     1      -7.282  -0.411   6.037  1.00  0.00     0.016 A 
ATOM     33  C   UNL     1      -9.347  -0.807   7.251  1.00  0.00     0.016 A 
ATOM     34  C   UNL     1      -7.208   0.876   6.567  1.00  0.00     0.010 A 
ATOM     35  C   UNL     1      -9.267   0.480   7.788  1.00  0.00     0.010 A 
ATOM     36  C   UNL     1      -8.190   1.322   7.461  1.00  0.00    -0.014 A 
BRANCH  36  37
ATOM     37  C   UNL     1      -8.056   2.642   8.119  1.00  0.00     0.031 A 
ATOM     38  C   UNL     1      -7.567   2.713   9.536  1.00  0.00     0.074 A 
ATOM     39  C   UNL     1      -8.376   3.766   7.454  1.00  0.00     0.049 A 
ATOM     40  N   UNL     1      -7.472   3.748  10.331  1.00  0.00    -0.248 NA
ATOM     41  C   UNL     1      -7.131   1.445  10.141  1.00  0.00     0.031 C 
ATOM     42  C   UNL     1      -8.823   3.825   6.064  1.00  0.00     0.029 A 
ATOM     43  N   UNL     1      -8.386   5.074   7.869  1.00  0.00    -0.354 N 
ATOM     44  C   UNL     1      -6.980   3.256  11.532  1.00  0.00     0.074 A 
ATOM     45  C   UNL     1      -6.811   1.828  11.369  1.00  0.00     0.031 C 
ATOM     46  C   UNL     1      -9.077   5.104   5.743  1.00  0.00     0.029 A 
ATOM     47  C   UNL     1      -8.847   5.946   6.915  1.00  0.00     0.049 A 
ATOM     48  H   UNL     1      -8.090   5.359   8.764  1.00  0.00     0.167 HD
ATOM     49  C   UNL     1      -6.693   3.938  12.666  1.00  0.00     0.037 A 
ATOM     50  C   UNL     1      -9.083   7.270   6.991  1.00  0.00     0.037 A 
ATOM     51  C   UNL     1      -6.856   5.360  12.822  1.00  0.00     0.049 A 
ATOM     52  C   UNL     1      -8.809   7.996   8.282  1.00  0.00     0.074 A 
ATOM     53  C   UNL     1      -6.584   6.145  13.929  1.00  0.00     0.029 A 
ATOM     54  N   UNL     1      -7.338   6.210  11.838  1.00  0.00    -0.354 N 
ATOM     55  N   UNL     1      -8.340   7.526   9.412  1.00  0.00    -0.248 NA
ATOM     56  C   UNL     1      -9.102   9.436   8.307  1.00  0.00     0.031 C 
ATOM     57  C   UNL     1      -6.937   7.465  13.627  1.00  0.00     0.029 A 
ATOM     58  C   UNL     1      -7.388   7.509  12.317  1.00  0.00     0.049 A 
ATOM     59  H   UNL     1      -7.605   5.931  10.932  1.00  0.00     0.167 HD
ATOM     60  C   UNL     1      -8.255   8.613  10.272  1.00  0.00     0.074 A 
ATOM     61  C   UNL     1      -8.714   9.769   9.531  1.00  0.00     0.031 C 
ATOM     62  C   UNL     1      -7.835   8.649  11.560  1.00  0.00     0.037 A 
BRANCH  49  63
ATOM     63  C   UNL     1      -6.198   3.148  13.840  1.00  0.00     0.064 A 
ATOM     64  C   UNL     1      -4.900   2.617  13.876  1.00  0.00     0.173 A 
ATOM     65  C   UNL     1      -7.022   2.947  14.958  1.00  0.00     0.173 A 
ATOM     66  F   UNL     1      -4.079   2.771  12.826  1.00  0.00    -0.203 F 
ATOM     67  C   UNL     1      -4.453   1.895  14.979  1.00  0.00     0.198 A 
ATOM     68  C   UNL     1      -6.564   2.245  16.069  1.00  0.00     0.198 A 
ATOM     69  F   UNL     1      -8.270   3.438  14.974  1.00  0.00    -0.203 F 
ATOM     70  F   UNL     1      -3.224   1.361  14.976  1.00  0.00    -0.200 F 
ATOM     71  C   UNL     1      -5.282   1.715  16.077  1.00  0.00     0.200 A 
ATOM     72  F   UNL     1      -7.362   2.081  17.133  1.00  0.00    -0.200 F 
ATOM     73  F   UNL     1      -4.849   1.023  17.140  1.00  0.00    -0.200 F 
ENDBRANCH  49  63
BRANCH  50  74
ATOM     74  C   UNL     1      -9.623   7.994   5.812  1.00  0.00     0.064 A 
ATOM     75  C   UNL     1      -8.835   8.913   5.107  1.00  0.00     0.173 A 
ATOM     76  C   UNL     1     -10.939   7.788   5.374  1.00  0.00     0.173 A 
ATOM     77  F   UNL     1      -7.579   9.163   5.506  1.00  0.00    -0.203 F 
ATOM     78  C   UNL     1      -9.348   9.609   4.014  1.00  0.00     0.198 A 
ATOM     79  C   UNL     1     -11.442   8.465   4.266  1.00  0.00     0.198 A 
ATOM     80  F   UNL     1     -11.735   6.922   6.019  1.00  0.00    -0.203 F 
ATOM     81  F   UNL     1      -8.587  10.513   3.382  1.00  0.00    -0.200 F 
ATOM     82  C   UNL     1     -10.648   9.380   3.591  1.00  0.00     0.200 A 
ATOM     83  F   UNL     1     -12.697   8.236   3.855  1.00  0.00    -0.200 F 
ATOM     84  F   UNL     1     -11.140  10.049   2.539  1.00  0.00    -0.200 F 
ENDBRANCH  50  74
BRANCH  62  85
ATOM     85  C   UNL     1      -7.809   9.987  12.239  1.00  0.00     0.064 A 
ATOM     86  C   UNL     1      -8.987  10.618  12.664  1.00  0.00     0.173 A 
ATOM     87  C   UNL     1      -6.587  10.621  12.508  1.00  0.00     0.173 A 
ATOM     88  F   UNL     1     -10.180  10.058  12.416  1.00  0.00    -0.203 F 
ATOM     89  C   UNL     1      -8.943  11.847  13.318  1.00  0.00     0.198 A 
ATOM     90  C   UNL     1      -6.545  11.837  13.184  1.00  0.00     0.198 A 
ATOM     91  F   UNL     1      -5.433  10.055  12.126  1.00  0.00    -0.203 F 
ATOM     92  F   UNL     1     -10.082  12.452  13.682  1.00  0.00    -0.200 F 
ATOM     93  C   UNL     1      -7.722  12.451  13.583  1.00  0.00     0.200 A 
ATOM     94  F   UNL     1      -5.365  12.415  13.449  1.00  0.00    -0.200 F 
ATOM     95  F   UNL     1      -7.682  13.630  14.220  1.00  0.00    -0.200 F 
ENDBRANCH  62  85
ENDBRANCH  36  37
ENDBRANCH  29  31
ENDBRANCH  28  29
ENDBRANCH  27  28
ENDBRANCH   1  27
TORSDOF 15
