REMARK SMILES O=C(OCCOC(=O)[C@@H]1CCCN(C(=O)/C=C/c2cccc(F)c2)C1)c1ccc(-c2c3nc(c(-c4c(F)c(F)c(F)c(F)c4F)c4ccc([nH]4)c(-c4c(F)c(F)c(F)c(F)c4F)c4nc(c(-c5c(F)c(F)c(F)c(F)c5F)c5ccc2[nH]5)C=C4)C=C3)cc1
REMARK SMILES IDX 5 1 4 2 3 3 2 4 1 5 26 6 27 7 88 8 28 9 87 10 29 11 30 12
REMARK SMILES IDX 31 13 81 14 32 15 86 16 80 17 82 18 33 19 85 20 79 21 78 22
REMARK SMILES IDX 34 24 66 25 46 26 65 27 47 28 50 29 64 30 83 31 48 32 49 33
REMARK SMILES IDX 63 35 84 36 51 37 35 38 36 39 44 40 37 41 38 42 42 43 45 44
REMARK SMILES IDX 39 45 40 46 43 47 41 48 67 49 68 50 76 51 69 52 70 53 74 54
REMARK SMILES IDX 77 55 71 56 72 57 75 58 73 59 52 60 53 61 61 62 54 63 55 64
REMARK SMILES IDX 59 65 62 66 56 67 57 68 60 69 58 70 6 71 7 72 8 73 9 74
REMARK SMILES IDX 10 75 25 76 11 77 13 78 12 79 14 80 15 81 16 82 17 83 18 84
REMARK SMILES IDX 19 85 24 86 20 87 22 88 21 89 23 90
REMARK H PARENT 82 23 50 34
REMARK Flexibility Score: inf
ROOT
ATOM      1  C   UNL     1       3.620   2.622  -0.063  1.00  0.00     0.274 C 
ENDROOT
BRANCH   1   2
ATOM      2  C   UNL     1       4.672   1.852  -0.885  1.00  0.00     0.275 C 
BRANCH   2   3
ATOM      3  O   UNL     1       4.106   0.772  -1.657  1.00  0.00    -0.458 OA
BRANCH   3   4
ATOM      4  C   UNL     1       3.839  -0.470  -1.213  1.00  0.00     0.338 C 
ATOM      5  O   UNL     1       3.158  -1.256  -1.861  1.00  0.00    -0.246 OA
BRANCH   4   6
ATOM      6  C   UNL     1       4.226  -0.867   0.144  1.00  0.00     0.060 A 
ATOM      7  C   UNL     1       5.801  -1.013   0.789  1.00  0.00     0.016 A 
ATOM      8  C   UNL     1       2.896  -1.284   1.181  1.00  0.00     0.016 A 
ATOM      9  C   UNL     1       6.116  -1.473   2.438  1.00  0.00     0.010 A 
ATOM     10  C   UNL     1       3.192  -1.760   3.057  1.00  0.00     0.010 A 
ATOM     11  C   UNL     1       4.878  -1.911   3.602  1.00  0.00    -0.014 A 
BRANCH  11  12
ATOM     12  C   UNL     1       5.400  -2.526   4.847  1.00  0.00     0.031 A 
ATOM     13  C   UNL     1       5.974  -3.927   4.795  1.00  0.00     0.074 A 
ATOM     14  C   UNL     1       5.705  -1.713   5.871  1.00  0.00     0.049 A 
ATOM     15  N   UNL     1       6.982  -4.439   5.456  1.00  0.00    -0.248 NA
ATOM     16  C   UNL     1       5.398  -4.858   3.818  1.00  0.00     0.031 C 
ATOM     17  C   UNL     1       5.302  -0.315   5.991  1.00  0.00     0.029 A 
ATOM     18  N   UNL     1       6.488  -1.933   6.976  1.00  0.00    -0.354 N 
ATOM     19  C   UNL     1       7.222  -5.686   4.880  1.00  0.00     0.074 A 
ATOM     20  C   UNL     1       6.254  -5.868   3.830  1.00  0.00     0.031 C 
ATOM     21  C   UNL     1       5.864   0.212   7.088  1.00  0.00     0.029 A 
ATOM     22  C   UNL     1       6.644  -0.819   7.765  1.00  0.00     0.049 A 
ATOM     23  H   UNL     1       6.899  -2.803   7.184  1.00  0.00     0.167 HD
ATOM     24  C   UNL     1       8.142  -6.617   5.222  1.00  0.00     0.037 A 
ATOM     25  C   UNL     1       7.337  -0.650   8.907  1.00  0.00     0.037 A 
ATOM     26  C   UNL     1       8.940  -6.524   6.412  1.00  0.00     0.049 A 
ATOM     27  C   UNL     1       8.200  -1.780   9.391  1.00  0.00     0.074 A 
ATOM     28  C   UNL     1       9.801  -7.460   6.952  1.00  0.00     0.029 A 
ATOM     29  N   UNL     1       8.907  -5.448   7.287  1.00  0.00    -0.354 N 
ATOM     30  N   UNL     1       8.461  -2.925   8.805  1.00  0.00    -0.248 NA
ATOM     31  C   UNL     1       8.877  -1.596  10.680  1.00  0.00     0.031 C 
ATOM     32  C   UNL     1      10.224  -6.985   8.197  1.00  0.00     0.029 A 
ATOM     33  C   UNL     1       9.691  -5.719   8.393  1.00  0.00     0.049 A 
ATOM     34  H   UNL     1       8.402  -4.616   7.143  1.00  0.00     0.167 HD
ATOM     35  C   UNL     1       9.336  -3.596   9.646  1.00  0.00     0.074 A 
ATOM     36  C   UNL     1       9.584  -2.715  10.771  1.00  0.00     0.031 C 
ATOM     37  C   UNL     1       9.888  -4.827   9.505  1.00  0.00     0.037 A 
BRANCH  24  38
ATOM     38  C   UNL     1       8.274  -7.849   4.370  1.00  0.00     0.064 A 
ATOM     39  C   UNL     1       7.793  -9.088   4.818  1.00  0.00     0.173 A 
ATOM     40  C   UNL     1       8.966  -7.821   3.149  1.00  0.00     0.173 A 
ATOM     41  F   UNL     1       7.119  -9.170   5.975  1.00  0.00    -0.203 F 
ATOM     42  C   UNL     1       8.025 -10.257   4.094  1.00  0.00     0.198 A 
ATOM     43  C   UNL     1       9.184  -8.989   2.419  1.00  0.00     0.198 A 
ATOM     44  F   UNL     1       9.434  -6.660   2.665  1.00  0.00    -0.203 F 
ATOM     45  F   UNL     1       7.587 -11.433   4.564  1.00  0.00    -0.200 F 
ATOM     46  C   UNL     1       8.724 -10.207   2.898  1.00  0.00     0.200 A 
ATOM     47  F   UNL     1       9.849  -8.939   1.256  1.00  0.00    -0.200 F 
ATOM     48  F   UNL     1       8.957 -11.333   2.209  1.00  0.00    -0.200 F 
ENDBRANCH  24  38
BRANCH  25  49
ATOM     49  C   UNL     1       7.204   0.633   9.650  1.00  0.00     0.064 A 
ATOM     50  C   UNL     1       5.955   1.026  10.163  1.00  0.00     0.173 A 
ATOM     51  C   UNL     1       8.278   1.515   9.818  1.00  0.00     0.173 A 
ATOM     52  F   UNL     1       4.892   0.218  10.035  1.00  0.00    -0.203 F 
ATOM     53  C   UNL     1       5.777   2.267  10.769  1.00  0.00     0.198 A 
ATOM     54  C   UNL     1       8.106   2.745  10.456  1.00  0.00     0.198 A 
ATOM     55  F   UNL     1       9.496   1.183   9.368  1.00  0.00    -0.203 F 
ATOM     56  F   UNL     1       4.559   2.636  11.188  1.00  0.00    -0.200 F 
ATOM     57  C   UNL     1       6.853   3.126  10.916  1.00  0.00     0.200 A 
ATOM     58  F   UNL     1       9.153   3.565  10.619  1.00  0.00    -0.200 F 
ATOM     59  F   UNL     1       6.683   4.321  11.498  1.00  0.00    -0.200 F 
ENDBRANCH  25  49
BRANCH  37  60
ATOM     60  C   UNL     1      10.797  -5.297  10.600  1.00  0.00     0.064 A 
ATOM     61  C   UNL     1      12.172  -5.442  10.367  1.00  0.00     0.173 A 
ATOM     62  C   UNL     1      10.294  -5.664  11.856  1.00  0.00     0.173 A 
ATOM     63  F   UNL     1      12.695  -5.119   9.174  1.00  0.00    -0.203 F 
ATOM     64  C   UNL     1      13.013  -5.943  11.354  1.00  0.00     0.198 A 
ATOM     65  C   UNL     1      11.144  -6.133  12.852  1.00  0.00     0.198 A 
ATOM     66  F   UNL     1       8.986  -5.537  12.124  1.00  0.00    -0.203 F 
ATOM     67  F   UNL     1      14.319  -6.103  11.101  1.00  0.00    -0.200 F 
ATOM     68  C   UNL     1      12.500  -6.279  12.598  1.00  0.00     0.200 A 
ATOM     69  F   UNL     1      10.652  -6.434  14.062  1.00  0.00    -0.200 F 
ATOM     70  F   UNL     1      13.315  -6.741  13.556  1.00  0.00    -0.200 F 
ENDBRANCH  37  60
ENDBRANCH  11  12
ENDBRANCH   4   6
ENDBRANCH   3   4
ENDBRANCH   2   3
ENDBRANCH   1   2
BRANCH   1  71
ATOM     71  O   UNL     1       3.359   1.931   1.175  1.00  0.00    -0.462 OA
BRANCH  71  72
ATOM     72  C   UNL     1       2.140   1.397   1.472  1.00  0.00     0.310 C 
ATOM     73  O   UNL     1       1.084   1.736   0.969  1.00  0.00    -0.252 OA
BRANCH  72  74
ATOM     74  C   UNL     1       2.338   0.271   2.517  1.00  0.00     0.119 C 
ATOM     75  C   UNL     1       4.175  -0.368   2.252  1.00  0.00     0.019 C 
ATOM     76  C   UNL     1       0.951  -1.031   2.448  1.00  0.00     0.135 C 
ATOM     77  C   UNL     1       4.285  -2.486   1.646  1.00  0.00     0.022 C 
ATOM     78  N   UNL     1       1.227  -2.666   1.775  1.00  0.00    -0.338 N 
ATOM     79  C   UNL     1       2.672  -3.504   1.942  1.00  0.00     0.120 C 
BRANCH  78  80
ATOM     80  C   UNL     1       0.355  -3.094   0.747  1.00  0.00     0.246 C 
ATOM     81  O   UNL     1      -0.722  -2.558   0.512  1.00  0.00    -0.270 OA
BRANCH  80  82
ATOM     82  C   UNL     1       0.795  -4.279  -0.072  1.00  0.00     0.072 C 
ATOM     83  C   UNL     1       1.929  -4.288  -0.803  1.00  0.00     0.014 C 
BRANCH  83  84
ATOM     84  C   UNL     1       2.618  -5.493  -1.315  1.00  0.00    -0.023 A 
ATOM     85  C   UNL     1       3.346  -5.431  -2.512  1.00  0.00     0.008 A 
ATOM     86  C   UNL     1       2.725  -6.655  -0.534  1.00  0.00     0.047 A 
ATOM     87  C   UNL     1       4.104  -6.527  -2.953  1.00  0.00     0.004 A 
ATOM     88  C   UNL     1       3.494  -7.732  -0.973  1.00  0.00     0.123 A 
ATOM     89  C   UNL     1       4.173  -7.685  -2.182  1.00  0.00     0.039 A 
ATOM     90  F   UNL     1       3.603  -8.820  -0.198  1.00  0.00    -0.207 F 
ENDBRANCH  83  84
ENDBRANCH  80  82
ENDBRANCH  78  80
ENDBRANCH  72  74
ENDBRANCH  71  72
ENDBRANCH   1  71
TORSDOF 14
