REMARK SMILES C=C[C@@H]1[C@@H](O)C[C@@H]2[C@@]3(CC[C@@]4(C)[C@@H]([C@H](C)CCC=C(C)C)CC[C@@]24C)C[C@@]13CCC(=O)OCCOC(=O)c1ccc(-c2c3nc(c(-c4c(F)c(F)c(F)c(F)c4F)c4ccc([nH]4)c(-c4c(F)c(F)c(F)c(F)c4F)c4nc(c(-c5c(F)c(F)c(F)c(F)c5F)c5ccc2[nH]5)C=C4)C=C3)cc1
REMARK SMILES IDX 30 1 31 2 29 3 28 4 27 5 3 6 4 7 6 8 8 9 26 10 7 11 9 12
REMARK SMILES IDX 24 13 10 14 11 15 23 16 25 17 12 18 13 19 22 20 2 21 1 22
REMARK SMILES IDX 5 23 14 25 15 26 16 27 17 28 18 29 19 30 20 31 21 32 32 33
REMARK SMILES IDX 33 34 34 35 35 36 36 37 37 38 38 39 39 40 100 41 40 42 99 43
REMARK SMILES IDX 41 44 42 45 43 46 93 47 44 48 98 49 92 50 94 51 45 52 97 53
REMARK SMILES IDX 91 54 90 55 46 57 78 58 58 59 77 60 59 61 62 62 76 63 95 64
REMARK SMILES IDX 60 65 61 66 75 68 96 69 63 70 47 71 48 72 56 73 49 74 50 75
REMARK SMILES IDX 54 76 57 77 51 78 52 79 55 80 53 81 79 82 80 83 88 84 81 85
REMARK SMILES IDX 82 86 86 87 89 88 83 89 84 90 87 91 85 92 64 93 65 94 73 95
REMARK SMILES IDX 66 96 67 97 71 98 74 99 68 100 69 101 72 102 70 103
REMARK H PARENT 5 24 94 56 62 67
REMARK Flexibility Score: inf
ROOT
ATOM      1  C   UNL     1      -3.196   2.866   6.587  1.00  0.00     0.305 C 
ATOM      2  O   UNL     1      -2.441   3.812   6.760  1.00  0.00    -0.252 OA
ENDROOT
BRANCH   1   3
ATOM      3  C   UNL     1      -3.309   1.709   7.518  1.00  0.00     0.123 C 
BRANCH   3   4
ATOM      4  C   UNL     1      -3.305   0.372   6.769  1.00  0.00     0.020 C 
BRANCH   4   5
ATOM      5  C   UNL     1      -2.052   0.061   5.918  1.00  0.00    -0.014 C 
ATOM      6  C   UNL     1      -0.750  -0.239   6.726  1.00  0.00     0.047 C 
ATOM      7  C   UNL     1       0.511   0.315   6.008  1.00  0.00     0.122 C 
ATOM      8  C   UNL     1       0.508   0.173   4.485  1.00  0.00     0.037 C 
ATOM      9  C   UNL     1      -2.004   0.382   4.339  1.00  0.00    -0.019 C 
ATOM     10  C   UNL     1      -2.218  -1.020   4.888  1.00  0.00     0.016 C 
ATOM     11  C   UNL     1      -0.644   0.991   3.885  1.00  0.00     0.005 C 
ATOM     12  C   UNL     1      -3.186   0.706   3.442  1.00  0.00     0.008 C 
ATOM     13  C   UNL     1      -0.500   1.251   2.324  1.00  0.00    -0.023 C 
ATOM     14  C   UNL     1      -2.926   1.522   2.166  1.00  0.00     0.008 C 
ATOM     15  C   UNL     1      -1.601   2.279   1.884  1.00  0.00    -0.024 C 
ATOM     16  C   UNL     1       0.761   2.002   1.877  1.00  0.00     0.008 C 
ATOM     17  C   UNL     1      -0.483  -0.108   1.588  1.00  0.00     0.012 C 
ATOM     18  C   UNL     1      -1.721   2.462   0.310  1.00  0.00     0.012 C 
ATOM     19  C   UNL     1      -0.956   3.790   2.331  1.00  0.00    -0.002 C 
ATOM     20  C   UNL     1       0.549   3.478   2.147  1.00  0.00     0.005 C 
BRANCH   6  21
ATOM     21  C   UNL     1      -0.723   0.144   8.196  1.00  0.00    -0.028 C 
ATOM     22  C   UNL     1      -1.131  -0.629   9.213  1.00  0.00     0.004 C 
ENDBRANCH   6  21
BRANCH   7  23
ATOM     23  O   UNL     1       1.695  -0.319   6.504  1.00  0.00    -0.392 OA
ATOM     24  H   UNL     1       1.672  -1.263   6.286  1.00  0.00     0.210 HD
ENDBRANCH   7  23
BRANCH  19  25
ATOM     25  C   UNL     1      -1.089   4.787   3.613  1.00  0.00    -0.010 C 
ATOM     26  C   UNL     1      -2.152   5.910   3.395  1.00  0.00     0.008 C 
BRANCH  25  27
ATOM     27  C   UNL     1       0.166   5.660   4.077  1.00  0.00     0.008 C 
BRANCH  27  28
ATOM     28  C   UNL     1       0.276   5.833   5.615  1.00  0.00     0.027 C 
BRANCH  28  29
ATOM     29  C   UNL     1       0.720   4.591   6.348  1.00  0.00    -0.028 C 
ATOM     30  C   UNL     1       1.605   4.512   7.363  1.00  0.00    -0.080 C 
ATOM     31  C   UNL     1       1.887   3.210   8.061  1.00  0.00     0.039 C 
ATOM     32  C   UNL     1       2.339   5.686   7.939  1.00  0.00     0.039 C 
ENDBRANCH  28  29
ENDBRANCH  27  28
ENDBRANCH  25  27
ENDBRANCH  19  25
ENDBRANCH   4   5
ENDBRANCH   3   4
ENDBRANCH   1   3
BRANCH   1  33
ATOM     33  O   UNL     1      -4.083   2.736   5.563  1.00  0.00    -0.462 OA
BRANCH  33  34
ATOM     34  C   UNL     1      -3.773   3.587   4.470  1.00  0.00     0.274 C 
BRANCH  34  35
ATOM     35  C   UNL     1      -4.779   3.592   3.312  1.00  0.00     0.275 C 
BRANCH  35  36
ATOM     36  O   UNL     1      -5.882   4.401   3.637  1.00  0.00    -0.458 OA
BRANCH  36  37
ATOM     37  C   UNL     1      -6.617   3.770   4.567  1.00  0.00     0.338 C 
ATOM     38  O   UNL     1      -6.814   2.568   4.721  1.00  0.00    -0.246 OA
BRANCH  37  39
ATOM     39  C   UNL     1      -6.778   4.777   5.584  1.00  0.00     0.060 A 
ATOM     40  C   UNL     1      -6.230   4.528   6.848  1.00  0.00     0.016 A 
ATOM     41  C   UNL     1      -7.434   5.957   5.246  1.00  0.00     0.016 A 
ATOM     42  C   UNL     1      -6.438   5.437   7.848  1.00  0.00     0.010 A 
ATOM     43  C   UNL     1      -7.693   6.845   6.256  1.00  0.00     0.010 A 
ATOM     44  C   UNL     1      -7.266   6.519   7.553  1.00  0.00    -0.014 A 
BRANCH  44  45
ATOM     45  C   UNL     1      -8.010   7.093   8.659  1.00  0.00     0.031 A 
ATOM     46  C   UNL     1      -9.378   6.541   8.892  1.00  0.00     0.074 A 
ATOM     47  C   UNL     1      -7.436   8.073   9.355  1.00  0.00     0.049 A 
ATOM     48  N   UNL     1     -10.337   7.006   9.637  1.00  0.00    -0.248 NA
ATOM     49  C   UNL     1      -9.731   5.308   8.158  1.00  0.00     0.031 C 
ATOM     50  C   UNL     1      -6.068   8.554   9.159  1.00  0.00     0.029 A 
ATOM     51  N   UNL     1      -7.951   8.859  10.334  1.00  0.00    -0.354 N 
ATOM     52  C   UNL     1     -11.411   6.152   9.431  1.00  0.00     0.074 A 
ATOM     53  C   UNL     1     -11.002   5.148   8.481  1.00  0.00     0.031 C 
ATOM     54  C   UNL     1      -5.867   9.604   9.969  1.00  0.00     0.029 A 
ATOM     55  C   UNL     1      -7.111   9.882  10.676  1.00  0.00     0.049 A 
ATOM     56  H   UNL     1      -8.831   8.710  10.750  1.00  0.00     0.167 HD
ATOM     57  C   UNL     1     -12.634   6.234   9.996  1.00  0.00     0.037 A 
ATOM     58  C   UNL     1      -7.379  10.956  11.431  1.00  0.00     0.037 A 
ATOM     59  C   UNL     1     -12.963   7.278  10.927  1.00  0.00     0.049 A 
ATOM     60  C   UNL     1      -8.758  11.048  12.020  1.00  0.00     0.074 A 
ATOM     61  C   UNL     1     -14.142   7.500  11.606  1.00  0.00     0.029 A 
ATOM     62  N   UNL     1     -12.081   8.291  11.298  1.00  0.00    -0.354 N 
ATOM     63  N   UNL     1      -9.788  10.250  11.842  1.00  0.00    -0.248 NA
ATOM     64  C   UNL     1      -9.012  12.174  12.917  1.00  0.00     0.031 C 
ATOM     65  C   UNL     1     -13.993   8.683  12.338  1.00  0.00     0.029 A 
ATOM     66  C   UNL     1     -12.697   9.161  12.176  1.00  0.00     0.049 A 
ATOM     67  H   UNL     1     -11.153   8.375  10.981  1.00  0.00     0.167 HD
ATOM     68  C   UNL     1     -10.811  10.761  12.623  1.00  0.00     0.074 A 
ATOM     69  C   UNL     1     -10.262  11.932  13.286  1.00  0.00     0.031 C 
ATOM     70  C   UNL     1     -12.084  10.316  12.789  1.00  0.00     0.037 A 
BRANCH  57  71
ATOM     71  C   UNL     1     -13.671   5.237   9.565  1.00  0.00     0.064 A 
ATOM     72  C   UNL     1     -13.555   3.864   9.838  1.00  0.00     0.173 A 
ATOM     73  C   UNL     1     -14.789   5.659   8.830  1.00  0.00     0.173 A 
ATOM     74  F   UNL     1     -12.493   3.396  10.512  1.00  0.00    -0.203 F 
ATOM     75  C   UNL     1     -14.497   2.952   9.364  1.00  0.00     0.198 A 
ATOM     76  C   UNL     1     -15.748   4.750   8.387  1.00  0.00     0.198 A 
ATOM     77  F   UNL     1     -14.948   6.956   8.524  1.00  0.00    -0.203 F 
ATOM     78  F   UNL     1     -14.327   1.640   9.580  1.00  0.00    -0.200 F 
ATOM     79  C   UNL     1     -15.596   3.397   8.645  1.00  0.00     0.200 A 
ATOM     80  F   UNL     1     -16.812   5.184   7.697  1.00  0.00    -0.200 F 
ATOM     81  F   UNL     1     -16.501   2.520   8.188  1.00  0.00    -0.200 F 
ENDBRANCH  57  71
BRANCH  58  82
ATOM     82  C   UNL     1      -6.330  11.981  11.628  1.00  0.00     0.064 A 
ATOM     83  C   UNL     1      -5.699  12.132  12.868  1.00  0.00     0.173 A 
ATOM     84  C   UNL     1      -5.871  12.767  10.559  1.00  0.00     0.173 A 
ATOM     85  F   UNL     1      -6.100  11.399  13.916  1.00  0.00    -0.203 F 
ATOM     86  C   UNL     1      -4.658  13.042  13.037  1.00  0.00     0.198 A 
ATOM     87  C   UNL     1      -4.811  13.655  10.721  1.00  0.00     0.198 A 
ATOM     88  F   UNL     1      -6.425  12.640   9.344  1.00  0.00    -0.203 F 
ATOM     89  F   UNL     1      -4.088  13.185  14.240  1.00  0.00    -0.200 F 
ATOM     90  C   UNL     1      -4.209  13.796  11.962  1.00  0.00     0.200 A 
ATOM     91  F   UNL     1      -4.362  14.359   9.673  1.00  0.00    -0.200 F 
ATOM     92  F   UNL     1      -3.195  14.657  12.122  1.00  0.00    -0.200 F 
ENDBRANCH  58  82
BRANCH  70  93
ATOM     93  C   UNL     1     -12.935  11.094  13.746  1.00  0.00     0.064 A 
ATOM     94  C   UNL     1     -13.404  12.377  13.436  1.00  0.00     0.173 A 
ATOM     95  C   UNL     1     -13.313  10.524  14.971  1.00  0.00     0.173 A 
ATOM     96  F   UNL     1     -13.054  12.965  12.282  1.00  0.00    -0.203 F 
ATOM     97  C   UNL     1     -14.194  13.080  14.338  1.00  0.00     0.198 A 
ATOM     98  C   UNL     1     -14.137  11.213  15.851  1.00  0.00     0.198 A 
ATOM     99  F   UNL     1     -12.896   9.293  15.303  1.00  0.00    -0.203 F 
ATOM    100  F   UNL     1     -14.581  14.331  14.052  1.00  0.00    -0.200 F 
ATOM    101  C   UNL     1     -14.568  12.494  15.539  1.00  0.00     0.200 A 
ATOM    102  F   UNL     1     -14.515  10.638  17.001  1.00  0.00    -0.200 F 
ATOM    103  F   UNL     1     -15.338  13.170  16.402  1.00  0.00    -0.200 F 
ENDBRANCH  70  93
ENDBRANCH  44  45
ENDBRANCH  37  39
ENDBRANCH  36  37
ENDBRANCH  35  36
ENDBRANCH  34  35
ENDBRANCH  33  34
ENDBRANCH   1  33
TORSDOF 19
