REMARK SMILES CN(C)C(=O)C[NH+]1CC[NH+]([C@@H](C(=O)OCCOC(=O)c2ccc(-c3c4nc(c(-c5c(F)c(F)c(F)c(F)c5F)c5ccc([nH]5)c(-c5c(F)c(F)c(F)c(F)c5F)c5nc(c(-c6c(F)c(F)c(F)c(F)c6F)c6ccc3[nH]6)C=C5)C=C4)cc2)c2c[nH]c3ccc(Cl)cc23)CC1
REMARK SMILES IDX 15 1 14 2 12 3 13 4 11 5 10 6 7 7 8 8 94 9 9 11 93 12 6 14
REMARK SMILES IDX 4 15 1 16 2 17 3 18 5 19 83 20 84 21 92 22 85 23 86 24 91 25
REMARK SMILES IDX 87 27 89 28 88 29 90 30 16 31 17 32 18 33 19 34 20 35 21 36
REMARK SMILES IDX 82 37 22 38 81 39 23 40 24 41 25 42 75 43 26 44 80 45 74 46
REMARK SMILES IDX 76 47 27 48 79 49 73 50 72 51 28 53 60 54 40 55 59 56 41 57
REMARK SMILES IDX 44 58 58 59 77 60 42 61 43 62 57 64 78 65 45 66 29 67 30 68
REMARK SMILES IDX 38 69 31 70 32 71 36 72 39 73 33 74 34 75 37 76 35 77 61 78
REMARK SMILES IDX 62 79 70 80 63 81 64 82 68 83 71 84 65 85 66 86 69 87 67 88
REMARK SMILES IDX 46 89 47 90 55 91 48 92 49 93 53 94 56 95 50 96 51 97 54 98
REMARK SMILES IDX 52 99
REMARK H PARENT 7 10 10 13 85 26 76 52 44 63
REMARK Flexibility Score: inf
ROOT
ATOM      1  C   UNL     1       2.454   5.705  -1.698  1.00  0.00     0.274 C 
ENDROOT
BRANCH   1   2
ATOM      2  O   UNL     1       1.760   6.033  -0.465  1.00  0.00    -0.457 OA
BRANCH   2   3
ATOM      3  C   UNL     1       2.276   7.060   0.264  1.00  0.00     0.370 C 
ATOM      4  O   UNL     1       3.133   7.827  -0.182  1.00  0.00    -0.245 OA
BRANCH   3   5
ATOM      5  C   UNL     1       1.838   7.130   1.730  1.00  0.00     0.328 C 
BRANCH   5   6
ATOM      6  N   UNL     1       1.918   5.881   2.558  1.00  0.00    -0.310 N 
ATOM      7  N   UNL     1       0.846   3.364   1.312  1.00  0.00    -0.318 N 
ATOM      8  C   UNL     1       0.041   4.509   1.740  1.00  0.00     0.325 C 
ATOM      9  C   UNL     1       2.306   3.614   1.365  1.00  0.00     0.325 C 
ATOM     10  H   UNL     1       0.660   3.205   0.322  1.00  0.00     0.348 HD
ATOM     11  C   UNL     1       0.663   5.231   2.930  1.00  0.00     0.325 C 
ATOM     12  C   UNL     1       2.875   4.861   2.123  1.00  0.00     0.325 C 
ATOM     13  H   UNL     1       2.286   6.320   3.403  1.00  0.00     0.349 HD
BRANCH   7  14
ATOM     14  C   UNL     1       0.435   2.160   2.058  1.00  0.00     0.364 C 
BRANCH  14  15
ATOM     15  C   UNL     1       0.967   0.884   1.404  1.00  0.00     0.277 C 
ATOM     16  C   UNL     1       1.161  -0.574  -0.525  1.00  0.00     0.146 C 
ATOM     17  N   UNL     1       0.555   0.580   0.108  1.00  0.00    -0.344 N 
ATOM     18  C   UNL     1      -0.207   1.481  -0.747  1.00  0.00     0.146 C 
ATOM     19  O   UNL     1       1.729   0.149   2.039  1.00  0.00    -0.268 OA
ENDBRANCH  14  15
ENDBRANCH   7  14
ENDBRANCH   5   6
BRANCH   5  20
ATOM     20  C   UNL     1       0.633   7.968   2.160  1.00  0.00     0.046 A 
ATOM     21  C   UNL     1       0.690   8.761   3.304  1.00  0.00     0.094 A 
ATOM     22  C   UNL     1      -0.771   7.903   1.812  1.00  0.00     0.011 A 
ATOM     23  N   UNL     1      -0.566   8.830   3.834  1.00  0.00    -0.361 N 
ATOM     24  C   UNL     1      -1.468   8.252   2.978  1.00  0.00     0.046 A 
ATOM     25  C   UNL     1      -1.541   7.427   0.728  1.00  0.00     0.031 A 
ATOM     26  H   UNL     1      -0.791   9.235   4.703  1.00  0.00     0.166 HD
ATOM     27  C   UNL     1      -2.826   7.969   3.181  1.00  0.00     0.028 A 
ATOM     28  C   UNL     1      -2.930   7.283   0.871  1.00  0.00     0.041 A 
ATOM     29  C   UNL     1      -3.553   7.481   2.098  1.00  0.00     0.022 A 
ATOM     30  Cl  UNL     1      -3.888   6.832  -0.487  1.00  0.00    -0.084 Cl
ENDBRANCH   5  20
ENDBRANCH   3   5
ENDBRANCH   2   3
ENDBRANCH   1   2
BRANCH   1  31
ATOM     31  C   UNL     1       1.566   5.928  -2.915  1.00  0.00     0.275 C 
BRANCH  31  32
ATOM     32  O   UNL     1       1.214   7.316  -2.947  1.00  0.00    -0.458 OA
BRANCH  32  33
ATOM     33  C   UNL     1      -0.104   7.580  -2.857  1.00  0.00     0.338 C 
ATOM     34  O   UNL     1      -1.025   6.797  -3.064  1.00  0.00    -0.246 OA
BRANCH  33  35
ATOM     35  C   UNL     1      -0.313   8.936  -2.315  1.00  0.00     0.060 A 
ATOM     36  C   UNL     1       0.620   9.507  -1.444  1.00  0.00     0.016 A 
ATOM     37  C   UNL     1      -1.532   9.575  -2.538  1.00  0.00     0.016 A 
ATOM     38  C   UNL     1       0.309  10.654  -0.725  1.00  0.00     0.010 A 
ATOM     39  C   UNL     1      -1.803  10.785  -1.900  1.00  0.00     0.010 A 
ATOM     40  C   UNL     1      -0.890  11.325  -0.979  1.00  0.00    -0.014 A 
BRANCH  40  41
ATOM     41  C   UNL     1      -1.154  12.655  -0.387  1.00  0.00     0.031 A 
ATOM     42  C   UNL     1      -2.326  12.873   0.515  1.00  0.00     0.074 A 
ATOM     43  C   UNL     1      -0.371  13.685  -0.756  1.00  0.00     0.049 A 
ATOM     44  N   UNL     1      -2.908  13.995   0.853  1.00  0.00    -0.248 NA
ATOM     45  C   UNL     1      -2.928  11.674   1.116  1.00  0.00     0.031 C 
ATOM     46  C   UNL     1       0.834  13.577  -1.581  1.00  0.00     0.029 A 
ATOM     47  N   UNL     1      -0.496  15.031  -0.522  1.00  0.00    -0.354 N 
ATOM     48  C   UNL     1      -3.970  13.638   1.672  1.00  0.00     0.074 A 
ATOM     49  C   UNL     1      -3.943  12.195   1.794  1.00  0.00     0.031 C 
ATOM     50  C   UNL     1       1.323  14.802  -1.807  1.00  0.00     0.029 A 
ATOM     51  C   UNL     1       0.411  15.780  -1.228  1.00  0.00     0.049 A 
ATOM     52  H   UNL     1      -1.166  15.418   0.088  1.00  0.00     0.167 HD
ATOM     53  C   UNL     1      -4.883  14.457   2.248  1.00  0.00     0.037 A 
ATOM     54  C   UNL     1       0.460  17.102  -1.464  1.00  0.00     0.037 A 
ATOM     55  C   UNL     1      -4.867  15.895   2.125  1.00  0.00     0.049 A 
ATOM     56  C   UNL     1      -0.597  17.982  -0.876  1.00  0.00     0.074 A 
ATOM     57  C   UNL     1      -5.727  16.821   2.690  1.00  0.00     0.029 A 
ATOM     58  N   UNL     1      -3.938  16.615   1.385  1.00  0.00    -0.354 N 
ATOM     59  N   UNL     1      -1.641  17.644  -0.159  1.00  0.00    -0.248 NA
ATOM     60  C   UNL     1      -0.477  19.420  -1.134  1.00  0.00     0.031 C 
ATOM     61  C   UNL     1      -5.342  18.097   2.261  1.00  0.00     0.029 A 
ATOM     62  C   UNL     1      -4.213  17.972   1.468  1.00  0.00     0.049 A 
ATOM     63  H   UNL     1      -3.194  16.221   0.877  1.00  0.00     0.167 HD
ATOM     64  C   UNL     1      -2.304  18.827   0.127  1.00  0.00     0.074 A 
ATOM     65  C   UNL     1      -1.531  19.893  -0.483  1.00  0.00     0.031 C 
ATOM     66  C   UNL     1      -3.445  19.012   0.833  1.00  0.00     0.037 A 
BRANCH  53  67
ATOM     67  C   UNL     1      -5.998  13.833   3.035  1.00  0.00     0.064 A 
ATOM     68  C   UNL     1      -5.791  13.273   4.303  1.00  0.00     0.173 A 
ATOM     69  C   UNL     1      -7.314  13.877   2.546  1.00  0.00     0.173 A 
ATOM     70  F   UNL     1      -4.553  13.194   4.814  1.00  0.00    -0.203 F 
ATOM     71  C   UNL     1      -6.858  12.776   5.051  1.00  0.00     0.198 A 
ATOM     72  C   UNL     1      -8.381  13.402   3.305  1.00  0.00     0.198 A 
ATOM     73  F   UNL     1      -7.569  14.405   1.340  1.00  0.00    -0.203 F 
ATOM     74  F   UNL     1      -6.633  12.225   6.252  1.00  0.00    -0.200 F 
ATOM     75  C   UNL     1      -8.152  12.851   4.556  1.00  0.00     0.200 A 
ATOM     76  F   UNL     1      -9.631  13.487   2.830  1.00  0.00    -0.200 F 
ATOM     77  F   UNL     1      -9.178  12.391   5.285  1.00  0.00    -0.200 F 
ENDBRANCH  53  67
BRANCH  54  78
ATOM     78  C   UNL     1       1.524  17.627  -2.354  1.00  0.00     0.064 A 
ATOM     79  C   UNL     1       2.617  18.327  -1.834  1.00  0.00     0.173 A 
ATOM     80  C   UNL     1       1.520  17.337  -3.728  1.00  0.00     0.173 A 
ATOM     81  F   UNL     1       2.653  18.640  -0.531  1.00  0.00    -0.203 F 
ATOM     82  C   UNL     1       3.679  18.705  -2.653  1.00  0.00     0.198 A 
ATOM     83  C   UNL     1       2.594  17.691  -4.540  1.00  0.00     0.198 A 
ATOM     84  F   UNL     1       0.496  16.659  -4.269  1.00  0.00    -0.203 F 
ATOM     85  F   UNL     1       4.713  19.380  -2.134  1.00  0.00    -0.200 F 
ATOM     86  C   UNL     1       3.674  18.373  -4.000  1.00  0.00     0.200 A 
ATOM     87  F   UNL     1       2.596  17.347  -5.835  1.00  0.00    -0.200 F 
ATOM     88  F   UNL     1       4.713  18.705  -4.778  1.00  0.00    -0.200 F 
ENDBRANCH  54  78
BRANCH  66  89
ATOM     89  C   UNL     1      -3.906  20.429   0.994  1.00  0.00     0.064 A 
ATOM     90  C   UNL     1      -4.497  21.131  -0.067  1.00  0.00     0.173 A 
ATOM     91  C   UNL     1      -3.749  21.091   2.219  1.00  0.00     0.173 A 
ATOM     92  F   UNL     1      -4.649  20.543  -1.264  1.00  0.00    -0.203 F 
ATOM     93  C   UNL     1      -4.884  22.459   0.086  1.00  0.00     0.198 A 
ATOM     94  C   UNL     1      -4.160  22.411   2.375  1.00  0.00     0.198 A 
ATOM     95  F   UNL     1      -3.191  20.459   3.263  1.00  0.00    -0.203 F 
ATOM     96  F   UNL     1      -5.397  23.129  -0.956  1.00  0.00    -0.200 F 
ATOM     97  C   UNL     1      -4.718  23.096   1.306  1.00  0.00     0.200 A 
ATOM     98  F   UNL     1      -4.005  23.025   3.557  1.00  0.00    -0.200 F 
ATOM     99  F   UNL     1      -5.085  24.378   1.449  1.00  0.00    -0.200 F 
ENDBRANCH  66  89
ENDBRANCH  40  41
ENDBRANCH  33  35
ENDBRANCH  32  33
ENDBRANCH  31  32
ENDBRANCH   1  31
TORSDOF 15
