REMARK SMILES O=C(COc1ccc(-c2cc3cc(Br)ccc3oc2=O)cc1)OCCOC(=O)c1ccc(-c2c3nc(c(-c4c(F)c(F)c(F)c(F)c4F)c4ccc([nH]4)c(-c4c(F)c(F)c(F)c(F)c4F)c4nc(c(-c5c(F)c(F)c(F)c(F)c5F)c5ccc2[nH]5)C=C4)C=C3)cc1
REMARK SMILES IDX 24 1 23 2 2 3 1 4 3 5 4 6 5 7 6 8 22 9 7 10 21 11 8 12 9 13
REMARK SMILES IDX 10 14 19 15 11 16 18 17 20 18 12 19 17 20 13 21 16 22 14 23
REMARK SMILES IDX 15 24 25 25 26 26 27 27 28 28 29 29 30 30 91 31 31 32 90 33
REMARK SMILES IDX 32 34 33 35 34 36 84 37 35 38 89 39 83 40 85 41 36 42 88 43
REMARK SMILES IDX 82 44 81 45 37 47 69 48 49 49 68 50 50 51 53 52 67 53 86 54
REMARK SMILES IDX 51 55 52 56 66 58 87 59 54 60 38 61 39 62 47 63 40 64 41 65
REMARK SMILES IDX 45 66 48 67 42 68 43 69 46 70 44 71 70 72 71 73 79 74 72 75
REMARK SMILES IDX 73 76 77 77 80 78 74 79 75 80 78 81 76 82 55 83 56 84 64 85
REMARK SMILES IDX 57 86 58 87 62 88 65 89 59 90 60 91 63 92 61 93
REMARK H PARENT 85 46 53 57
REMARK Flexibility Score: inf
ROOT
ATOM      1  C   UNL     1       4.759   0.871  -0.783  1.00  0.00     0.274 C 
ENDROOT
BRANCH   1   2
ATOM      2  O   UNL     1       3.464   0.279  -0.996  1.00  0.00    -0.460 OA
BRANCH   2   3
ATOM      3  C   UNL     1       2.676  -0.084   0.041  1.00  0.00     0.344 C 
ATOM      4  O   UNL     1       1.455   0.042  -0.040  1.00  0.00    -0.248 OA
BRANCH   3   5
ATOM      5  C   UNL     1       3.337  -0.687   1.289  1.00  0.00     0.351 C 
BRANCH   5   6
ATOM      6  O   UNL     1       3.967  -1.948   1.174  1.00  0.00    -0.482 OA
BRANCH   6   7
ATOM      7  C   UNL     1       3.140  -3.033   1.255  1.00  0.00     0.120 A 
ATOM      8  C   UNL     1       3.733  -4.219   1.680  1.00  0.00     0.047 A 
ATOM      9  C   UNL     1       1.804  -3.046   0.870  1.00  0.00     0.047 A 
ATOM     10  C   UNL     1       3.038  -5.428   1.579  1.00  0.00     0.013 A 
ATOM     11  C   UNL     1       1.100  -4.243   0.804  1.00  0.00     0.013 A 
ATOM     12  C   UNL     1       1.743  -5.459   1.040  1.00  0.00    -0.011 A 
BRANCH  12  13
ATOM     13  C   UNL     1       1.234  -6.756   0.490  1.00  0.00     0.068 A 
ATOM     14  C   UNL     1      -0.046  -6.990   0.111  1.00  0.00     0.028 A 
ATOM     15  C   UNL     1       2.112  -7.248  -0.640  1.00  0.00     0.344 A 
ATOM     16  C   UNL     1      -0.422  -6.197  -1.082  1.00  0.00     0.019 A 
ATOM     17  O   UNL     1       1.841  -6.609  -1.864  1.00  0.00    -0.422 OA
ATOM     18  O   UNL     1       3.035  -8.033  -0.475  1.00  0.00    -0.246 OA
ATOM     19  C   UNL     1      -1.663  -5.581  -1.225  1.00  0.00     0.027 A 
ATOM     20  C   UNL     1       0.600  -5.944  -2.010  1.00  0.00     0.138 A 
ATOM     21  C   UNL     1      -1.835  -4.657  -2.258  1.00  0.00     0.018 A 
ATOM     22  C   UNL     1       0.436  -5.021  -3.034  1.00  0.00     0.049 A 
ATOM     23  Br  UNL     1      -3.486  -3.749  -2.424  1.00  0.00    -0.051 Br
ATOM     24  C   UNL     1      -0.790  -4.359  -3.145  1.00  0.00     0.019 A 
ENDBRANCH  12  13
ENDBRANCH   6   7
ENDBRANCH   5   6
ENDBRANCH   3   5
ENDBRANCH   2   3
ENDBRANCH   1   2
BRANCH   1  25
ATOM     25  C   UNL     1       4.635   2.318  -0.288  1.00  0.00     0.275 C 
BRANCH  25  26
ATOM     26  O   UNL     1       4.154   2.329   1.072  1.00  0.00    -0.458 OA
BRANCH  26  27
ATOM     27  C   UNL     1       2.886   2.782   1.273  1.00  0.00     0.338 C 
ATOM     28  O   UNL     1       2.162   3.314   0.458  1.00  0.00    -0.246 OA
BRANCH  27  29
ATOM     29  C   UNL     1       2.443   2.332   2.618  1.00  0.00     0.060 A 
ATOM     30  C   UNL     1       1.151   1.806   2.756  1.00  0.00     0.016 A 
ATOM     31  C   UNL     1       3.299   2.379   3.722  1.00  0.00     0.016 A 
ATOM     32  C   UNL     1       0.705   1.352   4.001  1.00  0.00     0.010 A 
ATOM     33  C   UNL     1       2.848   1.939   4.970  1.00  0.00     0.010 A 
ATOM     34  C   UNL     1       1.540   1.448   5.123  1.00  0.00    -0.014 A 
BRANCH  34  35
ATOM     35  C   UNL     1       0.996   1.218   6.484  1.00  0.00     0.031 A 
ATOM     36  C   UNL     1       0.472   2.402   7.251  1.00  0.00     0.074 A 
ATOM     37  C   UNL     1       0.980  -0.003   7.047  1.00  0.00     0.049 A 
ATOM     38  N   UNL     1      -0.013   2.461   8.465  1.00  0.00    -0.248 NA
ATOM     39  C   UNL     1       0.506   3.696   6.551  1.00  0.00     0.031 C 
ATOM     40  C   UNL     1       1.440  -1.236   6.414  1.00  0.00     0.029 A 
ATOM     41  N   UNL     1       0.568  -0.398   8.297  1.00  0.00    -0.354 N 
ATOM     42  C   UNL     1      -0.345   3.793   8.671  1.00  0.00     0.074 A 
ATOM     43  C   UNL     1       0.023   4.515   7.473  1.00  0.00     0.031 C 
ATOM     44  C   UNL     1       1.303  -2.250   7.287  1.00  0.00     0.029 A 
ATOM     45  C   UNL     1       0.762  -1.734   8.546  1.00  0.00     0.049 A 
ATOM     46  H   UNL     1       0.170   0.219   8.954  1.00  0.00     0.167 HD
ATOM     47  C   UNL     1      -0.916   4.365   9.757  1.00  0.00     0.037 A 
ATOM     48  C   UNL     1       0.543  -2.452   9.666  1.00  0.00     0.037 A 
ATOM     49  C   UNL     1      -1.277   3.659  10.956  1.00  0.00     0.049 A 
ATOM     50  C   UNL     1      -0.034  -1.779  10.887  1.00  0.00     0.074 A 
ATOM     51  C   UNL     1      -1.886   4.152  12.097  1.00  0.00     0.029 A 
ATOM     52  N   UNL     1      -1.050   2.310  11.175  1.00  0.00    -0.354 N 
ATOM     53  N   UNL     1      -0.395  -0.531  11.055  1.00  0.00    -0.248 NA
ATOM     54  C   UNL     1      -0.237  -2.623  12.076  1.00  0.00     0.031 C 
ATOM     55  C   UNL     1      -1.986   3.110  13.024  1.00  0.00     0.029 A 
ATOM     56  C   UNL     1      -1.482   1.958  12.443  1.00  0.00     0.049 A 
ATOM     57  H   UNL     1      -0.642   1.692  10.525  1.00  0.00     0.167 HD
ATOM     58  C   UNL     1      -0.894  -0.446  12.349  1.00  0.00     0.074 A 
ATOM     59  C   UNL     1      -0.797  -1.770  12.923  1.00  0.00     0.031 C 
ATOM     60  C   UNL     1      -1.392   0.634  13.001  1.00  0.00     0.037 A 
BRANCH  47  61
ATOM     61  C   UNL     1      -1.170   5.840   9.701  1.00  0.00     0.064 A 
ATOM     62  C   UNL     1      -2.201   6.375   8.915  1.00  0.00     0.173 A 
ATOM     63  C   UNL     1      -0.391   6.724  10.460  1.00  0.00     0.173 A 
ATOM     64  F   UNL     1      -2.962   5.570   8.159  1.00  0.00    -0.203 F 
ATOM     65  C   UNL     1      -2.429   7.748   8.876  1.00  0.00     0.198 A 
ATOM     66  C   UNL     1      -0.638   8.094  10.437  1.00  0.00     0.198 A 
ATOM     67  F   UNL     1       0.607   6.259  11.226  1.00  0.00    -0.203 F 
ATOM     68  F   UNL     1      -3.393   8.243   8.087  1.00  0.00    -0.200 F 
ATOM     69  C   UNL     1      -1.652   8.605   9.642  1.00  0.00     0.200 A 
ATOM     70  F   UNL     1       0.109   8.920  11.183  1.00  0.00    -0.200 F 
ATOM     71  F   UNL     1      -1.876   9.926   9.606  1.00  0.00    -0.200 F 
ENDBRANCH  47  61
BRANCH  48  72
ATOM     72  C   UNL     1       0.875  -3.900   9.698  1.00  0.00     0.064 A 
ATOM     73  C   UNL     1      -0.135  -4.871   9.756  1.00  0.00     0.173 A 
ATOM     74  C   UNL     1       2.206  -4.340   9.713  1.00  0.00     0.173 A 
ATOM     75  F   UNL     1      -1.423  -4.497   9.777  1.00  0.00    -0.203 F 
ATOM     76  C   UNL     1       0.176  -6.227   9.845  1.00  0.00     0.198 A 
ATOM     77  C   UNL     1       2.515  -5.697   9.779  1.00  0.00     0.198 A 
ATOM     78  F   UNL     1       3.208  -3.449   9.669  1.00  0.00    -0.203 F 
ATOM     79  F   UNL     1      -0.807  -7.131   9.949  1.00  0.00    -0.200 F 
ATOM     80  C   UNL     1       1.500  -6.639   9.853  1.00  0.00     0.200 A 
ATOM     81  F   UNL     1       3.796  -6.091   9.781  1.00  0.00    -0.200 F 
ATOM     82  F   UNL     1       1.798  -7.942   9.944  1.00  0.00    -0.200 F 
ENDBRANCH  48  72
BRANCH  60  83
ATOM     83  C   UNL     1      -1.905   0.430  14.397  1.00  0.00     0.064 A 
ATOM     84  C   UNL     1      -1.035   0.233  15.480  1.00  0.00     0.173 A 
ATOM     85  C   UNL     1      -3.282   0.492  14.663  1.00  0.00     0.173 A 
ATOM     86  F   UNL     1       0.288   0.154  15.276  1.00  0.00    -0.203 F 
ATOM     87  C   UNL     1      -1.527   0.087  16.775  1.00  0.00     0.198 A 
ATOM     88  C   UNL     1      -3.768   0.373  15.962  1.00  0.00     0.198 A 
ATOM     89  F   UNL     1      -4.155   0.687  13.664  1.00  0.00    -0.203 F 
ATOM     90  F   UNL     1      -0.681  -0.137  17.789  1.00  0.00    -0.200 F 
ATOM     91  C   UNL     1      -2.891   0.165  17.016  1.00  0.00     0.200 A 
ATOM     92  F   UNL     1      -5.085   0.462  16.195  1.00  0.00    -0.200 F 
ATOM     93  F   UNL     1      -3.361   0.035  18.264  1.00  0.00    -0.200 F 
ENDBRANCH  60  83
ENDBRANCH  34  35
ENDBRANCH  27  29
ENDBRANCH  26  27
ENDBRANCH  25  26
ENDBRANCH   1  25
TORSDOF 14
