REMARK SMILES CCc1ccc(S(=O)(=O)Cc2noc(C(=O)OCCOC(=O)c3ccc(-c4c5nc(c(-c6c(F)c(F)c(F)c(F)c6F)c6ccc([nH]6)c(-c6c(F)c(F)c(F)c(F)c6F)c6nc(c(-c7c(F)c(F)c(F)c(F)c7F)c7ccc4[nH]7)C=C6)C=C5)cc3)n2)cc1
REMARK SMILES IDX 18 1 17 2 15 3 16 4 14 5 11 6 12 7 86 8 13 9 10 10 7 11 8 12
REMARK SMILES IDX 9 13 6 14 3 15 4 16 88 17 5 18 87 19 2 20 1 21 19 22 20 23
REMARK SMILES IDX 21 24 22 25 23 26 24 27 85 28 25 29 84 30 26 31 27 32 28 33
REMARK SMILES IDX 78 34 29 35 83 36 77 37 79 38 30 39 82 40 76 41 75 42 31 44
REMARK SMILES IDX 63 45 43 46 62 47 44 48 47 49 61 50 80 51 45 52 46 53 60 55
REMARK SMILES IDX 81 56 48 57 32 58 33 59 41 60 34 61 35 62 39 63 42 64 36 65
REMARK SMILES IDX 37 66 40 67 38 68 64 69 65 70 73 71 66 72 67 73 71 74 74 75
REMARK SMILES IDX 68 76 69 77 72 78 70 79 49 80 50 81 58 82 51 83 52 84 56 85
REMARK SMILES IDX 59 86 53 87 54 88 57 89 55 90
REMARK H PARENT 79 43 47 54
REMARK Flexibility Score: inf
ROOT
ATOM      1  C   UNL     1      -3.348   2.511  -2.743  1.00  0.00     0.275 C 
ENDROOT
BRANCH   1   2
ATOM      2  O   UNL     1      -2.356   3.553  -2.722  1.00  0.00    -0.455 OA
BRANCH   2   3
ATOM      3  C   UNL     1      -2.627   4.664  -3.473  1.00  0.00     0.397 C 
ATOM      4  O   UNL     1      -3.618   4.790  -4.180  1.00  0.00    -0.240 OA
BRANCH   3   5
ATOM      5  C   UNL     1      -1.617   5.676  -3.265  1.00  0.00     0.336 A 
ATOM      6  C   UNL     1       0.002   6.879  -2.676  1.00  0.00     0.187 A 
ATOM      7  N   UNL     1      -0.728   7.698  -3.447  1.00  0.00    -0.061 NA
ATOM      8  N   UNL     1      -0.538   5.630  -2.511  1.00  0.00    -0.185 NA
ATOM      9  O   UNL     1      -1.790   6.894  -3.862  1.00  0.00    -0.327 OA
BRANCH   6  10
ATOM     10  C   UNL     1       1.202   7.352  -1.963  1.00  0.00     0.223 C 
BRANCH  10  11
ATOM     11  S   UNL     1       2.555   6.212  -2.003  1.00  0.00     0.185 S 
ATOM     12  O   UNL     1       3.613   6.763  -1.174  1.00  0.00    -0.223 OA
ATOM     13  O   UNL     1       2.823   5.885  -3.394  1.00  0.00    -0.223 OA
BRANCH  11  14
ATOM     14  C   UNL     1       2.047   4.714  -1.191  1.00  0.00     0.067 A 
ATOM     15  C   UNL     1       1.176   2.307  -0.036  1.00  0.00    -0.048 A 
ATOM     16  C   UNL     1       2.080   2.298  -1.106  1.00  0.00     0.005 A 
ATOM     17  C   UNL     1       0.739   3.547   0.462  1.00  0.00     0.005 A 
ATOM     18  C   UNL     1       2.508   3.494  -1.689  1.00  0.00     0.020 A 
ATOM     19  C   UNL     1       1.179   4.747  -0.100  1.00  0.00     0.020 A 
BRANCH  15  20
ATOM     20  C   UNL     1       0.645   1.054   0.624  1.00  0.00     0.032 C 
ATOM     21  C   UNL     1       1.054  -0.276   0.005  1.00  0.00     0.009 C 
ENDBRANCH  15  20
ENDBRANCH  11  14
ENDBRANCH  10  11
ENDBRANCH   6  10
ENDBRANCH   3   5
ENDBRANCH   2   3
ENDBRANCH   1   2
BRANCH   1  22
ATOM     22  C   UNL     1      -4.278   2.587  -1.527  1.00  0.00     0.275 C 
BRANCH  22  23
ATOM     23  O   UNL     1      -5.134   3.746  -1.570  1.00  0.00    -0.458 OA
BRANCH  23  24
ATOM     24  C   UNL     1      -4.641   4.849  -0.960  1.00  0.00     0.338 C 
ATOM     25  O   UNL     1      -3.575   4.950  -0.375  1.00  0.00    -0.246 OA
BRANCH  24  26
ATOM     26  C   UNL     1      -5.499   6.014  -1.241  1.00  0.00     0.060 A 
ATOM     27  C   UNL     1      -4.878   7.164  -1.739  1.00  0.00     0.016 A 
ATOM     28  C   UNL     1      -6.870   6.012  -0.972  1.00  0.00     0.016 A 
ATOM     29  C   UNL     1      -5.622   8.315  -1.975  1.00  0.00     0.010 A 
ATOM     30  C   UNL     1      -7.617   7.174  -1.202  1.00  0.00     0.010 A 
ATOM     31  C   UNL     1      -6.995   8.333  -1.698  1.00  0.00    -0.014 A 
BRANCH  31  32
ATOM     32  C   UNL     1      -7.753   9.593  -1.891  1.00  0.00     0.031 A 
ATOM     33  C   UNL     1      -8.111  10.442  -0.706  1.00  0.00     0.074 A 
ATOM     34  C   UNL     1      -8.064  10.003  -3.134  1.00  0.00     0.049 A 
ATOM     35  N   UNL     1      -8.778  11.567  -0.663  1.00  0.00    -0.248 NA
ATOM     36  C   UNL     1      -7.653   9.962   0.606  1.00  0.00     0.031 C 
ATOM     37  C   UNL     1      -7.726   9.288  -4.364  1.00  0.00     0.029 A 
ATOM     38  N   UNL     1      -8.725  11.124  -3.568  1.00  0.00    -0.354 N 
ATOM     39  C   UNL     1      -8.830  11.925   0.677  1.00  0.00     0.074 A 
ATOM     40  C   UNL     1      -8.143  10.889   1.418  1.00  0.00     0.031 C 
ATOM     41  C   UNL     1      -8.173   9.993  -5.416  1.00  0.00     0.029 A 
ATOM     42  C   UNL     1      -8.863  11.187  -4.932  1.00  0.00     0.049 A 
ATOM     43  H   UNL     1      -9.068  11.818  -2.958  1.00  0.00     0.167 HD
ATOM     44  C   UNL     1      -9.396  13.022   1.234  1.00  0.00     0.037 A 
ATOM     45  C   UNL     1      -9.491  12.095  -5.702  1.00  0.00     0.037 A 
ATOM     46  C   UNL     1     -10.069  14.057   0.493  1.00  0.00     0.049 A 
ATOM     47  C   UNL     1     -10.160  13.275  -5.051  1.00  0.00     0.074 A 
ATOM     48  C   UNL     1     -10.672  15.208   0.969  1.00  0.00     0.029 A 
ATOM     49  N   UNL     1     -10.227  14.064  -0.885  1.00  0.00    -0.354 N 
ATOM     50  N   UNL     1     -10.211  13.602  -3.783  1.00  0.00    -0.248 NA
ATOM     51  C   UNL     1     -10.864  14.211  -5.940  1.00  0.00     0.031 C 
ATOM     52  C   UNL     1     -11.229  15.893  -0.117  1.00  0.00     0.029 A 
ATOM     53  C   UNL     1     -10.936  15.190  -1.274  1.00  0.00     0.049 A 
ATOM     54  H   UNL     1      -9.886  13.372  -1.496  1.00  0.00     0.167 HD
ATOM     55  C   UNL     1     -10.935  14.785  -3.721  1.00  0.00     0.074 A 
ATOM     56  C   UNL     1     -11.289  15.129  -5.083  1.00  0.00     0.031 C 
ATOM     57  C   UNL     1     -11.278  15.518  -2.634  1.00  0.00     0.037 A 
BRANCH  44  58
ATOM     58  C   UNL     1      -9.337  13.145   2.728  1.00  0.00     0.064 A 
ATOM     59  C   UNL     1      -8.148  13.474   3.395  1.00  0.00     0.173 A 
ATOM     60  C   UNL     1     -10.495  12.961   3.499  1.00  0.00     0.173 A 
ATOM     61  F   UNL     1      -7.012  13.644   2.703  1.00  0.00    -0.203 F 
ATOM     62  C   UNL     1      -8.116  13.593   4.782  1.00  0.00     0.198 A 
ATOM     63  C   UNL     1     -10.464  13.105   4.883  1.00  0.00     0.198 A 
ATOM     64  F   UNL     1     -11.658  12.649   2.909  1.00  0.00    -0.203 F 
ATOM     65  F   UNL     1      -6.960  13.866   5.403  1.00  0.00    -0.200 F 
ATOM     66  C   UNL     1      -9.274  13.414   5.524  1.00  0.00     0.200 A 
ATOM     67  F   UNL     1     -11.586  12.940   5.598  1.00  0.00    -0.200 F 
ATOM     68  F   UNL     1      -9.241  13.532   6.859  1.00  0.00    -0.200 F 
ENDBRANCH  44  58
BRANCH  45  69
ATOM     69  C   UNL     1      -9.532  11.913  -7.176  1.00  0.00     0.064 A 
ATOM     70  C   UNL     1      -8.829  12.770  -8.032  1.00  0.00     0.173 A 
ATOM     71  C   UNL     1     -10.281  10.879  -7.756  1.00  0.00     0.173 A 
ATOM     72  F   UNL     1      -8.121  13.790  -7.525  1.00  0.00    -0.203 F 
ATOM     73  C   UNL     1      -8.882  12.607  -9.415  1.00  0.00     0.198 A 
ATOM     74  C   UNL     1     -10.312  10.700  -9.137  1.00  0.00     0.198 A 
ATOM     75  F   UNL     1     -10.976  10.035  -6.980  1.00  0.00    -0.203 F 
ATOM     76  F   UNL     1      -8.234  13.465 -10.214  1.00  0.00    -0.200 F 
ATOM     77  C   UNL     1      -9.617  11.568  -9.966  1.00  0.00     0.200 A 
ATOM     78  F   UNL     1     -11.017   9.689  -9.664  1.00  0.00    -0.200 F 
ATOM     79  F   UNL     1      -9.665  11.408 -11.296  1.00  0.00    -0.200 F 
ENDBRANCH  45  69
BRANCH  57  80
ATOM     80  C   UNL     1     -12.057  16.777  -2.875  1.00  0.00     0.064 A 
ATOM     81  C   UNL     1     -13.414  16.742  -3.227  1.00  0.00     0.173 A 
ATOM     82  C   UNL     1     -11.449  18.031  -2.717  1.00  0.00     0.173 A 
ATOM     83  F   UNL     1     -14.036  15.566  -3.404  1.00  0.00    -0.203 F 
ATOM     84  C   UNL     1     -14.130  17.919  -3.432  1.00  0.00     0.198 A 
ATOM     85  C   UNL     1     -12.174  19.206  -2.900  1.00  0.00     0.198 A 
ATOM     86  F   UNL     1     -10.154  18.117  -2.377  1.00  0.00    -0.203 F 
ATOM     87  F   UNL     1     -15.415  17.863  -3.807  1.00  0.00    -0.200 F 
ATOM     88  C   UNL     1     -13.511  19.149  -3.262  1.00  0.00     0.200 A 
ATOM     89  F   UNL     1     -11.578  20.393  -2.725  1.00  0.00    -0.200 F 
ATOM     90  F   UNL     1     -14.203  20.280  -3.456  1.00  0.00    -0.200 F 
ENDBRANCH  57  80
ENDBRANCH  31  32
ENDBRANCH  24  26
ENDBRANCH  23  24
ENDBRANCH  22  23
ENDBRANCH   1  22
TORSDOF 15
