REMARK SMILES Cn1ccc(Nc2nccc(C(=O)OCCOC(=O)c3ccc(-c4c5nc(c(-c6c(F)c(F)c(F)c(F)c6F)c6ccc([nH]6)c(-c6c(F)c(F)c(F)c(F)c6F)c6nc(c(-c7c(F)c(F)c(F)c(F)c7F)c7ccc4[nH]7)C=C6)C=C5)cc3)c2N)n1
REMARK SMILES IDX 15 1 14 2 12 3 13 4 11 5 7 6 8 7 83 8 9 9 10 10 6 11 5 13
REMARK SMILES IDX 1 14 2 15 3 16 85 17 4 18 84 19 16 22 17 23 18 24 19 25
REMARK SMILES IDX 20 26 21 27 82 28 22 29 81 30 23 31 24 32 25 33 75 34 26 35
REMARK SMILES IDX 80 36 74 37 76 38 27 39 79 40 73 41 72 42 28 44 60 45 40 46
REMARK SMILES IDX 59 47 41 48 44 49 58 50 77 51 42 52 43 53 57 55 78 56 45 57
REMARK SMILES IDX 29 58 30 59 38 60 31 61 32 62 36 63 39 64 33 65 34 66 37 67
REMARK SMILES IDX 35 68 61 69 62 70 70 71 63 72 64 73 68 74 71 75 65 76 66 77
REMARK SMILES IDX 69 78 67 79 46 80 47 81 55 82 48 83 49 84 53 85 56 86 50 87
REMARK SMILES IDX 51 88 54 89 52 90
REMARK H PARENT 6 12 84 20 84 21 76 43 44 54
REMARK Flexibility Score: inf
ROOT
ATOM      1  C   UNL     1      -0.565   5.654   3.921  1.00  0.00     0.275 C 
ENDROOT
BRANCH   1   2
ATOM      2  O   UNL     1       0.282   4.932   3.005  1.00  0.00    -0.458 OA
BRANCH   2   3
ATOM      3  C   UNL     1       0.207   5.271   1.695  1.00  0.00     0.340 C 
ATOM      4  O   UNL     1      -0.514   6.137   1.221  1.00  0.00    -0.246 OA
BRANCH   3   5
ATOM      5  C   UNL     1       1.172   4.501   0.868  1.00  0.00     0.088 A 
ATOM      6  C   UNL     1       2.255   2.500   0.119  1.00  0.00     0.155 A 
ATOM      7  N   UNL     1       2.892   3.155  -0.883  1.00  0.00    -0.237 NA
ATOM      8  C   UNL     1       1.436   3.144   1.081  1.00  0.00     0.090 A 
ATOM      9  C   UNL     1       2.597   4.454  -1.053  1.00  0.00     0.114 A 
ATOM     10  C   UNL     1       1.716   5.145  -0.249  1.00  0.00     0.038 A 
BRANCH   6  11
ATOM     11  N   UNL     1       2.354   1.096   0.049  1.00  0.00    -0.322 N 
ATOM     12  H   UNL     1       3.257   0.709  -0.012  1.00  0.00     0.170 HD
BRANCH  11  13
ATOM     13  C   UNL     1       1.309   0.237   0.059  1.00  0.00     0.153 A 
ATOM     14  C   UNL     1      -2.093  -0.511   0.012  1.00  0.00     0.173 C 
ATOM     15  N   UNL     1      -0.652  -0.565   0.035  1.00  0.00    -0.274 N 
ATOM     16  C   UNL     1       0.151  -1.643  -0.173  1.00  0.00     0.110 A 
ATOM     17  N   UNL     1       0.027   0.565   0.247  1.00  0.00    -0.155 NA
ATOM     18  C   UNL     1       1.438  -1.150  -0.179  1.00  0.00     0.068 A 
ENDBRANCH  11  13
ENDBRANCH   6  11
BRANCH   8  19
ATOM     19  N   UNL     1       1.032   2.469   2.243  1.00  0.00    -0.395 N 
ATOM     20  H   UNL     1       1.238   1.513   2.354  1.00  0.00     0.156 HD
ATOM     21  H   UNL     1       0.544   2.952   2.948  1.00  0.00     0.156 HD
ENDBRANCH   8  19
ENDBRANCH   3   5
ENDBRANCH   2   3
ENDBRANCH   1   2
BRANCH   1  22
ATOM     22  C   UNL     1       0.244   6.678   4.713  1.00  0.00     0.275 C 
BRANCH  22  23
ATOM     23  O   UNL     1       0.611   7.781   3.866  1.00  0.00    -0.458 OA
BRANCH  23  24
ATOM     24  C   UNL     1       1.889   7.779   3.429  1.00  0.00     0.338 C 
ATOM     25  O   UNL     1       2.783   7.002   3.710  1.00  0.00    -0.246 OA
BRANCH  24  26
ATOM     26  C   UNL     1       2.055   8.868   2.461  1.00  0.00     0.060 A 
ATOM     27  C   UNL     1       1.708   8.633   1.133  1.00  0.00     0.016 A 
ATOM     28  C   UNL     1       2.643  10.072   2.835  1.00  0.00     0.016 A 
ATOM     29  C   UNL     1       2.001   9.569   0.149  1.00  0.00     0.010 A 
ATOM     30  C   UNL     1       2.870  11.046   1.859  1.00  0.00     0.010 A 
ATOM     31  C   UNL     1       2.572  10.794   0.505  1.00  0.00    -0.014 A 
BRANCH  31  32
ATOM     32  C   UNL     1       2.900  11.805  -0.530  1.00  0.00     0.031 A 
ATOM     33  C   UNL     1       4.328  12.222  -0.724  1.00  0.00     0.074 A 
ATOM     34  C   UNL     1       1.929  12.360  -1.279  1.00  0.00     0.049 A 
ATOM     35  N   UNL     1       4.811  13.263  -1.351  1.00  0.00    -0.248 NA
ATOM     36  C   UNL     1       5.351  11.356  -0.116  1.00  0.00     0.031 C 
ATOM     37  C   UNL     1       0.514  11.986  -1.250  1.00  0.00     0.029 A 
ATOM     38  N   UNL     1       1.986  13.373  -2.204  1.00  0.00    -0.354 N 
ATOM     39  C   UNL     1       6.185  13.214  -1.157  1.00  0.00     0.074 A 
ATOM     40  C   UNL     1       6.462  12.032  -0.368  1.00  0.00     0.031 C 
ATOM     41  C   UNL     1      -0.161  12.753  -2.119  1.00  0.00     0.029 A 
ATOM     42  C   UNL     1       0.755  13.731  -2.696  1.00  0.00     0.049 A 
ATOM     43  H   UNL     1       2.826  13.801  -2.486  1.00  0.00     0.167 HD
ATOM     44  C   UNL     1       7.121  14.090  -1.590  1.00  0.00     0.037 A 
ATOM     45  C   UNL     1       0.395  14.768  -3.475  1.00  0.00     0.037 A 
ATOM     46  C   UNL     1       6.834  15.232  -2.416  1.00  0.00     0.049 A 
ATOM     47  C   UNL     1       1.446  15.749  -3.915  1.00  0.00     0.074 A 
ATOM     48  C   UNL     1       7.706  16.188  -2.906  1.00  0.00     0.029 A 
ATOM     49  N   UNL     1       5.572  15.560  -2.891  1.00  0.00    -0.354 N 
ATOM     50  N   UNL     1       2.731  15.751  -3.661  1.00  0.00    -0.248 NA
ATOM     51  C   UNL     1       0.993  16.885  -4.730  1.00  0.00     0.031 C 
ATOM     52  C   UNL     1       6.967  17.109  -3.656  1.00  0.00     0.029 A 
ATOM     53  C   UNL     1       5.641  16.705  -3.666  1.00  0.00     0.049 A 
ATOM     54  H   UNL     1       4.748  15.053  -2.704  1.00  0.00     0.167 HD
ATOM     55  C   UNL     1       3.245  16.871  -4.298  1.00  0.00     0.074 A 
ATOM     56  C   UNL     1       2.133  17.523  -4.958  1.00  0.00     0.031 C 
ATOM     57  C   UNL     1       4.523  17.320  -4.332  1.00  0.00     0.037 A 
BRANCH  44  58
ATOM     58  C   UNL     1       8.535  13.875  -1.140  1.00  0.00     0.064 A 
ATOM     59  C   UNL     1       9.335  12.850  -1.663  1.00  0.00     0.173 A 
ATOM     60  C   UNL     1       9.107  14.734  -0.188  1.00  0.00     0.173 A 
ATOM     61  F   UNL     1       8.829  11.992  -2.563  1.00  0.00    -0.203 F 
ATOM     62  C   UNL     1      10.650  12.680  -1.236  1.00  0.00     0.198 A 
ATOM     63  C   UNL     1      10.429  14.578   0.218  1.00  0.00     0.198 A 
ATOM     64  F   UNL     1       8.384  15.733   0.342  1.00  0.00    -0.203 F 
ATOM     65  F   UNL     1      11.385  11.669  -1.720  1.00  0.00    -0.200 F 
ATOM     66  C   UNL     1      11.197  13.548  -0.302  1.00  0.00     0.200 A 
ATOM     67  F   UNL     1      10.959  15.423   1.113  1.00  0.00    -0.200 F 
ATOM     68  F   UNL     1      12.465  13.387   0.102  1.00  0.00    -0.200 F 
ENDBRANCH  44  58
BRANCH  45  69
ATOM     69  C   UNL     1      -1.032  14.954  -3.842  1.00  0.00     0.064 A 
ATOM     70  C   UNL     1      -1.468  14.760  -5.160  1.00  0.00     0.173 A 
ATOM     71  C   UNL     1      -1.992  15.311  -2.883  1.00  0.00     0.173 A 
ATOM     72  F   UNL     1      -0.584  14.443  -6.117  1.00  0.00    -0.203 F 
ATOM     73  C   UNL     1      -2.809  14.920  -5.504  1.00  0.00     0.198 A 
ATOM     74  C   UNL     1      -3.336  15.443  -3.222  1.00  0.00     0.198 A 
ATOM     75  F   UNL     1      -1.625  15.510  -1.608  1.00  0.00    -0.203 F 
ATOM     76  F   UNL     1      -3.194  14.762  -6.777  1.00  0.00    -0.200 F 
ATOM     77  C   UNL     1      -3.743  15.253  -4.534  1.00  0.00     0.200 A 
ATOM     78  F   UNL     1      -4.236  15.752  -2.279  1.00  0.00    -0.200 F 
ATOM     79  F   UNL     1      -5.034  15.395  -4.864  1.00  0.00    -0.200 F 
ENDBRANCH  45  69
BRANCH  57  80
ATOM     80  C   UNL     1       4.798  18.544  -5.150  1.00  0.00     0.064 A 
ATOM     81  C   UNL     1       4.467  19.825  -4.689  1.00  0.00     0.173 A 
ATOM     82  C   UNL     1       5.457  18.432  -6.383  1.00  0.00     0.173 A 
ATOM     83  F   UNL     1       3.823  19.977  -3.523  1.00  0.00    -0.203 F 
ATOM     84  C   UNL     1       4.778  20.954  -5.442  1.00  0.00     0.198 A 
ATOM     85  C   UNL     1       5.785  19.564  -7.122  1.00  0.00     0.198 A 
ATOM     86  F   UNL     1       5.797  17.226  -6.862  1.00  0.00    -0.203 F 
ATOM     87  F   UNL     1       4.428  22.169  -4.998  1.00  0.00    -0.200 F 
ATOM     88  C   UNL     1       5.443  20.823  -6.653  1.00  0.00     0.200 A 
ATOM     89  F   UNL     1       6.435  19.437  -8.287  1.00  0.00    -0.200 F 
ATOM     90  F   UNL     1       5.750  21.913  -7.370  1.00  0.00    -0.200 F 
ENDBRANCH  57  80
ENDBRANCH  31  32
ENDBRANCH  24  26
ENDBRANCH  23  24
ENDBRANCH  22  23
ENDBRANCH   1  22
TORSDOF 14
