REMARK SMILES CCCCCCNC(=O)Nc1cccc(-c2ccc([C@@H](C)C(=O)OCCOC(=O)c3ccc(-c4c5nc(c(-c6c(F)c(F)c(F)c(F)c6F)c6ccc([nH]6)c(-c6c(F)c(F)c(F)c(F)c6F)c6nc(c(-c7c(F)c(F)c(F)c(F)c7F)c7ccc4[nH]7)C=C6)C=C5)cc3)cc2F)c1
REMARK SMILES IDX 20 1 21 2 19 3 16 4 17 5 94 6 18 7 93 8 95 9 15 10 11 11
REMARK SMILES IDX 12 12 96 13 13 14 14 15 10 16 7 17 8 18 9 20 6 22 5 23 4 24
REMARK SMILES IDX 3 25 2 26 1 27 22 28 23 29 24 30 25 31 26 32 27 33 28 34
REMARK SMILES IDX 29 35 30 36 31 37 92 38 32 39 91 40 33 41 34 42 35 43 85 44
REMARK SMILES IDX 36 45 90 46 84 47 86 48 37 49 89 50 83 51 82 52 38 54 70 55
REMARK SMILES IDX 50 56 69 57 51 58 54 59 68 60 87 61 52 62 53 63 67 65 88 66
REMARK SMILES IDX 55 67 39 68 40 69 48 70 41 71 42 72 46 73 49 74 43 75 44 76
REMARK SMILES IDX 47 77 45 78 71 79 72 80 80 81 73 82 74 83 78 84 81 85 75 86
REMARK SMILES IDX 76 87 79 88 77 89 56 90 57 91 65 92 58 93 59 94 63 95 66 96
REMARK SMILES IDX 60 97 61 98 64 99 62 100
REMARK H PARENT 7 19 10 21 86 53 54 64
REMARK Flexibility Score: inf
ROOT
ATOM      1  C   UNL     1      -2.251   2.626   5.873  1.00  0.00     0.126 C 
ATOM      2  C   UNL     1      -3.194   1.714   6.657  1.00  0.00     0.025 C 
ENDROOT
BRANCH   1   3
ATOM      3  C   UNL     1      -2.731   2.862   4.449  1.00  0.00    -0.031 A 
ATOM      4  C   UNL     1      -3.810   3.358   1.858  1.00  0.00     0.018 A 
ATOM      5  C   UNL     1      -3.528   2.053   2.294  1.00  0.00     0.012 A 
ATOM      6  C   UNL     1      -3.503   4.406   2.732  1.00  0.00     0.131 A 
ATOM      7  C   UNL     1      -2.996   1.807   3.567  1.00  0.00     0.005 A 
ATOM      8  C   UNL     1      -2.980   4.170   4.005  1.00  0.00     0.044 A 
ATOM      9  F   UNL     1      -3.739   5.678   2.375  1.00  0.00    -0.206 F 
BRANCH   4  10
ATOM     10  C   UNL     1      -4.403   3.595   0.533  1.00  0.00    -0.013 A 
ATOM     11  C   UNL     1      -4.254   4.547  -1.710  1.00  0.00     0.043 A 
ATOM     12  C   UNL     1      -5.477   3.967  -2.047  1.00  0.00     0.026 A 
ATOM     13  C   UNL     1      -3.765   4.420  -0.406  1.00  0.00     0.035 A 
ATOM     14  C   UNL     1      -6.141   3.164  -1.122  1.00  0.00     0.003 A 
ATOM     15  C   UNL     1      -5.597   2.964   0.150  1.00  0.00     0.009 A 
BRANCH  11  16
ATOM     16  N   UNL     1      -3.542   5.219  -2.716  1.00  0.00    -0.308 N 
ATOM     17  N   UNL     1      -1.297   4.538  -2.401  1.00  0.00    -0.338 N 
ATOM     18  C   UNL     1      -2.210   5.427  -2.863  1.00  0.00     0.319 C 
ATOM     19  H   UNL     1      -0.368   4.864  -2.384  1.00  0.00     0.165 HD
ATOM     20  O   UNL     1      -1.812   6.390  -3.521  1.00  0.00    -0.249 OA
ATOM     21  H   UNL     1      -4.100   5.601  -3.431  1.00  0.00     0.171 HD
BRANCH  17  22
ATOM     22  C   UNL     1      -1.481   3.176  -1.927  1.00  0.00     0.117 C 
BRANCH  22  23
ATOM     23  C   UNL     1      -0.483   2.180  -2.508  1.00  0.00     0.021 C 
BRANCH  23  24
ATOM     24  C   UNL     1       0.966   2.345  -2.047  1.00  0.00     0.002 C 
BRANCH  24  25
ATOM     25  C   UNL     1       1.192   2.407  -0.532  1.00  0.00    -0.000 C 
BRANCH  25  26
ATOM     26  C   UNL     1       0.548   1.290   0.292  1.00  0.00    -0.003 C 
ATOM     27  C   UNL     1       1.044  -0.102  -0.064  1.00  0.00     0.004 C 
ENDBRANCH  25  26
ENDBRANCH  24  25
ENDBRANCH  23  24
ENDBRANCH  22  23
ENDBRANCH  17  22
ENDBRANCH  11  16
ENDBRANCH   4  10
ENDBRANCH   1   3
BRANCH   1  28
ATOM     28  C   UNL     1      -0.816   2.152   6.050  1.00  0.00     0.313 C 
ATOM     29  O   UNL     1      -0.161   2.444   7.047  1.00  0.00    -0.252 OA
BRANCH  28  30
ATOM     30  O   UNL     1      -0.366   1.349   5.050  1.00  0.00    -0.462 OA
BRANCH  30  31
ATOM     31  C   UNL     1       0.974   0.839   5.200  1.00  0.00     0.274 C 
BRANCH  31  32
ATOM     32  C   UNL     1       1.996   1.644   4.395  1.00  0.00     0.275 C 
BRANCH  32  33
ATOM     33  O   UNL     1       2.092   3.003   4.856  1.00  0.00    -0.458 OA
BRANCH  33  34
ATOM     34  C   UNL     1       1.346   3.895   4.164  1.00  0.00     0.338 C 
ATOM     35  O   UNL     1       0.640   3.687   3.194  1.00  0.00    -0.246 OA
BRANCH  34  36
ATOM     36  C   UNL     1       1.411   5.199   4.836  1.00  0.00     0.060 A 
ATOM     37  C   UNL     1       0.282   5.636   5.529  1.00  0.00     0.016 A 
ATOM     38  C   UNL     1       2.533   6.020   4.713  1.00  0.00     0.016 A 
ATOM     39  C   UNL     1       0.256   6.908   6.091  1.00  0.00     0.010 A 
ATOM     40  C   UNL     1       2.513   7.293   5.291  1.00  0.00     0.010 A 
ATOM     41  C   UNL     1       1.369   7.749   5.970  1.00  0.00    -0.014 A 
BRANCH  41  42
ATOM     42  C   UNL     1       1.303   9.124   6.520  1.00  0.00     0.031 A 
ATOM     43  C   UNL     1       1.144  10.293   5.593  1.00  0.00     0.074 A 
ATOM     44  C   UNL     1       1.345   9.314   7.851  1.00  0.00     0.049 A 
ATOM     45  N   UNL     1       1.118  11.572   5.870  1.00  0.00    -0.248 NA
ATOM     46  C   UNL     1       0.993   9.984   4.162  1.00  0.00     0.031 C 
ATOM     47  C   UNL     1       1.457   8.252   8.850  1.00  0.00     0.029 A 
ATOM     48  N   UNL     1       1.295  10.468   8.591  1.00  0.00    -0.354 N 
ATOM     49  C   UNL     1       0.962  12.220   4.652  1.00  0.00     0.074 A 
ATOM     50  C   UNL     1       0.918  11.195   3.630  1.00  0.00     0.031 C 
ATOM     51  C   UNL     1       1.463   8.803  10.075  1.00  0.00     0.029 A 
ATOM     52  C   UNL     1       1.397  10.257   9.944  1.00  0.00     0.049 A 
ATOM     53  H   UNL     1       1.195  11.362   8.191  1.00  0.00     0.167 HD
ATOM     54  C   UNL     1       0.859  13.548   4.413  1.00  0.00     0.037 A 
ATOM     55  C   UNL     1       1.452  11.138  10.959  1.00  0.00     0.037 A 
ATOM     56  C   UNL     1       0.887  14.564   5.432  1.00  0.00     0.049 A 
ATOM     57  C   UNL     1       1.375  12.611  10.661  1.00  0.00     0.074 A 
ATOM     58  C   UNL     1       0.798  15.937   5.287  1.00  0.00     0.029 A 
ATOM     59  N   UNL     1       1.009  14.312   6.791  1.00  0.00    -0.354 N 
ATOM     60  N   UNL     1       1.244  13.214   9.504  1.00  0.00    -0.248 NA
ATOM     61  C   UNL     1       1.456  13.525  11.808  1.00  0.00     0.031 C 
ATOM     62  C   UNL     1       0.895  16.519   6.556  1.00  0.00     0.029 A 
ATOM     63  C   UNL     1       1.007  15.506   7.495  1.00  0.00     0.049 A 
ATOM     64  H   UNL     1       1.085  13.418   7.195  1.00  0.00     0.167 HD
ATOM     65  C   UNL     1       1.210  14.573   9.784  1.00  0.00     0.074 A 
ATOM     66  C   UNL     1       1.316  14.706  11.222  1.00  0.00     0.031 C 
ATOM     67  C   UNL     1       1.107  15.617   8.927  1.00  0.00     0.037 A 
BRANCH  54  68
ATOM     68  C   UNL     1       0.723  13.984   2.985  1.00  0.00     0.064 A 
ATOM     69  C   UNL     1      -0.479  13.826   2.280  1.00  0.00     0.173 A 
ATOM     70  C   UNL     1       1.795  14.607   2.328  1.00  0.00     0.173 A 
ATOM     71  F   UNL     1      -1.528  13.226   2.862  1.00  0.00    -0.203 F 
ATOM     72  C   UNL     1      -0.597  14.261   0.963  1.00  0.00     0.198 A 
ATOM     73  C   UNL     1       1.666  15.061   1.019  1.00  0.00     0.198 A 
ATOM     74  F   UNL     1       2.964  14.785   2.962  1.00  0.00    -0.203 F 
ATOM     75  F   UNL     1      -1.745  14.073   0.297  1.00  0.00    -0.200 F 
ATOM     76  C   UNL     1       0.472  14.884   0.336  1.00  0.00     0.200 A 
ATOM     77  F   UNL     1       2.697  15.672   0.418  1.00  0.00    -0.200 F 
ATOM     78  F   UNL     1       0.353  15.312  -0.929  1.00  0.00    -0.200 F 
ENDBRANCH  54  68
BRANCH  55  79
ATOM     79  C   UNL     1       1.609  10.652  12.354  1.00  0.00     0.064 A 
ATOM     80  C   UNL     1       0.565  10.766  13.282  1.00  0.00     0.173 A 
ATOM     81  C   UNL     1       2.809  10.070  12.787  1.00  0.00     0.173 A 
ATOM     82  F   UNL     1      -0.592  11.339  12.920  1.00  0.00    -0.203 F 
ATOM     83  C   UNL     1       0.722  10.331  14.596  1.00  0.00     0.198 A 
ATOM     84  C   UNL     1       2.955   9.611  14.094  1.00  0.00     0.198 A 
ATOM     85  F   UNL     1       3.838   9.939  11.937  1.00  0.00    -0.203 F 
ATOM     86  F   UNL     1      -0.276  10.491  15.476  1.00  0.00    -0.200 F 
ATOM     87  C   UNL     1       1.914   9.748  14.999  1.00  0.00     0.200 A 
ATOM     88  F   UNL     1       4.105   9.040  14.476  1.00  0.00    -0.200 F 
ATOM     89  F   UNL     1       2.063   9.328  16.263  1.00  0.00    -0.200 F 
ENDBRANCH  55  79
BRANCH  67  90
ATOM     90  C   UNL     1       1.078  16.992   9.523  1.00  0.00     0.064 A 
ATOM     91  C   UNL     1       2.239  17.593  10.030  1.00  0.00     0.173 A 
ATOM     92  C   UNL     1      -0.115  17.729   9.553  1.00  0.00     0.173 A 
ATOM     93  F   UNL     1       3.400  16.921  10.037  1.00  0.00    -0.203 F 
ATOM     94  C   UNL     1       2.202  18.878  10.565  1.00  0.00     0.198 A 
ATOM     95  C   UNL     1      -0.143  19.022  10.067  1.00  0.00     0.198 A 
ATOM     96  F   UNL     1      -1.250  17.197   9.076  1.00  0.00    -0.203 F 
ATOM     97  F   UNL     1       3.314  19.420  11.080  1.00  0.00    -0.200 F 
ATOM     98  C   UNL     1       1.013  19.593  10.577  1.00  0.00     0.200 A 
ATOM     99  F   UNL     1      -1.290  19.715  10.072  1.00  0.00    -0.200 F 
ATOM    100  F   UNL     1       0.981  20.831  11.089  1.00  0.00    -0.200 F 
ENDBRANCH  67  90
ENDBRANCH  41  42
ENDBRANCH  34  36
ENDBRANCH  33  34
ENDBRANCH  32  33
ENDBRANCH  31  32
ENDBRANCH  30  31
ENDBRANCH  28  30
ENDBRANCH   1  28
TORSDOF 19
