REMARK SMILES COc1cccc(-c2c(C(=O)OCCOC(=O)c3ccc(-c4c5nc(c(-c6c(F)c(F)c(F)c(F)c6F)c6ccc([nH]6)c(-c6c(F)c(F)c(F)c(F)c6F)c6nc(c(-c7c(F)c(F)c(F)c(F)c7F)c7ccc4[nH]7)C=C6)C=C5)cc3)nnn2-c2ccc(OC(F)(F)F)cc2)c1
REMARK SMILES IDX 13 1 12 2 10 3 11 4 9 5 8 6 83 7 81 8 82 9 7 10 3 11 4 12
REMARK SMILES IDX 95 13 5 14 6 15 2 16 1 17 84 18 85 19 94 20 86 21 93 22
REMARK SMILES IDX 87 23 88 24 89 25 90 26 91 27 92 28 14 29 15 30 16 31 17 32
REMARK SMILES IDX 18 33 19 34 80 35 20 36 79 37 21 38 22 39 23 40 73 41 24 42
REMARK SMILES IDX 78 43 72 44 74 45 25 46 77 47 71 48 70 49 26 51 58 52 38 53
REMARK SMILES IDX 57 54 39 55 42 56 56 57 75 58 40 59 41 60 55 62 76 63 43 64
REMARK SMILES IDX 27 65 28 66 36 67 29 68 30 69 34 70 37 71 31 72 32 73 35 74
REMARK SMILES IDX 33 75 59 76 60 77 68 78 61 79 62 80 66 81 69 82 63 83 64 84
REMARK SMILES IDX 67 85 65 86 44 87 45 88 53 89 46 90 47 91 51 92 54 93 48 94
REMARK SMILES IDX 49 95 52 96 50 97
REMARK H PARENT 74 50 42 61
REMARK Flexibility Score: inf
ROOT
ATOM      1  C   UNL     1       2.034  -4.231   6.101  1.00  0.00     0.275 C 
ENDROOT
BRANCH   1   2
ATOM      2  O   UNL     1       2.581  -3.019   5.549  1.00  0.00    -0.457 OA
BRANCH   2   3
ATOM      3  C   UNL     1       3.838  -2.666   5.960  1.00  0.00     0.361 C 
ATOM      4  O   UNL     1       4.430  -3.219   6.890  1.00  0.00    -0.244 OA
BRANCH   3   5
ATOM      5  C   UNL     1       4.454  -1.629   5.143  1.00  0.00     0.198 A 
ATOM      6  C   UNL     1       3.858  -0.649   4.358  1.00  0.00     0.109 A 
ATOM      7  N   UNL     1       4.944   0.067   3.869  1.00  0.00    -0.212 N 
ATOM      8  N   UNL     1       5.823  -1.554   4.988  1.00  0.00    -0.122 NA
ATOM      9  N   UNL     1       6.097  -0.587   4.125  1.00  0.00    -0.061 NA
BRANCH   6  10
ATOM     10  C   UNL     1       2.462  -0.352   4.036  1.00  0.00     0.007 A 
ATOM     11  C   UNL     1       0.760   0.240   2.400  1.00  0.00     0.119 A 
ATOM     12  C   UNL     1      -0.159   0.394   3.438  1.00  0.00     0.046 A 
ATOM     13  C   UNL     1       2.065  -0.151   2.699  1.00  0.00     0.056 A 
ATOM     14  C   UNL     1       0.210   0.149   4.760  1.00  0.00     0.005 A 
ATOM     15  C   UNL     1       1.520  -0.214   5.060  1.00  0.00     0.011 A 
BRANCH  11  16
ATOM     16  O   UNL     1       0.286   0.574   1.162  1.00  0.00    -0.497 OA
ATOM     17  C   UNL     1       0.935  -0.002   0.036  1.00  0.00     0.278 C 
ENDBRANCH  11  16
ENDBRANCH   6  10
BRANCH   7  18
ATOM     18  C   UNL     1       4.954   1.353   3.283  1.00  0.00     0.067 A 
ATOM     19  C   UNL     1       5.742   1.606   2.161  1.00  0.00     0.032 A 
ATOM     20  C   UNL     1       4.164   2.369   3.835  1.00  0.00     0.032 A 
ATOM     21  C   UNL     1       5.676   2.864   1.554  1.00  0.00     0.049 A 
ATOM     22  C   UNL     1       4.144   3.637   3.250  1.00  0.00     0.049 A 
ATOM     23  C   UNL     1       4.878   3.885   2.090  1.00  0.00     0.129 A 
BRANCH  23  24
ATOM     24  O   UNL     1       4.905   5.058   1.390  1.00  0.00    -0.406 OA
BRANCH  24  25
ATOM     25  C   UNL     1       4.077   6.116   1.845  1.00  0.00     0.573 C 
ATOM     26  F   UNL     1       2.780   5.742   1.897  1.00  0.00    -0.132 F 
ATOM     27  F   UNL     1       4.470   6.548   3.063  1.00  0.00    -0.132 F 
ATOM     28  F   UNL     1       4.178   7.150   0.980  1.00  0.00    -0.132 F 
ENDBRANCH  24  25
ENDBRANCH  23  24
ENDBRANCH   7  18
ENDBRANCH   3   5
ENDBRANCH   2   3
ENDBRANCH   1   2
BRANCH   1  29
ATOM     29  C   UNL     1       2.465  -5.449   5.301  1.00  0.00     0.275 C 
BRANCH  29  30
ATOM     30  O   UNL     1       3.867  -5.645   5.445  1.00  0.00    -0.458 OA
BRANCH  30  31
ATOM     31  C   UNL     1       4.617  -5.086   4.460  1.00  0.00     0.338 C 
ATOM     32  O   UNL     1       4.301  -4.226   3.673  1.00  0.00    -0.246 OA
BRANCH  31  33
ATOM     33  C   UNL     1       5.789  -5.925   4.276  1.00  0.00     0.060 A 
ATOM     34  C   UNL     1       6.857  -5.477   3.499  1.00  0.00     0.016 A 
ATOM     35  C   UNL     1       5.632  -7.261   4.590  1.00  0.00     0.016 A 
ATOM     36  C   UNL     1       7.522  -6.423   2.727  1.00  0.00     0.010 A 
ATOM     37  C   UNL     1       6.499  -8.127   4.016  1.00  0.00     0.010 A 
ATOM     38  C   UNL     1       7.163  -7.771   2.855  1.00  0.00    -0.014 A 
BRANCH  38  39
ATOM     39  C   UNL     1       7.830  -8.881   2.171  1.00  0.00     0.031 A 
ATOM     40  C   UNL     1       9.230  -8.950   2.722  1.00  0.00     0.074 A 
ATOM     41  C   UNL     1       7.203  -9.742   1.305  1.00  0.00     0.049 A 
ATOM     42  N   UNL     1      10.276  -8.444   2.151  1.00  0.00    -0.248 NA
ATOM     43  C   UNL     1       9.483  -9.245   4.157  1.00  0.00     0.031 C 
ATOM     44  C   UNL     1       5.809  -9.782   0.801  1.00  0.00     0.029 A 
ATOM     45  N   UNL     1       7.733 -10.835   0.635  1.00  0.00    -0.354 N 
ATOM     46  C   UNL     1      11.335  -8.681   3.026  1.00  0.00     0.074 A 
ATOM     47  C   UNL     1      10.751  -8.856   4.313  1.00  0.00     0.031 C 
ATOM     48  C   UNL     1       5.553 -10.960   0.162  1.00  0.00     0.029 A 
ATOM     49  C   UNL     1       6.778 -11.729   0.070  1.00  0.00     0.049 A 
ATOM     50  H   UNL     1       8.703 -10.982   0.555  1.00  0.00     0.167 HD
ATOM     51  C   UNL     1      12.517  -9.142   2.529  1.00  0.00     0.037 A 
ATOM     52  C   UNL     1       7.030 -12.948  -0.522  1.00  0.00     0.037 A 
ATOM     53  C   UNL     1      12.549  -8.889   1.109  1.00  0.00     0.049 A 
ATOM     54  C   UNL     1       8.472 -12.927  -0.889  1.00  0.00     0.074 A 
ATOM     55  C   UNL     1      12.562  -7.762   0.318  1.00  0.00     0.029 A 
ATOM     56  N   UNL     1      12.014  -9.901   0.355  1.00  0.00    -0.354 N 
ATOM     57  N   UNL     1       8.936 -12.091  -1.781  1.00  0.00    -0.248 NA
ATOM     58  C   UNL     1       9.389 -13.328   0.170  1.00  0.00     0.031 C 
ATOM     59  C   UNL     1      11.683  -8.056  -0.768  1.00  0.00     0.029 A 
ATOM     60  C   UNL     1      11.305  -9.396  -0.696  1.00  0.00     0.049 A 
ATOM     61  H   UNL     1      12.125 -10.860   0.546  1.00  0.00     0.167 HD
ATOM     62  C   UNL     1      10.005 -11.482  -1.141  1.00  0.00     0.074 A 
ATOM     63  C   UNL     1      10.229 -12.290   0.070  1.00  0.00     0.031 C 
ATOM     64  C   UNL     1      10.371 -10.200  -1.448  1.00  0.00     0.037 A 
BRANCH  51  65
ATOM     65  C   UNL     1      13.337 -10.267   3.144  1.00  0.00     0.064 A 
ATOM     66  C   UNL     1      14.539 -10.635   2.504  1.00  0.00     0.173 A 
ATOM     67  C   UNL     1      12.871 -11.190   4.110  1.00  0.00     0.173 A 
ATOM     68  F   UNL     1      15.075  -9.846   1.560  1.00  0.00    -0.203 F 
ATOM     69  C   UNL     1      15.172 -11.858   2.749  1.00  0.00     0.198 A 
ATOM     70  C   UNL     1      13.531 -12.389   4.385  1.00  0.00     0.198 A 
ATOM     71  F   UNL     1      11.713 -11.036   4.759  1.00  0.00    -0.203 F 
ATOM     72  F   UNL     1      16.243 -12.209   2.025  1.00  0.00    -0.200 F 
ATOM     73  C   UNL     1      14.664 -12.737   3.685  1.00  0.00     0.200 A 
ATOM     74  F   UNL     1      13.008 -13.238   5.282  1.00  0.00    -0.200 F 
ATOM     75  F   UNL     1      15.239 -13.930   3.886  1.00  0.00    -0.200 F 
ENDBRANCH  51  65
BRANCH  52  76
ATOM     76  C   UNL     1       6.286 -14.254  -0.413  1.00  0.00     0.064 A 
ATOM     77  C   UNL     1       6.476 -15.375  -1.260  1.00  0.00     0.173 A 
ATOM     78  C   UNL     1       5.561 -14.516   0.763  1.00  0.00     0.173 A 
ATOM     79  F   UNL     1       7.227 -15.274  -2.367  1.00  0.00    -0.203 F 
ATOM     80  C   UNL     1       5.944 -16.649  -0.954  1.00  0.00     0.198 A 
ATOM     81  C   UNL     1       5.046 -15.781   1.073  1.00  0.00     0.198 A 
ATOM     82  F   UNL     1       5.425 -13.559   1.690  1.00  0.00    -0.203 F 
ATOM     83  F   UNL     1       6.161 -17.695  -1.768  1.00  0.00    -0.200 F 
ATOM     84  C   UNL     1       5.233 -16.848   0.217  1.00  0.00     0.200 A 
ATOM     85  F   UNL     1       4.415 -15.967   2.241  1.00  0.00    -0.200 F 
ATOM     86  F   UNL     1       4.765 -18.064   0.540  1.00  0.00    -0.200 F 
ENDBRANCH  52  76
BRANCH  64  87
ATOM     87  C   UNL     1       9.716  -9.527  -2.627  1.00  0.00     0.064 A 
ATOM     88  C   UNL     1       8.396  -9.038  -2.662  1.00  0.00     0.173 A 
ATOM     89  C   UNL     1      10.542  -9.204  -3.708  1.00  0.00     0.173 A 
ATOM     90  F   UNL     1       7.575  -9.197  -1.618  1.00  0.00    -0.203 F 
ATOM     91  C   UNL     1       7.921  -8.303  -3.753  1.00  0.00     0.198 A 
ATOM     92  C   UNL     1      10.081  -8.440  -4.774  1.00  0.00     0.198 A 
ATOM     93  F   UNL     1      11.831  -9.574  -3.690  1.00  0.00    -0.203 F 
ATOM     94  F   UNL     1       6.659  -7.846  -3.765  1.00  0.00    -0.200 F 
ATOM     95  C   UNL     1       8.767  -8.003  -4.807  1.00  0.00     0.200 A 
ATOM     96  F   UNL     1      10.928  -8.092  -5.751  1.00  0.00    -0.200 F 
ATOM     97  F   UNL     1       8.330  -7.269  -5.839  1.00  0.00    -0.200 F 
ENDBRANCH  64  87
ENDBRANCH  38  39
ENDBRANCH  31  33
ENDBRANCH  30  31
ENDBRANCH  29  30
ENDBRANCH   1  29
TORSDOF 16
