REMARK SMILES CN(C)S(=O)(=O)c1c[nH]c(C(=O)OCCOC(=O)c2ccc(-c3c4nc(c(-c5c(F)c(F)c(F)c(F)c5F)c5ccc([nH]5)c(-c5c(F)c(F)c(F)c(F)c5F)c5nc(c(-c6c(F)c(F)c(F)c(F)c6F)c6ccc3[nH]6)C=C5)C=C4)cc2)c1
REMARK SMILES IDX 14 1 13 2 11 3 12 4 10 5 7 6 8 7 82 8 9 9 4 11 5 12 6 13
REMARK SMILES IDX 2 14 1 15 3 16 15 17 16 18 17 19 18 20 19 21 20 22 81 23
REMARK SMILES IDX 21 24 80 25 22 26 23 27 24 28 74 29 25 30 79 31 73 32 75 33
REMARK SMILES IDX 26 34 78 35 72 36 71 37 27 39 59 40 39 41 58 42 40 43 43 44
REMARK SMILES IDX 57 45 76 46 41 47 42 48 56 50 77 51 44 52 28 53 29 54 37 55
REMARK SMILES IDX 30 56 31 57 35 58 38 59 32 60 33 61 36 62 34 63 60 64 61 65
REMARK SMILES IDX 69 66 62 67 63 68 67 69 70 70 64 71 65 72 68 73 66 74 45 75
REMARK SMILES IDX 46 76 54 77 47 78 48 79 52 80 55 81 49 82 50 83 53 84 51 85
REMARK H PARENT 9 10 75 38 43 49
REMARK Flexibility Score: inf
ROOT
ATOM      1  C   UNL     1       1.557  -9.538  -1.429  1.00  0.00     0.275 C 
ENDROOT
BRANCH   1   2
ATOM      2  O   UNL     1       1.299  -8.123  -1.427  1.00  0.00    -0.457 OA
BRANCH   2   3
ATOM      3  C   UNL     1       0.125  -7.753  -0.835  1.00  0.00     0.354 C 
ATOM      4  O   UNL     1      -0.741  -8.518  -0.456  1.00  0.00    -0.244 OA
BRANCH   3   5
ATOM      5  C   UNL     1       0.091  -6.327  -0.596  1.00  0.00     0.126 A 
ATOM      6  C   UNL     1       0.383  -4.076  -0.452  1.00  0.00     0.100 A 
ATOM      7  C   UNL     1      -0.564  -4.451   0.478  1.00  0.00     0.105 A 
ATOM      8  C   UNL     1       0.828  -5.267  -1.098  1.00  0.00     0.057 A 
ATOM      9  N   UNL     1      -0.779  -5.795   0.332  1.00  0.00    -0.354 N 
ATOM     10  H   UNL     1      -1.460  -6.310   0.821  1.00  0.00     0.166 HD
BRANCH   6  11
ATOM     11  S   UNL     1       0.977  -2.489  -0.807  1.00  0.00     0.244 S 
ATOM     12  O   UNL     1       0.472  -2.220  -2.137  1.00  0.00    -0.207 OA
ATOM     13  O   UNL     1       2.396  -2.587  -0.542  1.00  0.00    -0.207 OA
BRANCH  11  14
ATOM     14  N   UNL     1       0.318  -1.307   0.248  1.00  0.00    -0.204 NA
ATOM     15  C   UNL     1       1.042  -0.012   0.138  1.00  0.00     0.124 C 
ATOM     16  C   UNL     1      -1.140  -1.086   0.123  1.00  0.00     0.124 C 
ENDBRANCH  11  14
ENDBRANCH   6  11
ENDBRANCH   3   5
ENDBRANCH   2   3
ENDBRANCH   1   2
BRANCH   1  17
ATOM     17  C   UNL     1       2.332 -10.010  -0.193  1.00  0.00     0.275 C 
BRANCH  17  18
ATOM     18  O   UNL     1       1.621  -9.878   1.047  1.00  0.00    -0.458 OA
BRANCH  18  19
ATOM     19  C   UNL     1       1.808  -8.683   1.650  1.00  0.00     0.338 C 
ATOM     20  O   UNL     1       2.276  -7.672   1.152  1.00  0.00    -0.246 OA
BRANCH  19  21
ATOM     21  C   UNL     1       1.501  -8.736   3.081  1.00  0.00     0.060 A 
ATOM     22  C   UNL     1       1.043  -7.559   3.685  1.00  0.00     0.016 A 
ATOM     23  C   UNL     1       1.907  -9.839   3.841  1.00  0.00     0.016 A 
ATOM     24  C   UNL     1       1.044  -7.461   5.065  1.00  0.00     0.010 A 
ATOM     25  C   UNL     1       1.935  -9.730   5.224  1.00  0.00     0.010 A 
ATOM     26  C   UNL     1       1.516  -8.535   5.829  1.00  0.00    -0.014 A 
BRANCH  26  27
ATOM     27  C   UNL     1       1.433  -8.427   7.298  1.00  0.00     0.031 A 
ATOM     28  C   UNL     1       0.079  -8.905   7.831  1.00  0.00     0.074 A 
ATOM     29  C   UNL     1       2.530  -7.916   7.932  1.00  0.00     0.049 A 
ATOM     30  N   UNL     1      -0.480  -8.713   8.986  1.00  0.00    -0.248 NA
ATOM     31  C   UNL     1      -0.808  -9.695   6.930  1.00  0.00     0.031 C 
ATOM     32  C   UNL     1       3.776  -7.519   7.246  1.00  0.00     0.029 A 
ATOM     33  N   UNL     1       2.831  -7.615   9.247  1.00  0.00    -0.354 N 
ATOM     34  C   UNL     1      -1.626  -9.535   9.032  1.00  0.00     0.074 A 
ATOM     35  C   UNL     1      -1.843 -10.014   7.704  1.00  0.00     0.031 C 
ATOM     36  C   UNL     1       4.651  -6.973   8.115  1.00  0.00     0.029 A 
ATOM     37  C   UNL     1       4.088  -6.983   9.451  1.00  0.00     0.049 A 
ATOM     38  H   UNL     1       2.220  -7.825   9.990  1.00  0.00     0.167 HD
ATOM     39  C   UNL     1      -2.232  -9.901  10.197  1.00  0.00     0.037 A 
ATOM     40  C   UNL     1       4.630  -6.483  10.607  1.00  0.00     0.037 A 
ATOM     41  C   UNL     1      -1.667  -9.195  11.295  1.00  0.00     0.049 A 
ATOM     42  C   UNL     1       3.733  -6.936  11.679  1.00  0.00     0.074 A 
ATOM     43  C   UNL     1      -1.753  -7.892  11.706  1.00  0.00     0.029 A 
ATOM     44  N   UNL     1      -0.645  -9.809  11.973  1.00  0.00    -0.354 N 
ATOM     45  N   UNL     1       3.687  -8.157  12.122  1.00  0.00    -0.248 NA
ATOM     46  C   UNL     1       2.784  -5.987  12.273  1.00  0.00     0.031 C 
ATOM     47  C   UNL     1      -0.518  -7.646  12.341  1.00  0.00     0.029 A 
ATOM     48  C   UNL     1       0.224  -8.830  12.385  1.00  0.00     0.049 A 
ATOM     49  H   UNL     1      -0.553 -10.775  12.135  1.00  0.00     0.167 HD
ATOM     50  C   UNL     1       2.486  -8.180  12.790  1.00  0.00     0.074 A 
ATOM     51  C   UNL     1       2.171  -6.809  13.120  1.00  0.00     0.031 C 
ATOM     52  C   UNL     1       1.615  -9.190  12.544  1.00  0.00     0.037 A 
BRANCH  39  53
ATOM     53  C   UNL     1      -3.158 -11.047  10.506  1.00  0.00     0.064 A 
ATOM     54  C   UNL     1      -3.858 -11.026  11.739  1.00  0.00     0.173 A 
ATOM     55  C   UNL     1      -3.106 -12.285   9.850  1.00  0.00     0.173 A 
ATOM     56  F   UNL     1      -4.006  -9.882  12.426  1.00  0.00    -0.203 F 
ATOM     57  C   UNL     1      -4.337 -12.189  12.337  1.00  0.00     0.198 A 
ATOM     58  C   UNL     1      -3.637 -13.441  10.429  1.00  0.00     0.198 A 
ATOM     59  F   UNL     1      -2.455 -12.433   8.689  1.00  0.00    -0.203 F 
ATOM     60  F   UNL     1      -4.855 -12.139  13.572  1.00  0.00    -0.200 F 
ATOM     61  C   UNL     1      -4.209 -13.400  11.689  1.00  0.00     0.200 A 
ATOM     62  F   UNL     1      -3.519 -14.614   9.792  1.00  0.00    -0.200 F 
ATOM     63  F   UNL     1      -4.601 -14.531  12.291  1.00  0.00    -0.200 F 
ENDBRANCH  39  53
BRANCH  40  64
ATOM     64  C   UNL     1       5.815  -5.643  11.046  1.00  0.00     0.064 A 
ATOM     65  C   UNL     1       6.860  -5.191  10.229  1.00  0.00     0.173 A 
ATOM     66  C   UNL     1       5.896  -5.172  12.392  1.00  0.00     0.173 A 
ATOM     67  F   UNL     1       6.995  -5.619   8.972  1.00  0.00    -0.203 F 
ATOM     68  C   UNL     1       7.830  -4.276  10.685  1.00  0.00     0.198 A 
ATOM     69  C   UNL     1       6.831  -4.234  12.833  1.00  0.00     0.198 A 
ATOM     70  F   UNL     1       5.058  -5.602  13.344  1.00  0.00    -0.203 F 
ATOM     71  F   UNL     1       8.800  -3.870   9.855  1.00  0.00    -0.200 F 
ATOM     72  C   UNL     1       7.793  -3.772  11.973  1.00  0.00     0.200 A 
ATOM     73  F   UNL     1       6.768  -3.777  14.092  1.00  0.00    -0.200 F 
ATOM     74  F   UNL     1       8.682  -2.857  12.383  1.00  0.00    -0.200 F 
ENDBRANCH  40  64
BRANCH  52  75
ATOM     75  C   UNL     1       2.287 -10.444  12.015  1.00  0.00     0.064 A 
ATOM     76  C   UNL     1       3.210 -11.138  12.811  1.00  0.00     0.173 A 
ATOM     77  C   UNL     1       2.158 -10.892  10.689  1.00  0.00     0.173 A 
ATOM     78  F   UNL     1       3.382 -10.787  14.095  1.00  0.00    -0.203 F 
ATOM     79  C   UNL     1       3.972 -12.194  12.301  1.00  0.00     0.198 A 
ATOM     80  C   UNL     1       2.912 -11.948  10.177  1.00  0.00     0.198 A 
ATOM     81  F   UNL     1       1.291 -10.317   9.861  1.00  0.00    -0.203 F 
ATOM     82  F   UNL     1       4.851 -12.826  13.091  1.00  0.00    -0.200 F 
ATOM     83  C   UNL     1       3.827 -12.595  10.982  1.00  0.00     0.200 A 
ATOM     84  F   UNL     1       2.743 -12.337   8.903  1.00  0.00    -0.200 F 
ATOM     85  F   UNL     1       4.554 -13.610  10.495  1.00  0.00    -0.200 F 
ENDBRANCH  52  75
ENDBRANCH  26  27
ENDBRANCH  19  21
ENDBRANCH  18  19
ENDBRANCH  17  18
ENDBRANCH   1  17
TORSDOF 13
