REMARK SMILES CC1=C(C(=O)OCC(C)C)[C@@H](c2ccc(C(=O)OCCOC(=O)c3ccc(-c4c5nc(c(-c6c(F)c(F)c(F)c(F)c6F)c6ccc([nH]6)c(-c6c(F)c(F)c(F)c(F)c6F)c6nc(c(-c7c(F)c(F)c(F)c(F)c7F)c7ccc4[nH]7)C=C6)C=C5)cc3)cc2)c2c(n(C)c(=O)n(C)c2=O)N1
REMARK SMILES IDX 18 1 16 2 17 3 15 4 12 5 13 6 88 7 14 8 87 9 11 10 1 11 2 12
REMARK SMILES IDX 3 13 99 14 90 15 89 17 91 18 97 19 92 20 93 21 95 22 98 23
REMARK SMILES IDX 94 24 96 25 4 26 5 27 6 28 7 29 8 30 9 31 10 32 19 33 20 34
REMARK SMILES IDX 21 35 22 36 23 37 24 38 25 39 86 40 26 41 85 42 27 43 28 44
REMARK SMILES IDX 29 45 79 46 30 47 84 48 78 49 80 50 31 51 83 52 77 53 76 54
REMARK SMILES IDX 32 56 64 57 44 58 63 59 45 60 48 61 62 62 81 63 46 64 47 65
REMARK SMILES IDX 61 67 82 68 49 69 33 70 34 71 42 72 35 73 36 74 40 75 43 76
REMARK SMILES IDX 37 77 38 78 41 79 39 80 65 81 66 82 74 83 67 84 68 85 72 86
REMARK SMILES IDX 75 87 69 88 70 89 73 90 71 91 50 92 51 93 59 94 52 95 53 96
REMARK SMILES IDX 57 97 60 98 54 99 55 100 58 101 56 102
REMARK H PARENT 99 16 80 55 48 66
REMARK Flexibility Score: inf
ROOT
ATOM      1  O   UNL     1      -2.548   8.184   0.605  1.00  0.00    -0.458 OA
ENDROOT
BRANCH   1   2
ATOM      2  C   UNL     1      -2.968   7.150   1.377  1.00  0.00     0.338 C 
ATOM      3  O   UNL     1      -4.078   6.995   1.849  1.00  0.00    -0.246 OA
BRANCH   2   4
ATOM      4  C   UNL     1      -1.908   6.125   1.500  1.00  0.00     0.060 A 
ATOM      5  C   UNL     1      -0.054   4.075   1.991  1.00  0.00    -0.035 A 
ATOM      6  C   UNL     1      -1.364   3.768   1.599  1.00  0.00     0.005 A 
ATOM      7  C   UNL     1       0.332   5.426   2.072  1.00  0.00     0.005 A 
ATOM      8  C   UNL     1      -2.286   4.785   1.391  1.00  0.00     0.016 A 
ATOM      9  C   UNL     1      -0.589   6.451   1.817  1.00  0.00     0.016 A 
BRANCH   5  10
ATOM     10  C   UNL     1       0.894   2.949   2.430  1.00  0.00     0.098 C 
ATOM     11  C   UNL     1       1.129  -0.255   0.164  1.00  0.00     0.065 C 
ATOM     12  C   UNL     1       0.824   0.735   1.261  1.00  0.00     0.025 C 
ATOM     13  C   UNL     1       1.218   2.029   1.258  1.00  0.00     0.068 C 
ATOM     14  N   UNL     1       0.127   0.234   2.350  1.00  0.00    -0.344 N 
ATOM     15  C   UNL     1      -0.128   0.917   3.528  1.00  0.00     0.123 A 
ATOM     16  H   UNL     1      -0.216  -0.686   2.280  1.00  0.00     0.168 HD
ATOM     17  C   UNL     1       0.268   2.201   3.609  1.00  0.00     0.071 A 
ATOM     18  N   UNL     1      -0.781   0.331   4.602  1.00  0.00    -0.282 N 
ATOM     19  C   UNL     1       0.063   2.955   4.861  1.00  0.00     0.262 A 
ATOM     20  C   UNL     1      -1.145  -1.081   4.545  1.00  0.00     0.157 C 
ATOM     21  C   UNL     1      -1.161   1.042   5.739  1.00  0.00     0.332 A 
ATOM     22  N   UNL     1      -0.777   2.372   5.783  1.00  0.00    -0.263 N 
ATOM     23  O   UNL     1       0.628   4.032   5.035  1.00  0.00    -0.269 OA
ATOM     24  O   UNL     1      -1.790   0.523   6.663  1.00  0.00    -0.247 OA
ATOM     25  C   UNL     1      -1.170   3.141   6.948  1.00  0.00     0.158 C 
BRANCH  13  26
ATOM     26  C   UNL     1       2.009   2.659   0.175  1.00  0.00     0.336 C 
ATOM     27  O   UNL     1       2.893   3.475   0.386  1.00  0.00    -0.246 OA
BRANCH  26  28
ATOM     28  O   UNL     1       1.567   2.252  -1.040  1.00  0.00    -0.462 OA
BRANCH  28  29
ATOM     29  C   UNL     1       2.255   2.772  -2.189  1.00  0.00     0.236 C 
BRANCH  29  30
ATOM     30  C   UNL     1       1.340   3.728  -2.964  1.00  0.00     0.021 C 
ATOM     31  C   UNL     1       0.954   4.947  -2.125  1.00  0.00     0.011 C 
ATOM     32  C   UNL     1       2.016   4.168  -4.262  1.00  0.00     0.011 C 
ENDBRANCH  29  30
ENDBRANCH  28  29
ENDBRANCH  26  28
ENDBRANCH  13  26
ENDBRANCH   5  10
ENDBRANCH   2   4
ENDBRANCH   1   2
BRANCH   1  33
ATOM     33  C   UNL     1      -3.563   9.159   0.286  1.00  0.00     0.275 C 
BRANCH  33  34
ATOM     34  C   UNL     1      -4.134   8.906  -1.110  1.00  0.00     0.275 C 
BRANCH  34  35
ATOM     35  O   UNL     1      -4.844   7.653  -1.123  1.00  0.00    -0.458 OA
BRANCH  35  36
ATOM     36  C   UNL     1      -4.497   6.780  -2.095  1.00  0.00     0.338 C 
ATOM     37  O   UNL     1      -3.704   6.961  -3.005  1.00  0.00    -0.246 OA
BRANCH  36  38
ATOM     38  C   UNL     1      -5.216   5.502  -1.913  1.00  0.00     0.060 A 
ATOM     39  C   UNL     1      -5.277   4.904  -0.658  1.00  0.00     0.016 A 
ATOM     40  C   UNL     1      -5.713   4.822  -3.024  1.00  0.00     0.016 A 
ATOM     41  C   UNL     1      -5.691   3.578  -0.533  1.00  0.00     0.010 A 
ATOM     42  C   UNL     1      -6.255   3.539  -2.872  1.00  0.00     0.010 A 
ATOM     43  C   UNL     1      -6.196   2.872  -1.635  1.00  0.00    -0.014 A 
BRANCH  43  44
ATOM     44  C   UNL     1      -6.603   1.438  -1.500  1.00  0.00     0.031 A 
ATOM     45  C   UNL     1      -5.996   0.380  -2.392  1.00  0.00     0.074 A 
ATOM     46  C   UNL     1      -7.488   1.061  -0.553  1.00  0.00     0.049 A 
ATOM     47  N   UNL     1      -6.309  -0.889  -2.506  1.00  0.00    -0.248 NA
ATOM     48  C   UNL     1      -4.906   0.801  -3.285  1.00  0.00     0.031 C 
ATOM     49  C   UNL     1      -8.140   1.957   0.403  1.00  0.00     0.029 A 
ATOM     50  N   UNL     1      -7.976  -0.182  -0.219  1.00  0.00    -0.354 N 
ATOM     51  C   UNL     1      -5.505  -1.393  -3.521  1.00  0.00     0.074 A 
ATOM     52  C   UNL     1      -4.693  -0.296  -3.999  1.00  0.00     0.031 C 
ATOM     53  C   UNL     1      -8.876   1.233   1.259  1.00  0.00     0.029 A 
ATOM     54  C   UNL     1      -8.831  -0.169   0.857  1.00  0.00     0.049 A 
ATOM     55  H   UNL     1      -7.734  -1.003  -0.706  1.00  0.00     0.167 HD
ATOM     56  C   UNL     1      -5.439  -2.657  -4.004  1.00  0.00     0.037 A 
ATOM     57  C   UNL     1      -9.529  -1.162   1.443  1.00  0.00     0.037 A 
ATOM     58  C   UNL     1      -6.179  -3.772  -3.476  1.00  0.00     0.049 A 
ATOM     59  C   UNL     1      -9.455  -2.552   0.876  1.00  0.00     0.074 A 
ATOM     60  C   UNL     1      -6.134  -5.099  -3.870  1.00  0.00     0.029 A 
ATOM     61  N   UNL     1      -7.083  -3.696  -2.428  1.00  0.00    -0.354 N 
ATOM     62  N   UNL     1      -8.720  -3.002  -0.110  1.00  0.00    -0.248 NA
ATOM     63  C   UNL     1     -10.335  -3.563   1.480  1.00  0.00     0.031 C 
ATOM     64  C   UNL     1      -7.035  -5.821  -3.081  1.00  0.00     0.029 A 
ATOM     65  C   UNL     1      -7.616  -4.950  -2.175  1.00  0.00     0.049 A 
ATOM     66  H   UNL     1      -7.312  -2.875  -1.937  1.00  0.00     0.167 HD
ATOM     67  C   UNL     1      -9.053  -4.342  -0.252  1.00  0.00     0.074 A 
ATOM     68  C   UNL     1     -10.033  -4.643   0.771  1.00  0.00     0.031 C 
ATOM     69  C   UNL     1      -8.597  -5.236  -1.161  1.00  0.00     0.037 A 
BRANCH  56  70
ATOM     70  C   UNL     1      -4.536  -2.917  -5.174  1.00  0.00     0.064 A 
ATOM     71  C   UNL     1      -3.142  -2.965  -5.037  1.00  0.00     0.173 A 
ATOM     72  C   UNL     1      -5.082  -3.197  -6.437  1.00  0.00     0.173 A 
ATOM     73  F   UNL     1      -2.571  -2.699  -3.852  1.00  0.00    -0.203 F 
ATOM     74  C   UNL     1      -2.326  -3.266  -6.125  1.00  0.00     0.198 A 
ATOM     75  C   UNL     1      -4.265  -3.523  -7.516  1.00  0.00     0.198 A 
ATOM     76  F   UNL     1      -6.411  -3.176  -6.619  1.00  0.00    -0.203 F 
ATOM     77  F   UNL     1      -0.994  -3.276  -5.978  1.00  0.00    -0.200 F 
ATOM     78  C   UNL     1      -2.887  -3.553  -7.360  1.00  0.00     0.200 A 
ATOM     79  F   UNL     1      -4.810  -3.815  -8.705  1.00  0.00    -0.200 F 
ATOM     80  F   UNL     1      -2.100  -3.858  -8.401  1.00  0.00    -0.200 F 
ENDBRANCH  56  70
BRANCH  57  81
ATOM     81  C   UNL     1     -10.385  -0.865   2.622  1.00  0.00     0.064 A 
ATOM     82  C   UNL     1     -10.047  -1.348   3.893  1.00  0.00     0.173 A 
ATOM     83  C   UNL     1     -11.539  -0.076   2.508  1.00  0.00     0.173 A 
ATOM     84  F   UNL     1      -8.970  -2.131   4.047  1.00  0.00    -0.203 F 
ATOM     85  C   UNL     1     -10.830  -1.049   5.007  1.00  0.00     0.198 A 
ATOM     86  C   UNL     1     -12.304   0.246   3.627  1.00  0.00     0.198 A 
ATOM     87  F   UNL     1     -11.909   0.405   1.312  1.00  0.00    -0.203 F 
ATOM     88  F   UNL     1     -10.502  -1.548   6.207  1.00  0.00    -0.200 F 
ATOM     89  C   UNL     1     -11.951  -0.243   4.875  1.00  0.00     0.200 A 
ATOM     90  F   UNL     1     -13.379   1.036   3.496  1.00  0.00    -0.200 F 
ATOM     91  F   UNL     1     -12.694   0.057   5.949  1.00  0.00    -0.200 F 
ENDBRANCH  57  81
BRANCH  69  92
ATOM     92  C   UNL     1      -9.158  -6.624  -1.111  1.00  0.00     0.064 A 
ATOM     93  C   UNL     1     -10.442  -6.902  -1.600  1.00  0.00     0.173 A 
ATOM     94  C   UNL     1      -8.379  -7.696  -0.651  1.00  0.00     0.173 A 
ATOM     95  F   UNL     1     -11.227  -5.907  -2.037  1.00  0.00    -0.203 F 
ATOM     96  C   UNL     1     -10.928  -8.206  -1.628  1.00  0.00     0.198 A 
ATOM     97  C   UNL     1      -8.861  -9.001  -0.701  1.00  0.00     0.198 A 
ATOM     98  F   UNL     1      -7.142  -7.480  -0.179  1.00  0.00    -0.203 F 
ATOM     99  F   UNL     1     -12.166  -8.448  -2.081  1.00  0.00    -0.200 F 
ATOM    100  C   UNL     1     -10.134  -9.255  -1.189  1.00  0.00     0.200 A 
ATOM    101  F   UNL     1      -8.088 -10.015  -0.287  1.00  0.00    -0.200 F 
ATOM    102  F   UNL     1     -10.597 -10.512  -1.234  1.00  0.00    -0.200 F 
ENDBRANCH  69  92
ENDBRANCH  43  44
ENDBRANCH  36  38
ENDBRANCH  35  36
ENDBRANCH  34  35
ENDBRANCH  33  34
ENDBRANCH   1  33
TORSDOF 16
