REMARK SMILES CC(C)(C)OC(=O)N1CCN(c2nc3ccccc3s2)[C@H](C(=O)OCCOC(=O)c2ccc(-c3c4nc(c(-c5c(F)c(F)c(F)c(F)c5F)c5ccc([nH]5)c(-c5c(F)c(F)c(F)c(F)c5F)c5nc(c(-c6c(F)c(F)c(F)c(F)c6F)c6ccc3[nH]6)C=C5)C=C4)cc2)C1
REMARK SMILES IDX 25 1 24 2 22 3 23 4 21 5 8 6 9 7 93 8 10 9 11 10 6 11 7 12
REMARK SMILES IDX 5 13 2 14 1 15 3 16 4 17 12 18 13 19 20 20 14 21 19 22 15 23
REMARK SMILES IDX 18 24 16 25 17 26 26 27 27 28 28 29 29 30 30 31 31 32 92 33
REMARK SMILES IDX 32 34 91 35 33 36 34 37 35 38 85 39 36 40 90 41 84 42 86 43
REMARK SMILES IDX 37 44 89 45 83 46 82 47 38 49 70 50 50 51 69 52 51 53 54 54
REMARK SMILES IDX 68 55 87 56 52 57 53 58 67 60 88 61 55 62 39 63 40 64 48 65
REMARK SMILES IDX 41 66 42 67 46 68 49 69 43 70 44 71 47 72 45 73 71 74 72 75
REMARK SMILES IDX 80 76 73 77 74 78 78 79 81 80 75 81 76 82 79 83 77 84 56 85
REMARK SMILES IDX 57 86 65 87 58 88 59 89 63 90 66 91 60 92 61 93 64 94 62 95
REMARK H PARENT 86 48 54 59
REMARK Flexibility Score: inf
ROOT
ATOM      1  C   UNL     1       5.494  -3.708   5.086  1.00  0.00     0.274 C 
ENDROOT
BRANCH   1   2
ATOM      2  O   UNL     1       4.124  -3.330   4.818  1.00  0.00    -0.460 OA
BRANCH   2   3
ATOM      3  C   UNL     1       3.542  -2.622   5.829  1.00  0.00     0.330 C 
ATOM      4  O   UNL     1       4.176  -2.230   6.803  1.00  0.00    -0.250 OA
BRANCH   3   5
ATOM      5  C   UNL     1       2.032  -2.372   5.596  1.00  0.00     0.214 C 
ATOM      6  N   UNL     1       0.589  -0.492   4.546  1.00  0.00    -0.304 N 
ATOM      7  C   UNL     1      -0.082  -0.317   5.832  1.00  0.00     0.144 C 
ATOM      8  C   UNL     1       1.857  -1.258   4.515  1.00  0.00     0.160 C 
ATOM      9  C   UNL     1      -0.066  -1.592   6.663  1.00  0.00     0.141 C 
ATOM     10  N   UNL     1       1.328  -1.981   6.861  1.00  0.00    -0.331 N 
BRANCH   6  11
ATOM     11  C   UNL     1       0.211   0.376   3.535  1.00  0.00     0.410 C 
ATOM     12  O   UNL     1      -0.617   1.263   3.697  1.00  0.00    -0.224 OA
BRANCH  11  13
ATOM     13  O   UNL     1       0.825   0.108   2.356  1.00  0.00    -0.444 OA
BRANCH  13  14
ATOM     14  C   UNL     1       0.431   0.828   1.156  1.00  0.00     0.106 C 
ATOM     15  C   UNL     1       1.110   0.068   0.008  1.00  0.00     0.056 C 
ATOM     16  C   UNL     1       0.960   2.266   1.187  1.00  0.00     0.056 C 
ATOM     17  C   UNL     1      -1.088   0.790   0.917  1.00  0.00     0.056 C 
ENDBRANCH  13  14
ENDBRANCH  11  13
ENDBRANCH   6  11
BRANCH  10  18
ATOM     18  C   UNL     1       1.591  -2.662   8.006  1.00  0.00     0.187 A 
ATOM     19  N   UNL     1       1.202  -3.891   8.246  1.00  0.00    -0.220 NA
ATOM     20  S   UNL     1       2.423  -1.885   9.304  1.00  0.00    -0.097 S 
ATOM     21  C   UNL     1       1.672  -4.300   9.486  1.00  0.00     0.084 A 
ATOM     22  C   UNL     1       2.438  -3.361  10.177  1.00  0.00     0.056 A 
ATOM     23  C   UNL     1       1.458  -5.560  10.081  1.00  0.00     0.030 A 
ATOM     24  C   UNL     1       3.066  -3.658  11.398  1.00  0.00     0.021 A 
ATOM     25  C   UNL     1       2.057  -5.860  11.310  1.00  0.00     0.002 A 
ATOM     26  C   UNL     1       2.868  -4.926  11.948  1.00  0.00     0.002 A 
ENDBRANCH  10  18
ENDBRANCH   3   5
ENDBRANCH   2   3
ENDBRANCH   1   2
BRANCH   1  27
ATOM     27  C   UNL     1       6.528  -2.694   4.578  1.00  0.00     0.275 C 
BRANCH  27  28
ATOM     28  O   UNL     1       6.403  -1.399   5.197  1.00  0.00    -0.458 OA
BRANCH  28  29
ATOM     29  C   UNL     1       5.680  -0.505   4.487  1.00  0.00     0.338 C 
ATOM     30  O   UNL     1       5.147  -0.686   3.403  1.00  0.00    -0.246 OA
BRANCH  29  31
ATOM     31  C   UNL     1       5.506   0.758   5.221  1.00  0.00     0.060 A 
ATOM     32  C   UNL     1       4.392   0.897   6.046  1.00  0.00     0.016 A 
ATOM     33  C   UNL     1       6.281   1.872   4.899  1.00  0.00     0.016 A 
ATOM     34  C   UNL     1       3.977   2.157   6.457  1.00  0.00     0.010 A 
ATOM     35  C   UNL     1       5.919   3.129   5.402  1.00  0.00     0.010 A 
ATOM     36  C   UNL     1       4.740   3.290   6.153  1.00  0.00    -0.014 A 
BRANCH  36  37
ATOM     37  C   UNL     1       4.275   4.631   6.600  1.00  0.00     0.031 A 
ATOM     38  C   UNL     1       3.988   5.713   5.594  1.00  0.00     0.074 A 
ATOM     39  C   UNL     1       4.083   4.873   7.912  1.00  0.00     0.049 A 
ATOM     40  N   UNL     1       3.748   6.985   5.792  1.00  0.00    -0.248 NA
ATOM     41  C   UNL     1       3.982   5.317   4.176  1.00  0.00     0.031 C 
ATOM     42  C   UNL     1       4.274   3.900   8.990  1.00  0.00     0.029 A 
ATOM     43  N   UNL     1       3.682   6.013   8.566  1.00  0.00    -0.354 N 
ATOM     44  C   UNL     1       3.630   7.551   4.528  1.00  0.00     0.074 A 
ATOM     45  C   UNL     1       3.812   6.483   3.568  1.00  0.00     0.031 C 
ATOM     46  C   UNL     1       3.966   4.472  10.162  1.00  0.00     0.029 A 
ATOM     47  C   UNL     1       3.648   5.876   9.932  1.00  0.00     0.049 A 
ATOM     48  H   UNL     1       3.442   6.846   8.100  1.00  0.00     0.167 HD
ATOM     49  C   UNL     1       3.397   8.846   4.207  1.00  0.00     0.037 A 
ATOM     50  C   UNL     1       3.440   6.789  10.900  1.00  0.00     0.037 A 
ATOM     51  C   UNL     1       3.139   9.887   5.168  1.00  0.00     0.049 A 
ATOM     52  C   UNL     1       3.191   8.219  10.514  1.00  0.00     0.074 A 
ATOM     53  C   UNL     1       2.845  11.221   4.938  1.00  0.00     0.029 A 
ATOM     54  N   UNL     1       3.126   9.708   6.543  1.00  0.00    -0.354 N 
ATOM     55  N   UNL     1       3.125   8.752   9.319  1.00  0.00    -0.248 NA
ATOM     56  C   UNL     1       3.005   9.177  11.611  1.00  0.00     0.031 C 
ATOM     57  C   UNL     1       2.696  11.857   6.174  1.00  0.00     0.029 A 
ATOM     58  C   UNL     1       2.850  10.911   7.174  1.00  0.00     0.049 A 
ATOM     59  H   UNL     1       3.289   8.853   7.003  1.00  0.00     0.167 HD
ATOM     60  C   UNL     1       2.881  10.103   9.518  1.00  0.00     0.074 A 
ATOM     61  C   UNL     1       2.786  10.304  10.949  1.00  0.00     0.031 C 
ATOM     62  C   UNL     1       2.755  11.090   8.599  1.00  0.00     0.037 A 
BRANCH  49  63
ATOM     63  C   UNL     1       3.449   9.233   2.757  1.00  0.00     0.064 A 
ATOM     64  C   UNL     1       2.428   8.903   1.857  1.00  0.00     0.173 A 
ATOM     65  C   UNL     1       4.516  10.014   2.283  1.00  0.00     0.173 A 
ATOM     66  F   UNL     1       1.392   8.151   2.256  1.00  0.00    -0.203 F 
ATOM     67  C   UNL     1       2.479   9.327   0.530  1.00  0.00     0.198 A 
ATOM     68  C   UNL     1       4.551  10.458   0.964  1.00  0.00     0.198 A 
ATOM     69  F   UNL     1       5.516  10.363   3.106  1.00  0.00    -0.203 F 
ATOM     70  F   UNL     1       1.508   8.974  -0.323  1.00  0.00    -0.200 F 
ATOM     71  C   UNL     1       3.535  10.111   0.088  1.00  0.00     0.200 A 
ATOM     72  F   UNL     1       5.566  11.227   0.544  1.00  0.00    -0.200 F 
ATOM     73  F   UNL     1       3.574  10.531  -1.185  1.00  0.00    -0.200 F 
ENDBRANCH  49  63
BRANCH  50  74
ATOM     74  C   UNL     1       3.526   6.384  12.327  1.00  0.00     0.064 A 
ATOM     75  C   UNL     1       2.396   6.395  13.155  1.00  0.00     0.173 A 
ATOM     76  C   UNL     1       4.745   5.980  12.893  1.00  0.00     0.173 A 
ATOM     77  F   UNL     1       1.213   6.799  12.668  1.00  0.00    -0.203 F 
ATOM     78  C   UNL     1       2.485   6.032  14.497  1.00  0.00     0.198 A 
ATOM     79  C   UNL     1       4.826   5.584  14.226  1.00  0.00     0.198 A 
ATOM     80  F   UNL     1       5.858   5.952  12.145  1.00  0.00    -0.203 F 
ATOM     81  F   UNL     1       1.399   6.098  15.280  1.00  0.00    -0.200 F 
ATOM     82  C   UNL     1       3.697   5.619  15.029  1.00  0.00     0.200 A 
ATOM     83  F   UNL     1       5.996   5.170  14.730  1.00  0.00    -0.200 F 
ATOM     84  F   UNL     1       3.780   5.263  16.318  1.00  0.00    -0.200 F 
ENDBRANCH  50  74
BRANCH  62  85
ATOM     85  C   UNL     1       2.474  12.469   9.116  1.00  0.00     0.064 A 
ATOM     86  C   UNL     1       3.465  13.229   9.753  1.00  0.00     0.173 A 
ATOM     87  C   UNL     1       1.206  13.046   8.948  1.00  0.00     0.173 A 
ATOM     88  F   UNL     1       4.687  12.714   9.953  1.00  0.00    -0.203 F 
ATOM     89  C   UNL     1       3.188  14.509  10.227  1.00  0.00     0.198 A 
ATOM     90  C   UNL     1       0.941  14.335   9.399  1.00  0.00     0.198 A 
ATOM     91  F   UNL     1       0.226  12.360   8.340  1.00  0.00    -0.203 F 
ATOM     92  F   UNL     1       4.136  15.200  10.877  1.00  0.00    -0.200 F 
ATOM     93  C   UNL     1       1.930  15.062  10.044  1.00  0.00     0.200 A 
ATOM     94  F   UNL     1      -0.272  14.873   9.212  1.00  0.00    -0.200 F 
ATOM     95  F   UNL     1       1.667  16.295  10.499  1.00  0.00    -0.200 F 
ENDBRANCH  62  85
ENDBRANCH  36  37
ENDBRANCH  29  31
ENDBRANCH  28  29
ENDBRANCH  27  28
ENDBRANCH   1  27
TORSDOF 15
