REMARK SMILES CC[C@](C)([NH3+])C(=O)N1CC[NH+]([C@H](C)C(=O)OCCOC(=O)c2ccc(-c3c4nc(c(-c5c(F)c(F)c(F)c(F)c5F)c5ccc([nH]5)c(-c5c(F)c(F)c(F)c(F)c5F)c5nc(c(-c6c(F)c(F)c(F)c(F)c6F)c6ccc3[nH]6)C=C5)C=C4)cc2)CC1
REMARK SMILES IDX 17 1 16 2 14 3 15 4 12 5 13 6 11 7 6 8 7 9 8 10 9 11 86 12
REMARK SMILES IDX 10 13 85 14 3 16 4 17 2 18 1 19 5 20 18 24 19 25 20 26 21 27
REMARK SMILES IDX 22 28 23 29 84 30 24 31 83 32 25 33 26 34 27 35 77 36 28 37
REMARK SMILES IDX 82 38 76 39 78 40 29 41 81 42 75 43 74 44 30 46 62 47 42 48
REMARK SMILES IDX 61 49 43 50 46 51 60 52 79 53 44 54 45 55 59 57 80 58 47 59
REMARK SMILES IDX 31 60 32 61 40 62 33 63 34 64 38 65 41 66 35 67 36 68 39 69
REMARK SMILES IDX 37 70 63 71 64 72 72 73 65 74 66 75 70 76 73 77 67 78 68 79
REMARK SMILES IDX 71 80 69 81 48 82 49 83 57 84 50 85 51 86 55 87 58 88 52 89
REMARK SMILES IDX 53 90 56 91 54 92
REMARK H PARENT 11 15 5 21 5 22 5 23 78 45 46 56
REMARK Flexibility Score: inf
ROOT
ATOM      1  C   UNL     1       7.585   6.099  -3.550  1.00  0.00     0.274 C 
ENDROOT
BRANCH   1   2
ATOM      2  O   UNL     1       6.418   5.780  -2.769  1.00  0.00    -0.458 OA
BRANCH   2   3
ATOM      3  C   UNL     1       6.188   6.564  -1.679  1.00  0.00     0.364 C 
ATOM      4  O   UNL     1       6.924   7.475  -1.313  1.00  0.00    -0.245 OA
BRANCH   3   5
ATOM      5  C   UNL     1       4.888   6.185  -0.943  1.00  0.00     0.292 C 
ATOM      6  C   UNL     1       3.835   5.542  -1.856  1.00  0.00     0.088 C 
BRANCH   5   7
ATOM      7  N   UNL     1       5.202   5.456   0.310  1.00  0.00    -0.321 N 
ATOM      8  C   UNL     1       3.870   2.229   2.410  1.00  0.00     0.283 C 
ATOM      9  O   UNL     1       4.444   1.130   2.425  1.00  0.00    -0.268 OA
ATOM     10  N   UNL     1       4.622   3.371   2.205  1.00  0.00    -0.326 N 
ATOM     11  C   UNL     1       5.840   3.274   1.404  1.00  0.00     0.181 C 
ATOM     12  C   UNL     1       4.314   4.749   2.563  1.00  0.00     0.181 C 
ATOM     13  C   UNL     1       5.619   4.054   0.088  1.00  0.00     0.284 C 
ATOM     14  C   UNL     1       4.106   5.592   1.296  1.00  0.00     0.284 C 
ATOM     15  H   UNL     1       6.025   5.904   0.714  1.00  0.00     0.348 HD
BRANCH   8  16
ATOM     16  C   UNL     1       2.298   2.262   2.347  1.00  0.00     0.171 C 
ATOM     17  C   UNL     1       1.754   0.933   2.908  1.00  0.00     0.090 C 
BRANCH  16  18
ATOM     18  C   UNL     1       1.833   2.460   0.880  1.00  0.00     0.075 C 
ATOM     19  C   UNL     1       2.401   1.467  -0.131  1.00  0.00     0.011 C 
ENDBRANCH  16  18
BRANCH  16  20
ATOM     20  N   UNL     1       1.696   3.335   3.176  1.00  0.00    -0.345 N 
ATOM     21  H   UNL     1       1.990   3.221   4.146  1.00  0.00     0.345 HD
ATOM     22  H   UNL     1       0.679   3.277   3.121  1.00  0.00     0.345 HD
ATOM     23  H   UNL     1       2.004   4.244   2.832  1.00  0.00     0.345 HD
ENDBRANCH  16  20
ENDBRANCH   8  16
ENDBRANCH   5   7
ENDBRANCH   3   5
ENDBRANCH   2   3
ENDBRANCH   1   2
BRANCH   1  24
ATOM     24  C   UNL     1       7.229   6.941  -4.779  1.00  0.00     0.275 C 
BRANCH  24  25
ATOM     25  O   UNL     1       6.778   8.260  -4.413  1.00  0.00    -0.458 OA
BRANCH  25  26
ATOM     26  C   UNL     1       5.436   8.398  -4.309  1.00  0.00     0.338 C 
ATOM     27  O   UNL     1       4.586   7.556  -4.541  1.00  0.00    -0.246 OA
BRANCH  26  28
ATOM     28  C   UNL     1       5.110   9.698  -3.702  1.00  0.00     0.060 A 
ATOM     29  C   UNL     1       4.434   9.686  -2.480  1.00  0.00     0.016 A 
ATOM     30  C   UNL     1       5.384  10.905  -4.345  1.00  0.00     0.016 A 
ATOM     31  C   UNL     1       4.037  10.876  -1.883  1.00  0.00     0.010 A 
ATOM     32  C   UNL     1       4.974  12.105  -3.750  1.00  0.00     0.010 A 
ATOM     33  C   UNL     1       4.295  12.095  -2.518  1.00  0.00    -0.014 A 
BRANCH  33  34
ATOM     34  C   UNL     1       3.792  13.342  -1.899  1.00  0.00     0.031 A 
ATOM     35  C   UNL     1       2.558  14.000  -2.439  1.00  0.00     0.074 A 
ATOM     36  C   UNL     1       4.408  13.840  -0.811  1.00  0.00     0.049 A 
ATOM     37  N   UNL     1       1.971  15.105  -2.054  1.00  0.00    -0.248 NA
ATOM     38  C   UNL     1       1.889  13.321  -3.559  1.00  0.00     0.031 C 
ATOM     39  C   UNL     1       5.580  13.252  -0.165  1.00  0.00     0.029 A 
ATOM     40  N   UNL     1       4.124  14.947  -0.053  1.00  0.00    -0.354 N 
ATOM     41  C   UNL     1       0.877  15.264  -2.893  1.00  0.00     0.074 A 
ATOM     42  C   UNL     1       0.886  14.149  -3.817  1.00  0.00     0.031 C 
ATOM     43  C   UNL     1       5.913  14.002   0.899  1.00  0.00     0.029 A 
ATOM     44  C   UNL     1       5.004  15.141   0.983  1.00  0.00     0.049 A 
ATOM     45  H   UNL     1       3.364  15.545  -0.234  1.00  0.00     0.167 HD
ATOM     46  C   UNL     1      -0.050  16.251  -2.889  1.00  0.00     0.037 A 
ATOM     47  C   UNL     1       5.077  16.139   1.884  1.00  0.00     0.037 A 
ATOM     48  C   UNL     1      -0.061  17.351  -1.961  1.00  0.00     0.049 A 
ATOM     49  C   UNL     1       4.064  17.249   1.833  1.00  0.00     0.074 A 
ATOM     50  C   UNL     1      -0.957  18.403  -1.876  1.00  0.00     0.029 A 
ATOM     51  N   UNL     1       0.872  17.540  -0.951  1.00  0.00    -0.354 N 
ATOM     52  N   UNL     1       3.044  17.402   1.024  1.00  0.00    -0.248 NA
ATOM     53  C   UNL     1       4.216  18.328   2.819  1.00  0.00     0.031 C 
ATOM     54  C   UNL     1      -0.546  19.247  -0.838  1.00  0.00     0.029 A 
ATOM     55  C   UNL     1       0.583  18.700  -0.249  1.00  0.00     0.049 A 
ATOM     56  H   UNL     1       1.628  16.939  -0.761  1.00  0.00     0.167 HD
ATOM     57  C   UNL     1       2.427  18.585   1.408  1.00  0.00     0.074 A 
ATOM     58  C   UNL     1       3.173  19.096   2.539  1.00  0.00     0.031 C 
ATOM     59  C   UNL     1       1.343  19.196   0.869  1.00  0.00     0.037 A 
BRANCH  46  60
ATOM     60  C   UNL     1      -1.111  16.204  -3.948  1.00  0.00     0.064 A 
ATOM     61  C   UNL     1      -2.165  15.280  -3.896  1.00  0.00     0.173 A 
ATOM     62  C   UNL     1      -1.085  17.114  -5.016  1.00  0.00     0.173 A 
ATOM     63  F   UNL     1      -2.224  14.378  -2.905  1.00  0.00    -0.203 F 
ATOM     64  C   UNL     1      -3.143  15.256  -4.887  1.00  0.00     0.198 A 
ATOM     65  C   UNL     1      -2.078  17.102  -5.991  1.00  0.00     0.198 A 
ATOM     66  F   UNL     1      -0.099  18.018  -5.110  1.00  0.00    -0.203 F 
ATOM     67  F   UNL     1      -4.119  14.338  -4.840  1.00  0.00    -0.200 F 
ATOM     68  C   UNL     1      -3.103  16.170  -5.929  1.00  0.00     0.200 A 
ATOM     69  F   UNL     1      -2.041  17.991  -6.994  1.00  0.00    -0.200 F 
ATOM     70  F   UNL     1      -4.047  16.147  -6.880  1.00  0.00    -0.200 F 
ENDBRANCH  46  60
BRANCH  47  71
ATOM     71  C   UNL     1       6.164  16.142   2.896  1.00  0.00     0.064 A 
ATOM     72  C   UNL     1       5.888  15.931   4.254  1.00  0.00     0.173 A 
ATOM     73  C   UNL     1       7.499  16.362   2.526  1.00  0.00     0.173 A 
ATOM     74  F   UNL     1       4.624  15.744   4.659  1.00  0.00    -0.203 F 
ATOM     75  C   UNL     1       6.906  15.952   5.205  1.00  0.00     0.198 A 
ATOM     76  C   UNL     1       8.519  16.356   3.474  1.00  0.00     0.198 A 
ATOM     77  F   UNL     1       7.813  16.573   1.240  1.00  0.00    -0.203 F 
ATOM     78  F   UNL     1       6.612  15.789   6.502  1.00  0.00    -0.200 F 
ATOM     79  C   UNL     1       8.221  16.157   4.814  1.00  0.00     0.200 A 
ATOM     80  F   UNL     1       9.788  16.545   3.090  1.00  0.00    -0.200 F 
ATOM     81  F   UNL     1       9.200  16.173   5.729  1.00  0.00    -0.200 F 
ENDBRANCH  47  71
BRANCH  59  82
ATOM     82  C   UNL     1       0.898  20.477   1.510  1.00  0.00     0.064 A 
ATOM     83  C   UNL     1       1.623  21.667   1.347  1.00  0.00     0.173 A 
ATOM     84  C   UNL     1      -0.271  20.518   2.284  1.00  0.00     0.173 A 
ATOM     85  F   UNL     1       2.757  21.673   0.630  1.00  0.00    -0.203 F 
ATOM     86  C   UNL     1       1.209  22.846   1.961  1.00  0.00     0.198 A 
ATOM     87  C   UNL     1      -0.697  21.704   2.874  1.00  0.00     0.198 A 
ATOM     88  F   UNL     1      -1.002  19.408   2.465  1.00  0.00    -0.203 F 
ATOM     89  F   UNL     1       1.944  23.959   1.834  1.00  0.00    -0.200 F 
ATOM     90  C   UNL     1       0.048  22.865   2.720  1.00  0.00     0.200 A 
ATOM     91  F   UNL     1      -1.823  21.724   3.600  1.00  0.00    -0.200 F 
ATOM     92  F   UNL     1      -0.348  24.000   3.312  1.00  0.00    -0.200 F 
ENDBRANCH  59  82
ENDBRANCH  33  34
ENDBRANCH  26  28
ENDBRANCH  25  26
ENDBRANCH  24  25
ENDBRANCH   1  24
TORSDOF 15
