REMARK SMILES COC(=O)[C@@H]1CN(C(=O)N(CC(=O)OCCOC(=O)c2ccc(-c3c4nc(c(-c5c(F)c(F)c(F)c(F)c5F)c5ccc([nH]5)c(-c5c(F)c(F)c(F)c(F)c5F)c5nc(c(-c6c(F)c(F)c(F)c(F)c6F)c6ccc3[nH]6)C=C5)C=C4)cc2)C(C)(C)C)C[C@H]1C
REMARK SMILES IDX 14 1 12 2 13 3 11 4 10 5 8 6 9 7 7 8 5 9 6 10 88 11 87 12
REMARK SMILES IDX 89 13 3 14 4 15 2 16 1 17 83 18 84 19 85 20 86 21 15 22
REMARK SMILES IDX 16 23 17 24 18 25 19 26 20 27 21 28 82 29 22 30 81 31 23 32
REMARK SMILES IDX 24 33 25 34 75 35 26 36 80 37 74 38 76 39 27 40 79 41 73 42
REMARK SMILES IDX 72 43 28 45 60 46 40 47 59 48 41 49 44 50 58 51 77 52 42 53
REMARK SMILES IDX 43 54 57 56 78 57 45 58 29 59 30 60 38 61 31 62 32 63 36 64
REMARK SMILES IDX 39 65 33 66 34 67 37 68 35 69 61 70 62 71 70 72 63 73 64 74
REMARK SMILES IDX 68 75 71 76 65 77 66 78 69 79 67 80 46 81 47 82 55 83 48 84
REMARK SMILES IDX 49 85 53 86 56 87 50 88 51 89 54 90 52 91
REMARK H PARENT 76 44 44 55
REMARK Flexibility Score: inf
ROOT
ATOM      1  O   UNL     1       6.388  -1.486   0.578  1.00  0.00    -0.461 OA
ENDROOT
BRANCH   1   2
ATOM      2  C   UNL     1       5.366  -1.374  -0.311  1.00  0.00     0.325 C 
ATOM      3  O   UNL     1       4.944  -0.311  -0.762  1.00  0.00    -0.250 OA
BRANCH   2   4
ATOM      4  C   UNL     1       4.779  -2.713  -0.759  1.00  0.00     0.244 C 
BRANCH   4   5
ATOM      5  N   UNL     1       5.084  -3.893   0.051  1.00  0.00    -0.309 N 
BRANCH   5   6
ATOM      6  C   UNL     1       4.366  -4.245   1.195  1.00  0.00     0.321 C 
ATOM      7  O   UNL     1       4.625  -5.295   1.791  1.00  0.00    -0.248 OA
BRANCH   6   8
ATOM      8  N   UNL     1       3.341  -3.466   1.691  1.00  0.00    -0.323 N 
ATOM      9  C   UNL     1       2.039  -1.661   2.601  1.00  0.00     0.123 C 
ATOM     10  C   UNL     1       2.883  -2.115   1.414  1.00  0.00     0.137 C 
ATOM     11  C   UNL     1       2.105  -2.816   3.603  1.00  0.00     0.021 C 
ATOM     12  C   UNL     1       2.497  -4.017   2.746  1.00  0.00     0.125 C 
ATOM     13  C   UNL     1       3.177  -2.543   4.663  1.00  0.00     0.010 C 
BRANCH   9  14
ATOM     14  C   UNL     1       0.650  -1.318   2.118  1.00  0.00     0.310 C 
ATOM     15  O   UNL     1      -0.296  -2.086   2.050  1.00  0.00    -0.252 OA
BRANCH  14  16
ATOM     16  O   UNL     1       0.605  -0.017   1.714  1.00  0.00    -0.469 OA
ATOM     17  C   UNL     1       0.672   0.143   0.296  1.00  0.00     0.282 C 
ENDBRANCH  14  16
ENDBRANCH   9  14
ENDBRANCH   6   8
ENDBRANCH   5   6
BRANCH   5  18
ATOM     18  C   UNL     1       6.187  -4.831  -0.427  1.00  0.00     0.037 C 
ATOM     19  C   UNL     1       7.321  -4.919   0.617  1.00  0.00     0.034 C 
ATOM     20  C   UNL     1       5.616  -6.240  -0.724  1.00  0.00     0.034 C 
ATOM     21  C   UNL     1       6.877  -4.396  -1.749  1.00  0.00     0.034 C 
ENDBRANCH   5  18
ENDBRANCH   4   5
ENDBRANCH   2   4
ENDBRANCH   1   2
BRANCH   1  22
ATOM     22  C   UNL     1       6.985  -0.240   0.994  1.00  0.00     0.274 C 
BRANCH  22  23
ATOM     23  C   UNL     1       8.236   0.069   0.173  1.00  0.00     0.275 C 
BRANCH  23  24
ATOM     24  O   UNL     1       7.931  -0.029  -1.230  1.00  0.00    -0.458 OA
BRANCH  24  25
ATOM     25  C   UNL     1       8.719  -0.865  -1.945  1.00  0.00     0.338 C 
ATOM     26  O   UNL     1       9.719  -1.443  -1.558  1.00  0.00    -0.246 OA
BRANCH  25  27
ATOM     27  C   UNL     1       8.184  -1.033  -3.315  1.00  0.00     0.060 A 
ATOM     28  C   UNL     1       6.810  -1.077  -3.564  1.00  0.00     0.016 A 
ATOM     29  C   UNL     1       9.081  -1.254  -4.360  1.00  0.00     0.016 A 
ATOM     30  C   UNL     1       6.331  -1.403  -4.831  1.00  0.00     0.010 A 
ATOM     31  C   UNL     1       8.601  -1.482  -5.652  1.00  0.00     0.010 A 
ATOM     32  C   UNL     1       7.221  -1.574  -5.899  1.00  0.00    -0.014 A 
BRANCH  32  33
ATOM     33  C   UNL     1       6.724  -1.812  -7.279  1.00  0.00     0.031 A 
ATOM     34  C   UNL     1       7.128  -3.050  -8.030  1.00  0.00     0.074 A 
ATOM     35  C   UNL     1       5.950  -0.888  -7.881  1.00  0.00     0.049 A 
ATOM     36  N   UNL     1       6.999  -3.323  -9.304  1.00  0.00    -0.248 NA
ATOM     37  C   UNL     1       7.776  -4.115  -7.250  1.00  0.00     0.031 C 
ATOM     38  C   UNL     1       5.461   0.344  -7.260  1.00  0.00     0.029 A 
ATOM     39  N   UNL     1       5.451  -0.834  -9.159  1.00  0.00    -0.354 N 
ATOM     40  C   UNL     1       7.596  -4.562  -9.488  1.00  0.00     0.074 A 
ATOM     41  C   UNL     1       8.082  -4.994  -8.194  1.00  0.00     0.031 C 
ATOM     42  C   UNL     1       4.721   1.023  -8.148  1.00  0.00     0.029 A 
ATOM     43  C   UNL     1       4.754   0.319  -9.425  1.00  0.00     0.049 A 
ATOM     44  H   UNL     1       5.580  -1.552  -9.820  1.00  0.00     0.167 HD
ATOM     45  C   UNL     1       7.731  -5.269 -10.636  1.00  0.00     0.037 A 
ATOM     46  C   UNL     1       4.243   0.789 -10.577  1.00  0.00     0.037 A 
ATOM     47  C   UNL     1       7.203  -4.858 -11.912  1.00  0.00     0.049 A 
ATOM     48  C   UNL     1       4.425  -0.002 -11.839  1.00  0.00     0.074 A 
ATOM     49  C   UNL     1       7.259  -5.524 -13.124  1.00  0.00     0.029 A 
ATOM     50  N   UNL     1       6.511  -3.677 -12.136  1.00  0.00    -0.354 N 
ATOM     51  N   UNL     1       5.030  -1.150 -12.012  1.00  0.00    -0.248 NA
ATOM     52  C   UNL     1       3.871   0.581 -13.069  1.00  0.00     0.031 C 
ATOM     53  C   UNL     1       6.626  -4.732 -14.089  1.00  0.00     0.029 A 
ATOM     54  C   UNL     1       6.146  -3.590 -13.470  1.00  0.00     0.049 A 
ATOM     55  H   UNL     1       6.309  -3.001 -11.450  1.00  0.00     0.167 HD
ATOM     56  C   UNL     1       4.928  -1.432 -13.366  1.00  0.00     0.074 A 
ATOM     57  C   UNL     1       4.185  -0.343 -13.967  1.00  0.00     0.031 C 
ATOM     58  C   UNL     1       5.412  -2.496 -14.051  1.00  0.00     0.037 A 
BRANCH  45  59
ATOM     59  C   UNL     1       8.503  -6.552 -10.579  1.00  0.00     0.064 A 
ATOM     60  C   UNL     1       7.959  -7.719 -10.024  1.00  0.00     0.173 A 
ATOM     61  C   UNL     1       9.786  -6.627 -11.144  1.00  0.00     0.173 A 
ATOM     62  F   UNL     1       6.742  -7.694  -9.461  1.00  0.00    -0.203 F 
ATOM     63  C   UNL     1       8.677  -8.912 -10.025  1.00  0.00     0.198 A 
ATOM     64  C   UNL     1      10.492  -7.827 -11.162  1.00  0.00     0.198 A 
ATOM     65  F   UNL     1      10.348  -5.538 -11.690  1.00  0.00    -0.203 F 
ATOM     66  F   UNL     1       8.151 -10.009  -9.464  1.00  0.00    -0.200 F 
ATOM     67  C   UNL     1       9.939  -8.967 -10.601  1.00  0.00     0.200 A 
ATOM     68  F   UNL     1      11.706  -7.880 -11.727  1.00  0.00    -0.200 F 
ATOM     69  F   UNL     1      10.623 -10.119 -10.611  1.00  0.00    -0.200 F 
ENDBRANCH  45  59
BRANCH  46  70
ATOM     70  C   UNL     1       3.546   2.099 -10.587  1.00  0.00     0.064 A 
ATOM     71  C   UNL     1       2.156   2.171 -10.739  1.00  0.00     0.173 A 
ATOM     72  C   UNL     1       4.251   3.299 -10.411  1.00  0.00     0.173 A 
ATOM     73  F   UNL     1       1.445   1.051 -10.932  1.00  0.00    -0.203 F 
ATOM     74  C   UNL     1       1.496   3.397 -10.716  1.00  0.00     0.198 A 
ATOM     75  C   UNL     1       3.587   4.521 -10.361  1.00  0.00     0.198 A 
ATOM     76  F   UNL     1       5.584   3.279 -10.257  1.00  0.00    -0.203 F 
ATOM     77  F   UNL     1       0.168   3.443 -10.889  1.00  0.00    -0.200 F 
ATOM     78  C   UNL     1       2.210   4.570 -10.518  1.00  0.00     0.200 A 
ATOM     79  F   UNL     1       4.279   5.650 -10.154  1.00  0.00    -0.200 F 
ATOM     80  F   UNL     1       1.571   5.747 -10.479  1.00  0.00    -0.200 F 
ENDBRANCH  46  70
BRANCH  58  81
ATOM     81  C   UNL     1       5.136  -2.538 -15.522  1.00  0.00     0.064 A 
ATOM     82  C   UNL     1       5.847  -1.730 -16.421  1.00  0.00     0.173 A 
ATOM     83  C   UNL     1       4.168  -3.410 -16.040  1.00  0.00     0.173 A 
ATOM     84  F   UNL     1       6.769  -0.867 -15.968  1.00  0.00    -0.203 F 
ATOM     85  C   UNL     1       5.582  -1.779 -17.787  1.00  0.00     0.198 A 
ATOM     86  C   UNL     1       3.921  -3.472 -17.408  1.00  0.00     0.198 A 
ATOM     87  F   UNL     1       3.465  -4.204 -15.218  1.00  0.00    -0.203 F 
ATOM     88  F   UNL     1       6.244  -0.970 -18.625  1.00  0.00    -0.200 F 
ATOM     89  C   UNL     1       4.624  -2.653 -18.279  1.00  0.00     0.200 A 
ATOM     90  F   UNL     1       2.999  -4.321 -17.883  1.00  0.00    -0.200 F 
ATOM     91  F   UNL     1       4.370  -2.699 -19.594  1.00  0.00    -0.200 F 
ENDBRANCH  58  81
ENDBRANCH  32  33
ENDBRANCH  25  27
ENDBRANCH  24  25
ENDBRANCH  23  24
ENDBRANCH  22  23
ENDBRANCH   1  22
TORSDOF 17
