REMARK SMILES CCC(CC)(NC(=O)NC[C@@H]1CCCOC1)C(=O)OCCOC(=O)c1ccc(-c2c3nc(c(-c4c(F)c(F)c(F)c(F)c4F)c4ccc([nH]4)c(-c4c(F)c(F)c(F)c(F)c4F)c4nc(c(-c5c(F)c(F)c(F)c(F)c5F)c5ccc2[nH]5)C=C4)C=C3)cc1
REMARK SMILES IDX 20 1 19 2 17 3 18 4 3 5 2 6 1 7 4 8 5 9 6 10 7 11 8 13 9 14
REMARK SMILES IDX 10 16 11 17 12 18 16 19 13 20 15 21 14 22 21 23 22 24 23 25
REMARK SMILES IDX 24 26 25 27 26 28 87 29 27 30 86 31 28 32 29 33 30 34 80 35
REMARK SMILES IDX 31 36 85 37 79 38 81 39 32 40 84 41 78 42 77 43 33 45 65 46
REMARK SMILES IDX 45 47 64 48 46 49 49 50 63 51 82 52 47 53 48 54 62 56 83 57
REMARK SMILES IDX 50 58 34 59 35 60 43 61 36 62 37 63 41 64 44 65 38 66 39 67
REMARK SMILES IDX 42 68 40 69 66 70 67 71 75 72 68 73 69 74 73 75 76 76 70 77
REMARK SMILES IDX 71 78 74 79 72 80 51 81 52 82 60 83 53 84 54 85 58 86 61 87
REMARK SMILES IDX 55 88 56 89 59 90 57 91
REMARK H PARENT 6 12 9 15 81 44 49 55
REMARK Flexibility Score: inf
ROOT
ATOM      1  C   UNL     1       4.778  -1.223  -1.001  1.00  0.00     0.274 C 
ENDROOT
BRANCH   1   2
ATOM      2  O   UNL     1       3.372  -1.435  -1.286  1.00  0.00    -0.460 OA
BRANCH   2   3
ATOM      3  C   UNL     1       2.549  -1.482  -0.197  1.00  0.00     0.332 C 
ATOM      4  O   UNL     1       2.910  -1.107   0.914  1.00  0.00    -0.249 OA
BRANCH   3   5
ATOM      5  C   UNL     1       1.111  -2.037  -0.511  1.00  0.00     0.139 C 
BRANCH   5   6
ATOM      6  C   UNL     1       0.154  -0.800  -0.620  1.00  0.00     0.037 C 
ATOM      7  C   UNL     1       0.171   0.196   0.531  1.00  0.00     0.007 C 
ENDBRANCH   5   6
BRANCH   5   8
ATOM      8  C   UNL     1       0.664  -2.961   0.659  1.00  0.00     0.037 C 
ATOM      9  C   UNL     1      -0.827  -3.283   0.728  1.00  0.00     0.007 C 
ENDBRANCH   5   8
BRANCH   5  10
ATOM     10  N   UNL     1       0.967  -2.763  -1.817  1.00  0.00    -0.322 N 
ATOM     11  C   UNL     1       1.198  -4.017  -2.237  1.00  0.00     0.315 C 
ATOM     12  H   UNL     1       0.621  -2.183  -2.533  1.00  0.00     0.166 HD
ATOM     13  O   UNL     1       0.514  -4.444  -3.169  1.00  0.00    -0.249 OA
ATOM     14  N   UNL     1       2.098  -4.845  -1.674  1.00  0.00    -0.338 N 
ATOM     15  H   UNL     1       1.810  -5.774  -1.523  1.00  0.00     0.165 HD
BRANCH  14  16
ATOM     16  C   UNL     1       3.440  -4.509  -1.271  1.00  0.00     0.123 C 
BRANCH  16  17
ATOM     17  C   UNL     1       4.113  -5.345  -0.185  1.00  0.00     0.034 C 
ATOM     18  C   UNL     1       3.598  -6.776  -0.051  1.00  0.00     0.010 C 
ATOM     19  C   UNL     1       4.066  -4.629   1.175  1.00  0.00     0.165 C 
ATOM     20  C   UNL     1       4.309  -7.479   1.103  1.00  0.00     0.029 C 
ATOM     21  O   UNL     1       4.793  -5.360   2.160  1.00  0.00    -0.381 OA
ATOM     22  C   UNL     1       4.224  -6.649   2.377  1.00  0.00     0.160 C 
ENDBRANCH  16  17
ENDBRANCH  14  16
ENDBRANCH   5  10
ENDBRANCH   3   5
ENDBRANCH   2   3
ENDBRANCH   1   2
BRANCH   1  23
ATOM     23  C   UNL     1       5.628  -1.496  -2.253  1.00  0.00     0.275 C 
BRANCH  23  24
ATOM     24  O   UNL     1       5.411  -0.444  -3.202  1.00  0.00    -0.458 OA
BRANCH  24  25
ATOM     25  C   UNL     1       4.299  -0.618  -3.959  1.00  0.00     0.338 C 
ATOM     26  O   UNL     1       3.790  -1.665  -4.306  1.00  0.00    -0.246 OA
BRANCH  25  27
ATOM     27  C   UNL     1       3.602   0.676  -3.906  1.00  0.00     0.060 A 
ATOM     28  C   UNL     1       2.378   0.689  -3.232  1.00  0.00     0.016 A 
ATOM     29  C   UNL     1       4.183   1.856  -4.359  1.00  0.00     0.016 A 
ATOM     30  C   UNL     1       1.742   1.888  -2.950  1.00  0.00     0.010 A 
ATOM     31  C   UNL     1       3.522   3.059  -4.121  1.00  0.00     0.010 A 
ATOM     32  C   UNL     1       2.306   3.076  -3.411  1.00  0.00    -0.014 A 
BRANCH  32  33
ATOM     33  C   UNL     1       1.528   4.325  -3.330  1.00  0.00     0.031 A 
ATOM     34  C   UNL     1       0.835   4.775  -4.577  1.00  0.00     0.074 A 
ATOM     35  C   UNL     1       1.443   5.023  -2.187  1.00  0.00     0.049 A 
ATOM     36  N   UNL     1       0.333   5.940  -4.874  1.00  0.00    -0.248 NA
ATOM     37  C   UNL     1       0.709   3.766  -5.644  1.00  0.00     0.031 C 
ATOM     38  C   UNL     1       1.977   4.603  -0.892  1.00  0.00     0.029 A 
ATOM     39  N   UNL     1       0.888   6.253  -1.941  1.00  0.00    -0.354 N 
ATOM     40  C   UNL     1      -0.115   5.824  -6.183  1.00  0.00     0.074 A 
ATOM     41  C   UNL     1       0.161   4.474  -6.618  1.00  0.00     0.031 C 
ATOM     42  C   UNL     1       1.750   5.576   0.008  1.00  0.00     0.029 A 
ATOM     43  C   UNL     1       1.122   6.708  -0.667  1.00  0.00     0.049 A 
ATOM     44  H   UNL     1       0.374   6.758  -2.612  1.00  0.00     0.167 HD
ATOM     45  C   UNL     1      -0.688   6.779  -6.948  1.00  0.00     0.037 A 
ATOM     46  C   UNL     1       0.905   7.929  -0.140  1.00  0.00     0.037 A 
ATOM     47  C   UNL     1      -0.965   8.106  -6.471  1.00  0.00     0.049 A 
ATOM     48  C   UNL     1       0.325   8.999  -1.031  1.00  0.00     0.074 A 
ATOM     49  C   UNL     1      -1.521   9.173  -7.150  1.00  0.00     0.029 A 
ATOM     50  N   UNL     1      -0.709   8.539  -5.176  1.00  0.00    -0.354 N 
ATOM     51  N   UNL     1      -0.033   8.923  -2.292  1.00  0.00    -0.248 NA
ATOM     52  C   UNL     1       0.134  10.327  -0.434  1.00  0.00     0.031 C 
ATOM     53  C   UNL     1      -1.567  10.264  -6.275  1.00  0.00     0.029 A 
ATOM     54  C   UNL     1      -1.088   9.861  -5.037  1.00  0.00     0.049 A 
ATOM     55  H   UNL     1      -0.316   7.985  -4.463  1.00  0.00     0.167 HD
ATOM     56  C   UNL     1      -0.511  10.181  -2.633  1.00  0.00     0.074 A 
ATOM     57  C   UNL     1      -0.411  10.998  -1.440  1.00  0.00     0.031 C 
ATOM     58  C   UNL     1      -0.986  10.630  -3.822  1.00  0.00     0.037 A 
BRANCH  45  59
ATOM     59  C   UNL     1      -0.983   6.435  -8.377  1.00  0.00     0.064 A 
ATOM     60  C   UNL     1      -2.005   5.543  -8.733  1.00  0.00     0.173 A 
ATOM     61  C   UNL     1      -0.222   7.006  -9.408  1.00  0.00     0.173 A 
ATOM     62  F   UNL     1      -2.742   4.947  -7.784  1.00  0.00    -0.203 F 
ATOM     63  C   UNL     1      -2.239   5.219 -10.068  1.00  0.00     0.198 A 
ATOM     64  C   UNL     1      -0.478   6.703 -10.742  1.00  0.00     0.198 A 
ATOM     65  F   UNL     1       0.774   7.858  -9.122  1.00  0.00    -0.203 F 
ATOM     66  F   UNL     1      -3.186   4.323 -10.382  1.00  0.00    -0.200 F 
ATOM     67  C   UNL     1      -1.481   5.804 -11.071  1.00  0.00     0.200 A 
ATOM     68  F   UNL     1       0.252   7.274 -11.710  1.00  0.00    -0.200 F 
ATOM     69  F   UNL     1      -1.710   5.494 -12.354  1.00  0.00    -0.200 F 
ENDBRANCH  45  59
BRANCH  46  70
ATOM     70  C   UNL     1       1.290   8.223   1.267  1.00  0.00     0.064 A 
ATOM     71  C   UNL     1       0.322   8.522   2.236  1.00  0.00     0.173 A 
ATOM     72  C   UNL     1       2.635   8.232   1.671  1.00  0.00     0.173 A 
ATOM     73  F   UNL     1      -0.975   8.555   1.897  1.00  0.00    -0.203 F 
ATOM     74  C   UNL     1       0.683   8.835   3.546  1.00  0.00     0.198 A 
ATOM     75  C   UNL     1       2.993   8.513   2.989  1.00  0.00     0.198 A 
ATOM     76  F   UNL     1       3.605   7.959   0.786  1.00  0.00    -0.203 F 
ATOM     77  F   UNL     1      -0.261   9.166   4.438  1.00  0.00    -0.200 F 
ATOM     78  C   UNL     1       2.017   8.823   3.923  1.00  0.00     0.200 A 
ATOM     79  F   UNL     1       4.283   8.488   3.350  1.00  0.00    -0.200 F 
ATOM     80  F   UNL     1       2.363   9.120   5.183  1.00  0.00    -0.200 F 
ENDBRANCH  46  70
BRANCH  58  81
ATOM     81  C   UNL     1      -1.478  12.045  -3.868  1.00  0.00     0.064 A 
ATOM     82  C   UNL     1      -0.594  13.133  -3.855  1.00  0.00     0.173 A 
ATOM     83  C   UNL     1      -2.852  12.309  -3.979  1.00  0.00     0.173 A 
ATOM     84  F   UNL     1       0.726  12.929  -3.736  1.00  0.00    -0.203 F 
ATOM     85  C   UNL     1      -1.071  14.438  -3.925  1.00  0.00     0.198 A 
ATOM     86  C   UNL     1      -3.322  13.614  -4.080  1.00  0.00     0.198 A 
ATOM     87  F   UNL     1      -3.735  11.299  -4.005  1.00  0.00    -0.203 F 
ATOM     88  F   UNL     1      -0.214  15.466  -3.865  1.00  0.00    -0.200 F 
ATOM     89  C   UNL     1      -2.433  14.677  -4.046  1.00  0.00     0.200 A 
ATOM     90  F   UNL     1      -4.636  13.842  -4.213  1.00  0.00    -0.200 F 
ATOM     91  F   UNL     1      -2.889  15.934  -4.124  1.00  0.00    -0.200 F 
ENDBRANCH  58  81
ENDBRANCH  32  33
ENDBRANCH  25  27
ENDBRANCH  24  25
ENDBRANCH  23  24
ENDBRANCH   1  23
TORSDOF 16
