REMARK SMILES O=C(CC1(CSC[C@@H]2COc3ccccc32)CC1)OCCOC(=O)c1ccc(-c2c3nc(c(-c4c(F)c(F)c(F)c(F)c4F)c4ccc([nH]4)c(-c4c(F)c(F)c(F)c(F)c4F)c4nc(c(-c5c(F)c(F)c(F)c(F)c5F)c5ccc2[nH]5)C=C4)C=C3)cc1
REMARK SMILES IDX 19 1 2 2 1 3 3 4 4 5 17 6 18 7 5 8 6 9 7 10 8 11 9 12 16 13
REMARK SMILES IDX 10 14 11 15 15 16 12 17 14 18 13 19 20 20 21 21 22 22 23 23
REMARK SMILES IDX 24 24 25 25 26 26 87 27 27 28 86 29 28 30 29 31 30 32 80 33
REMARK SMILES IDX 31 34 85 35 79 36 81 37 32 38 84 39 78 40 77 41 33 43 65 44
REMARK SMILES IDX 45 45 64 46 46 47 49 48 63 49 82 50 47 51 48 52 62 54 83 55
REMARK SMILES IDX 50 56 34 57 35 58 43 59 36 60 37 61 41 62 44 63 38 64 39 65
REMARK SMILES IDX 42 66 40 67 66 68 67 69 75 70 68 71 69 72 73 73 76 74 70 75
REMARK SMILES IDX 71 76 74 77 72 78 51 79 52 80 60 81 53 82 54 83 58 84 61 85
REMARK SMILES IDX 55 86 56 87 59 88 57 89
REMARK H PARENT 81 42 49 53
REMARK Flexibility Score: inf
ROOT
ATOM      1  O   UNL     1       6.550   6.398   7.246  1.00  0.00    -0.462 OA
ENDROOT
BRANCH   1   2
ATOM      2  C   UNL     1       5.833   5.483   6.555  1.00  0.00     0.306 C 
ATOM      3  O   UNL     1       5.460   4.460   7.124  1.00  0.00    -0.252 OA
BRANCH   2   4
ATOM      4  C   UNL     1       5.564   5.713   5.083  1.00  0.00     0.130 C 
BRANCH   4   5
ATOM      5  C   UNL     1       4.211   6.253   4.664  1.00  0.00    -0.010 C 
ATOM      6  C   UNL     1       4.083   7.739   4.355  1.00  0.00     0.009 C 
ATOM      7  C   UNL     1       4.147   6.759   3.228  1.00  0.00     0.009 C 
BRANCH   5   8
ATOM      8  C   UNL     1       2.999   5.567   5.259  1.00  0.00     0.077 C 
BRANCH   8   9
ATOM      9  S   UNL     1       3.022   3.774   5.019  1.00  0.00    -0.161 SA
BRANCH   9  10
ATOM     10  C   UNL     1       2.503   3.591   3.279  1.00  0.00     0.081 C 
BRANCH  10  11
ATOM     11  C   UNL     1       1.013   3.744   2.930  1.00  0.00     0.071 C 
ATOM     12  C   UNL     1       0.559   5.183   2.640  1.00  0.00     0.238 C 
ATOM     13  C   UNL     1       0.059   3.403   4.015  1.00  0.00     0.001 A 
ATOM     14  O   UNL     1      -0.285   5.670   3.706  1.00  0.00    -0.493 OA
ATOM     15  C   UNL     1      -0.604   4.549   4.423  1.00  0.00     0.122 A 
ATOM     16  C   UNL     1      -0.125   2.201   4.678  1.00  0.00     0.008 A 
ATOM     17  C   UNL     1      -1.452   4.553   5.510  1.00  0.00     0.047 A 
ATOM     18  C   UNL     1      -0.978   2.184   5.783  1.00  0.00     0.001 A 
ATOM     19  C   UNL     1      -1.635   3.354   6.199  1.00  0.00     0.004 A 
ENDBRANCH  10  11
ENDBRANCH   9  10
ENDBRANCH   8   9
ENDBRANCH   5   8
ENDBRANCH   4   5
ENDBRANCH   2   4
ENDBRANCH   1   2
BRANCH   1  20
ATOM     20  C   UNL     1       6.982   7.675   6.742  1.00  0.00     0.274 C 
BRANCH  20  21
ATOM     21  C   UNL     1       8.420   7.637   6.217  1.00  0.00     0.275 C 
BRANCH  21  22
ATOM     22  O   UNL     1       8.518   6.832   5.024  1.00  0.00    -0.458 OA
BRANCH  22  23
ATOM     23  C   UNL     1       8.947   5.556   5.201  1.00  0.00     0.338 C 
ATOM     24  O   UNL     1       9.415   5.086   6.224  1.00  0.00    -0.246 OA
BRANCH  23  25
ATOM     25  C   UNL     1       8.591   4.733   4.015  1.00  0.00     0.060 A 
ATOM     26  C   UNL     1       8.194   3.406   4.234  1.00  0.00     0.016 A 
ATOM     27  C   UNL     1       8.594   5.247   2.713  1.00  0.00     0.016 A 
ATOM     28  C   UNL     1       7.834   2.586   3.160  1.00  0.00     0.010 A 
ATOM     29  C   UNL     1       8.247   4.420   1.634  1.00  0.00     0.010 A 
ATOM     30  C   UNL     1       7.892   3.076   1.848  1.00  0.00    -0.014 A 
BRANCH  30  31
ATOM     31  C   UNL     1       7.774   2.139   0.700  1.00  0.00     0.031 A 
ATOM     32  C   UNL     1       9.029   1.506   0.163  1.00  0.00     0.074 A 
ATOM     33  C   UNL     1       6.588   1.840   0.138  1.00  0.00     0.049 A 
ATOM     34  N   UNL     1       9.180   0.667  -0.831  1.00  0.00    -0.248 NA
ATOM     35  C   UNL     1      10.283   1.870   0.841  1.00  0.00     0.031 C 
ATOM     36  C   UNL     1       5.290   2.353   0.567  1.00  0.00     0.029 A 
ATOM     37  N   UNL     1       6.292   1.027  -0.932  1.00  0.00    -0.354 N 
ATOM     38  C   UNL     1      10.540   0.393  -0.887  1.00  0.00     0.074 A 
ATOM     39  C   UNL     1      11.176   1.181   0.147  1.00  0.00     0.031 C 
ATOM     40  C   UNL     1       4.336   1.855  -0.241  1.00  0.00     0.029 A 
ATOM     41  C   UNL     1       4.957   1.001  -1.255  1.00  0.00     0.049 A 
ATOM     42  H   UNL     1       6.973   0.512  -1.420  1.00  0.00     0.167 HD
ATOM     43  C   UNL     1      11.203  -0.446  -1.716  1.00  0.00     0.037 A 
ATOM     44  C   UNL     1       4.317   0.372  -2.262  1.00  0.00     0.037 A 
ATOM     45  C   UNL     1      10.591  -1.225  -2.757  1.00  0.00     0.049 A 
ATOM     46  C   UNL     1       5.094  -0.490  -3.229  1.00  0.00     0.074 A 
ATOM     47  C   UNL     1      11.189  -2.116  -3.632  1.00  0.00     0.029 A 
ATOM     48  N   UNL     1       9.243  -1.196  -3.074  1.00  0.00    -0.354 N 
ATOM     49  N   UNL     1       6.371  -0.784  -3.239  1.00  0.00    -0.248 NA
ATOM     50  C   UNL     1       4.334  -1.108  -4.328  1.00  0.00     0.031 C 
ATOM     51  C   UNL     1      10.210  -2.592  -4.509  1.00  0.00     0.029 A 
ATOM     52  C   UNL     1       8.995  -2.031  -4.152  1.00  0.00     0.049 A 
ATOM     53  H   UNL     1       8.563  -0.662  -2.604  1.00  0.00     0.167 HD
ATOM     54  C   UNL     1       6.558  -1.645  -4.315  1.00  0.00     0.074 A 
ATOM     55  C   UNL     1       5.264  -1.833  -4.933  1.00  0.00     0.031 C 
ATOM     56  C   UNL     1       7.702  -2.228  -4.751  1.00  0.00     0.037 A 
BRANCH  43  57
ATOM     57  C   UNL     1      12.686  -0.555  -1.538  1.00  0.00     0.064 A 
ATOM     58  C   UNL     1      13.242  -1.267  -0.466  1.00  0.00     0.173 A 
ATOM     59  C   UNL     1      13.557   0.025  -2.471  1.00  0.00     0.173 A 
ATOM     60  F   UNL     1      12.445  -1.825   0.459  1.00  0.00    -0.203 F 
ATOM     61  C   UNL     1      14.621  -1.381  -0.325  1.00  0.00     0.198 A 
ATOM     62  C   UNL     1      14.936  -0.110  -2.338  1.00  0.00     0.198 A 
ATOM     63  F   UNL     1      13.071   0.715  -3.513  1.00  0.00    -0.203 F 
ATOM     64  F   UNL     1      15.134  -2.037   0.726  1.00  0.00    -0.200 F 
ATOM     65  C   UNL     1      15.466  -0.809  -1.264  1.00  0.00     0.200 A 
ATOM     66  F   UNL     1      15.751   0.437  -3.250  1.00  0.00    -0.200 F 
ATOM     67  F   UNL     1      16.795  -0.926  -1.131  1.00  0.00    -0.200 F 
ENDBRANCH  43  57
BRANCH  44  68
ATOM     68  C   UNL     1       2.849   0.534  -2.438  1.00  0.00     0.064 A 
ATOM     69  C   UNL     1       1.973  -0.543  -2.240  1.00  0.00     0.173 A 
ATOM     70  C   UNL     1       2.302   1.747  -2.880  1.00  0.00     0.173 A 
ATOM     71  F   UNL     1       2.454  -1.733  -1.849  1.00  0.00    -0.203 F 
ATOM     72  C   UNL     1       0.610  -0.421  -2.504  1.00  0.00     0.198 A 
ATOM     73  C   UNL     1       0.935   1.875  -3.119  1.00  0.00     0.198 A 
ATOM     74  F   UNL     1       3.097   2.806  -3.091  1.00  0.00    -0.203 F 
ATOM     75  F   UNL     1      -0.195  -1.483  -2.363  1.00  0.00    -0.200 F 
ATOM     76  C   UNL     1       0.092   0.788  -2.941  1.00  0.00     0.200 A 
ATOM     77  F   UNL     1       0.438   3.047  -3.535  1.00  0.00    -0.200 F 
ATOM     78  F   UNL     1      -1.216   0.903  -3.206  1.00  0.00    -0.200 F 
ENDBRANCH  44  68
BRANCH  56  79
ATOM     79  C   UNL     1       7.611  -3.156  -5.928  1.00  0.00     0.064 A 
ATOM     80  C   UNL     1       7.412  -2.676  -7.230  1.00  0.00     0.173 A 
ATOM     81  C   UNL     1       7.783  -4.539  -5.757  1.00  0.00     0.173 A 
ATOM     82  F   UNL     1       7.228  -1.365  -7.445  1.00  0.00    -0.203 F 
ATOM     83  C   UNL     1       7.371  -3.548  -8.316  1.00  0.00     0.198 A 
ATOM     84  C   UNL     1       7.768  -5.404  -6.847  1.00  0.00     0.198 A 
ATOM     85  F   UNL     1       7.984  -5.048  -4.532  1.00  0.00    -0.203 F 
ATOM     86  F   UNL     1       7.144  -3.071  -9.547  1.00  0.00    -0.200 F 
ATOM     87  C   UNL     1       7.557  -4.909  -8.125  1.00  0.00     0.200 A 
ATOM     88  F   UNL     1       7.961  -6.718  -6.662  1.00  0.00    -0.200 F 
ATOM     89  F   UNL     1       7.529  -5.744  -9.173  1.00  0.00    -0.200 F 
ENDBRANCH  56  79
ENDBRANCH  30  31
ENDBRANCH  23  25
ENDBRANCH  22  23
ENDBRANCH  21  22
ENDBRANCH  20  21
ENDBRANCH   1  20
TORSDOF 16
