REMARK SMILES O=C(OCCOC(=O)c1sccc1S(=O)(=O)N1CCO[C@@H]2CCCC[C@@H]21)c1ccc(-c2c3nc(c(-c4c(F)c(F)c(F)c(F)c4F)c4ccc([nH]4)c(-c4c(F)c(F)c(F)c(F)c4F)c4nc(c(-c5c(F)c(F)c(F)c(F)c5F)c5ccc2[nH]5)C=C4)C=C3)cc1
REMARK SMILES IDX 4 1 3 2 2 3 1 4 27 5 28 6 89 7 29 8 88 9 30 10 31 11 32 12
REMARK SMILES IDX 82 13 33 14 87 15 81 16 83 17 34 18 86 19 80 20 79 21 35 23
REMARK SMILES IDX 67 24 47 25 66 26 48 27 51 28 65 29 84 30 49 31 50 32 64 34
REMARK SMILES IDX 85 35 52 36 36 37 37 38 45 39 38 40 39 41 43 42 46 43 40 44
REMARK SMILES IDX 41 45 44 46 42 47 68 48 69 49 77 50 70 51 71 52 75 53 78 54
REMARK SMILES IDX 72 55 73 56 76 57 74 58 53 59 54 60 62 61 55 62 56 63 60 64
REMARK SMILES IDX 63 65 57 66 58 67 61 68 59 69 5 70 6 71 7 72 8 73 9 74 10 75
REMARK SMILES IDX 13 76 11 77 12 78 14 79 15 80 16 81 17 82 18 83 26 84 19 85
REMARK SMILES IDX 21 86 25 87 20 88 22 89 24 90 23 91
REMARK H PARENT 83 22 51 33
REMARK Flexibility Score: inf
ROOT
ATOM      1  C   UNL     1       2.251   1.055  -0.061  1.00  0.00     0.275 C 
ENDROOT
BRANCH   1   2
ATOM      2  O   UNL     1       1.463   0.021  -0.682  1.00  0.00    -0.458 OA
BRANCH   2   3
ATOM      3  C   UNL     1       1.596  -0.054  -2.029  1.00  0.00     0.338 C 
ATOM      4  O   UNL     1       1.136   0.752  -2.818  1.00  0.00    -0.246 OA
BRANCH   3   5
ATOM      5  C   UNL     1       2.362  -1.270  -2.423  1.00  0.00     0.060 A 
ATOM      6  C   UNL     1       3.358  -1.775  -1.590  1.00  0.00     0.016 A 
ATOM      7  C   UNL     1       2.161  -1.870  -3.671  1.00  0.00     0.016 A 
ATOM      8  C   UNL     1       4.150  -2.843  -1.995  1.00  0.00     0.010 A 
ATOM      9  C   UNL     1       2.929  -2.986  -4.056  1.00  0.00     0.010 A 
ATOM     10  C   UNL     1       3.933  -3.484  -3.213  1.00  0.00    -0.014 A 
BRANCH  10  11
ATOM     11  C   UNL     1       4.808  -4.638  -3.555  1.00  0.00     0.031 A 
ATOM     12  C   UNL     1       5.839  -4.508  -4.626  1.00  0.00     0.074 A 
ATOM     13  C   UNL     1       4.801  -5.752  -2.795  1.00  0.00     0.049 A 
ATOM     14  N   UNL     1       6.599  -5.435  -5.147  1.00  0.00    -0.248 NA
ATOM     15  C   UNL     1       6.064  -3.161  -5.168  1.00  0.00     0.031 C 
ATOM     16  C   UNL     1       3.974  -5.932  -1.609  1.00  0.00     0.029 A 
ATOM     17  N   UNL     1       5.537  -6.910  -2.854  1.00  0.00    -0.354 N 
ATOM     18  C   UNL     1       7.336  -4.802  -6.133  1.00  0.00     0.074 A 
ATOM     19  C   UNL     1       6.980  -3.399  -6.097  1.00  0.00     0.031 C 
ATOM     20  C   UNL     1       4.301  -7.082  -1.004  1.00  0.00     0.029 A 
ATOM     21  C   UNL     1       5.260  -7.792  -1.835  1.00  0.00     0.049 A 
ATOM     22  H   UNL     1       6.201  -7.092  -3.559  1.00  0.00     0.167 HD
ATOM     23  C   UNL     1       8.195  -5.366  -7.013  1.00  0.00     0.037 A 
ATOM     24  C   UNL     1       5.680  -9.055  -1.619  1.00  0.00     0.037 A 
ATOM     25  C   UNL     1       8.562  -6.758  -7.007  1.00  0.00     0.049 A 
ATOM     26  C   UNL     1       6.575  -9.681  -2.651  1.00  0.00     0.074 A 
ATOM     27  C   UNL     1       9.351  -7.450  -7.909  1.00  0.00     0.029 A 
ATOM     28  N   UNL     1       8.175  -7.668  -6.034  1.00  0.00    -0.354 N 
ATOM     29  N   UNL     1       7.141  -9.126  -3.694  1.00  0.00    -0.248 NA
ATOM     30  C   UNL     1       6.842 -11.119  -2.514  1.00  0.00     0.031 C 
ATOM     31  C   UNL     1       9.412  -8.787  -7.499  1.00  0.00     0.029 A 
ATOM     32  C   UNL     1       8.691  -8.921  -6.323  1.00  0.00     0.049 A 
ATOM     33  H   UNL     1       7.615  -7.455  -5.252  1.00  0.00     0.167 HD
ATOM     34  C   UNL     1       7.808 -10.146  -4.352  1.00  0.00     0.074 A 
ATOM     35  C   UNL     1       7.624 -11.346  -3.561  1.00  0.00     0.031 C 
ATOM     36  C   UNL     1       8.484 -10.101  -5.525  1.00  0.00     0.037 A 
BRANCH  23  37
ATOM     37  C   UNL     1       8.686  -4.496  -8.124  1.00  0.00     0.064 A 
ATOM     38  C   UNL     1       9.703  -3.550  -7.949  1.00  0.00     0.173 A 
ATOM     39  C   UNL     1       8.100  -4.612  -9.395  1.00  0.00     0.173 A 
ATOM     40  F   UNL     1      10.270  -3.383  -6.745  1.00  0.00    -0.203 F 
ATOM     41  C   UNL     1      10.108  -2.738  -9.006  1.00  0.00     0.198 A 
ATOM     42  C   UNL     1       8.520  -3.813 -10.453  1.00  0.00     0.198 A 
ATOM     43  F   UNL     1       7.114  -5.497  -9.606  1.00  0.00    -0.203 F 
ATOM     44  F   UNL     1      11.054  -1.809  -8.811  1.00  0.00    -0.200 F 
ATOM     45  C   UNL     1       9.520  -2.873 -10.256  1.00  0.00     0.200 A 
ATOM     46  F   UNL     1       7.949  -3.946 -11.658  1.00  0.00    -0.200 F 
ATOM     47  F   UNL     1       9.908  -2.087 -11.270  1.00  0.00    -0.200 F 
ENDBRANCH  23  37
BRANCH  24  48
ATOM     48  C   UNL     1       5.173  -9.845  -0.461  1.00  0.00     0.064 A 
ATOM     49  C   UNL     1       6.045 -10.354   0.512  1.00  0.00     0.173 A 
ATOM     50  C   UNL     1       3.807 -10.144  -0.320  1.00  0.00     0.173 A 
ATOM     51  F   UNL     1       7.364 -10.134   0.410  1.00  0.00    -0.203 F 
ATOM     52  C   UNL     1       5.575 -11.135   1.569  1.00  0.00     0.198 A 
ATOM     53  C   UNL     1       3.333 -10.889   0.757  1.00  0.00     0.198 A 
ATOM     54  F   UNL     1       2.923  -9.703  -1.227  1.00  0.00    -0.203 F 
ATOM     55  F   UNL     1       6.439 -11.657   2.450  1.00  0.00    -0.200 F 
ATOM     56  C   UNL     1       4.218 -11.394   1.695  1.00  0.00     0.200 A 
ATOM     57  F   UNL     1       2.019 -11.124   0.879  1.00  0.00    -0.200 F 
ATOM     58  F   UNL     1       3.766 -12.143   2.711  1.00  0.00    -0.200 F 
ENDBRANCH  24  48
BRANCH  36  59
ATOM     59  C   UNL     1       9.050 -11.394  -6.023  1.00  0.00     0.064 A 
ATOM     60  C   UNL     1       8.221 -12.377  -6.584  1.00  0.00     0.173 A 
ATOM     61  C   UNL     1      10.427 -11.646  -5.958  1.00  0.00     0.173 A 
ATOM     62  F   UNL     1       6.895 -12.187  -6.645  1.00  0.00    -0.203 F 
ATOM     63  C   UNL     1       8.752 -13.576  -7.048  1.00  0.00     0.198 A 
ATOM     64  C   UNL     1      10.956 -12.837  -6.444  1.00  0.00     0.198 A 
ATOM     65  F   UNL     1      11.257 -10.735  -5.428  1.00  0.00    -0.203 F 
ATOM     66  F   UNL     1       7.939 -14.519  -7.544  1.00  0.00    -0.200 F 
ATOM     67  C   UNL     1      10.119 -13.803  -6.984  1.00  0.00     0.200 A 
ATOM     68  F   UNL     1      12.277 -13.054  -6.386  1.00  0.00    -0.200 F 
ATOM     69  F   UNL     1      10.629 -14.958  -7.433  1.00  0.00    -0.200 F 
ENDBRANCH  36  59
ENDBRANCH  10  11
ENDBRANCH   3   5
ENDBRANCH   2   3
ENDBRANCH   1   2
BRANCH   1  70
ATOM     70  C   UNL     1       2.474   0.693   1.413  1.00  0.00     0.275 C 
BRANCH  70  71
ATOM     71  O   UNL     1       2.633  -0.734   1.520  1.00  0.00    -0.458 OA
BRANCH  71  72
ATOM     72  C   UNL     1       1.548  -1.392   2.016  1.00  0.00     0.349 C 
ATOM     73  O   UNL     1       0.667  -0.875   2.679  1.00  0.00    -0.245 OA
BRANCH  72  74
ATOM     74  C   UNL     1       1.524  -2.746   1.519  1.00  0.00     0.132 A 
ATOM     75  S   UNL     1       0.087  -3.194   0.668  1.00  0.00    -0.136 S 
ATOM     76  C   UNL     1       2.424  -3.791   1.562  1.00  0.00     0.108 A 
ATOM     77  C   UNL     1       0.639  -4.782   0.406  1.00  0.00     0.067 A 
ATOM     78  C   UNL     1       1.863  -4.988   0.996  1.00  0.00     0.034 A 
BRANCH  76  79
ATOM     79  S   UNL     1       4.021  -3.822   2.250  1.00  0.00     0.245 S 
ATOM     80  O   UNL     1       3.838  -4.639   3.431  1.00  0.00    -0.207 OA
ATOM     81  O   UNL     1       4.819  -4.305   1.146  1.00  0.00    -0.207 OA
BRANCH  79  82
ATOM     82  N   UNL     1       4.577  -2.270   2.729  1.00  0.00    -0.190 NA
ATOM     83  C   UNL     1       4.219  -1.997   4.164  1.00  0.00     0.131 C 
ATOM     84  C   UNL     1       6.036  -1.940   2.423  1.00  0.00     0.102 C 
ATOM     85  C   UNL     1       4.702  -0.647   4.684  1.00  0.00     0.177 C 
ATOM     86  C   UNL     1       6.564  -0.734   3.253  1.00  0.00     0.136 C 
ATOM     87  C   UNL     1       6.302  -1.734   0.919  1.00  0.00     0.023 C 
ATOM     88  O   UNL     1       5.491   0.076   3.750  1.00  0.00    -0.375 OA
ATOM     89  C   UNL     1       7.481   0.203   2.459  1.00  0.00     0.034 C 
ATOM     90  C   UNL     1       6.196  -0.319   0.356  1.00  0.00     0.002 C 
ATOM     91  C   UNL     1       6.757   0.772   1.249  1.00  0.00     0.003 C 
ENDBRANCH  79  82
ENDBRANCH  76  79
ENDBRANCH  72  74
ENDBRANCH  71  72
ENDBRANCH  70  71
ENDBRANCH   1  70
TORSDOF 13
