REMARK SMILES O=C(OCCOC(=O)c1ccc(-c2c3nc(c(-c4c(F)c(F)c(F)c(F)c4F)c4ccc([nH]4)c(-c4c(F)c(F)c(F)c(F)c4F)c4nc(c(-c5c(F)c(F)c(F)c(F)c5F)c5ccc2[nH]5)C=C4)C=C3)cc1)c1ccc(/C=C/c2ccnc(-c3cccc([N+](=O)[O-])c3)[n+]2[O-])cc1
REMARK SMILES IDX 4 1 3 2 2 3 1 4 72 5 73 6 95 7 74 8 94 9 75 10 76 11 77 12
REMARK SMILES IDX 78 13 79 14 92 15 80 16 82 17 93 18 81 19 83 20 84 21 91 22
REMARK SMILES IDX 85 23 87 24 86 25 88 26 89 27 90 28 5 29 6 30 7 31 8 32 9 33
REMARK SMILES IDX 10 34 71 35 11 36 70 37 12 38 13 39 14 40 64 41 15 42 69 43
REMARK SMILES IDX 63 44 65 45 16 46 68 47 62 48 61 49 17 51 49 52 29 53 48 54
REMARK SMILES IDX 30 55 33 56 47 57 66 58 31 59 32 60 46 62 67 63 34 64 18 65
REMARK SMILES IDX 19 66 27 67 20 68 21 69 25 70 28 71 22 72 23 73 26 74 24 75
REMARK SMILES IDX 50 76 51 77 59 78 52 79 53 80 57 81 60 82 54 83 55 84 58 85
REMARK SMILES IDX 56 86 35 87 36 88 44 89 37 90 38 91 42 92 45 93 39 94 40 95
REMARK SMILES IDX 43 96 41 97
REMARK H PARENT 65 50 33 61
REMARK Flexibility Score: inf
ROOT
ATOM      1  C   UNL     1       4.053   1.422  -0.554  1.00  0.00     0.275 C 
ENDROOT
BRANCH   1   2
ATOM      2  O   UNL     1       2.919   0.610  -0.912  1.00  0.00    -0.458 OA
BRANCH   2   3
ATOM      3  C   UNL     1       2.759  -0.735  -0.909  1.00  0.00     0.338 C 
ATOM      4  O   UNL     1       1.773  -1.206  -1.476  1.00  0.00    -0.246 OA
BRANCH   3   5
ATOM      5  C   UNL     1       3.626  -1.684  -0.135  1.00  0.00     0.060 A 
ATOM      6  C   UNL     1       4.926  -1.441   0.304  1.00  0.00     0.016 A 
ATOM      7  C   UNL     1       3.055  -2.927   0.200  1.00  0.00     0.016 A 
ATOM      8  C   UNL     1       5.585  -2.336   1.150  1.00  0.00     0.009 A 
ATOM      9  C   UNL     1       3.729  -3.842   1.020  1.00  0.00     0.009 A 
ATOM     10  C   UNL     1       4.979  -3.526   1.550  1.00  0.00    -0.025 A 
BRANCH  10  11
ATOM     11  C   UNL     1       5.686  -4.492   2.393  1.00  0.00     0.012 C 
ATOM     12  C   UNL     1       6.654  -4.172   3.270  1.00  0.00     0.053 C 
BRANCH  12  13
ATOM     13  C   UNL     1       7.510  -5.190   3.903  1.00  0.00     0.134 A 
ATOM     14  C   UNL     1       7.862  -5.068   5.247  1.00  0.00     0.100 A 
ATOM     15  N   UNL     1       8.021  -6.250   3.134  1.00  0.00    -0.228 N 
ATOM     16  C   UNL     1       8.663  -6.046   5.793  1.00  0.00     0.259 A 
ATOM     17  C   UNL     1       8.818  -7.197   3.773  1.00  0.00     0.333 A 
ATOM     18  O   UNL     1       7.777  -6.340   1.876  1.00  0.00    -0.710 OA
ATOM     19  N   UNL     1       9.125  -7.105   5.101  1.00  0.00    -0.049 NA
BRANCH  17  20
ATOM     20  C   UNL     1       9.313  -8.343   3.012  1.00  0.00     0.076 A 
ATOM     21  C   UNL     1       8.867  -9.642   3.311  1.00  0.00     0.017 A 
ATOM     22  C   UNL     1      10.169  -8.162   1.912  1.00  0.00     0.102 A 
ATOM     23  C   UNL     1       9.233 -10.729   2.513  1.00  0.00     0.008 A 
ATOM     24  C   UNL     1      10.536  -9.254   1.116  1.00  0.00     0.270 A 
ATOM     25  C   UNL     1      10.066 -10.539   1.410  1.00  0.00     0.085 A 
BRANCH  24  26
ATOM     26  N   UNL     1      11.409  -9.043  -0.045  1.00  0.00     0.062 N 
ATOM     27  O   UNL     1      11.665 -10.023  -0.759  1.00  0.00    -0.258 OA
ATOM     28  O   UNL     1      11.853  -7.901  -0.235  1.00  0.00    -0.258 OA
ENDBRANCH  24  26
ENDBRANCH  17  20
ENDBRANCH  12  13
ENDBRANCH  10  11
ENDBRANCH   3   5
ENDBRANCH   2   3
ENDBRANCH   1   2
BRANCH   1  29
ATOM     29  C   UNL     1       4.094   1.839   0.922  1.00  0.00     0.275 C 
BRANCH  29  30
ATOM     30  O   UNL     1       3.779   0.764   1.823  1.00  0.00    -0.458 OA
BRANCH  30  31
ATOM     31  C   UNL     1       2.466   0.678   2.161  1.00  0.00     0.338 C 
ATOM     32  O   UNL     1       1.596   1.485   1.873  1.00  0.00    -0.246 OA
BRANCH  31  33
ATOM     33  C   UNL     1       2.171  -0.602   2.849  1.00  0.00     0.060 A 
ATOM     34  C   UNL     1       0.920  -1.185   2.612  1.00  0.00     0.016 A 
ATOM     35  C   UNL     1       3.062  -1.215   3.737  1.00  0.00     0.016 A 
ATOM     36  C   UNL     1       0.530  -2.332   3.306  1.00  0.00     0.010 A 
ATOM     37  C   UNL     1       2.675  -2.378   4.422  1.00  0.00     0.010 A 
ATOM     38  C   UNL     1       1.386  -2.917   4.250  1.00  0.00    -0.014 A 
BRANCH  38  39
ATOM     39  C   UNL     1       0.848  -3.968   5.162  1.00  0.00     0.031 A 
ATOM     40  C   UNL     1       0.476  -3.592   6.574  1.00  0.00     0.074 A 
ATOM     41  C   UNL     1       0.611  -5.225   4.739  1.00  0.00     0.049 A 
ATOM     42  N   UNL     1      -0.126  -4.305   7.495  1.00  0.00    -0.248 NA
ATOM     43  C   UNL     1       0.831  -2.233   7.007  1.00  0.00     0.031 C 
ATOM     44  C   UNL     1       0.903  -5.739   3.405  1.00  0.00     0.029 A 
ATOM     45  N   UNL     1       0.052  -6.297   5.396  1.00  0.00    -0.354 N 
ATOM     46  C   UNL     1      -0.234  -3.477   8.604  1.00  0.00     0.074 A 
ATOM     47  C   UNL     1       0.421  -2.232   8.266  1.00  0.00     0.031 C 
ATOM     48  C   UNL     1       0.516  -7.025   3.336  1.00  0.00     0.029 A 
ATOM     49  C   UNL     1      -0.055  -7.427   4.622  1.00  0.00     0.049 A 
ATOM     50  H   UNL     1      -0.244  -6.258   6.335  1.00  0.00     0.167 HD
ATOM     51  C   UNL     1      -0.848  -3.712   9.789  1.00  0.00     0.037 A 
ATOM     52  C   UNL     1      -0.570  -8.640   4.909  1.00  0.00     0.037 A 
ATOM     53  C   UNL     1      -1.510  -4.940  10.143  1.00  0.00     0.049 A 
ATOM     54  C   UNL     1      -1.201  -8.896   6.256  1.00  0.00     0.074 A 
ATOM     55  C   UNL     1      -2.188  -5.247  11.311  1.00  0.00     0.029 A 
ATOM     56  N   UNL     1      -1.569  -6.067   9.340  1.00  0.00    -0.354 N 
ATOM     57  N   UNL     1      -1.369  -8.078   7.266  1.00  0.00    -0.248 NA
ATOM     58  C   UNL     1      -1.735 -10.247   6.492  1.00  0.00     0.031 C 
ATOM     59  C   UNL     1      -2.607  -6.580  11.239  1.00  0.00     0.029 A 
ATOM     60  C   UNL     1      -2.247  -7.082  10.000  1.00  0.00     0.049 A 
ATOM     61  H   UNL     1      -1.187  -6.138   8.436  1.00  0.00     0.167 HD
ATOM     62  C   UNL     1      -2.074  -8.795   8.227  1.00  0.00     0.074 A 
ATOM     63  C   UNL     1      -2.302 -10.114   7.681  1.00  0.00     0.031 C 
ATOM     64  C   UNL     1      -2.500  -8.389   9.449  1.00  0.00     0.037 A 
BRANCH  51  65
ATOM     65  C   UNL     1      -0.822  -2.609  10.806  1.00  0.00     0.064 A 
ATOM     66  C   UNL     1      -1.564  -1.430  10.633  1.00  0.00     0.173 A 
ATOM     67  C   UNL     1      -0.067  -2.743  11.981  1.00  0.00     0.173 A 
ATOM     68  F   UNL     1      -2.291  -1.247   9.521  1.00  0.00    -0.203 F 
ATOM     69  C   UNL     1      -1.524  -0.413  11.583  1.00  0.00     0.198 A 
ATOM     70  C   UNL     1      -0.056  -1.738  12.944  1.00  0.00     0.198 A 
ATOM     71  F   UNL     1       0.657  -3.852  12.197  1.00  0.00    -0.203 F 
ATOM     72  F   UNL     1      -2.196   0.727  11.371  1.00  0.00    -0.200 F 
ATOM     73  C   UNL     1      -0.776  -0.571  12.740  1.00  0.00     0.200 A 
ATOM     74  F   UNL     1       0.658  -1.898  14.067  1.00  0.00    -0.200 F 
ATOM     75  F   UNL     1      -0.741   0.407  13.656  1.00  0.00    -0.200 F 
ENDBRANCH  51  65
BRANCH  52  76
ATOM     76  C   UNL     1      -0.553  -9.721   3.886  1.00  0.00     0.064 A 
ATOM     77  C   UNL     1      -1.743 -10.191   3.311  1.00  0.00     0.173 A 
ATOM     78  C   UNL     1       0.644 -10.348   3.513  1.00  0.00     0.173 A 
ATOM     79  F   UNL     1      -2.917  -9.645   3.661  1.00  0.00    -0.203 F 
ATOM     80  C   UNL     1      -1.739 -11.269   2.428  1.00  0.00     0.198 A 
ATOM     81  C   UNL     1       0.650 -11.406   2.607  1.00  0.00     0.198 A 
ATOM     82  F   UNL     1       1.808  -9.940   4.040  1.00  0.00    -0.203 F 
ATOM     83  F   UNL     1      -2.897 -11.741   1.946  1.00  0.00    -0.200 F 
ATOM     84  C   UNL     1      -0.542 -11.873   2.074  1.00  0.00     0.200 A 
ATOM     85  F   UNL     1       1.808 -11.986   2.266  1.00  0.00    -0.200 F 
ATOM     86  F   UNL     1      -0.540 -12.918   1.235  1.00  0.00    -0.200 F 
ENDBRANCH  52  76
BRANCH  64  87
ATOM     87  C   UNL     1      -3.320  -9.352  10.264  1.00  0.00     0.064 A 
ATOM     88  C   UNL     1      -2.769 -10.514  10.825  1.00  0.00     0.173 A 
ATOM     89  C   UNL     1      -4.675  -9.086  10.518  1.00  0.00     0.173 A 
ATOM     90  F   UNL     1      -1.481 -10.824  10.608  1.00  0.00    -0.203 F 
ATOM     91  C   UNL     1      -3.551 -11.390  11.576  1.00  0.00     0.198 A 
ATOM     92  C   UNL     1      -5.445  -9.945  11.299  1.00  0.00     0.198 A 
ATOM     93  F   UNL     1      -5.254  -7.984  10.018  1.00  0.00    -0.203 F 
ATOM     94  F   UNL     1      -3.015 -12.522  12.053  1.00  0.00    -0.200 F 
ATOM     95  C   UNL     1      -4.885 -11.102  11.818  1.00  0.00     0.200 A 
ATOM     96  F   UNL     1      -6.730  -9.654  11.546  1.00  0.00    -0.200 F 
ATOM     97  F   UNL     1      -5.633 -11.942  12.546  1.00  0.00    -0.200 F 
ENDBRANCH  64  87
ENDBRANCH  38  39
ENDBRANCH  31  33
ENDBRANCH  30  31
ENDBRANCH  29  30
ENDBRANCH   1  29
TORSDOF 15
