REMARK SMILES Cc1ccc(-n2nc(C(=O)OCCOC(=O)c3ccc(-c4c5nc(c(-c6c(F)c(F)c(F)c(F)c6F)c6ccc([nH]6)c(-c6c(F)c(F)c(F)c(F)c6F)c6nc(c(-c7c(F)c(F)c(F)c(F)c7F)c7ccc4[nH]7)C=C6)C=C5)cc3)c3c2CCC3)c(F)c1
REMARK SMILES IDX 13 1 12 2 11 3 9 4 10 5 8 6 6 7 7 8 81 9 80 10 82 11 84 12
REMARK SMILES IDX 83 13 5 14 1 15 2 16 3 17 87 18 4 19 85 20 86 21 14 22 15 23
REMARK SMILES IDX 16 24 17 25 18 26 79 27 19 28 78 29 20 30 21 31 22 32 72 33
REMARK SMILES IDX 23 34 77 35 71 36 73 37 24 38 76 39 70 40 69 41 25 43 57 44
REMARK SMILES IDX 37 45 56 46 38 47 41 48 55 49 74 50 39 51 40 52 54 54 75 55
REMARK SMILES IDX 42 56 26 57 27 58 35 59 28 60 29 61 33 62 36 63 30 64 31 65
REMARK SMILES IDX 34 66 32 67 58 68 59 69 67 70 60 71 61 72 65 73 68 74 62 75
REMARK SMILES IDX 63 76 66 77 64 78 43 79 44 80 52 81 45 82 46 83 50 84 53 85
REMARK SMILES IDX 47 86 48 87 51 88 49 89
REMARK H PARENT 73 42 41 53
REMARK Flexibility Score: inf
ROOT
ATOM      1  C   UNL     1      -7.266  -3.452  -3.061  1.00  0.00     0.275 C 
ENDROOT
BRANCH   1   2
ATOM      2  C   UNL     1      -6.987  -2.076  -2.451  1.00  0.00     0.275 C 
BRANCH   2   3
ATOM      3  O   UNL     1      -5.690  -1.984  -1.827  1.00  0.00    -0.457 OA
BRANCH   3   4
ATOM      4  C   UNL     1      -5.597  -2.279  -0.487  1.00  0.00     0.359 C 
ATOM      5  O   UNL     1      -6.545  -2.613   0.208  1.00  0.00    -0.244 OA
BRANCH   4   6
ATOM      6  C   UNL     1      -4.216  -2.209   0.025  1.00  0.00     0.174 A 
ATOM      7  N   UNL     1      -2.157  -1.567   0.247  1.00  0.00    -0.234 N 
ATOM      8  N   UNL     1      -3.302  -1.325  -0.449  1.00  0.00    -0.160 NA
ATOM      9  C   UNL     1      -2.364  -2.524   1.187  1.00  0.00     0.048 A 
ATOM     10  C   UNL     1      -3.650  -2.951   1.081  1.00  0.00     0.009 A 
ATOM     11  C   UNL     1      -1.607  -3.066   2.327  1.00  0.00     0.057 C 
ATOM     12  C   UNL     1      -3.953  -3.977   2.089  1.00  0.00     0.040 C 
ATOM     13  C   UNL     1      -2.597  -4.148   2.854  1.00  0.00     0.011 C 
BRANCH   7  14
ATOM     14  C   UNL     1      -0.959  -0.871   0.020  1.00  0.00     0.101 A 
ATOM     15  C   UNL     1       2.724   1.332  -0.093  1.00  0.00     0.044 C 
ATOM     16  C   UNL     1       1.447   0.548  -0.125  1.00  0.00    -0.048 A 
ATOM     17  C   UNL     1       1.461  -0.839   0.051  1.00  0.00     0.006 A 
ATOM     18  C   UNL     1       0.219   1.209  -0.270  1.00  0.00     0.045 A 
ATOM     19  C   UNL     1       0.264  -1.548   0.129  1.00  0.00     0.032 A 
ATOM     20  C   UNL     1      -0.979   0.499  -0.217  1.00  0.00     0.149 A 
ATOM     21  F   UNL     1      -2.126   1.191  -0.274  1.00  0.00    -0.205 F 
ENDBRANCH   7  14
ENDBRANCH   4   6
ENDBRANCH   3   4
ENDBRANCH   2   3
ENDBRANCH   1   2
BRANCH   1  22
ATOM     22  O   UNL     1      -7.749  -4.354  -2.060  1.00  0.00    -0.458 OA
BRANCH  22  23
ATOM     23  C   UNL     1      -6.749  -4.975  -1.410  1.00  0.00     0.338 C 
ATOM     24  O   UNL     1      -5.547  -4.860  -1.612  1.00  0.00    -0.246 OA
BRANCH  23  25
ATOM     25  C   UNL     1      -7.281  -5.978  -0.475  1.00  0.00     0.060 A 
ATOM     26  C   UNL     1      -6.415  -6.181   0.604  1.00  0.00     0.016 A 
ATOM     27  C   UNL     1      -7.848  -7.048  -1.161  1.00  0.00     0.016 A 
ATOM     28  C   UNL     1      -5.731  -7.378   0.675  1.00  0.00     0.010 A 
ATOM     29  C   UNL     1      -7.223  -8.266  -1.044  1.00  0.00     0.010 A 
ATOM     30  C   UNL     1      -6.094  -8.381  -0.219  1.00  0.00    -0.014 A 
BRANCH  30  31
ATOM     31  C   UNL     1      -5.405  -9.649  -0.280  1.00  0.00     0.031 A 
ATOM     32  C   UNL     1      -5.502 -10.547   0.878  1.00  0.00     0.074 A 
ATOM     33  C   UNL     1      -4.795 -10.004  -1.428  1.00  0.00     0.049 A 
ATOM     34  N   UNL     1      -4.699 -11.522   1.124  1.00  0.00    -0.248 NA
ATOM     35  C   UNL     1      -6.484 -10.324   1.938  1.00  0.00     0.031 C 
ATOM     36  C   UNL     1      -4.460 -11.350  -1.863  1.00  0.00     0.029 A 
ATOM     37  N   UNL     1      -4.232  -9.162  -2.398  1.00  0.00    -0.354 N 
ATOM     38  C   UNL     1      -5.279 -12.258   2.133  1.00  0.00     0.074 A 
ATOM     39  C   UNL     1      -6.228 -11.362   2.736  1.00  0.00     0.031 C 
ATOM     40  C   UNL     1      -3.579 -11.276  -2.872  1.00  0.00     0.029 A 
ATOM     41  C   UNL     1      -3.170  -9.885  -2.978  1.00  0.00     0.049 A 
ATOM     42  H   UNL     1      -4.521  -8.250  -2.629  1.00  0.00     0.167 HD
ATOM     43  C   UNL     1      -5.055 -13.604   2.160  1.00  0.00     0.037 A 
ATOM     44  C   UNL     1      -1.877  -9.463  -2.851  1.00  0.00     0.037 A 
ATOM     45  C   UNL     1      -4.023 -13.959   1.181  1.00  0.00     0.049 A 
ATOM     46  C   UNL     1      -1.005 -10.462  -2.128  1.00  0.00     0.074 A 
ATOM     47  C   UNL     1      -4.101 -14.508  -0.089  1.00  0.00     0.029 A 
ATOM     48  N   UNL     1      -2.735 -13.447   1.313  1.00  0.00    -0.354 N 
ATOM     49  N   UNL     1      -1.454 -11.301  -1.234  1.00  0.00    -0.248 NA
ATOM     50  C   UNL     1       0.422 -10.622  -2.383  1.00  0.00     0.031 C 
ATOM     51  C   UNL     1      -2.869 -14.268  -0.746  1.00  0.00     0.029 A 
ATOM     52  C   UNL     1      -2.033 -13.601   0.134  1.00  0.00     0.049 A 
ATOM     53  H   UNL     1      -2.376 -13.034   2.132  1.00  0.00     0.167 HD
ATOM     54  C   UNL     1      -0.438 -12.136  -0.845  1.00  0.00     0.074 A 
ATOM     55  C   UNL     1       0.721 -11.657  -1.577  1.00  0.00     0.031 C 
ATOM     56  C   UNL     1      -0.645 -13.178   0.016  1.00  0.00     0.037 A 
BRANCH  43  57
ATOM     57  C   UNL     1      -5.997 -14.637   2.771  1.00  0.00     0.064 A 
ATOM     58  C   UNL     1      -5.870 -15.999   2.409  1.00  0.00     0.173 A 
ATOM     59  C   UNL     1      -7.100 -14.372   3.609  1.00  0.00     0.173 A 
ATOM     60  F   UNL     1      -4.819 -16.441   1.706  1.00  0.00    -0.203 F 
ATOM     61  C   UNL     1      -6.819 -16.969   2.754  1.00  0.00     0.198 A 
ATOM     62  C   UNL     1      -8.053 -15.338   3.948  1.00  0.00     0.198 A 
ATOM     63  F   UNL     1      -7.304 -13.183   4.174  1.00  0.00    -0.203 F 
ATOM     64  F   UNL     1      -6.659 -18.233   2.338  1.00  0.00    -0.200 F 
ATOM     65  C   UNL     1      -7.925 -16.633   3.504  1.00  0.00     0.200 A 
ATOM     66  F   UNL     1      -9.102 -14.991   4.709  1.00  0.00    -0.200 F 
ATOM     67  F   UNL     1      -8.847 -17.552   3.817  1.00  0.00    -0.200 F 
ENDBRANCH  43  57
BRANCH  44  68
ATOM     68  C   UNL     1      -1.739  -7.985  -2.784  1.00  0.00     0.064 A 
ATOM     69  C   UNL     1      -2.100  -7.230  -3.917  1.00  0.00     0.173 A 
ATOM     70  C   UNL     1      -1.606  -7.301  -1.571  1.00  0.00     0.173 A 
ATOM     71  F   UNL     1      -2.235  -7.836  -5.109  1.00  0.00    -0.203 F 
ATOM     72  C   UNL     1      -2.409  -5.875  -3.822  1.00  0.00     0.198 A 
ATOM     73  C   UNL     1      -1.906  -5.939  -1.480  1.00  0.00     0.198 A 
ATOM     74  F   UNL     1      -1.252  -7.958  -0.457  1.00  0.00    -0.203 F 
ATOM     75  F   UNL     1      -2.826  -5.208  -4.909  1.00  0.00    -0.200 F 
ATOM     76  C   UNL     1      -2.330  -5.233  -2.598  1.00  0.00     0.200 A 
ATOM     77  F   UNL     1      -1.813  -5.319  -0.295  1.00  0.00    -0.200 F 
ATOM     78  F   UNL     1      -2.659  -3.938  -2.499  1.00  0.00    -0.200 F 
ENDBRANCH  44  68
BRANCH  56  79
ATOM     79  C   UNL     1       0.415 -14.007   0.707  1.00  0.00     0.064 A 
ATOM     80  C   UNL     1       1.727 -13.567   0.945  1.00  0.00     0.173 A 
ATOM     81  C   UNL     1       0.084 -15.257   1.292  1.00  0.00     0.173 A 
ATOM     82  F   UNL     1       2.134 -12.347   0.573  1.00  0.00    -0.203 F 
ATOM     83  C   UNL     1       2.657 -14.350   1.637  1.00  0.00     0.198 A 
ATOM     84  C   UNL     1       0.995 -16.005   2.035  1.00  0.00     0.198 A 
ATOM     85  F   UNL     1      -1.145 -15.784   1.191  1.00  0.00    -0.203 F 
ATOM     86  F   UNL     1       3.911 -13.905   1.791  1.00  0.00    -0.200 F 
ATOM     87  C   UNL     1       2.289 -15.563   2.189  1.00  0.00     0.200 A 
ATOM     88  F   UNL     1       0.600 -17.148   2.616  1.00  0.00    -0.200 F 
ATOM     89  F   UNL     1       3.172 -16.288   2.887  1.00  0.00    -0.200 F 
ENDBRANCH  56  79
ENDBRANCH  30  31
ENDBRANCH  23  25
ENDBRANCH  22  23
ENDBRANCH   1  22
TORSDOF 12
