REMARK SMILES CCc1cc(OCCC(=O)OCCOC(=O)c2ccc(-c3c4nc(c(-c5c(F)c(F)c(F)c(F)c5F)c5ccc([nH]5)c(-c5c(F)c(F)c(F)c(F)c5F)c5nc(c(-c6c(F)c(F)c(F)c(F)c6F)c6ccc3[nH]6)C=C5)C=C4)cc2)nc(-c2cnccn2)n1
REMARK SMILES IDX 12 1 11 2 9 3 10 4 8 5 7 6 6 7 5 8 3 9 4 10 88 11 81 12
REMARK SMILES IDX 80 13 2 14 1 15 82 16 83 17 87 18 84 19 86 20 85 21 13 22
REMARK SMILES IDX 14 23 15 24 16 25 17 26 18 27 79 28 19 29 78 30 20 31 21 32
REMARK SMILES IDX 22 33 72 34 23 35 77 36 71 37 73 38 24 39 76 40 70 41 69 42
REMARK SMILES IDX 25 44 57 45 37 46 56 47 38 48 41 49 55 50 74 51 39 52 40 53
REMARK SMILES IDX 54 55 75 56 42 57 26 58 27 59 35 60 28 61 29 62 33 63 36 64
REMARK SMILES IDX 30 65 31 66 34 67 32 68 58 69 59 70 67 71 60 72 61 73 65 74
REMARK SMILES IDX 68 75 62 76 63 77 66 78 64 79 43 80 44 81 52 82 45 83 46 84
REMARK SMILES IDX 50 85 53 86 47 87 48 88 51 89 49 90
REMARK H PARENT 73 43 41 54
REMARK Flexibility Score: inf
ROOT
ATOM      1  C   UNL     1      -1.099   2.381  -2.306  1.00  0.00     0.274 C 
ENDROOT
BRANCH   1   2
ATOM      2  O   UNL     1      -0.289   2.339  -3.497  1.00  0.00    -0.462 OA
BRANCH   2   3
ATOM      3  C   UNL     1      -0.134   3.481  -4.202  1.00  0.00     0.309 C 
ATOM      4  O   UNL     1      -0.685   4.543  -3.938  1.00  0.00    -0.252 OA
BRANCH   3   5
ATOM      5  C   UNL     1       0.773   3.299  -5.395  1.00  0.00     0.164 C 
BRANCH   5   6
ATOM      6  C   UNL     1       2.063   2.527  -5.117  1.00  0.00     0.243 C 
BRANCH   6   7
ATOM      7  O   UNL     1       2.005   1.166  -5.546  1.00  0.00    -0.477 OA
BRANCH   7   8
ATOM      8  C   UNL     1       1.734   0.140  -4.689  1.00  0.00     0.217 A 
ATOM      9  C   UNL     1       1.087  -0.876  -2.653  1.00  0.00     0.048 A 
ATOM     10  C   UNL     1       1.593   0.229  -3.317  1.00  0.00     0.092 A 
ATOM     11  N   UNL     1       0.885  -2.024  -3.293  1.00  0.00    -0.231 NA
ATOM     12  C   UNL     1       1.152  -2.062  -4.607  1.00  0.00     0.183 A 
ATOM     13  N   UNL     1       1.569  -1.022  -5.345  1.00  0.00    -0.192 NA
BRANCH   9  14
ATOM     14  C   UNL     1       0.586  -0.881  -1.236  1.00  0.00     0.053 C 
ATOM     15  C   UNL     1       1.643  -0.810  -0.153  1.00  0.00     0.011 C 
ENDBRANCH   9  14
BRANCH  12  16
ATOM     16  C   UNL     1       1.101  -3.401  -5.173  1.00  0.00     0.126 A 
ATOM     17  C   UNL     1       2.277  -4.057  -5.516  1.00  0.00     0.143 A 
ATOM     18  N   UNL     1      -0.084  -4.075  -5.072  1.00  0.00    -0.250 NA
ATOM     19  N   UNL     1       2.338  -5.395  -5.729  1.00  0.00    -0.261 NA
ATOM     20  C   UNL     1      -0.021  -5.406  -5.272  1.00  0.00     0.132 A 
ATOM     21  C   UNL     1       1.165  -6.052  -5.575  1.00  0.00     0.131 A 
ENDBRANCH  12  16
ENDBRANCH   7   8
ENDBRANCH   6   7
ENDBRANCH   5   6
ENDBRANCH   3   5
ENDBRANCH   2   3
ENDBRANCH   1   2
BRANCH   1  22
ATOM     22  C   UNL     1      -0.226   2.489  -1.058  1.00  0.00     0.275 C 
BRANCH  22  23
ATOM     23  O   UNL     1       0.317   3.796  -0.950  1.00  0.00    -0.458 OA
BRANCH  23  24
ATOM     24  C   UNL     1       1.594   3.944  -1.372  1.00  0.00     0.338 C 
ATOM     25  O   UNL     1       2.380   3.139  -1.804  1.00  0.00    -0.246 OA
BRANCH  24  26
ATOM     26  C   UNL     1       1.829   5.365  -1.232  1.00  0.00     0.060 A 
ATOM     27  C   UNL     1       1.695   6.183  -2.354  1.00  0.00     0.016 A 
ATOM     28  C   UNL     1       1.976   5.850   0.066  1.00  0.00     0.016 A 
ATOM     29  C   UNL     1       1.672   7.548  -2.164  1.00  0.00     0.010 A 
ATOM     30  C   UNL     1       1.923   7.210   0.256  1.00  0.00     0.010 A 
ATOM     31  C   UNL     1       1.771   8.048  -0.860  1.00  0.00    -0.014 A 
BRANCH  31  32
ATOM     32  C   UNL     1       1.796   9.491  -0.643  1.00  0.00     0.031 A 
ATOM     33  C   UNL     1       3.117  10.111  -0.343  1.00  0.00     0.074 A 
ATOM     34  C   UNL     1       0.635  10.161  -0.686  1.00  0.00     0.049 A 
ATOM     35  N   UNL     1       3.396  11.344  -0.036  1.00  0.00    -0.248 NA
ATOM     36  C   UNL     1       4.285   9.210  -0.367  1.00  0.00     0.031 C 
ATOM     37  C   UNL     1      -0.673   9.563  -0.969  1.00  0.00     0.029 A 
ATOM     38  N   UNL     1       0.366  11.482  -0.485  1.00  0.00    -0.354 N 
ATOM     39  C   UNL     1       4.766  11.365   0.182  1.00  0.00     0.074 A 
ATOM     40  C   UNL     1       5.257  10.018   0.021  1.00  0.00     0.031 C 
ATOM     41  C   UNL     1      -1.609  10.525  -0.936  1.00  0.00     0.029 A 
ATOM     42  C   UNL     1      -0.967  11.787  -0.594  1.00  0.00     0.049 A 
ATOM     43  H   UNL     1       1.059  12.150  -0.283  1.00  0.00     0.167 HD
ATOM     44  C   UNL     1       5.530  12.438   0.479  1.00  0.00     0.037 A 
ATOM     45  C   UNL     1      -1.577  12.972  -0.418  1.00  0.00     0.037 A 
ATOM     46  C   UNL     1       4.976  13.755   0.631  1.00  0.00     0.049 A 
ATOM     47  C   UNL     1      -0.700  14.147  -0.081  1.00  0.00     0.074 A 
ATOM     48  C   UNL     1       5.617  14.941   0.924  1.00  0.00     0.029 A 
ATOM     49  N   UNL     1       3.620  14.047   0.501  1.00  0.00    -0.354 N 
ATOM     50  N   UNL     1       0.602  14.180   0.097  1.00  0.00    -0.248 NA
ATOM     51  C   UNL     1      -1.363  15.443   0.072  1.00  0.00     0.031 C 
ATOM     52  C   UNL     1       4.644  15.942   1.015  1.00  0.00     0.029 A 
ATOM     53  C   UNL     1       3.401  15.394   0.723  1.00  0.00     0.049 A 
ATOM     54  H   UNL     1       2.920  13.391   0.281  1.00  0.00     0.167 HD
ATOM     55  C   UNL     1       0.920  15.501   0.367  1.00  0.00     0.074 A 
ATOM     56  C   UNL     1      -0.329  16.240   0.302  1.00  0.00     0.031 C 
ATOM     57  C   UNL     1       2.124  16.062   0.648  1.00  0.00     0.037 A 
BRANCH  44  58
ATOM     58  C   UNL     1       6.998  12.204   0.679  1.00  0.00     0.064 A 
ATOM     59  C   UNL     1       7.837  11.814  -0.378  1.00  0.00     0.173 A 
ATOM     60  C   UNL     1       7.572  12.335   1.952  1.00  0.00     0.173 A 
ATOM     61  F   UNL     1       7.336  11.641  -1.611  1.00  0.00    -0.203 F 
ATOM     62  C   UNL     1       9.185  11.534  -0.161  1.00  0.00     0.198 A 
ATOM     63  C   UNL     1       8.926  12.086   2.159  1.00  0.00     0.198 A 
ATOM     64  F   UNL     1       6.815  12.690   3.001  1.00  0.00    -0.203 F 
ATOM     65  F   UNL     1       9.949  11.100  -1.173  1.00  0.00    -0.200 F 
ATOM     66  C   UNL     1       9.730  11.677   1.105  1.00  0.00     0.200 A 
ATOM     67  F   UNL     1       9.452  12.226   3.384  1.00  0.00    -0.200 F 
ATOM     68  F   UNL     1      11.025  11.405   1.314  1.00  0.00    -0.200 F 
ENDBRANCH  44  58
BRANCH  45  69
ATOM     69  C   UNL     1      -3.049  13.087  -0.584  1.00  0.00     0.064 A 
ATOM     70  C   UNL     1      -3.603  13.806  -1.652  1.00  0.00     0.173 A 
ATOM     71  C   UNL     1      -3.936  12.449   0.297  1.00  0.00     0.173 A 
ATOM     72  F   UNL     1      -2.800  14.441  -2.519  1.00  0.00    -0.203 F 
ATOM     73  C   UNL     1      -4.984  13.898  -1.822  1.00  0.00     0.198 A 
ATOM     74  C   UNL     1      -5.316  12.517   0.109  1.00  0.00     0.198 A 
ATOM     75  F   UNL     1      -3.462  11.736   1.329  1.00  0.00    -0.203 F 
ATOM     76  F   UNL     1      -5.485  14.622  -2.832  1.00  0.00    -0.200 F 
ATOM     77  C   UNL     1      -5.839  13.248  -0.946  1.00  0.00     0.200 A 
ATOM     78  F   UNL     1      -6.137  11.870   0.947  1.00  0.00    -0.200 F 
ATOM     79  F   UNL     1      -7.166  13.327  -1.117  1.00  0.00    -0.200 F 
ENDBRANCH  45  69
BRANCH  57  80
ATOM     80  C   UNL     1       2.124  17.541   0.884  1.00  0.00     0.064 A 
ATOM     81  C   UNL     1       1.588  18.094   2.056  1.00  0.00     0.173 A 
ATOM     82  C   UNL     1       2.700  18.406  -0.057  1.00  0.00     0.173 A 
ATOM     83  F   UNL     1       1.015  17.303   2.976  1.00  0.00    -0.203 F 
ATOM     84  C   UNL     1       1.600  19.468   2.261  1.00  0.00     0.198 A 
ATOM     85  C   UNL     1       2.742  19.776   0.169  1.00  0.00     0.198 A 
ATOM     86  F   UNL     1       3.233  17.918  -1.187  1.00  0.00    -0.203 F 
ATOM     87  F   UNL     1       1.033  19.983   3.361  1.00  0.00    -0.200 F 
ATOM     88  C   UNL     1       2.183  20.307   1.322  1.00  0.00     0.200 A 
ATOM     89  F   UNL     1       3.321  20.583  -0.730  1.00  0.00    -0.200 F 
ATOM     90  F   UNL     1       2.200  21.631   1.526  1.00  0.00    -0.200 F 
ENDBRANCH  57  80
ENDBRANCH  31  32
ENDBRANCH  24  26
ENDBRANCH  23  24
ENDBRANCH  22  23
ENDBRANCH   1  22
TORSDOF 16
