REMARK SMILES CSc1ncccc1C(=O)N1CSC[C@H]1C(=O)OCCOC(=O)c1ccc(-c2c3nc(c(-c4c(F)c(F)c(F)c(F)c4F)c4ccc([nH]4)c(-c4c(F)c(F)c(F)c(F)c4F)c4nc(c(-c5c(F)c(F)c(F)c(F)c5F)c5ccc2[nH]5)C=C4)C=C3)cc1
REMARK SMILES IDX 19 1 18 2 16 3 17 4 15 5 11 6 12 7 13 8 14 9 9 10 10 11 8 12
REMARK SMILES IDX 3 13 4 14 5 15 7 16 6 17 2 18 1 19 20 20 21 21 22 22 23 23
REMARK SMILES IDX 24 24 25 25 86 26 26 27 85 28 27 29 28 30 29 31 79 32 30 33
REMARK SMILES IDX 84 34 78 35 80 36 31 37 83 38 77 39 76 40 32 42 64 43 44 44
REMARK SMILES IDX 63 45 45 46 48 47 62 48 81 49 46 50 47 51 61 53 82 54 49 55
REMARK SMILES IDX 33 56 34 57 42 58 35 59 36 60 40 61 43 62 37 63 38 64 41 65
REMARK SMILES IDX 39 66 65 67 66 68 74 69 67 70 68 71 72 72 75 73 69 74 70 75
REMARK SMILES IDX 73 76 71 77 50 78 51 79 59 80 52 81 53 82 57 83 60 84 54 85
REMARK SMILES IDX 55 86 58 87 56 88
REMARK H PARENT 80 41 48 52
REMARK Flexibility Score: inf
ROOT
ATOM      1  C   UNL     1      -0.811  -8.093   1.740  1.00  0.00     0.274 C 
ENDROOT
BRANCH   1   2
ATOM      2  O   UNL     1      -0.246  -7.477   0.565  1.00  0.00    -0.461 OA
BRANCH   2   3
ATOM      3  C   UNL     1      -0.995  -7.528  -0.566  1.00  0.00     0.329 C 
ATOM      4  O   UNL     1      -2.115  -8.027  -0.636  1.00  0.00    -0.250 OA
BRANCH   3   5
ATOM      5  C   UNL     1      -0.300  -6.906  -1.799  1.00  0.00     0.206 C 
ATOM      6  N   UNL     1       1.037  -6.353  -1.590  1.00  0.00    -0.315 N 
ATOM      7  C   UNL     1       2.063  -7.357  -1.489  1.00  0.00     0.191 C 
ATOM      8  S   UNL     1       1.508  -8.713  -2.562  1.00  0.00    -0.138 SA
ATOM      9  C   UNL     1      -0.153  -8.014  -2.840  1.00  0.00     0.108 C 
BRANCH   6  10
ATOM     10  C   UNL     1       1.313  -5.067  -1.159  1.00  0.00     0.258 C 
ATOM     11  O   UNL     1       2.000  -4.857  -0.165  1.00  0.00    -0.269 OA
BRANCH  10  12
ATOM     12  C   UNL     1       1.098  -3.968  -2.147  1.00  0.00     0.072 A 
ATOM     13  C   UNL     1       0.862  -2.636  -1.790  1.00  0.00     0.108 A 
ATOM     14  N   UNL     1       0.932  -1.623  -2.702  1.00  0.00    -0.249 NA
ATOM     15  C   UNL     1       1.275  -1.919  -3.972  1.00  0.00     0.112 A 
ATOM     16  C   UNL     1       1.409  -4.239  -3.492  1.00  0.00     0.018 A 
ATOM     17  C   UNL     1       1.505  -3.204  -4.416  1.00  0.00     0.021 A 
BRANCH  13  18
ATOM     18  S   UNL     1       0.332  -2.122  -0.165  1.00  0.00    -0.109 SA
ATOM     19  C   UNL     1       1.023  -0.446  -0.112  1.00  0.00     0.092 C 
ENDBRANCH  13  18
ENDBRANCH  10  12
ENDBRANCH   6  10
ENDBRANCH   3   5
ENDBRANCH   2   3
ENDBRANCH   1   2
BRANCH   1  20
ATOM     20  C   UNL     1      -1.476  -7.068   2.656  1.00  0.00     0.275 C 
BRANCH  20  21
ATOM     21  O   UNL     1      -2.582  -6.427   1.994  1.00  0.00    -0.458 OA
BRANCH  21  22
ATOM     22  C   UNL     1      -2.314  -5.188   1.526  1.00  0.00     0.338 C 
ATOM     23  O   UNL     1      -1.278  -4.560   1.632  1.00  0.00    -0.246 OA
BRANCH  22  24
ATOM     24  C   UNL     1      -3.470  -4.676   0.784  1.00  0.00     0.060 A 
ATOM     25  C   UNL     1      -3.580  -4.958  -0.579  1.00  0.00     0.016 A 
ATOM     26  C   UNL     1      -4.370  -3.814   1.409  1.00  0.00     0.016 A 
ATOM     27  C   UNL     1      -4.584  -4.362  -1.333  1.00  0.00     0.010 A 
ATOM     28  C   UNL     1      -5.401  -3.245   0.659  1.00  0.00     0.010 A 
ATOM     29  C   UNL     1      -5.505  -3.505  -0.719  1.00  0.00    -0.014 A 
BRANCH  29  30
ATOM     30  C   UNL     1      -6.575  -2.874  -1.523  1.00  0.00     0.031 A 
ATOM     31  C   UNL     1      -6.535  -1.403  -1.809  1.00  0.00     0.074 A 
ATOM     32  C   UNL     1      -7.580  -3.634  -1.996  1.00  0.00     0.049 A 
ATOM     33  N   UNL     1      -7.437  -0.648  -2.383  1.00  0.00    -0.248 NA
ATOM     34  C   UNL     1      -5.321  -0.683  -1.394  1.00  0.00     0.031 C 
ATOM     35  C   UNL     1      -7.698  -5.081  -1.817  1.00  0.00     0.029 A 
ATOM     36  N   UNL     1      -8.695  -3.293  -2.717  1.00  0.00    -0.354 N 
ATOM     37  C   UNL     1      -6.915   0.638  -2.372  1.00  0.00     0.074 A 
ATOM     38  C   UNL     1      -5.619   0.564  -1.732  1.00  0.00     0.031 C 
ATOM     39  C   UNL     1      -8.821  -5.506  -2.415  1.00  0.00     0.029 A 
ATOM     40  C   UNL     1      -9.528  -4.354  -2.967  1.00  0.00     0.049 A 
ATOM     41  H   UNL     1      -8.880  -2.376  -3.025  1.00  0.00     0.167 HD
ATOM     42  C   UNL     1      -7.474   1.773  -2.854  1.00  0.00     0.037 A 
ATOM     43  C   UNL     1     -10.744  -4.388  -3.543  1.00  0.00     0.037 A 
ATOM     44  C   UNL     1      -8.755   1.833  -3.509  1.00  0.00     0.049 A 
ATOM     45  C   UNL     1     -11.363  -3.106  -4.021  1.00  0.00     0.074 A 
ATOM     46  C   UNL     1      -9.399   2.932  -4.050  1.00  0.00     0.029 A 
ATOM     47  N   UNL     1      -9.586   0.741  -3.715  1.00  0.00    -0.354 N 
ATOM     48  N   UNL     1     -10.874  -1.891  -3.987  1.00  0.00    -0.248 NA
ATOM     49  C   UNL     1     -12.709  -3.199  -4.602  1.00  0.00     0.031 C 
ATOM     50  C   UNL     1     -10.636   2.511  -4.553  1.00  0.00     0.029 A 
ATOM     51  C   UNL     1     -10.746   1.144  -4.357  1.00  0.00     0.049 A 
ATOM     52  H   UNL     1      -9.381  -0.183  -3.444  1.00  0.00     0.167 HD
ATOM     53  C   UNL     1     -11.846  -1.074  -4.546  1.00  0.00     0.074 A 
ATOM     54  C   UNL     1     -12.946  -1.936  -4.930  1.00  0.00     0.031 C 
ATOM     55  C   UNL     1     -11.830   0.270  -4.722  1.00  0.00     0.037 A 
BRANCH  42  56
ATOM     56  C   UNL     1      -6.716   3.052  -2.664  1.00  0.00     0.064 A 
ATOM     57  C   UNL     1      -5.590   3.364  -3.439  1.00  0.00     0.173 A 
ATOM     58  C   UNL     1      -7.149   3.996  -1.720  1.00  0.00     0.173 A 
ATOM     59  F   UNL     1      -5.132   2.489  -4.346  1.00  0.00    -0.203 F 
ATOM     60  C   UNL     1      -4.915   4.570  -3.265  1.00  0.00     0.198 A 
ATOM     61  C   UNL     1      -6.484   5.209  -1.564  1.00  0.00     0.198 A 
ATOM     62  F   UNL     1      -8.223   3.746  -0.957  1.00  0.00    -0.203 F 
ATOM     63  F   UNL     1      -3.823   4.836  -3.995  1.00  0.00    -0.200 F 
ATOM     64  C   UNL     1      -5.365   5.493  -2.333  1.00  0.00     0.200 A 
ATOM     65  F   UNL     1      -6.926   6.104  -0.669  1.00  0.00    -0.200 F 
ATOM     66  F   UNL     1      -4.718   6.656  -2.172  1.00  0.00    -0.200 F 
ENDBRANCH  42  56
BRANCH  43  67
ATOM     67  C   UNL     1     -11.462  -5.681  -3.664  1.00  0.00     0.064 A 
ATOM     68  C   UNL     1     -11.632  -6.297  -4.910  1.00  0.00     0.173 A 
ATOM     69  C   UNL     1     -11.976  -6.335  -2.534  1.00  0.00     0.173 A 
ATOM     70  F   UNL     1     -11.178  -5.696  -6.020  1.00  0.00    -0.203 F 
ATOM     71  C   UNL     1     -12.292  -7.518  -5.023  1.00  0.00     0.198 A 
ATOM     72  C   UNL     1     -12.614  -7.568  -2.645  1.00  0.00     0.198 A 
ATOM     73  F   UNL     1     -11.838  -5.784  -1.319  1.00  0.00    -0.203 F 
ATOM     74  F   UNL     1     -12.468  -8.073  -6.230  1.00  0.00    -0.200 F 
ATOM     75  C   UNL     1     -12.775  -8.156  -3.890  1.00  0.00     0.200 A 
ATOM     76  F   UNL     1     -13.068  -8.186  -1.546  1.00  0.00    -0.200 F 
ATOM     77  F   UNL     1     -13.400  -9.336  -3.998  1.00  0.00    -0.200 F 
ENDBRANCH  43  67
BRANCH  55  78
ATOM     78  C   UNL     1     -13.036   0.882  -5.367  1.00  0.00     0.064 A 
ATOM     79  C   UNL     1     -14.232   1.056  -4.656  1.00  0.00     0.173 A 
ATOM     80  C   UNL     1     -12.985   1.324  -6.696  1.00  0.00     0.173 A 
ATOM     81  F   UNL     1     -14.332   0.632  -3.388  1.00  0.00    -0.203 F 
ATOM     82  C   UNL     1     -15.343   1.635  -5.263  1.00  0.00     0.198 A 
ATOM     83  C   UNL     1     -14.091   1.922  -7.292  1.00  0.00     0.198 A 
ATOM     84  F   UNL     1     -11.861   1.181  -7.414  1.00  0.00    -0.203 F 
ATOM     85  F   UNL     1     -16.490   1.756  -4.579  1.00  0.00    -0.200 F 
ATOM     86  C   UNL     1     -15.271   2.072  -6.577  1.00  0.00     0.200 A 
ATOM     87  F   UNL     1     -14.018   2.350  -8.560  1.00  0.00    -0.200 F 
ATOM     88  F   UNL     1     -16.341   2.631  -7.159  1.00  0.00    -0.200 F 
ENDBRANCH  55  78
ENDBRANCH  29  30
ENDBRANCH  22  24
ENDBRANCH  21  22
ENDBRANCH  20  21
ENDBRANCH   1  20
TORSDOF 14
