REMARK SMILES Cc1nn(-c2cccc(C(=O)OCCOC(=O)c3ccc(-c4c5nc(c(-c6c(F)c(F)c(F)c(F)c6F)c6ccc([nH]6)c(-c6c(F)c(F)c(F)c(F)c6F)c6nc(c(-c7c(F)c(F)c(F)c(F)c7F)c7ccc4[nH]7)C=C6)C=C5)cc3)c2)c(C)c1Cl
REMARK SMILES IDX 14 1 13 2 12 3 10 4 11 5 9 6 5 7 6 8 81 9 7 10 8 11 4 12
REMARK SMILES IDX 1 13 2 14 3 15 84 16 82 17 85 18 83 19 15 20 16 21 17 22
REMARK SMILES IDX 18 23 19 24 80 25 20 26 79 27 21 28 22 29 23 30 73 31 24 32
REMARK SMILES IDX 78 33 72 34 74 35 25 36 77 37 71 38 70 39 26 41 58 42 38 43
REMARK SMILES IDX 57 44 39 45 42 46 56 47 75 48 40 49 41 50 55 52 76 53 43 54
REMARK SMILES IDX 27 55 28 56 36 57 29 58 30 59 34 60 37 61 31 62 32 63 35 64
REMARK SMILES IDX 33 65 59 66 60 67 68 68 61 69 62 70 66 71 69 72 63 73 64 74
REMARK SMILES IDX 67 75 65 76 44 77 45 78 53 79 46 80 47 81 51 82 54 83 48 84
REMARK SMILES IDX 49 85 52 86 50 87
REMARK H PARENT 74 40 42 51
REMARK Flexibility Score: inf
ROOT
ATOM      1  C   UNL     1       3.034   0.927  -9.913  1.00  0.00     0.275 C 
ENDROOT
BRANCH   1   2
ATOM      2  C   UNL     1       2.470   2.197  -9.293  1.00  0.00     0.275 C 
BRANCH   2   3
ATOM      3  O   UNL     1       1.581   1.888  -8.209  1.00  0.00    -0.458 OA
BRANCH   3   4
ATOM      4  C   UNL     1       0.269   1.717  -8.535  1.00  0.00     0.338 C 
ATOM      5  O   UNL     1      -0.244   1.940  -9.607  1.00  0.00    -0.246 OA
BRANCH   4   6
ATOM      6  C   UNL     1      -0.446   1.107  -7.380  1.00  0.00     0.062 A 
ATOM      7  C   UNL     1      -0.652   0.658  -5.009  1.00  0.00     0.066 A 
ATOM      8  C   UNL     1      -1.775  -0.140  -5.245  1.00  0.00     0.028 A 
ATOM      9  C   UNL     1       0.038   1.238  -6.078  1.00  0.00     0.044 A 
ATOM     10  C   UNL     1      -2.266  -0.263  -6.548  1.00  0.00     0.003 A 
ATOM     11  C   UNL     1      -1.616   0.374  -7.611  1.00  0.00     0.016 A 
BRANCH   7  12
ATOM     12  N   UNL     1      -0.226   0.922  -3.684  1.00  0.00    -0.236 N 
ATOM     13  C   UNL     1       0.657  -0.314  -0.474  1.00  0.00     0.070 C 
ATOM     14  C   UNL     1       0.373   0.492  -1.686  1.00  0.00     0.079 A 
ATOM     15  N   UNL     1      -0.275  -0.042  -2.731  1.00  0.00    -0.171 NA
ATOM     16  C   UNL     1       0.685   1.849  -1.909  1.00  0.00     0.085 A 
ATOM     17  C   UNL     1       0.239   2.128  -3.180  1.00  0.00     0.060 A 
ATOM     18  Cl  UNL     1       1.402   2.914  -0.800  1.00  0.00    -0.080 Cl
ATOM     19  C   UNL     1       0.141   3.426  -3.900  1.00  0.00     0.068 C 
ENDBRANCH   7  12
ENDBRANCH   4   6
ENDBRANCH   3   4
ENDBRANCH   2   3
ENDBRANCH   1   2
BRANCH   1  20
ATOM     20  O   UNL     1       2.062   0.247 -10.709  1.00  0.00    -0.458 OA
BRANCH  20  21
ATOM     21  C   UNL     1       1.426  -0.767 -10.083  1.00  0.00     0.338 C 
ATOM     22  O   UNL     1       1.303  -0.938  -8.881  1.00  0.00    -0.246 OA
BRANCH  21  23
ATOM     23  C   UNL     1       1.111  -1.809 -11.066  1.00  0.00     0.060 A 
ATOM     24  C   UNL     1       0.321  -2.880 -10.642  1.00  0.00     0.016 A 
ATOM     25  C   UNL     1       1.796  -1.841 -12.290  1.00  0.00     0.016 A 
ATOM     26  C   UNL     1       0.316  -4.035 -11.398  1.00  0.00     0.010 A 
ATOM     27  C   UNL     1       1.797  -2.997 -13.039  1.00  0.00     0.010 A 
ATOM     28  C   UNL     1       1.099  -4.101 -12.560  1.00  0.00    -0.014 A 
BRANCH  28  29
ATOM     29  C   UNL     1       1.009  -5.305 -13.367  1.00  0.00     0.031 A 
ATOM     30  C   UNL     1      -0.342  -5.486 -13.945  1.00  0.00     0.074 A 
ATOM     31  C   UNL     1       2.051  -6.109 -13.649  1.00  0.00     0.049 A 
ATOM     32  N   UNL     1      -1.186  -6.423 -13.672  1.00  0.00    -0.248 NA
ATOM     33  C   UNL     1      -0.885  -4.413 -14.795  1.00  0.00     0.031 C 
ATOM     34  C   UNL     1       3.467  -5.871 -13.360  1.00  0.00     0.029 A 
ATOM     35  N   UNL     1       2.072  -7.279 -14.350  1.00  0.00    -0.354 N 
ATOM     36  C   UNL     1      -2.292  -6.172 -14.473  1.00  0.00     0.074 A 
ATOM     37  C   UNL     1      -2.130  -4.845 -15.004  1.00  0.00     0.031 C 
ATOM     38  C   UNL     1       4.219  -6.741 -14.073  1.00  0.00     0.029 A 
ATOM     39  C   UNL     1       3.341  -7.673 -14.760  1.00  0.00     0.049 A 
ATOM     40  H   UNL     1       1.260  -7.799 -14.549  1.00  0.00     0.167 HD
ATOM     41  C   UNL     1      -3.086  -7.200 -14.872  1.00  0.00     0.037 A 
ATOM     42  C   UNL     1       3.633  -8.657 -15.647  1.00  0.00     0.037 A 
ATOM     43  C   UNL     1      -2.907  -8.349 -14.020  1.00  0.00     0.049 A 
ATOM     44  C   UNL     1       2.460  -9.558 -15.710  1.00  0.00     0.074 A 
ATOM     45  C   UNL     1      -3.123  -8.640 -12.689  1.00  0.00     0.029 A 
ATOM     46  N   UNL     1      -2.048  -9.303 -14.495  1.00  0.00    -0.354 N 
ATOM     47  N   UNL     1       2.093 -10.348 -14.742  1.00  0.00    -0.248 NA
ATOM     48  C   UNL     1       1.460  -9.336 -16.744  1.00  0.00     0.031 C 
ATOM     49  C   UNL     1      -2.100  -9.570 -12.329  1.00  0.00     0.029 A 
ATOM     50  C   UNL     1      -1.337  -9.849 -13.463  1.00  0.00     0.049 A 
ATOM     51  H   UNL     1      -1.955  -9.557 -15.442  1.00  0.00     0.167 HD
ATOM     52  C   UNL     1       0.712 -10.335 -14.795  1.00  0.00     0.074 A 
ATOM     53  C   UNL     1       0.393  -9.858 -16.135  1.00  0.00     0.031 C 
ATOM     54  C   UNL     1      -0.019 -10.416 -13.644  1.00  0.00     0.037 A 
BRANCH  41  55
ATOM     55  C   UNL     1      -3.596  -7.334 -16.291  1.00  0.00     0.064 A 
ATOM     56  C   UNL     1      -4.487  -8.381 -16.598  1.00  0.00     0.173 A 
ATOM     57  C   UNL     1      -2.993  -6.704 -17.404  1.00  0.00     0.173 A 
ATOM     58  F   UNL     1      -5.080  -9.079 -15.617  1.00  0.00    -0.203 F 
ATOM     59  C   UNL     1      -4.704  -8.804 -17.913  1.00  0.00     0.198 A 
ATOM     60  C   UNL     1      -3.255  -7.092 -18.716  1.00  0.00     0.198 A 
ATOM     61  F   UNL     1      -2.035  -5.779 -17.274  1.00  0.00    -0.203 F 
ATOM     62  F   UNL     1      -5.455  -9.887 -18.148  1.00  0.00    -0.200 F 
ATOM     63  C   UNL     1      -4.086  -8.160 -18.970  1.00  0.00     0.200 A 
ATOM     64  F   UNL     1      -2.618  -6.477 -19.723  1.00  0.00    -0.200 F 
ATOM     65  F   UNL     1      -4.242  -8.602 -20.224  1.00  0.00    -0.200 F 
ENDBRANCH  41  55
BRANCH  42  66
ATOM     66  C   UNL     1       4.726  -8.738 -16.648  1.00  0.00     0.064 A 
ATOM     67  C   UNL     1       4.987  -9.941 -17.330  1.00  0.00     0.173 A 
ATOM     68  C   UNL     1       5.321  -7.580 -17.181  1.00  0.00     0.173 A 
ATOM     69  F   UNL     1       4.434 -11.090 -16.913  1.00  0.00    -0.203 F 
ATOM     70  C   UNL     1       5.749  -9.973 -18.503  1.00  0.00     0.198 A 
ATOM     71  C   UNL     1       6.089  -7.614 -18.346  1.00  0.00     0.198 A 
ATOM     72  F   UNL     1       5.086  -6.375 -16.643  1.00  0.00    -0.203 F 
ATOM     73  F   UNL     1       5.903 -11.126 -19.169  1.00  0.00    -0.200 F 
ATOM     74  C   UNL     1       6.286  -8.806 -19.018  1.00  0.00     0.200 A 
ATOM     75  F   UNL     1       6.576  -6.473 -18.853  1.00  0.00    -0.200 F 
ATOM     76  F   UNL     1       6.951  -8.822 -20.181  1.00  0.00    -0.200 F 
ENDBRANCH  42  66
BRANCH  54  77
ATOM     77  C   UNL     1       0.670 -10.989 -12.437  1.00  0.00     0.064 A 
ATOM     78  C   UNL     1       1.812 -10.442 -11.824  1.00  0.00     0.173 A 
ATOM     79  C   UNL     1       0.108 -12.130 -11.849  1.00  0.00     0.173 A 
ATOM     80  F   UNL     1       2.354  -9.298 -12.261  1.00  0.00    -0.203 F 
ATOM     81  C   UNL     1       2.398 -11.056 -10.718  1.00  0.00     0.198 A 
ATOM     82  C   UNL     1       0.668 -12.714 -10.718  1.00  0.00     0.198 A 
ATOM     83  F   UNL     1      -1.010 -12.670 -12.361  1.00  0.00    -0.203 F 
ATOM     84  F   UNL     1       3.513 -10.543 -10.176  1.00  0.00    -0.200 F 
ATOM     85  C   UNL     1       1.824 -12.189 -10.165  1.00  0.00     0.200 A 
ATOM     86  F   UNL     1       0.081 -13.781 -10.160  1.00  0.00    -0.200 F 
ATOM     87  F   UNL     1       2.374 -12.766  -9.087  1.00  0.00    -0.200 F 
ENDBRANCH  54  77
ENDBRANCH  28  29
ENDBRANCH  21  23
ENDBRANCH  20  21
ENDBRANCH   1  20
TORSDOF 12
