REMARK SMILES Cc1nn(C)cc1-c1ccnc2nc(CCC(=O)OCCOC(=O)c3ccc(-c4c5nc(c(-c6c(F)c(F)c(F)c(F)c6F)c6ccc([nH]6)c(-c6c(F)c(F)c(F)c(F)c6F)c6nc(c(-c7c(F)c(F)c(F)c(F)c7F)c7ccc4[nH]7)C=C6)C=C5)cc3)nn12
REMARK SMILES IDX 20 1 19 2 17 3 18 4 16 5 15 6 14 7 8 8 9 9 89 10 10 11 12 12
REMARK SMILES IDX 88 13 11 14 13 15 7 16 1 17 2 18 3 19 4 20 6 21 5 22 21 23
REMARK SMILES IDX 22 24 23 25 24 26 25 27 26 28 87 29 27 30 86 31 28 32 29 33
REMARK SMILES IDX 30 34 80 35 31 36 85 37 79 38 81 39 32 40 84 41 78 42 77 43
REMARK SMILES IDX 33 45 65 46 45 47 64 48 46 49 49 50 63 51 82 52 47 53 48 54
REMARK SMILES IDX 62 56 83 57 50 58 34 59 35 60 43 61 36 62 37 63 41 64 44 65
REMARK SMILES IDX 38 66 39 67 42 68 40 69 66 70 67 71 75 72 68 73 69 74 73 75
REMARK SMILES IDX 76 76 70 77 71 78 74 79 72 80 51 81 52 82 60 83 53 84 54 85
REMARK SMILES IDX 58 86 61 87 55 88 56 89 59 90 57 91
REMARK H PARENT 81 44 49 55
REMARK Flexibility Score: inf
ROOT
ATOM      1  C   UNL     1       2.510  -2.395   2.305  1.00  0.00     0.274 C 
ENDROOT
BRANCH   1   2
ATOM      2  O   UNL     1       1.650  -3.547   2.265  1.00  0.00    -0.462 OA
BRANCH   2   3
ATOM      3  C   UNL     1       1.926  -4.578   3.093  1.00  0.00     0.306 C 
ATOM      4  O   UNL     1       2.937  -4.670   3.779  1.00  0.00    -0.252 OA
BRANCH   3   5
ATOM      5  C   UNL     1       0.865  -5.653   3.048  1.00  0.00     0.131 C 
BRANCH   5   6
ATOM      6  C   UNL     1      -0.531  -5.163   3.427  1.00  0.00     0.091 C 
BRANCH   6   7
ATOM      7  C   UNL     1      -1.279  -4.610   2.269  1.00  0.00     0.154 A 
ATOM      8  C   UNL     1      -1.856  -2.404  -0.361  1.00  0.00     0.081 A 
ATOM      9  C   UNL     1      -2.676  -2.630  -1.405  1.00  0.00     0.049 A 
ATOM     10  N   UNL     1      -1.798  -3.372   0.657  1.00  0.00    -0.196 N 
ATOM     11  C   UNL     1      -3.449  -3.898  -1.370  1.00  0.00     0.117 A 
ATOM     12  C   UNL     1      -2.526  -4.569   0.573  1.00  0.00     0.252 A 
ATOM     13  N   UNL     1      -1.069  -3.382   1.798  1.00  0.00    -0.149 NA
ATOM     14  N   UNL     1      -3.389  -4.814  -0.456  1.00  0.00    -0.220 NA
ATOM     15  N   UNL     1      -2.179  -5.356   1.568  1.00  0.00    -0.194 NA
BRANCH   8  16
ATOM     16  C   UNL     1      -1.019  -1.248  -0.307  1.00  0.00     0.041 A 
ATOM     17  C   UNL     1      -2.683   0.714   0.199  1.00  0.00     0.069 C 
ATOM     18  C   UNL     1      -1.356   0.108  -0.069  1.00  0.00     0.069 A 
ATOM     19  N   UNL     1      -0.270   0.894  -0.112  1.00  0.00    -0.178 NA
ATOM     20  N   UNL     1       0.744   0.045  -0.351  1.00  0.00    -0.275 N 
ATOM     21  C   UNL     1       0.344  -1.249  -0.501  1.00  0.00     0.119 A 
ATOM     22  C   UNL     1       2.092   0.554  -0.412  1.00  0.00     0.173 C 
ENDBRANCH   8  16
ENDBRANCH   6   7
ENDBRANCH   5   6
ENDBRANCH   3   5
ENDBRANCH   2   3
ENDBRANCH   1   2
BRANCH   1  23
ATOM     23  C   UNL     1       1.923  -1.303   3.203  1.00  0.00     0.275 C 
BRANCH  23  24
ATOM     24  O   UNL     1       2.275  -1.577   4.571  1.00  0.00    -0.458 OA
BRANCH  24  25
ATOM     25  C   UNL     1       1.293  -2.098   5.338  1.00  0.00     0.338 C 
ATOM     26  O   UNL     1       0.112  -2.213   5.075  1.00  0.00    -0.246 OA
BRANCH  25  27
ATOM     27  C   UNL     1       1.909  -2.692   6.531  1.00  0.00     0.060 A 
ATOM     28  C   UNL     1       1.786  -4.073   6.710  1.00  0.00     0.016 A 
ATOM     29  C   UNL     1       2.576  -1.903   7.469  1.00  0.00     0.016 A 
ATOM     30  C   UNL     1       2.336  -4.678   7.832  1.00  0.00     0.010 A 
ATOM     31  C   UNL     1       3.123  -2.511   8.601  1.00  0.00     0.010 A 
ATOM     32  C   UNL     1       2.995  -3.898   8.790  1.00  0.00    -0.014 A 
BRANCH  32  33
ATOM     33  C   UNL     1       3.484  -4.542  10.028  1.00  0.00     0.031 A 
ATOM     34  C   UNL     1       2.694  -4.396  11.294  1.00  0.00     0.074 A 
ATOM     35  C   UNL     1       4.602  -5.287   9.997  1.00  0.00     0.049 A 
ATOM     36  N   UNL     1       2.940  -4.875  12.486  1.00  0.00    -0.248 NA
ATOM     37  C   UNL     1       1.459  -3.602  11.205  1.00  0.00     0.031 C 
ATOM     38  C   UNL     1       5.424  -5.521   8.810  1.00  0.00     0.029 A 
ATOM     39  N   UNL     1       5.234  -5.988  10.990  1.00  0.00    -0.354 N 
ATOM     40  C   UNL     1       1.897  -4.437  13.290  1.00  0.00     0.074 A 
ATOM     41  C   UNL     1       1.031  -3.627  12.459  1.00  0.00     0.031 C 
ATOM     42  C   UNL     1       6.451  -6.321   9.143  1.00  0.00     0.029 A 
ATOM     43  C   UNL     1       6.373  -6.627  10.569  1.00  0.00     0.049 A 
ATOM     44  H   UNL     1       4.903  -6.030  11.916  1.00  0.00     0.167 HD
ATOM     45  C   UNL     1       1.681  -4.696  14.601  1.00  0.00     0.037 A 
ATOM     46  C   UNL     1       7.256  -7.367  11.264  1.00  0.00     0.037 A 
ATOM     47  C   UNL     1       2.550  -5.501  15.418  1.00  0.00     0.049 A 
ATOM     48  C   UNL     1       7.016  -7.601  12.731  1.00  0.00     0.074 A 
ATOM     49  C   UNL     1       2.426  -5.825  16.758  1.00  0.00     0.029 A 
ATOM     50  N   UNL     1       3.714  -6.110  14.967  1.00  0.00    -0.354 N 
ATOM     51  N   UNL     1       6.024  -7.190  13.485  1.00  0.00    -0.248 NA
ATOM     52  C   UNL     1       8.016  -8.408  13.443  1.00  0.00     0.031 C 
ATOM     53  C   UNL     1       3.536  -6.595  17.127  1.00  0.00     0.029 A 
ATOM     54  C   UNL     1       4.325  -6.794  16.006  1.00  0.00     0.049 A 
ATOM     55  H   UNL     1       4.054  -6.063  14.044  1.00  0.00     0.167 HD
ATOM     56  C   UNL     1       6.267  -7.705  14.751  1.00  0.00     0.074 A 
ATOM     57  C   UNL     1       7.490  -8.476  14.657  1.00  0.00     0.031 C 
ATOM     58  C   UNL     1       5.545  -7.554  15.889  1.00  0.00     0.037 A 
BRANCH  45  59
ATOM     59  C   UNL     1       0.470  -4.074  15.233  1.00  0.00     0.064 A 
ATOM     60  C   UNL     1      -0.829  -4.510  14.927  1.00  0.00     0.173 A 
ATOM     61  C   UNL     1       0.609  -3.034  16.163  1.00  0.00     0.173 A 
ATOM     62  F   UNL     1      -1.018  -5.490  14.030  1.00  0.00    -0.203 F 
ATOM     63  C   UNL     1      -1.943  -3.908  15.507  1.00  0.00     0.198 A 
ATOM     64  C   UNL     1      -0.505  -2.453  16.763  1.00  0.00     0.198 A 
ATOM     65  F   UNL     1       1.828  -2.580  16.493  1.00  0.00    -0.203 F 
ATOM     66  F   UNL     1      -3.175  -4.306  15.160  1.00  0.00    -0.200 F 
ATOM     67  C   UNL     1      -1.780  -2.884  16.428  1.00  0.00     0.200 A 
ATOM     68  F   UNL     1      -0.346  -1.470  17.660  1.00  0.00    -0.200 F 
ATOM     69  F   UNL     1      -2.853  -2.306  16.986  1.00  0.00    -0.200 F 
ENDBRANCH  45  59
BRANCH  46  70
ATOM     70  C   UNL     1       8.440  -7.946  10.579  1.00  0.00     0.064 A 
ATOM     71  C   UNL     1       8.558  -9.329  10.384  1.00  0.00     0.173 A 
ATOM     72  C   UNL     1       9.479  -7.130  10.108  1.00  0.00     0.173 A 
ATOM     73  F   UNL     1       7.602 -10.152  10.839  1.00  0.00    -0.203 F 
ATOM     74  C   UNL     1       9.676  -9.875   9.758  1.00  0.00     0.198 A 
ATOM     75  C   UNL     1      10.584  -7.674   9.457  1.00  0.00     0.198 A 
ATOM     76  F   UNL     1       9.416  -5.800  10.272  1.00  0.00    -0.203 F 
ATOM     77  F   UNL     1       9.784 -11.204   9.623  1.00  0.00    -0.200 F 
ATOM     78  C   UNL     1      10.685  -9.047   9.289  1.00  0.00     0.200 A 
ATOM     79  F   UNL     1      11.552  -6.870   8.996  1.00  0.00    -0.200 F 
ATOM     80  F   UNL     1      11.758  -9.572   8.683  1.00  0.00    -0.200 F 
ENDBRANCH  46  70
BRANCH  58  81
ATOM     81  C   UNL     1       6.049  -8.265  17.111  1.00  0.00     0.064 A 
ATOM     82  C   UNL     1       7.208  -7.846  17.782  1.00  0.00     0.173 A 
ATOM     83  C   UNL     1       5.359  -9.374  17.622  1.00  0.00     0.173 A 
ATOM     84  F   UNL     1       7.912  -6.799  17.324  1.00  0.00    -0.203 F 
ATOM     85  C   UNL     1       7.678  -8.534  18.897  1.00  0.00     0.198 A 
ATOM     86  C   UNL     1       5.814 -10.042  18.756  1.00  0.00     0.198 A 
ATOM     87  F   UNL     1       4.241  -9.811  17.023  1.00  0.00    -0.203 F 
ATOM     88  F   UNL     1       8.820  -8.153  19.485  1.00  0.00    -0.200 F 
ATOM     89  C   UNL     1       6.979  -9.629  19.385  1.00  0.00     0.200 A 
ATOM     90  F   UNL     1       5.131 -11.091  19.233  1.00  0.00    -0.200 F 
ATOM     91  F   UNL     1       7.434 -10.292  20.456  1.00  0.00    -0.200 F 
ENDBRANCH  58  81
ENDBRANCH  32  33
ENDBRANCH  25  27
ENDBRANCH  24  25
ENDBRANCH  23  24
ENDBRANCH   1  23
TORSDOF 14
