REMARK SMILES O=C(OCCOC(=O)[C@H]1CC=CC[C@@H]1C(=O)NC1CCCCC1)c1ccc(-c2c3nc(c(-c4c(F)c(F)c(F)c(F)c4F)c4ccc([nH]4)c(-c4c(F)c(F)c(F)c(F)c4F)c4nc(c(-c5c(F)c(F)c(F)c(F)c5F)c5ccc2[nH]5)C=C4)C=C3)cc1
REMARK SMILES IDX 4 1 3 2 2 3 1 4 24 5 25 6 86 7 26 8 85 9 27 10 28 11 29 12
REMARK SMILES IDX 79 13 30 14 84 15 78 16 80 17 31 18 83 19 77 20 76 21 32 23
REMARK SMILES IDX 64 24 44 25 63 26 45 27 48 28 62 29 81 30 46 31 47 32 61 34
REMARK SMILES IDX 82 35 49 36 33 37 34 38 42 39 35 40 36 41 40 42 43 43 37 44
REMARK SMILES IDX 38 45 41 46 39 47 65 48 66 49 74 50 67 51 68 52 72 53 75 54
REMARK SMILES IDX 69 55 70 56 73 57 71 58 50 59 51 60 59 61 52 62 53 63 57 64
REMARK SMILES IDX 60 65 54 66 55 67 58 68 56 69 5 70 6 71 7 72 8 73 9 74 10 75
REMARK SMILES IDX 14 76 11 77 13 78 12 79 15 80 16 81 17 82 18 84 19 85 23 86
REMARK SMILES IDX 20 87 22 88 21 89
REMARK H PARENT 80 22 48 33 17 83
REMARK Flexibility Score: inf
ROOT
ATOM      1  C   UNL     1       4.473  -1.053   0.782  1.00  0.00     0.275 C 
ENDROOT
BRANCH   1   2
ATOM      2  O   UNL     1       3.227  -0.362   1.049  1.00  0.00    -0.458 OA
BRANCH   2   3
ATOM      3  C   UNL     1       2.860   0.942   0.987  1.00  0.00     0.338 C 
ATOM      4  O   UNL     1       1.831   1.282   1.572  1.00  0.00    -0.246 OA
BRANCH   3   5
ATOM      5  C   UNL     1       3.497   1.972   0.100  1.00  0.00     0.060 A 
ATOM      6  C   UNL     1       4.852   2.075  -0.218  1.00  0.00     0.016 A 
ATOM      7  C   UNL     1       2.622   2.920  -0.481  1.00  0.00     0.016 A 
ATOM      8  C   UNL     1       5.283   2.971  -1.223  1.00  0.00     0.010 A 
ATOM      9  C   UNL     1       3.056   3.844  -1.450  1.00  0.00     0.010 A 
ATOM     10  C   UNL     1       4.383   3.835  -1.883  1.00  0.00    -0.014 A 
BRANCH  10  11
ATOM     11  C   UNL     1       4.893   4.846  -2.858  1.00  0.00     0.031 A 
ATOM     12  C   UNL     1       5.600   6.025  -2.278  1.00  0.00     0.074 A 
ATOM     13  C   UNL     1       4.770   4.757  -4.201  1.00  0.00     0.049 A 
ATOM     14  N   UNL     1       6.188   7.021  -2.882  1.00  0.00    -0.248 NA
ATOM     15  C   UNL     1       5.609   6.105  -0.809  1.00  0.00     0.031 C 
ATOM     16  C   UNL     1       4.021   3.742  -4.907  1.00  0.00     0.029 A 
ATOM     17  N   UNL     1       5.282   5.518  -5.232  1.00  0.00    -0.354 N 
ATOM     18  C   UNL     1       6.633   7.848  -1.868  1.00  0.00     0.074 A 
ATOM     19  C   UNL     1       6.247   7.243  -0.612  1.00  0.00     0.031 C 
ATOM     20  C   UNL     1       4.237   3.816  -6.224  1.00  0.00     0.029 A 
ATOM     21  C   UNL     1       4.997   5.018  -6.490  1.00  0.00     0.049 A 
ATOM     22  H   UNL     1       5.803   6.340  -5.086  1.00  0.00     0.167 HD
ATOM     23  C   UNL     1       7.271   9.034  -1.976  1.00  0.00     0.037 A 
ATOM     24  C   UNL     1       5.239   5.497  -7.726  1.00  0.00     0.037 A 
ATOM     25  C   UNL     1       7.526   9.689  -3.226  1.00  0.00     0.049 A 
ATOM     26  C   UNL     1       5.891   6.841  -7.825  1.00  0.00     0.074 A 
ATOM     27  C   UNL     1       8.078  10.934  -3.450  1.00  0.00     0.029 A 
ATOM     28  N   UNL     1       7.197   9.162  -4.471  1.00  0.00    -0.354 N 
ATOM     29  N   UNL     1       6.322   7.611  -6.855  1.00  0.00    -0.248 NA
ATOM     30  C   UNL     1       6.051   7.413  -9.168  1.00  0.00     0.031 C 
ATOM     31  C   UNL     1       8.030  11.186  -4.826  1.00  0.00     0.029 A 
ATOM     32  C   UNL     1       7.519  10.067  -5.467  1.00  0.00     0.049 A 
ATOM     33  H   UNL     1       6.794   8.276  -4.621  1.00  0.00     0.167 HD
ATOM     34  C   UNL     1       6.811   8.752  -7.463  1.00  0.00     0.074 A 
ATOM     35  C   UNL     1       6.637   8.572  -8.892  1.00  0.00     0.031 C 
ATOM     36  C   UNL     1       7.351   9.850  -6.884  1.00  0.00     0.037 A 
BRANCH  23  37
ATOM     37  C   UNL     1       7.592   9.704  -0.676  1.00  0.00     0.064 A 
ATOM     38  C   UNL     1       8.545   9.166   0.206  1.00  0.00     0.173 A 
ATOM     39  C   UNL     1       6.814  10.781  -0.232  1.00  0.00     0.173 A 
ATOM     40  F   UNL     1       9.277   8.102  -0.157  1.00  0.00    -0.203 F 
ATOM     41  C   UNL     1       8.653   9.639   1.510  1.00  0.00     0.198 A 
ATOM     42  C   UNL     1       6.950  11.273   1.062  1.00  0.00     0.198 A 
ATOM     43  F   UNL     1       5.878  11.315  -1.031  1.00  0.00    -0.203 F 
ATOM     44  F   UNL     1       9.481   9.034   2.373  1.00  0.00    -0.200 F 
ATOM     45  C   UNL     1       7.853  10.688   1.938  1.00  0.00     0.200 A 
ATOM     46  F   UNL     1       6.171  12.281   1.477  1.00  0.00    -0.200 F 
ATOM     47  F   UNL     1       7.924  11.111   3.207  1.00  0.00    -0.200 F 
ENDBRANCH  23  37
BRANCH  24  48
ATOM     48  C   UNL     1       4.797   4.749  -8.943  1.00  0.00     0.064 A 
ATOM     49  C   UNL     1       5.729   4.223  -9.852  1.00  0.00     0.173 A 
ATOM     50  C   UNL     1       3.437   4.530  -9.223  1.00  0.00     0.173 A 
ATOM     51  F   UNL     1       7.040   4.433  -9.663  1.00  0.00    -0.203 F 
ATOM     52  C   UNL     1       5.320   3.510 -10.982  1.00  0.00     0.198 A 
ATOM     53  C   UNL     1       3.031   3.786 -10.332  1.00  0.00     0.198 A 
ATOM     54  F   UNL     1       2.496   5.028  -8.409  1.00  0.00    -0.203 F 
ATOM     55  F   UNL     1       6.232   3.059 -11.854  1.00  0.00    -0.200 F 
ATOM     56  C   UNL     1       3.972   3.281 -11.213  1.00  0.00     0.200 A 
ATOM     57  F   UNL     1       1.726   3.565 -10.548  1.00  0.00    -0.200 F 
ATOM     58  F   UNL     1       3.582   2.589 -12.293  1.00  0.00    -0.200 F 
ENDBRANCH  24  48
BRANCH  36  59
ATOM     59  C   UNL     1       7.861  10.920  -7.796  1.00  0.00     0.064 A 
ATOM     60  C   UNL     1       7.000  11.795  -8.470  1.00  0.00     0.173 A 
ATOM     61  C   UNL     1       9.244  11.121  -7.915  1.00  0.00     0.173 A 
ATOM     62  F   UNL     1       5.671  11.625  -8.401  1.00  0.00    -0.203 F 
ATOM     63  C   UNL     1       7.509  12.842  -9.232  1.00  0.00     0.198 A 
ATOM     64  C   UNL     1       9.748  12.185  -8.653  1.00  0.00     0.198 A 
ATOM     65  F   UNL     1      10.102  10.303  -7.287  1.00  0.00    -0.203 F 
ATOM     66  F   UNL     1       6.674  13.658  -9.889  1.00  0.00    -0.200 F 
ATOM     67  C   UNL     1       8.880  13.044  -9.310  1.00  0.00     0.200 A 
ATOM     68  F   UNL     1      11.071  12.386  -8.715  1.00  0.00    -0.200 F 
ATOM     69  F   UNL     1       9.367  14.070 -10.021  1.00  0.00    -0.200 F 
ENDBRANCH  36  59
ENDBRANCH  10  11
ENDBRANCH   3   5
ENDBRANCH   2   3
ENDBRANCH   1   2
BRANCH   1  70
ATOM     70  C   UNL     1       4.391  -1.942  -0.462  1.00  0.00     0.274 C 
BRANCH  70  71
ATOM     71  O   UNL     1       4.076  -1.122  -1.585  1.00  0.00    -0.462 OA
BRANCH  71  72
ATOM     72  C   UNL     1       3.027  -1.433  -2.388  1.00  0.00     0.310 C 
ATOM     73  O   UNL     1       2.405  -2.493  -2.361  1.00  0.00    -0.252 OA
BRANCH  72  74
ATOM     74  C   UNL     1       2.633  -0.236  -3.237  1.00  0.00     0.115 C 
ATOM     75  C   UNL     1       3.675   0.857  -3.168  1.00  0.00     0.043 C 
ATOM     76  C   UNL     1       2.285  -0.570  -4.697  1.00  0.00     0.096 C 
ATOM     77  C   UNL     1       4.827   0.720  -4.096  1.00  0.00    -0.030 C 
ATOM     78  C   UNL     1       3.571  -0.915  -5.496  1.00  0.00     0.041 C 
ATOM     79  C   UNL     1       4.792  -0.111  -5.139  1.00  0.00    -0.030 C 
BRANCH  76  80
ATOM     80  C   UNL     1       1.553   0.611  -5.349  1.00  0.00     0.224 C 
ATOM     81  O   UNL     1       2.109   1.371  -6.146  1.00  0.00    -0.275 OA
ATOM     82  N   UNL     1       0.260   0.909  -5.044  1.00  0.00    -0.353 N 
ATOM     83  H   UNL     1       0.013   1.849  -5.196  1.00  0.00     0.163 HD
BRANCH  82  84
ATOM     84  C   UNL     1      -0.827   0.073  -4.528  1.00  0.00     0.082 C 
ATOM     85  C   UNL     1      -0.707  -0.229  -3.033  1.00  0.00     0.025 C 
ATOM     86  C   UNL     1      -2.168   0.772  -4.818  1.00  0.00     0.025 C 
ATOM     87  C   UNL     1      -1.913  -0.958  -2.457  1.00  0.00     0.002 C 
ATOM     88  C   UNL     1      -3.355  -0.018  -4.278  1.00  0.00     0.002 C 
ATOM     89  C   UNL     1      -3.220  -0.257  -2.780  1.00  0.00     0.000 C 
ENDBRANCH  82  84
ENDBRANCH  76  80
ENDBRANCH  72  74
ENDBRANCH  71  72
ENDBRANCH  70  71
ENDBRANCH   1  70
TORSDOF 13
