REMARK SMILES O=C(OCCOC(=O)[C@@H]1CCCC[C@@H]1C(=O)Nc1cc(C(F)(F)F)cc(C(F)(F)F)c1)c1ccc(-c2c3nc(c(-c4c(F)c(F)c(F)c(F)c4F)c4ccc([nH]4)c(-c4c(F)c(F)c(F)c(F)c4F)c4nc(c(-c5c(F)c(F)c(F)c(F)c5F)c5ccc2[nH]5)C=C4)C=C3)cc1
REMARK SMILES IDX 5 1 4 2 3 3 2 4 1 5 32 6 33 7 94 8 34 9 93 10 35 11 36 12
REMARK SMILES IDX 37 13 87 14 38 15 92 16 86 17 88 18 39 19 91 20 85 21 84 22
REMARK SMILES IDX 40 24 72 25 52 26 71 27 53 28 56 29 70 30 89 31 54 32 55 33
REMARK SMILES IDX 69 35 90 36 57 37 41 38 42 39 50 40 43 41 44 42 48 43 51 44
REMARK SMILES IDX 45 45 46 46 49 47 47 48 73 49 74 50 82 51 75 52 76 53 80 54
REMARK SMILES IDX 83 55 77 56 78 57 81 58 79 59 58 60 59 61 67 62 60 63 61 64
REMARK SMILES IDX 65 65 68 66 62 67 63 68 66 69 64 70 6 71 7 72 8 73 9 74
REMARK SMILES IDX 10 75 14 76 11 77 13 78 12 79 15 80 16 81 17 82 18 84 19 85
REMARK SMILES IDX 31 86 20 87 26 88 25 89 21 90 22 91 23 92 24 93 27 94 28 95
REMARK SMILES IDX 29 96 30 97
REMARK H PARENT 88 23 56 34 17 83
REMARK Flexibility Score: inf
ROOT
ATOM      1  C   UNL     1       3.927   1.824  -1.639  1.00  0.00     0.274 C 
ENDROOT
BRANCH   1   2
ATOM      2  C   UNL     1       4.143   0.347  -2.004  1.00  0.00     0.275 C 
BRANCH   2   3
ATOM      3  O   UNL     1       3.071  -0.508  -1.606  1.00  0.00    -0.458 OA
BRANCH   3   4
ATOM      4  C   UNL     1       2.729  -0.783  -0.337  1.00  0.00     0.338 C 
ATOM      5  O   UNL     1       1.608  -1.222  -0.091  1.00  0.00    -0.246 OA
BRANCH   4   6
ATOM      6  C   UNL     1       3.622  -0.581   0.838  1.00  0.00     0.060 A 
ATOM      7  C   UNL     1       5.332   0.064   0.850  1.00  0.00     0.016 A 
ATOM      8  C   UNL     1       2.760  -0.869   2.451  1.00  0.00     0.016 A 
ATOM      9  C   UNL     1       6.165   0.512   2.408  1.00  0.00     0.010 A 
ATOM     10  C   UNL     1       3.602  -0.417   4.010  1.00  0.00     0.010 A 
ATOM     11  C   UNL     1       5.271   0.303   3.971  1.00  0.00    -0.014 A 
BRANCH  11  12
ATOM     12  C   UNL     1       5.878   0.774   5.221  1.00  0.00     0.031 A 
ATOM     13  C   UNL     1       6.211  -0.254   6.237  1.00  0.00     0.074 A 
ATOM     14  C   UNL     1       6.133   2.077   5.441  1.00  0.00     0.049 A 
ATOM     15  N   UNL     1       7.154  -0.209   7.132  1.00  0.00    -0.248 NA
ATOM     16  C   UNL     1       5.519  -1.544   6.165  1.00  0.00     0.031 C 
ATOM     17  C   UNL     1       5.905   3.194   4.526  1.00  0.00     0.029 A 
ATOM     18  N   UNL     1       6.583   2.696   6.574  1.00  0.00    -0.354 N 
ATOM     19  C   UNL     1       7.289  -1.513   7.566  1.00  0.00     0.074 A 
ATOM     20  C   UNL     1       6.287  -2.307   6.920  1.00  0.00     0.031 C 
ATOM     21  C   UNL     1       6.052   4.359   5.177  1.00  0.00     0.029 A 
ATOM     22  C   UNL     1       6.492   4.066   6.525  1.00  0.00     0.049 A 
ATOM     23  H   UNL     1       6.939   2.207   7.351  1.00  0.00     0.167 HD
ATOM     24  C   UNL     1       8.163  -1.999   8.467  1.00  0.00     0.037 A 
ATOM     25  C   UNL     1       6.768   4.971   7.478  1.00  0.00     0.037 A 
ATOM     26  C   UNL     1       8.793  -1.120   9.400  1.00  0.00     0.049 A 
ATOM     27  C   UNL     1       7.480   4.439   8.688  1.00  0.00     0.074 A 
ATOM     28  C   UNL     1       9.510  -1.419  10.535  1.00  0.00     0.029 A 
ATOM     29  N   UNL     1       8.626   0.263   9.364  1.00  0.00    -0.354 N 
ATOM     30  N   UNL     1       7.786   3.193   8.979  1.00  0.00    -0.248 NA
ATOM     31  C   UNL     1       7.972   5.425   9.650  1.00  0.00     0.031 C 
ATOM     32  C   UNL     1       9.658  -0.225  11.255  1.00  0.00     0.029 A 
ATOM     33  C   UNL     1       9.145   0.828  10.505  1.00  0.00     0.049 A 
ATOM     34  H   UNL     1       8.200   0.762   8.630  1.00  0.00     0.167 HD
ATOM     35  C   UNL     1       8.568   3.245  10.118  1.00  0.00     0.074 A 
ATOM     36  C   UNL     1       8.674   4.653  10.468  1.00  0.00     0.031 C 
ATOM     37  C   UNL     1       9.173   2.240  10.801  1.00  0.00     0.037 A 
BRANCH  24  38
ATOM     38  C   UNL     1       8.259  -3.489   8.553  1.00  0.00     0.064 A 
ATOM     39  C   UNL     1       8.833  -4.235   7.506  1.00  0.00     0.173 A 
ATOM     40  C   UNL     1       7.654  -4.192   9.600  1.00  0.00     0.173 A 
ATOM     41  F   UNL     1       9.363  -3.611   6.442  1.00  0.00    -0.203 F 
ATOM     42  C   UNL     1       8.794  -5.628   7.509  1.00  0.00     0.198 A 
ATOM     43  C   UNL     1       7.627  -5.585   9.606  1.00  0.00     0.198 A 
ATOM     44  F   UNL     1       7.034  -3.529  10.587  1.00  0.00    -0.203 F 
ATOM     45  F   UNL     1       9.297  -6.317   6.475  1.00  0.00    -0.200 F 
ATOM     46  C   UNL     1       8.192  -6.301   8.561  1.00  0.00     0.200 A 
ATOM     47  F   UNL     1       7.020  -6.234  10.609  1.00  0.00    -0.200 F 
ATOM     48  F   UNL     1       8.131  -7.640   8.554  1.00  0.00    -0.200 F 
ENDBRANCH  24  38
BRANCH  25  49
ATOM     49  C   UNL     1       6.487   6.414   7.260  1.00  0.00     0.064 A 
ATOM     50  C   UNL     1       7.518   7.338   7.043  1.00  0.00     0.173 A 
ATOM     51  C   UNL     1       5.169   6.902   7.241  1.00  0.00     0.173 A 
ATOM     52  F   UNL     1       8.793   6.925   7.041  1.00  0.00    -0.203 F 
ATOM     53  C   UNL     1       7.249   8.694   6.855  1.00  0.00     0.198 A 
ATOM     54  C   UNL     1       4.899   8.257   7.035  1.00  0.00     0.198 A 
ATOM     55  F   UNL     1       4.138   6.063   7.420  1.00  0.00    -0.203 F 
ATOM     56  F   UNL     1       8.260   9.557   6.690  1.00  0.00    -0.200 F 
ATOM     57  C   UNL     1       5.941   9.153   6.852  1.00  0.00     0.200 A 
ATOM     58  F   UNL     1       3.632   8.694   7.018  1.00  0.00    -0.200 F 
ATOM     59  F   UNL     1       5.685  10.457   6.678  1.00  0.00    -0.200 F 
ENDBRANCH  25  49
BRANCH  37  60
ATOM     60  C   UNL     1      10.004   2.640  11.975  1.00  0.00     0.064 A 
ATOM     61  C   UNL     1       9.428   3.148  13.145  1.00  0.00     0.173 A 
ATOM     62  C   UNL     1      11.390   2.431  11.943  1.00  0.00     0.173 A 
ATOM     63  F   UNL     1       8.105   3.364  13.211  1.00  0.00    -0.203 F 
ATOM     64  C   UNL     1      10.221   3.470  14.237  1.00  0.00     0.198 A 
ATOM     65  C   UNL     1      12.172   2.707  13.054  1.00  0.00     0.198 A 
ATOM     66  F   UNL     1      11.976   1.930  10.844  1.00  0.00    -0.203 F 
ATOM     67  F   UNL     1       9.664   4.012  15.328  1.00  0.00    -0.200 F 
ATOM     68  C   UNL     1      11.589   3.237  14.195  1.00  0.00     0.200 A 
ATOM     69  F   UNL     1      13.487   2.453  13.023  1.00  0.00    -0.200 F 
ATOM     70  F   UNL     1      12.349   3.528  15.259  1.00  0.00    -0.200 F 
ENDBRANCH  37  60
ENDBRANCH  11  12
ENDBRANCH   4   6
ENDBRANCH   3   4
ENDBRANCH   2   3
ENDBRANCH   1   2
BRANCH   1  71
ATOM     71  O   UNL     1       3.571   2.051  -0.258  1.00  0.00    -0.462 OA
BRANCH  71  72
ATOM     72  C   UNL     1       2.291   2.394   0.034  1.00  0.00     0.309 C 
ATOM     73  O   UNL     1       1.419   2.537  -0.816  1.00  0.00    -0.252 OA
BRANCH  72  74
ATOM     74  C   UNL     1       2.011   2.606   1.525  1.00  0.00     0.111 C 
ATOM     75  C   UNL     1       2.524   3.954   2.044  1.00  0.00     0.016 C 
ATOM     76  C   UNL     1       2.264   1.372   2.461  1.00  0.00     0.093 C 
ATOM     77  C   UNL     1       2.068   4.242   3.474  1.00  0.00     0.001 C 
ATOM     78  C   UNL     1       1.773   1.786   3.893  1.00  0.00     0.014 C 
ATOM     79  C   UNL     1       2.357   3.088   4.415  1.00  0.00     0.001 C 
BRANCH  76  80
ATOM     80  C   UNL     1       3.979   0.789   2.343  1.00  0.00     0.228 C 
ATOM     81  O   UNL     1       4.575   1.899   2.157  1.00  0.00    -0.274 OA
ATOM     82  N   UNL     1       4.750  -1.021   2.468  1.00  0.00    -0.326 N 
ATOM     83  H   UNL     1       5.729  -0.918   2.494  1.00  0.00     0.169 HD
BRANCH  82  84
ATOM     84  C   UNL     1       4.436  -2.602   2.546  1.00  0.00     0.042 A 
ATOM     85  C   UNL     1       5.231  -3.366   3.421  1.00  0.00     0.039 A 
ATOM     86  C   UNL     1       3.390  -3.286   1.920  1.00  0.00     0.039 A 
ATOM     87  C   UNL     1       4.771  -4.615   3.902  1.00  0.00     0.058 A 
ATOM     88  C   UNL     1       2.816  -4.420   2.489  1.00  0.00     0.058 A 
ATOM     89  C   UNL     1       3.509  -5.078   3.498  1.00  0.00     0.026 A 
BRANCH  87  90
ATOM     90  C   UNL     1       5.530  -5.412   4.934  1.00  0.00     0.416 C 
ATOM     91  F   UNL     1       6.869  -5.184   4.918  1.00  0.00    -0.166 F 
ATOM     92  F   UNL     1       5.121  -5.130   6.203  1.00  0.00    -0.166 F 
ATOM     93  F   UNL     1       5.370  -6.756   4.791  1.00  0.00    -0.166 F 
ENDBRANCH  87  90
BRANCH  88  94
ATOM     94  C   UNL     1       1.414  -4.806   2.080  1.00  0.00     0.416 C 
ATOM     95  F   UNL     1       1.369  -5.947   1.351  1.00  0.00    -0.166 F 
ATOM     96  F   UNL     1       0.611  -5.001   3.163  1.00  0.00    -0.166 F 
ATOM     97  F   UNL     1       0.790  -3.849   1.339  1.00  0.00    -0.166 F 
ENDBRANCH  88  94
ENDBRANCH  82  84
ENDBRANCH  76  80
ENDBRANCH  72  74
ENDBRANCH  71  72
ENDBRANCH   1  71
TORSDOF 15
