REMARK SMILES COc1ccc(/C=C2/SC(=S)N(NS(=O)(=O)c3ccccc3)C2=O)c(C(=O)OCCOC(=O)c2ccc(-c3c4nc(c(-c5c(F)c(F)c(F)c(F)c5F)c5ccc([nH]5)c(-c5c(F)c(F)c(F)c(F)c5F)c5nc(c(-c6c(F)c(F)c(F)c(F)c6F)c6ccc3[nH]6)C=C5)C=C4)cc2)c1OC
REMARK SMILES IDX 29 1 28 2 26 3 27 4 25 5 3 6 4 7 97 8 5 9 6 10 2 11 1 12
REMARK SMILES IDX 98 13 99 14 7 15 8 16 9 17 23 18 10 19 12 20 24 21 11 22
REMARK SMILES IDX 13 23 14 25 15 26 16 27 17 28 18 29 22 30 19 31 21 32 20 33
REMARK SMILES IDX 30 34 31 35 32 36 33 37 34 38 35 39 96 40 36 41 95 42 37 43
REMARK SMILES IDX 38 44 39 45 89 46 40 47 94 48 88 49 90 50 41 51 93 52 87 53
REMARK SMILES IDX 86 54 42 56 74 57 54 58 73 59 55 60 58 61 72 62 91 63 56 64
REMARK SMILES IDX 57 65 71 67 92 68 59 69 43 70 44 71 52 72 45 73 46 74 50 75
REMARK SMILES IDX 53 76 47 77 48 78 51 79 49 80 75 81 76 82 84 83 77 84 78 85
REMARK SMILES IDX 82 86 85 87 79 88 80 89 83 90 81 91 60 92 61 93 69 94 62 95
REMARK SMILES IDX 63 96 67 97 70 98 64 99 65 100 68 101 66 102
REMARK H PARENT 13 24 90 55 58 66
REMARK Flexibility Score: inf
ROOT
ATOM      1  C   UNL     1       6.275  -3.390   0.975  1.00  0.00     0.275 C 
ENDROOT
BRANCH   1   2
ATOM      2  O   UNL     1       5.093  -2.727   1.486  1.00  0.00    -0.458 OA
BRANCH   2   3
ATOM      3  C   UNL     1       4.006  -3.471   1.831  1.00  0.00     0.342 C 
ATOM      4  O   UNL     1       3.920  -4.688   1.716  1.00  0.00    -0.246 OA
BRANCH   3   5
ATOM      5  C   UNL     1       2.887  -2.653   2.405  1.00  0.00     0.113 A 
ATOM      6  C   UNL     1       1.185  -1.002   1.887  1.00  0.00     0.161 A 
ATOM      7  C   UNL     1       0.359  -1.596   2.853  1.00  0.00     0.051 A 
ATOM      8  C   UNL     1       2.461  -1.523   1.646  1.00  0.00     0.175 A 
ATOM      9  C   UNL     1       0.830  -2.637   3.670  1.00  0.00     0.013 A 
ATOM     10  C   UNL     1       2.126  -3.144   3.512  1.00  0.00    -0.006 A 
BRANCH   6  11
ATOM     11  O   UNL     1       0.730   0.164   1.329  1.00  0.00    -0.493 OA
ATOM     12  C   UNL     1       0.028  -0.017   0.100  1.00  0.00     0.278 C 
ENDBRANCH   6  11
BRANCH   8  13
ATOM     13  O   UNL     1       3.383  -1.066   0.749  1.00  0.00    -0.492 OA
ATOM     14  C   UNL     1       3.146  -0.002  -0.143  1.00  0.00     0.278 C 
ENDBRANCH   8  13
BRANCH  10  15
ATOM     15  C   UNL     1       2.556  -4.266   4.423  1.00  0.00     0.030 C 
ATOM     16  C   UNL     1       3.354  -4.250   5.580  1.00  0.00     0.082 C 
ATOM     17  S   UNL     1       4.701  -5.799   7.014  1.00  0.00    -0.053 SA
ATOM     18  C   UNL     1       3.773  -2.435   6.180  1.00  0.00     0.281 C 
ATOM     19  C   UNL     1       5.515  -3.989   8.194  1.00  0.00     0.164 C 
ATOM     20  N   UNL     1       4.826  -2.500   7.569  1.00  0.00    -0.209 N 
ATOM     21  O   UNL     1       3.614  -1.458   5.460  1.00  0.00    -0.267 OA
ATOM     22  S   UNL     1       6.643  -4.207   9.405  1.00  0.00    -0.050 S 
BRANCH  20  23
ATOM     23  N   UNL     1       5.319  -1.210   8.036  1.00  0.00    -0.114 NA
ATOM     24  H   UNL     1       5.743  -0.733   7.241  1.00  0.00     0.168 HD
BRANCH  23  25
ATOM     25  S   UNL     1       4.154  -0.157   8.717  1.00  0.00     0.257 S 
ATOM     26  O   UNL     1       3.475  -0.944   9.730  1.00  0.00    -0.205 OA
ATOM     27  O   UNL     1       4.870   1.047   9.079  1.00  0.00    -0.205 OA
BRANCH  25  28
ATOM     28  C   UNL     1       2.953   0.268   7.477  1.00  0.00     0.084 A 
ATOM     29  C   UNL     1       3.170   1.329   6.594  1.00  0.00     0.022 A 
ATOM     30  C   UNL     1       1.755  -0.464   7.404  1.00  0.00     0.022 A 
ATOM     31  C   UNL     1       2.226   1.593   5.593  1.00  0.00     0.001 A 
ATOM     32  C   UNL     1       0.837  -0.219   6.383  1.00  0.00     0.001 A 
ATOM     33  C   UNL     1       1.076   0.807   5.475  1.00  0.00     0.000 A 
ENDBRANCH  25  28
ENDBRANCH  23  25
ENDBRANCH  20  23
ENDBRANCH  10  15
ENDBRANCH   3   5
ENDBRANCH   2   3
ENDBRANCH   1   2
BRANCH   1  34
ATOM     34  C   UNL     1       7.289  -3.747   2.073  1.00  0.00     0.275 C 
BRANCH  34  35
ATOM     35  O   UNL     1       6.774  -4.811   2.904  1.00  0.00    -0.458 OA
BRANCH  35  36
ATOM     36  C   UNL     1       5.954  -4.262   3.805  1.00  0.00     0.338 C 
ATOM     37  O   UNL     1       5.789  -3.048   3.935  1.00  0.00    -0.246 OA
BRANCH  36  38
ATOM     38  C   UNL     1       5.245  -5.059   4.793  1.00  0.00     0.060 A 
ATOM     39  C   UNL     1       4.040  -6.274   4.652  1.00  0.00     0.016 A 
ATOM     40  C   UNL     1       5.107  -3.979   6.153  1.00  0.00     0.016 A 
ATOM     41  C   UNL     1       2.662  -6.418   5.783  1.00  0.00     0.010 A 
ATOM     42  C   UNL     1       3.535  -4.139   7.438  1.00  0.00     0.010 A 
ATOM     43  C   UNL     1       2.353  -5.428   7.214  1.00  0.00    -0.014 A 
BRANCH  43  44
ATOM     44  C   UNL     1       1.505  -5.951   8.428  1.00  0.00     0.031 A 
ATOM     45  C   UNL     1       1.196  -5.183   9.740  1.00  0.00     0.074 A 
ATOM     46  C   UNL     1       1.160  -7.261   8.494  1.00  0.00     0.049 A 
ATOM     47  N   UNL     1       0.722  -5.634  10.892  1.00  0.00    -0.248 NA
ATOM     48  C   UNL     1       1.564  -3.775   9.832  1.00  0.00     0.031 C 
ATOM     49  C   UNL     1       1.629  -8.306   7.602  1.00  0.00     0.029 A 
ATOM     50  N   UNL     1       0.324  -7.960   9.344  1.00  0.00    -0.354 N 
ATOM     51  C   UNL     1       0.881  -4.606  11.831  1.00  0.00     0.074 A 
ATOM     52  C   UNL     1       1.574  -3.547  11.138  1.00  0.00     0.031 C 
ATOM     53  C   UNL     1       0.897  -9.409   7.744  1.00  0.00     0.029 A 
ATOM     54  C   UNL     1       0.069  -9.248   8.924  1.00  0.00     0.049 A 
ATOM     55  H   UNL     1      -0.052  -7.575  10.169  1.00  0.00     0.167 HD
ATOM     56  C   UNL     1       0.444  -4.498  13.119  1.00  0.00     0.037 A 
ATOM     57  C   UNL     1      -0.678 -10.246   9.433  1.00  0.00     0.037 A 
ATOM     58  C   UNL     1      -0.391  -5.479  13.774  1.00  0.00     0.049 A 
ATOM     59  C   UNL     1      -1.331 -10.055  10.760  1.00  0.00     0.074 A 
ATOM     60  C   UNL     1      -1.020  -5.402  15.007  1.00  0.00     0.029 A 
ATOM     61  N   UNL     1      -0.738  -6.709  13.233  1.00  0.00    -0.354 N 
ATOM     62  N   UNL     1      -1.227  -9.044  11.584  1.00  0.00    -0.248 NA
ATOM     63  C   UNL     1      -2.173 -11.153  11.246  1.00  0.00     0.031 C 
ATOM     64  C   UNL     1      -1.711  -6.599  15.230  1.00  0.00     0.029 A 
ATOM     65  C   UNL     1      -1.571  -7.395  14.107  1.00  0.00     0.049 A 
ATOM     66  H   UNL     1      -0.437  -7.045  12.359  1.00  0.00     0.167 HD
ATOM     67  C   UNL     1      -1.985  -9.382  12.692  1.00  0.00     0.074 A 
ATOM     68  C   UNL     1      -2.577 -10.676  12.415  1.00  0.00     0.031 C 
ATOM     69  C   UNL     1      -2.159  -8.683  13.839  1.00  0.00     0.037 A 
BRANCH  56  70
ATOM     70  C   UNL     1       0.801  -3.249  13.912  1.00  0.00     0.064 A 
ATOM     71  C   UNL     1       0.369  -1.966  13.530  1.00  0.00     0.173 A 
ATOM     72  C   UNL     1       1.538  -3.337  15.109  1.00  0.00     0.173 A 
ATOM     73  F   UNL     1      -0.371  -1.806  12.423  1.00  0.00    -0.203 F 
ATOM     74  C   UNL     1       0.724  -0.828  14.257  1.00  0.00     0.198 A 
ATOM     75  C   UNL     1       1.846  -2.202  15.864  1.00  0.00     0.198 A 
ATOM     76  F   UNL     1       1.944  -4.530  15.570  1.00  0.00    -0.203 F 
ATOM     77  F   UNL     1       0.359   0.385  13.818  1.00  0.00    -0.200 F 
ATOM     78  C   UNL     1       1.458  -0.947  15.425  1.00  0.00     0.200 A 
ATOM     79  F   UNL     1       2.516  -2.325  17.018  1.00  0.00    -0.200 F 
ATOM     80  F   UNL     1       1.785   0.146  16.130  1.00  0.00    -0.200 F 
ENDBRANCH  56  70
BRANCH  57  81
ATOM     81  C   UNL     1      -0.840 -11.506   8.654  1.00  0.00     0.064 A 
ATOM     82  C   UNL     1      -2.065 -11.807   8.041  1.00  0.00     0.173 A 
ATOM     83  C   UNL     1       0.237 -12.373   8.411  1.00  0.00     0.173 A 
ATOM     84  F   UNL     1      -3.132 -11.024   8.257  1.00  0.00    -0.203 F 
ATOM     85  C   UNL     1      -2.201 -12.917   7.208  1.00  0.00     0.198 A 
ATOM     86  C   UNL     1       0.113 -13.450   7.538  1.00  0.00     0.198 A 
ATOM     87  F   UNL     1       1.437 -12.121   8.957  1.00  0.00    -0.203 F 
ATOM     88  F   UNL     1      -3.390 -13.194   6.655  1.00  0.00    -0.200 F 
ATOM     89  C   UNL     1      -1.107 -13.725   6.941  1.00  0.00     0.200 A 
ATOM     90  F   UNL     1       1.186 -14.200   7.247  1.00  0.00    -0.200 F 
ATOM     91  F   UNL     1      -1.226 -14.762   6.101  1.00  0.00    -0.200 F 
ENDBRANCH  57  81
BRANCH  69  92
ATOM     92  C   UNL     1      -3.073  -9.284  14.863  1.00  0.00     0.064 A 
ATOM     93  C   UNL     1      -2.730 -10.444  15.575  1.00  0.00     0.173 A 
ATOM     94  C   UNL     1      -4.323  -8.701  15.118  1.00  0.00     0.173 A 
ATOM     95  F   UNL     1      -1.554 -11.051  15.351  1.00  0.00    -0.203 F 
ATOM     96  C   UNL     1      -3.625 -11.023  16.470  1.00  0.00     0.198 A 
ATOM     97  C   UNL     1      -5.199  -9.262  16.042  1.00  0.00     0.198 A 
ATOM     98  F   UNL     1      -4.699  -7.591  14.466  1.00  0.00    -0.203 F 
ATOM     99  F   UNL     1      -3.308 -12.173  17.081  1.00  0.00    -0.200 F 
ATOM    100  C   UNL     1      -4.856 -10.430  16.706  1.00  0.00     0.200 A 
ATOM    101  F   UNL     1      -6.384  -8.681  16.276  1.00  0.00    -0.200 F 
ATOM    102  F   UNL     1      -5.719 -10.993  17.562  1.00  0.00    -0.200 F 
ENDBRANCH  69  92
ENDBRANCH  43  44
ENDBRANCH  36  38
ENDBRANCH  35  36
ENDBRANCH  34  35
ENDBRANCH   1  34
TORSDOF 17
