REMARK SMILES O=C(OCCOC(=O)[C@H]1C=C[C@@H](NC(=O)c2ccc(Cl)cn2)C1)c1ccc(-c2c3nc(c(-c4c(F)c(F)c(F)c(F)c4F)c4ccc([nH]4)c(-c4c(F)c(F)c(F)c(F)c4F)c4nc(c(-c5c(F)c(F)c(F)c(F)c5F)c5ccc2[nH]5)C=C4)C=C3)cc1
REMARK SMILES IDX 4 1 3 2 2 3 1 4 24 5 25 6 86 7 26 8 85 9 27 10 28 11 29 12
REMARK SMILES IDX 79 13 30 14 84 15 78 16 80 17 31 18 83 19 77 20 76 21 32 23
REMARK SMILES IDX 64 24 44 25 63 26 45 27 48 28 62 29 81 30 46 31 47 32 61 34
REMARK SMILES IDX 82 35 49 36 33 37 34 38 42 39 35 40 36 41 40 42 43 43 37 44
REMARK SMILES IDX 38 45 41 46 39 47 65 48 66 49 74 50 67 51 68 52 72 53 75 54
REMARK SMILES IDX 69 55 70 56 73 57 71 58 50 59 51 60 59 61 52 62 53 63 57 64
REMARK SMILES IDX 60 65 54 66 55 67 58 68 56 69 5 70 6 71 7 72 8 73 9 74 10 75
REMARK SMILES IDX 23 76 11 77 12 78 13 79 14 80 15 82 16 83 17 84 22 85 18 86
REMARK SMILES IDX 21 87 19 88 20 89
REMARK H PARENT 80 22 48 33 13 81
REMARK Flexibility Score: inf
ROOT
ATOM      1  C   UNL     1       3.925  -1.248  -0.955  1.00  0.00     0.275 C 
ENDROOT
BRANCH   1   2
ATOM      2  O   UNL     1       2.941  -0.978   0.053  1.00  0.00    -0.458 OA
BRANCH   2   3
ATOM      3  C   UNL     1       2.969  -0.048   1.034  1.00  0.00     0.338 C 
ATOM      4  O   UNL     1       2.174  -0.132   1.968  1.00  0.00    -0.246 OA
BRANCH   3   5
ATOM      5  C   UNL     1       3.805   1.187   0.944  1.00  0.00     0.060 A 
ATOM      6  C   UNL     1       5.085   1.280   0.391  1.00  0.00     0.016 A 
ATOM      7  C   UNL     1       3.230   2.352   1.475  1.00  0.00     0.016 A 
ATOM      8  C   UNL     1       5.731   2.513   0.268  1.00  0.00     0.010 A 
ATOM      9  C   UNL     1       3.861   3.588   1.340  1.00  0.00     0.010 A 
ATOM     10  C   UNL     1       5.117   3.676   0.727  1.00  0.00    -0.014 A 
BRANCH  10  11
ATOM     11  C   UNL     1       5.831   4.971   0.704  1.00  0.00     0.031 A 
ATOM     12  C   UNL     1       6.258   5.562   2.016  1.00  0.00     0.074 A 
ATOM     13  C   UNL     1       6.053   5.620  -0.455  1.00  0.00     0.049 A 
ATOM     14  N   UNL     1       6.808   6.719   2.266  1.00  0.00    -0.248 NA
ATOM     15  C   UNL     1       6.048   4.723   3.210  1.00  0.00     0.031 C 
ATOM     16  C   UNL     1       5.747   5.114  -1.794  1.00  0.00     0.029 A 
ATOM     17  N   UNL     1       6.518   6.889  -0.685  1.00  0.00    -0.354 N 
ATOM     18  C   UNL     1       7.053   6.723   3.631  1.00  0.00     0.074 A 
ATOM     19  C   UNL     1       6.479   5.515   4.177  1.00  0.00     0.031 C 
ATOM     20  C   UNL     1       5.899   6.106  -2.688  1.00  0.00     0.029 A 
ATOM     21  C   UNL     1       6.355   7.300  -1.989  1.00  0.00     0.049 A 
ATOM     22  H   UNL     1       6.927   7.450   0.012  1.00  0.00     0.167 HD
ATOM     23  C   UNL     1       7.769   7.619   4.349  1.00  0.00     0.037 A 
ATOM     24  C   UNL     1       6.540   8.516  -2.536  1.00  0.00     0.037 A 
ATOM     25  C   UNL     1       8.323   8.817   3.785  1.00  0.00     0.049 A 
ATOM     26  C   UNL     1       7.146   9.593  -1.676  1.00  0.00     0.074 A 
ATOM     27  C   UNL     1       9.112   9.778   4.386  1.00  0.00     0.029 A 
ATOM     28  N   UNL     1       8.122   9.222   2.471  1.00  0.00    -0.354 N 
ATOM     29  N   UNL     1       7.497   9.545  -0.413  1.00  0.00    -0.248 NA
ATOM     30  C   UNL     1       7.454  10.868  -2.336  1.00  0.00     0.031 C 
ATOM     31  C   UNL     1       9.353  10.787   3.446  1.00  0.00     0.029 A 
ATOM     32  C   UNL     1       8.751  10.433   2.247  1.00  0.00     0.049 A 
ATOM     33  H   UNL     1       7.607   8.720   1.798  1.00  0.00     0.167 HD
ATOM     34  C   UNL     1       8.139  10.745  -0.147  1.00  0.00     0.074 A 
ATOM     35  C   UNL     1       8.103  11.514  -1.376  1.00  0.00     0.031 C 
ATOM     36  C   UNL     1       8.736  11.156   0.999  1.00  0.00     0.037 A 
BRANCH  23  37
ATOM     37  C   UNL     1       8.002   7.288   5.794  1.00  0.00     0.064 A 
ATOM     38  C   UNL     1       8.799   6.191   6.166  1.00  0.00     0.173 A 
ATOM     39  C   UNL     1       7.386   8.025   6.813  1.00  0.00     0.173 A 
ATOM     40  F   UNL     1       9.398   5.442   5.227  1.00  0.00    -0.203 F 
ATOM     41  C   UNL     1       8.919   5.809   7.499  1.00  0.00     0.198 A 
ATOM     42  C   UNL     1       7.536   7.659   8.150  1.00  0.00     0.198 A 
ATOM     43  F   UNL     1       6.617   9.083   6.516  1.00  0.00    -0.203 F 
ATOM     44  F   UNL     1       9.615   4.708   7.818  1.00  0.00    -0.200 F 
ATOM     45  C   UNL     1       8.287   6.543   8.489  1.00  0.00     0.200 A 
ATOM     46  F   UNL     1       6.930   8.371   9.110  1.00  0.00    -0.200 F 
ATOM     47  F   UNL     1       8.387   6.164   9.771  1.00  0.00    -0.200 F 
ENDBRANCH  23  37
BRANCH  24  48
ATOM     48  C   UNL     1       6.228   8.766  -3.968  1.00  0.00     0.064 A 
ATOM     49  C   UNL     1       7.252   8.867  -4.919  1.00  0.00     0.173 A 
ATOM     50  C   UNL     1       4.910   8.948  -4.414  1.00  0.00     0.173 A 
ATOM     51  F   UNL     1       8.530   8.723  -4.542  1.00  0.00    -0.203 F 
ATOM     52  C   UNL     1       6.972   9.163  -6.253  1.00  0.00     0.198 A 
ATOM     53  C   UNL     1       4.629   9.227  -5.752  1.00  0.00     0.198 A 
ATOM     54  F   UNL     1       3.892   8.877  -3.550  1.00  0.00    -0.203 F 
ATOM     55  F   UNL     1       7.976   9.297  -7.131  1.00  0.00    -0.200 F 
ATOM     56  C   UNL     1       5.662   9.342  -6.668  1.00  0.00     0.200 A 
ATOM     57  F   UNL     1       3.361   9.399  -6.151  1.00  0.00    -0.200 F 
ATOM     58  F   UNL     1       5.396   9.636  -7.949  1.00  0.00    -0.200 F 
ENDBRANCH  24  48
BRANCH  36  59
ATOM     59  C   UNL     1       9.493  12.448   0.950  1.00  0.00     0.064 A 
ATOM     60  C   UNL     1       8.844  13.688   0.896  1.00  0.00     0.173 A 
ATOM     61  C   UNL     1      10.895  12.437   1.018  1.00  0.00     0.173 A 
ATOM     62  F   UNL     1       7.507  13.749   0.810  1.00  0.00    -0.203 F 
ATOM     63  C   UNL     1       9.574  14.873   0.898  1.00  0.00     0.198 A 
ATOM     64  C   UNL     1      11.619  13.623   1.053  1.00  0.00     0.198 A 
ATOM     65  F   UNL     1      11.561  11.273   1.074  1.00  0.00    -0.203 F 
ATOM     66  F   UNL     1       8.938  16.049   0.805  1.00  0.00    -0.200 F 
ATOM     67  C   UNL     1      10.959  14.840   0.988  1.00  0.00     0.200 A 
ATOM     68  F   UNL     1      12.955  13.588   1.157  1.00  0.00    -0.200 F 
ATOM     69  F   UNL     1      11.658  15.983   1.009  1.00  0.00    -0.200 F 
ENDBRANCH  36  59
ENDBRANCH  10  11
ENDBRANCH   3   5
ENDBRANCH   2   3
ENDBRANCH   1   2
BRANCH   1  70
ATOM     70  C   UNL     1       3.800  -0.425  -2.243  1.00  0.00     0.274 C 
BRANCH  70  71
ATOM     71  O   UNL     1       3.276   0.906  -2.082  1.00  0.00    -0.462 OA
BRANCH  71  72
ATOM     72  C   UNL     1       1.929   1.002  -2.259  1.00  0.00     0.312 C 
ATOM     73  O   UNL     1       1.192   0.034  -2.422  1.00  0.00    -0.252 OA
BRANCH  72  74
ATOM     74  C   UNL     1       1.380   2.422  -2.210  1.00  0.00     0.124 C 
ATOM     75  C   UNL     1       0.974   2.858  -0.833  1.00  0.00    -0.014 C 
ATOM     76  C   UNL     1       2.275   3.587  -2.650  1.00  0.00     0.048 C 
ATOM     77  C   UNL     1       1.123   4.183  -0.693  1.00  0.00    -0.006 C 
ATOM     78  C   UNL     1       1.639   4.802  -1.954  1.00  0.00     0.106 C 
BRANCH  78  79
ATOM     79  N   UNL     1       2.545   5.865  -1.605  1.00  0.00    -0.344 N 
ATOM     80  C   UNL     1       2.256   7.210  -1.531  1.00  0.00     0.270 C 
ATOM     81  H   UNL     1       3.471   5.602  -1.397  1.00  0.00     0.164 HD
ATOM     82  O   UNL     1       3.047   8.006  -1.031  1.00  0.00    -0.267 OA
BRANCH  80  83
ATOM     83  C   UNL     1       0.923   7.672  -1.981  1.00  0.00     0.128 A 
ATOM     84  C   UNL     1      -0.121   7.658  -1.064  1.00  0.00     0.036 A 
ATOM     85  N   UNL     1       0.786   7.985  -3.296  1.00  0.00    -0.250 NA
ATOM     86  C   UNL     1      -1.396   7.979  -1.520  1.00  0.00     0.024 A 
ATOM     87  C   UNL     1      -0.460   8.335  -3.693  1.00  0.00     0.132 A 
ATOM     88  C   UNL     1      -1.569   8.330  -2.856  1.00  0.00     0.059 A 
ATOM     89  Cl  UNL     1      -3.127   8.728  -3.454  1.00  0.00    -0.083 Cl
ENDBRANCH  80  83
ENDBRANCH  78  79
ENDBRANCH  72  74
ENDBRANCH  71  72
ENDBRANCH  70  71
ENDBRANCH   1  70
TORSDOF 13
