REMARK SMILES O=C(OCCOC(=O)c1ccc(-c2ccn(C(F)F)c(=O)c2)cc1O)c1ccc(-c2c3nc(c(-c4c(F)c(F)c(F)c(F)c4F)c4ccc([nH]4)c(-c4c(F)c(F)c(F)c(F)c4F)c4nc(c(-c5c(F)c(F)c(F)c(F)c5F)c5ccc2[nH]5)C=C4)C=C3)cc1
REMARK SMILES IDX 4 1 3 2 2 3 1 4 26 5 27 6 88 7 28 8 87 9 29 10 30 11 31 12
REMARK SMILES IDX 81 13 32 14 86 15 80 16 82 17 33 18 85 19 79 20 78 21 34 23
REMARK SMILES IDX 66 24 46 25 65 26 47 27 50 28 64 29 83 30 48 31 49 32 63 34
REMARK SMILES IDX 84 35 51 36 35 37 36 38 44 39 37 40 38 41 42 42 45 43 39 44
REMARK SMILES IDX 40 45 43 46 41 47 67 48 68 49 76 50 69 51 70 52 74 53 77 54
REMARK SMILES IDX 71 55 72 56 75 57 73 58 52 59 53 60 61 61 54 62 55 63 59 64
REMARK SMILES IDX 62 65 56 66 57 67 60 68 58 69 5 70 6 71 7 72 8 73 9 74 10 75
REMARK SMILES IDX 24 76 11 77 23 78 12 79 25 80 13 82 14 83 22 84 15 85 20 86
REMARK SMILES IDX 16 87 21 88 17 89 18 90 19 91
REMARK H PARENT 82 22 50 33 25 81
REMARK Flexibility Score: inf
ROOT
ATOM      1  C   UNL     1       4.204  -1.346  -0.046  1.00  0.00     0.275 C 
ENDROOT
BRANCH   1   2
ATOM      2  O   UNL     1       3.313  -0.591   0.790  1.00  0.00    -0.458 OA
BRANCH   2   3
ATOM      3  C   UNL     1       3.364   0.730   1.083  1.00  0.00     0.338 C 
ATOM      4  O   UNL     1       2.792   1.157   2.083  1.00  0.00    -0.246 OA
BRANCH   3   5
ATOM      5  C   UNL     1       3.897   1.725   0.108  1.00  0.00     0.060 A 
ATOM      6  C   UNL     1       3.131   2.885  -0.061  1.00  0.00     0.016 A 
ATOM      7  C   UNL     1       5.097   1.621  -0.599  1.00  0.00     0.016 A 
ATOM      8  C   UNL     1       3.495   3.849  -1.001  1.00  0.00     0.010 A 
ATOM      9  C   UNL     1       5.461   2.589  -1.546  1.00  0.00     0.010 A 
ATOM     10  C   UNL     1       4.646   3.698  -1.783  1.00  0.00    -0.014 A 
BRANCH  10  11
ATOM     11  C   UNL     1       5.062   4.764  -2.727  1.00  0.00     0.031 A 
ATOM     12  C   UNL     1       5.051   4.575  -4.217  1.00  0.00     0.074 A 
ATOM     13  C   UNL     1       5.471   5.940  -2.220  1.00  0.00     0.049 A 
ATOM     14  N   UNL     1       5.189   5.469  -5.165  1.00  0.00    -0.248 NA
ATOM     15  C   UNL     1       4.826   3.216  -4.716  1.00  0.00     0.031 C 
ATOM     16  C   UNL     1       5.545   6.258  -0.795  1.00  0.00     0.029 A 
ATOM     17  N   UNL     1       5.916   7.072  -2.846  1.00  0.00    -0.354 N 
ATOM     18  C   UNL     1       4.934   4.804  -6.356  1.00  0.00     0.074 A 
ATOM     19  C   UNL     1       4.720   3.413  -6.024  1.00  0.00     0.031 C 
ATOM     20  C   UNL     1       6.017   7.504  -0.654  1.00  0.00     0.029 A 
ATOM     21  C   UNL     1       6.317   8.049  -1.974  1.00  0.00     0.049 A 
ATOM     22  H   UNL     1       5.946   7.174  -3.825  1.00  0.00     0.167 HD
ATOM     23  C   UNL     1       4.872   5.312  -7.610  1.00  0.00     0.037 A 
ATOM     24  C   UNL     1       6.897   9.239  -2.209  1.00  0.00     0.037 A 
ATOM     25  C   UNL     1       5.328   6.631  -7.963  1.00  0.00     0.049 A 
ATOM     26  C   UNL     1       7.124   9.673  -3.625  1.00  0.00     0.074 A 
ATOM     27  C   UNL     1       5.413   7.217  -9.214  1.00  0.00     0.029 A 
ATOM     28  N   UNL     1       5.869   7.537  -7.061  1.00  0.00    -0.354 N 
ATOM     29  N   UNL     1       6.765   9.082  -4.738  1.00  0.00    -0.248 NA
ATOM     30  C   UNL     1       7.848  10.935  -3.817  1.00  0.00     0.031 C 
ATOM     31  C   UNL     1       6.101   8.431  -9.078  1.00  0.00     0.029 A 
ATOM     32  C   UNL     1       6.382   8.633  -7.736  1.00  0.00     0.049 A 
ATOM     33  H   UNL     1       5.886   7.417  -6.084  1.00  0.00     0.167 HD
ATOM     34  C   UNL     1       7.204   9.902  -5.766  1.00  0.00     0.074 A 
ATOM     35  C   UNL     1       7.850  11.039  -5.139  1.00  0.00     0.031 C 
ATOM     36  C   UNL     1       7.076   9.729  -7.106  1.00  0.00     0.037 A 
BRANCH  23  37
ATOM     37  C   UNL     1       4.334   4.418  -8.687  1.00  0.00     0.064 A 
ATOM     38  C   UNL     1       2.956   4.158  -8.779  1.00  0.00     0.173 A 
ATOM     39  C   UNL     1       5.174   3.849  -9.654  1.00  0.00     0.173 A 
ATOM     40  F   UNL     1       2.108   4.675  -7.877  1.00  0.00    -0.203 F 
ATOM     41  C   UNL     1       2.443   3.353  -9.794  1.00  0.00     0.198 A 
ATOM     42  C   UNL     1       4.656   3.054 -10.675  1.00  0.00     0.198 A 
ATOM     43  F   UNL     1       6.496   4.065  -9.611  1.00  0.00    -0.203 F 
ATOM     44  F   UNL     1       1.127   3.105  -9.850  1.00  0.00    -0.200 F 
ATOM     45  C   UNL     1       3.293   2.804 -10.743  1.00  0.00     0.200 A 
ATOM     46  F   UNL     1       5.477   2.527 -11.594  1.00  0.00    -0.200 F 
ATOM     47  F   UNL     1       2.798   2.032 -11.720  1.00  0.00    -0.200 F 
ENDBRANCH  23  37
BRANCH  24  48
ATOM     48  C   UNL     1       7.309  10.060  -1.047  1.00  0.00     0.064 A 
ATOM     49  C   UNL     1       6.601  11.213  -0.692  1.00  0.00     0.173 A 
ATOM     50  C   UNL     1       8.348   9.638  -0.202  1.00  0.00     0.173 A 
ATOM     51  F   UNL     1       5.619  11.667  -1.483  1.00  0.00    -0.203 F 
ATOM     52  C   UNL     1       6.899  11.899   0.484  1.00  0.00     0.198 A 
ATOM     53  C   UNL     1       8.628  10.310   0.984  1.00  0.00     0.198 A 
ATOM     54  F   UNL     1       9.054   8.537  -0.503  1.00  0.00    -0.203 F 
ATOM     55  F   UNL     1       6.207  13.000   0.807  1.00  0.00    -0.200 F 
ATOM     56  C   UNL     1       7.899  11.438   1.328  1.00  0.00     0.200 A 
ATOM     57  F   UNL     1       9.582   9.850   1.804  1.00  0.00    -0.200 F 
ATOM     58  F   UNL     1       8.158  12.077   2.477  1.00  0.00    -0.200 F 
ENDBRANCH  24  48
BRANCH  36  59
ATOM     59  C   UNL     1       7.689  10.780  -7.984  1.00  0.00     0.064 A 
ATOM     60  C   UNL     1       9.082  10.904  -8.105  1.00  0.00     0.173 A 
ATOM     61  C   UNL     1       6.884  11.662  -8.719  1.00  0.00     0.173 A 
ATOM     62  F   UNL     1       9.895  10.092  -7.413  1.00  0.00    -0.203 F 
ATOM     63  C   UNL     1       9.645  11.896  -8.904  1.00  0.00     0.198 A 
ATOM     64  C   UNL     1       7.451  12.633  -9.540  1.00  0.00     0.198 A 
ATOM     65  F   UNL     1       5.547  11.579  -8.647  1.00  0.00    -0.203 F 
ATOM     66  F   UNL     1      10.977  12.030  -8.961  1.00  0.00    -0.200 F 
ATOM     67  C   UNL     1       8.830  12.755  -9.624  1.00  0.00     0.200 A 
ATOM     68  F   UNL     1       6.662  13.453 -10.248  1.00  0.00    -0.200 F 
ATOM     69  F   UNL     1       9.373  13.709 -10.393  1.00  0.00    -0.200 F 
ENDBRANCH  36  59
ENDBRANCH  10  11
ENDBRANCH   3   5
ENDBRANCH   2   3
ENDBRANCH   1   2
BRANCH   1  70
ATOM     70  C   UNL     1       3.697  -1.582  -1.472  1.00  0.00     0.275 C 
BRANCH  70  71
ATOM     71  O   UNL     1       3.159  -0.410  -2.111  1.00  0.00    -0.458 OA
BRANCH  71  72
ATOM     72  C   UNL     1       1.813  -0.245  -1.975  1.00  0.00     0.342 C 
ATOM     73  O   UNL     1       1.044  -0.994  -1.399  1.00  0.00    -0.246 OA
BRANCH  72  74
ATOM     74  C   UNL     1       1.415   1.051  -2.564  1.00  0.00     0.101 A 
ATOM     75  C   UNL     1       0.551   1.866  -1.821  1.00  0.00     0.020 A 
ATOM     76  C   UNL     1       1.889   1.506  -3.796  1.00  0.00     0.130 A 
ATOM     77  C   UNL     1       0.254   3.166  -2.256  1.00  0.00     0.010 A 
ATOM     78  C   UNL     1       1.554   2.786  -4.247  1.00  0.00     0.055 A 
ATOM     79  C   UNL     1       0.784   3.654  -3.458  1.00  0.00    -0.014 A 
BRANCH  76  80
ATOM     80  O   UNL     1       2.707   0.770  -4.612  1.00  0.00    -0.507 OA
ATOM     81  H   UNL     1       2.964  -0.095  -4.360  1.00  0.00     0.293 HD
ENDBRANCH  76  80
BRANCH  79  82
ATOM     82  C   UNL     1       0.617   5.065  -3.882  1.00  0.00    -0.011 A 
ATOM     83  C   UNL     1       0.144   5.447  -5.200  1.00  0.00     0.027 A 
ATOM     84  C   UNL     1       1.002   6.044  -3.042  1.00  0.00     0.080 A 
ATOM     85  C   UNL     1       0.121   6.731  -5.578  1.00  0.00     0.095 A 
ATOM     86  C   UNL     1       0.983   7.479  -3.442  1.00  0.00     0.255 A 
ATOM     87  N   UNL     1       0.535   7.737  -4.724  1.00  0.00    -0.258 N 
ATOM     88  O   UNL     1       1.355   8.315  -2.625  1.00  0.00    -0.269 OA
BRANCH  87  89
ATOM     89  C   UNL     1       0.531   9.113  -5.149  1.00  0.00     0.451 C 
ATOM     90  F   UNL     1      -0.243   9.873  -4.334  1.00  0.00    -0.185 F 
ATOM     91  F   UNL     1       1.782   9.633  -5.139  1.00  0.00    -0.185 F 
ENDBRANCH  87  89
ENDBRANCH  79  82
ENDBRANCH  72  74
ENDBRANCH  71  72
ENDBRANCH  70  71
ENDBRANCH   1  70
TORSDOF 14
