REMARK SMILES O=C(OCCOC(=O)[C@@H]1CCCN1S(=O)(=O)c1ccc2[nH]c(=O)c(=O)[nH]c2c1)c1ccc(-c2c3nc(c(-c4c(F)c(F)c(F)c(F)c4F)c4ccc([nH]4)c(-c4c(F)c(F)c(F)c(F)c4F)c4nc(c(-c5c(F)c(F)c(F)c(F)c5F)c5ccc2[nH]5)C=C4)C=C3)cc1
REMARK SMILES IDX 4 1 3 2 2 3 1 4 29 5 30 6 91 7 31 8 90 9 32 10 33 11 34 12
REMARK SMILES IDX 84 13 35 14 89 15 83 16 85 17 36 18 88 19 82 20 81 21 37 23
REMARK SMILES IDX 69 24 49 25 68 26 50 27 53 28 67 29 86 30 51 31 52 32 66 34
REMARK SMILES IDX 87 35 54 36 38 37 39 38 47 39 40 40 41 41 45 42 48 43 42 44
REMARK SMILES IDX 43 45 46 46 44 47 70 48 71 49 79 50 72 51 73 52 77 53 80 54
REMARK SMILES IDX 74 55 75 56 78 57 76 58 55 59 56 60 64 61 57 62 58 63 62 64
REMARK SMILES IDX 65 65 59 66 60 67 63 68 61 69 5 70 6 71 7 72 8 73 9 74 10 75
REMARK SMILES IDX 13 76 11 77 12 78 14 79 15 80 16 81 17 82 18 83 28 84 19 85
REMARK SMILES IDX 27 86 20 87 26 88 21 89 24 90 22 92 25 94 23 95
REMARK H PARENT 85 22 53 33 26 91 21 93
REMARK Flexibility Score: inf
ROOT
ATOM      1  C   UNL     1       4.019   1.552   0.092  1.00  0.00     0.275 C 
ENDROOT
BRANCH   1   2
ATOM      2  O   UNL     1       3.044   1.494  -0.958  1.00  0.00    -0.458 OA
BRANCH   2   3
ATOM      3  C   UNL     1       2.646   0.423  -1.675  1.00  0.00     0.338 C 
ATOM      4  O   UNL     1       1.488   0.405  -2.092  1.00  0.00    -0.246 OA
BRANCH   3   5
ATOM      5  C   UNL     1       3.519  -0.757  -2.004  1.00  0.00     0.060 A 
ATOM      6  C   UNL     1       4.787  -1.038  -1.478  1.00  0.00     0.016 A 
ATOM      7  C   UNL     1       2.934  -1.728  -2.840  1.00  0.00     0.016 A 
ATOM      8  C   UNL     1       5.409  -2.271  -1.686  1.00  0.00     0.010 A 
ATOM      9  C   UNL     1       3.555  -2.958  -3.066  1.00  0.00     0.010 A 
ATOM     10  C   UNL     1       4.794  -3.237  -2.476  1.00  0.00    -0.014 A 
BRANCH  10  11
ATOM     11  C   UNL     1       5.532  -4.456  -2.856  1.00  0.00     0.031 A 
ATOM     12  C   UNL     1       6.210  -4.454  -4.184  1.00  0.00     0.074 A 
ATOM     13  C   UNL     1       5.616  -5.518  -2.037  1.00  0.00     0.049 A 
ATOM     14  N   UNL     1       6.846  -5.421  -4.782  1.00  0.00    -0.248 NA
ATOM     15  C   UNL     1       6.218  -3.174  -4.915  1.00  0.00     0.031 C 
ATOM     16  C   UNL     1       5.161  -5.548  -0.655  1.00  0.00     0.029 A 
ATOM     17  N   UNL     1       6.073  -6.792  -2.255  1.00  0.00    -0.354 N 
ATOM     18  C   UNL     1       7.363  -4.858  -5.936  1.00  0.00     0.074 A 
ATOM     19  C   UNL     1       6.926  -3.482  -5.989  1.00  0.00     0.031 C 
ATOM     20  C   UNL     1       5.219  -6.807  -0.188  1.00  0.00     0.029 A 
ATOM     21  C   UNL     1       5.750  -7.663  -1.238  1.00  0.00     0.049 A 
ATOM     22  H   UNL     1       6.580  -7.057  -3.056  1.00  0.00     0.167 HD
ATOM     23  C   UNL     1       8.158  -5.448  -6.853  1.00  0.00     0.037 A 
ATOM     24  C   UNL     1       5.849  -9.004  -1.189  1.00  0.00     0.037 A 
ATOM     25  C   UNL     1       8.549  -6.827  -6.786  1.00  0.00     0.049 A 
ATOM     26  C   UNL     1       6.551  -9.687  -2.333  1.00  0.00     0.074 A 
ATOM     27  C   UNL     1       9.343  -7.541  -7.661  1.00  0.00     0.029 A 
ATOM     28  N   UNL     1       8.146  -7.708  -5.790  1.00  0.00    -0.354 N 
ATOM     29  N   UNL     1       7.075  -9.149  -3.409  1.00  0.00    -0.248 NA
ATOM     30  C   UNL     1       6.722 -11.141  -2.243  1.00  0.00     0.031 C 
ATOM     31  C   UNL     1       9.359  -8.873  -7.235  1.00  0.00     0.029 A 
ATOM     32  C   UNL     1       8.630  -8.976  -6.059  1.00  0.00     0.049 A 
ATOM     33  H   UNL     1       7.599  -7.466  -5.008  1.00  0.00     0.167 HD
ATOM     34  C   UNL     1       7.691 -10.185  -4.093  1.00  0.00     0.074 A 
ATOM     35  C   UNL     1       7.471 -11.385  -3.309  1.00  0.00     0.031 C 
ATOM     36  C   UNL     1       8.390 -10.147  -5.254  1.00  0.00     0.037 A 
BRANCH  23  37
ATOM     37  C   UNL     1       8.602  -4.613  -8.010  1.00  0.00     0.064 A 
ATOM     38  C   UNL     1       9.553  -3.592  -7.865  1.00  0.00     0.173 A 
ATOM     39  C   UNL     1       8.063  -4.837  -9.284  1.00  0.00     0.173 A 
ATOM     40  F   UNL     1      10.068  -3.314  -6.657  1.00  0.00    -0.203 F 
ATOM     41  C   UNL     1       9.942  -2.818  -8.955  1.00  0.00     0.198 A 
ATOM     42  C   UNL     1       8.473  -4.079 -10.376  1.00  0.00     0.198 A 
ATOM     43  F   UNL     1       7.135  -5.788  -9.467  1.00  0.00    -0.203 F 
ATOM     44  F   UNL     1      10.818  -1.818  -8.787  1.00  0.00    -0.200 F 
ATOM     45  C   UNL     1       9.408  -3.069 -10.211  1.00  0.00     0.200 A 
ATOM     46  F   UNL     1       7.954  -4.322 -11.588  1.00  0.00    -0.200 F 
ATOM     47  F   UNL     1       9.787  -2.328 -11.261  1.00  0.00    -0.200 F 
ENDBRANCH  23  37
BRANCH  24  48
ATOM     48  C   UNL     1       5.274  -9.782  -0.057  1.00  0.00     0.064 A 
ATOM     49  C   UNL     1       6.087 -10.511   0.821  1.00  0.00     0.173 A 
ATOM     50  C   UNL     1       3.884  -9.874   0.123  1.00  0.00     0.173 A 
ATOM     51  F   UNL     1       7.421 -10.473   0.684  1.00  0.00    -0.203 F 
ATOM     52  C   UNL     1       5.536 -11.337   1.801  1.00  0.00     0.198 A 
ATOM     53  C   UNL     1       3.334 -10.681   1.119  1.00  0.00     0.198 A 
ATOM     54  F   UNL     1       3.054  -9.197  -0.685  1.00  0.00    -0.203 F 
ATOM     55  F   UNL     1       6.339 -12.079   2.576  1.00  0.00    -0.200 F 
ATOM     56  C   UNL     1       4.160 -11.424   1.948  1.00  0.00     0.200 A 
ATOM     57  F   UNL     1       2.003 -10.759   1.258  1.00  0.00    -0.200 F 
ATOM     58  F   UNL     1       3.632 -12.239   2.871  1.00  0.00    -0.200 F 
ENDBRANCH  24  48
BRANCH  36  59
ATOM     59  C   UNL     1       8.987 -11.437  -5.727  1.00  0.00     0.064 A 
ATOM     60  C   UNL     1       8.188 -12.476  -6.224  1.00  0.00     0.173 A 
ATOM     61  C   UNL     1      10.379 -11.612  -5.731  1.00  0.00     0.173 A 
ATOM     62  F   UNL     1       6.851 -12.359  -6.223  1.00  0.00    -0.203 F 
ATOM     63  C   UNL     1       8.761 -13.655  -6.688  1.00  0.00     0.198 A 
ATOM     64  C   UNL     1      10.950 -12.776  -6.231  1.00  0.00     0.198 A 
ATOM     65  F   UNL     1      11.185 -10.643  -5.270  1.00  0.00    -0.203 F 
ATOM     66  F   UNL     1       7.977 -14.655  -7.111  1.00  0.00    -0.200 F 
ATOM     67  C   UNL     1      10.141 -13.799  -6.702  1.00  0.00     0.200 A 
ATOM     68  F   UNL     1      12.283 -12.906  -6.263  1.00  0.00    -0.200 F 
ATOM     69  F   UNL     1      10.691 -14.929  -7.165  1.00  0.00    -0.200 F 
ENDBRANCH  36  59
ENDBRANCH  10  11
ENDBRANCH   3   5
ENDBRANCH   2   3
ENDBRANCH   1   2
BRANCH   1  70
ATOM     70  C   UNL     1       3.687   0.679   1.305  1.00  0.00     0.274 C 
BRANCH  70  71
ATOM     71  O   UNL     1       3.429  -0.696   0.959  1.00  0.00    -0.461 OA
BRANCH  71  72
ATOM     72  C   UNL     1       2.239  -1.252   1.350  1.00  0.00     0.324 C 
ATOM     73  O   UNL     1       1.423  -0.698   2.072  1.00  0.00    -0.250 OA
BRANCH  72  74
ATOM     74  C   UNL     1       2.070  -2.617   0.723  1.00  0.00     0.183 C 
ATOM     75  C   UNL     1       0.621  -3.092   0.673  1.00  0.00     0.034 C 
ATOM     76  N   UNL     1       2.850  -3.829   1.123  1.00  0.00    -0.184 NA
ATOM     77  C   UNL     1       0.763  -4.440  -0.000  1.00  0.00     0.019 C 
ATOM     78  C   UNL     1       2.054  -5.004   0.576  1.00  0.00     0.103 C 
BRANCH  76  79
ATOM     79  S   UNL     1       3.299  -4.079   2.754  1.00  0.00     0.243 S 
ATOM     80  O   UNL     1       2.108  -3.896   3.559  1.00  0.00    -0.207 OA
ATOM     81  O   UNL     1       4.033  -5.324   2.797  1.00  0.00    -0.207 OA
BRANCH  79  82
ATOM     82  C   UNL     1       4.459  -2.801   3.197  1.00  0.00     0.084 A 
ATOM     83  C   UNL     1       3.987  -1.651   3.840  1.00  0.00     0.024 A 
ATOM     84  C   UNL     1       5.840  -3.006   3.050  1.00  0.00     0.050 A 
ATOM     85  C   UNL     1       4.865  -0.616   4.160  1.00  0.00     0.030 A 
ATOM     86  C   UNL     1       6.720  -1.986   3.426  1.00  0.00     0.066 A 
ATOM     87  C   UNL     1       6.223  -0.767   3.906  1.00  0.00     0.065 A 
ATOM     88  N   UNL     1       8.105  -2.178   3.361  1.00  0.00    -0.316 N 
ATOM     89  N   UNL     1       7.084   0.315   4.095  1.00  0.00    -0.316 N 
ATOM     90  C   UNL     1       9.018  -1.190   3.679  1.00  0.00     0.314 A 
ATOM     91  H   UNL     1       8.445  -3.057   3.077  1.00  0.00     0.170 HD
ATOM     92  C   UNL     1       8.445   0.230   3.910  1.00  0.00     0.314 A 
ATOM     93  H   UNL     1       6.700   1.178   4.373  1.00  0.00     0.170 HD
ATOM     94  O   UNL     1      10.217  -1.414   3.765  1.00  0.00    -0.263 OA
ATOM     95  O   UNL     1       9.160   1.222   3.922  1.00  0.00    -0.263 OA
ENDBRANCH  79  82
ENDBRANCH  76  79
ENDBRANCH  72  74
ENDBRANCH  71  72
ENDBRANCH  70  71
ENDBRANCH   1  70
TORSDOF 13
