REMARK SMILES Cc1ccc(C)c([C@@H](C)[N@@H+](CC(=O)OCCOC(=O)c2ccc(-c3c4nc(c(-c5c(F)c(F)c(F)c(F)c5F)c5ccc([nH]5)c(-c5c(F)c(F)c(F)c(F)c5F)c5nc(c(-c6c(F)c(F)c(F)c(F)c6F)c6ccc3[nH]6)C=C5)C=C4)cc2)CC(F)(F)F)c1
REMARK SMILES IDX 15 1 14 2 12 3 13 4 11 5 10 6 8 8 9 9 7 10 1 11 2 12 3 13
REMARK SMILES IDX 88 14 4 15 5 16 6 17 83 18 84 19 85 20 86 21 87 22 16 23
REMARK SMILES IDX 17 24 18 25 19 26 20 27 21 28 82 29 22 30 81 31 23 32 24 33
REMARK SMILES IDX 25 34 75 35 26 36 80 37 74 38 76 39 27 40 79 41 73 42 72 43
REMARK SMILES IDX 28 45 60 46 40 47 59 48 41 49 44 50 58 51 77 52 42 53 43 54
REMARK SMILES IDX 57 56 78 57 45 58 29 59 30 60 38 61 31 62 32 63 36 64 39 65
REMARK SMILES IDX 33 66 34 67 37 68 35 69 61 70 62 71 70 72 63 73 64 74 68 75
REMARK SMILES IDX 71 76 65 77 66 78 69 79 67 80 46 81 47 82 55 83 48 84 49 85
REMARK SMILES IDX 53 86 56 87 50 88 51 89 54 90 52 91
REMARK H PARENT 10 7 76 44 44 55
REMARK Flexibility Score: inf
ROOT
ATOM      1  C   UNL     1      -4.745   3.187  -2.648  1.00  0.00     0.274 C 
ENDROOT
BRANCH   1   2
ATOM      2  O   UNL     1      -3.724   3.691  -1.769  1.00  0.00    -0.458 OA
BRANCH   2   3
ATOM      3  C   UNL     1      -3.852   3.436  -0.455  1.00  0.00     0.361 C 
ATOM      4  O   UNL     1      -4.852   3.018   0.071  1.00  0.00    -0.245 OA
BRANCH   3   5
ATOM      5  C   UNL     1      -2.604   3.575   0.359  1.00  0.00     0.387 C 
BRANCH   5   6
ATOM      6  N   UNL     1      -2.082   2.237   0.690  1.00  0.00    -0.312 N 
ATOM      7  H   UNL     1      -1.480   2.232   1.514  1.00  0.00     0.349 HD
BRANCH   6   8
ATOM      8  C   UNL     1      -1.010   1.791  -0.207  1.00  0.00     0.213 C 
ATOM      9  C   UNL     1      -1.203   1.983  -1.722  1.00  0.00     0.081 C 
BRANCH   8  10
ATOM     10  C   UNL     1      -0.252   0.489   0.048  1.00  0.00     0.012 A 
ATOM     11  C   UNL     1       3.499  -0.263   0.210  1.00  0.00     0.044 C 
ATOM     12  C   UNL     1       2.015  -0.466   0.234  1.00  0.00    -0.051 A 
ATOM     13  C   UNL     1       1.482  -1.747   0.156  1.00  0.00     0.004 A 
ATOM     14  C   UNL     1       1.144   0.628   0.249  1.00  0.00     0.013 A 
ATOM     15  C   UNL     1       0.113  -1.918  -0.008  1.00  0.00     0.004 A 
ATOM     16  C   UNL     1      -0.749  -0.815  -0.145  1.00  0.00    -0.042 A 
ATOM     17  C   UNL     1      -2.150  -1.146  -0.547  1.00  0.00     0.045 C 
ENDBRANCH   8  10
ENDBRANCH   6   8
BRANCH   6  18
ATOM     18  C   UNL     1      -2.998   1.339   1.456  1.00  0.00     0.380 C 
BRANCH  18  19
ATOM     19  C   UNL     1      -4.330   0.641   0.974  1.00  0.00     0.438 C 
ATOM     20  F   UNL     1      -4.450   0.586  -0.373  1.00  0.00    -0.165 F 
ATOM     21  F   UNL     1      -4.375  -0.642   1.420  1.00  0.00    -0.165 F 
ATOM     22  F   UNL     1      -5.441   1.219   1.483  1.00  0.00    -0.165 F 
ENDBRANCH  18  19
ENDBRANCH   6  18
ENDBRANCH   5   6
ENDBRANCH   3   5
ENDBRANCH   2   3
ENDBRANCH   1   2
BRANCH   1  23
ATOM     23  C   UNL     1      -6.174   2.745  -2.187  1.00  0.00     0.275 C 
BRANCH  23  24
ATOM     24  O   UNL     1      -7.040   3.330  -1.129  1.00  0.00    -0.458 OA
BRANCH  24  25
ATOM     25  C   UNL     1      -6.925   4.402  -0.286  1.00  0.00     0.338 C 
ATOM     26  O   UNL     1      -7.402   4.450   0.838  1.00  0.00    -0.246 OA
BRANCH  25  27
ATOM     27  C   UNL     1      -6.237   5.556  -0.864  1.00  0.00     0.060 A 
ATOM     28  C   UNL     1      -5.286   6.342  -0.188  1.00  0.00     0.016 A 
ATOM     29  C   UNL     1      -6.441   5.680  -2.213  1.00  0.00     0.016 A 
ATOM     30  C   UNL     1      -4.445   7.173  -0.941  1.00  0.00     0.010 A 
ATOM     31  C   UNL     1      -5.428   6.238  -2.917  1.00  0.00     0.010 A 
ATOM     32  C   UNL     1      -4.497   7.083  -2.339  1.00  0.00    -0.014 A 
BRANCH  32  33
ATOM     33  C   UNL     1      -3.627   7.769  -3.295  1.00  0.00     0.031 A 
ATOM     34  C   UNL     1      -2.231   8.019  -2.868  1.00  0.00     0.074 A 
ATOM     35  C   UNL     1      -4.049   8.120  -4.542  1.00  0.00     0.049 A 
ATOM     36  N   UNL     1      -1.828   9.088  -2.269  1.00  0.00    -0.248 NA
ATOM     37  C   UNL     1      -1.191   6.992  -2.988  1.00  0.00     0.031 C 
ATOM     38  C   UNL     1      -5.338   7.855  -5.220  1.00  0.00     0.029 A 
ATOM     39  N   UNL     1      -3.375   8.805  -5.507  1.00  0.00    -0.354 N 
ATOM     40  C   UNL     1      -0.446   9.005  -2.193  1.00  0.00     0.074 A 
ATOM     41  C   UNL     1      -0.132   7.624  -2.463  1.00  0.00     0.031 C 
ATOM     42  C   UNL     1      -5.270   8.156  -6.529  1.00  0.00     0.029 A 
ATOM     43  C   UNL     1      -4.040   8.887  -6.726  1.00  0.00     0.049 A 
ATOM     44  H   UNL     1      -2.490   9.209  -5.355  1.00  0.00     0.167 HD
ATOM     45  C   UNL     1       0.292  10.154  -2.178  1.00  0.00     0.037 A 
ATOM     46  C   UNL     1      -3.820   9.721  -7.767  1.00  0.00     0.037 A 
ATOM     47  C   UNL     1      -0.568  11.301  -1.951  1.00  0.00     0.049 A 
ATOM     48  C   UNL     1      -3.122  10.901  -7.214  1.00  0.00     0.074 A 
ATOM     49  C   UNL     1      -1.445  11.670  -0.947  1.00  0.00     0.029 A 
ATOM     50  N   UNL     1      -0.935  12.050  -3.045  1.00  0.00    -0.354 N 
ATOM     51  N   UNL     1      -3.697  11.762  -6.422  1.00  0.00    -0.248 NA
ATOM     52  C   UNL     1      -1.674  10.828  -7.127  1.00  0.00     0.031 C 
ATOM     53  C   UNL     1      -2.582  12.200  -1.630  1.00  0.00     0.029 A 
ATOM     54  C   UNL     1      -2.294  12.238  -2.995  1.00  0.00     0.049 A 
ATOM     55  H   UNL     1      -0.329  12.393  -3.741  1.00  0.00     0.167 HD
ATOM     56  C   UNL     1      -2.757  11.998  -5.430  1.00  0.00     0.074 A 
ATOM     57  C   UNL     1      -1.505  11.454  -5.959  1.00  0.00     0.031 C 
ATOM     58  C   UNL     1      -3.132  12.364  -4.169  1.00  0.00     0.037 A 
BRANCH  45  59
ATOM     59  C   UNL     1       1.681  10.328  -2.748  1.00  0.00     0.064 A 
ATOM     60  C   UNL     1       2.335  11.568  -2.573  1.00  0.00     0.173 A 
ATOM     61  C   UNL     1       2.260   9.469  -3.702  1.00  0.00     0.173 A 
ATOM     62  F   UNL     1       1.873  12.466  -1.689  1.00  0.00    -0.203 F 
ATOM     63  C   UNL     1       3.415  11.957  -3.369  1.00  0.00     0.198 A 
ATOM     64  C   UNL     1       3.369   9.842  -4.464  1.00  0.00     0.198 A 
ATOM     65  F   UNL     1       1.721   8.287  -4.019  1.00  0.00    -0.203 F 
ATOM     66  F   UNL     1       3.910  13.197  -3.259  1.00  0.00    -0.200 F 
ATOM     67  C   UNL     1       3.923  11.098  -4.324  1.00  0.00     0.200 A 
ATOM     68  F   UNL     1       3.838   9.002  -5.397  1.00  0.00    -0.200 F 
ATOM     69  F   UNL     1       4.911  11.492  -5.138  1.00  0.00    -0.200 F 
ENDBRANCH  45  59
BRANCH  46  70
ATOM     70  C   UNL     1      -3.838   9.366  -9.202  1.00  0.00     0.064 A 
ATOM     71  C   UNL     1      -3.691  10.363 -10.177  1.00  0.00     0.173 A 
ATOM     72  C   UNL     1      -3.711   8.032  -9.636  1.00  0.00     0.173 A 
ATOM     73  F   UNL     1      -3.792  11.656  -9.838  1.00  0.00    -0.203 F 
ATOM     74  C   UNL     1      -3.357  10.050 -11.496  1.00  0.00     0.198 A 
ATOM     75  C   UNL     1      -3.379   7.721 -10.955  1.00  0.00     0.198 A 
ATOM     76  F   UNL     1      -3.814   7.012  -8.771  1.00  0.00    -0.203 F 
ATOM     77  F   UNL     1      -3.142  11.034 -12.380  1.00  0.00    -0.200 F 
ATOM     78  C   UNL     1      -3.180   8.731 -11.879  1.00  0.00     0.200 A 
ATOM     79  F   UNL     1      -3.185   6.442 -11.309  1.00  0.00    -0.200 F 
ATOM     80  F   UNL     1      -2.779   8.435 -13.123  1.00  0.00    -0.200 F 
ENDBRANCH  46  70
BRANCH  58  81
ATOM     81  C   UNL     1      -4.570  12.764  -3.946  1.00  0.00     0.064 A 
ATOM     82  C   UNL     1      -5.676  11.917  -4.135  1.00  0.00     0.173 A 
ATOM     83  C   UNL     1      -4.827  14.027  -3.397  1.00  0.00     0.173 A 
ATOM     84  F   UNL     1      -5.520  10.668  -4.579  1.00  0.00    -0.203 F 
ATOM     85  C   UNL     1      -6.974  12.328  -3.823  1.00  0.00     0.198 A 
ATOM     86  C   UNL     1      -6.118  14.426  -3.056  1.00  0.00     0.198 A 
ATOM     87  F   UNL     1      -3.811  14.870  -3.150  1.00  0.00    -0.203 F 
ATOM     88  F   UNL     1      -8.009  11.498  -4.024  1.00  0.00    -0.200 F 
ATOM     89  C   UNL     1      -7.192  13.581  -3.278  1.00  0.00     0.200 A 
ATOM     90  F   UNL     1      -6.316  15.624  -2.490  1.00  0.00    -0.200 F 
ATOM     91  F   UNL     1      -8.433  13.967  -2.949  1.00  0.00    -0.200 F 
ENDBRANCH  58  81
ENDBRANCH  32  33
ENDBRANCH  25  27
ENDBRANCH  24  25
ENDBRANCH  23  24
ENDBRANCH   1  23
TORSDOF 16
