REMARK SMILES O=C(OCCOC(=O)[C@@H]1C=C[C@@H](NS(=O)(=O)c2ccc(F)c(F)c2F)C1)c1ccc(-c2c3nc(c(-c4c(F)c(F)c(F)c(F)c4F)c4ccc([nH]4)c(-c4c(F)c(F)c(F)c(F)c4F)c4nc(c(-c5c(F)c(F)c(F)c(F)c5F)c5ccc2[nH]5)C=C4)C=C3)cc1
REMARK SMILES IDX 5 1 4 2 3 3 2 4 1 5 27 6 28 7 89 8 29 9 88 10 30 11 31 12
REMARK SMILES IDX 32 13 82 14 33 15 87 16 81 17 83 18 34 19 86 20 80 21 79 22
REMARK SMILES IDX 35 24 67 25 47 26 66 27 48 28 51 29 65 30 84 31 49 32 50 33
REMARK SMILES IDX 64 35 85 36 52 37 36 38 37 39 45 40 38 41 39 42 43 43 46 44
REMARK SMILES IDX 40 45 41 46 44 47 42 48 68 49 69 50 77 51 70 52 71 53 75 54
REMARK SMILES IDX 78 55 72 56 73 57 76 58 74 59 53 60 54 61 62 62 55 63 56 64
REMARK SMILES IDX 60 65 63 66 57 67 58 68 61 69 59 70 6 71 7 72 8 73 9 74
REMARK SMILES IDX 10 75 26 76 11 77 12 78 13 79 14 81 15 82 16 83 17 84 18 85
REMARK SMILES IDX 24 86 19 87 22 88 25 89 20 90 23 91 21 92
REMARK H PARENT 83 23 51 34 13 80
REMARK Flexibility Score: inf
ROOT
ATOM      1  C   UNL     1       4.757  -2.140  -4.391  1.00  0.00     0.274 C 
ENDROOT
BRANCH   1   2
ATOM      2  C   UNL     1       5.919  -1.182  -4.756  1.00  0.00     0.275 C 
BRANCH   2   3
ATOM      3  O   UNL     1       6.102  -0.046  -3.909  1.00  0.00    -0.458 OA
BRANCH   3   4
ATOM      4  C   UNL     1       5.377   1.095  -3.924  1.00  0.00     0.338 C 
ATOM      5  O   UNL     1       5.661   2.010  -3.157  1.00  0.00    -0.246 OA
BRANCH   4   6
ATOM      6  C   UNL     1       4.096   1.162  -4.683  1.00  0.00     0.060 A 
ATOM      7  C   UNL     1       3.795   0.532  -5.905  1.00  0.00     0.016 A 
ATOM      8  C   UNL     1       3.075   1.797  -3.997  1.00  0.00     0.016 A 
ATOM      9  C   UNL     1       2.473   0.264  -6.284  1.00  0.00     0.010 A 
ATOM     10  C   UNL     1       1.773   1.564  -4.392  1.00  0.00     0.010 A 
ATOM     11  C   UNL     1       1.449   0.715  -5.480  1.00  0.00    -0.014 A 
BRANCH  11  12
ATOM     12  C   UNL     1      -0.009   0.454  -5.709  1.00  0.00     0.031 A 
ATOM     13  C   UNL     1      -0.694   2.056  -5.614  1.00  0.00     0.074 A 
ATOM     14  C   UNL     1      -0.472  -0.913  -5.659  1.00  0.00     0.049 A 
ATOM     15  N   UNL     1      -1.795   2.515  -5.047  1.00  0.00    -0.248 NA
ATOM     16  C   UNL     1       0.075   3.232  -6.106  1.00  0.00     0.031 C 
ATOM     17  C   UNL     1       0.234  -2.249  -5.566  1.00  0.00     0.029 A 
ATOM     18  N   UNL     1      -1.719  -1.482  -5.460  1.00  0.00    -0.354 N 
ATOM     19  C   UNL     1      -2.015   3.860  -5.334  1.00  0.00     0.074 A 
ATOM     20  C   UNL     1      -0.684   4.284  -5.750  1.00  0.00     0.031 C 
ATOM     21  C   UNL     1      -0.648  -3.288  -5.297  1.00  0.00     0.029 A 
ATOM     22  C   UNL     1      -2.016  -2.796  -5.260  1.00  0.00     0.049 A 
ATOM     23  H   UNL     1      -2.483  -0.861  -5.465  1.00  0.00     0.167 HD
ATOM     24  C   UNL     1      -3.219   4.537  -5.559  1.00  0.00     0.037 A 
ATOM     25  C   UNL     1      -3.342  -3.200  -5.070  1.00  0.00     0.037 A 
ATOM     26  C   UNL     1      -4.621   3.920  -5.689  1.00  0.00     0.049 A 
ATOM     27  C   UNL     1      -4.743  -2.211  -5.293  1.00  0.00     0.074 A 
ATOM     28  C   UNL     1      -5.641   4.320  -6.550  1.00  0.00     0.029 A 
ATOM     29  N   UNL     1      -5.110   2.676  -5.198  1.00  0.00    -0.354 N 
ATOM     30  N   UNL     1      -4.856  -0.894  -5.476  1.00  0.00    -0.248 NA
ATOM     31  C   UNL     1      -6.084  -2.819  -5.356  1.00  0.00     0.031 C 
ATOM     32  C   UNL     1      -6.505   3.218  -6.784  1.00  0.00     0.029 A 
ATOM     33  C   UNL     1      -6.102   2.112  -6.030  1.00  0.00     0.049 A 
ATOM     34  H   UNL     1      -4.791   2.254  -4.368  1.00  0.00     0.167 HD
ATOM     35  C   UNL     1      -6.172  -0.502  -5.699  1.00  0.00     0.074 A 
ATOM     36  C   UNL     1      -6.886  -1.777  -5.636  1.00  0.00     0.031 C 
ATOM     37  C   UNL     1      -6.723   0.741  -5.975  1.00  0.00     0.037 A 
BRANCH  24  38
ATOM     38  C   UNL     1      -3.096   5.917  -6.200  1.00  0.00     0.064 A 
ATOM     39  C   UNL     1      -3.766   7.024  -5.660  1.00  0.00     0.173 A 
ATOM     40  C   UNL     1      -2.454   6.112  -7.442  1.00  0.00     0.173 A 
ATOM     41  F   UNL     1      -4.490   6.893  -4.540  1.00  0.00    -0.203 F 
ATOM     42  C   UNL     1      -3.736   8.271  -6.294  1.00  0.00     0.198 A 
ATOM     43  C   UNL     1      -2.382   7.366  -8.046  1.00  0.00     0.198 A 
ATOM     44  F   UNL     1      -1.890   5.082  -8.089  1.00  0.00    -0.203 F 
ATOM     45  F   UNL     1      -4.412   9.303  -5.772  1.00  0.00    -0.200 F 
ATOM     46  C   UNL     1      -3.023   8.447  -7.471  1.00  0.00     0.200 A 
ATOM     47  F   UNL     1      -1.698   7.517  -9.189  1.00  0.00    -0.200 F 
ATOM     48  F   UNL     1      -2.970   9.649  -8.060  1.00  0.00    -0.200 F 
ENDBRANCH  24  38
BRANCH  25  49
ATOM     49  C   UNL     1      -3.647  -4.572  -4.604  1.00  0.00     0.064 A 
ATOM     50  C   UNL     1      -3.554  -4.899  -3.243  1.00  0.00     0.173 A 
ATOM     51  C   UNL     1      -4.159  -5.540  -5.473  1.00  0.00     0.173 A 
ATOM     52  F   UNL     1      -3.145  -3.984  -2.354  1.00  0.00    -0.203 F 
ATOM     53  C   UNL     1      -3.923  -6.160  -2.776  1.00  0.00     0.198 A 
ATOM     54  C   UNL     1      -4.537  -6.799  -5.004  1.00  0.00     0.198 A 
ATOM     55  F   UNL     1      -4.357  -5.242  -6.765  1.00  0.00    -0.203 F 
ATOM     56  F   UNL     1      -3.826  -6.447  -1.471  1.00  0.00    -0.200 F 
ATOM     57  C   UNL     1      -4.409  -7.112  -3.659  1.00  0.00     0.200 A 
ATOM     58  F   UNL     1      -5.054  -7.699  -5.852  1.00  0.00    -0.200 F 
ATOM     59  F   UNL     1      -4.770  -8.322  -3.212  1.00  0.00    -0.200 F 
ENDBRANCH  25  49
BRANCH  37  60
ATOM     60  C   UNL     1      -8.172   0.709  -6.457  1.00  0.00     0.064 A 
ATOM     61  C   UNL     1      -8.480   0.848  -7.827  1.00  0.00     0.173 A 
ATOM     62  C   UNL     1      -9.250   0.658  -5.564  1.00  0.00     0.173 A 
ATOM     63  F   UNL     1      -7.496   0.916  -8.737  1.00  0.00    -0.203 F 
ATOM     64  C   UNL     1      -9.799   0.981  -8.271  1.00  0.00     0.198 A 
ATOM     65  C   UNL     1     -10.570   0.759  -6.016  1.00  0.00     0.198 A 
ATOM     66  F   UNL     1      -9.026   0.504  -4.252  1.00  0.00    -0.203 F 
ATOM     67  F   UNL     1     -10.054   1.177  -9.574  1.00  0.00    -0.200 F 
ATOM     68  C   UNL     1     -10.843   0.937  -7.364  1.00  0.00     0.200 A 
ATOM     69  F   UNL     1     -11.583   0.693  -5.140  1.00  0.00    -0.200 F 
ATOM     70  F   UNL     1     -12.109   1.069  -7.787  1.00  0.00    -0.200 F 
ENDBRANCH  37  60
ENDBRANCH  11  12
ENDBRANCH   4   6
ENDBRANCH   3   4
ENDBRANCH   2   3
ENDBRANCH   1   2
BRANCH   1  71
ATOM     71  O   UNL     1       3.539  -1.589  -3.765  1.00  0.00    -0.462 OA
BRANCH  71  72
ATOM     72  C   UNL     1       3.328  -1.921  -2.455  1.00  0.00     0.312 C 
ATOM     73  O   UNL     1       4.177  -2.551  -1.819  1.00  0.00    -0.252 OA
BRANCH  72  74
ATOM     74  C   UNL     1       1.935  -1.575  -1.768  1.00  0.00     0.123 C 
ATOM     75  C   UNL     1       0.781  -2.544  -1.912  1.00  0.00    -0.015 C 
ATOM     76  C   UNL     1       1.136  -0.239  -1.887  1.00  0.00     0.043 C 
ATOM     77  C   UNL     1      -0.367  -1.942  -2.310  1.00  0.00    -0.011 C 
ATOM     78  C   UNL     1      -0.090  -0.565  -2.811  1.00  0.00     0.093 C 
BRANCH  78  79
ATOM     79  N   UNL     1      -1.182   0.533  -3.071  1.00  0.00    -0.204 NA
ATOM     80  H   UNL     1      -0.668   1.291  -3.520  1.00  0.00     0.142 HD
BRANCH  79  81
ATOM     81  S   UNL     1      -2.868   0.437  -4.079  1.00  0.00     0.244 S 
ATOM     82  O   UNL     1      -3.329  -0.844  -3.597  1.00  0.00    -0.207 OA
ATOM     83  O   UNL     1      -3.613   1.583  -3.562  1.00  0.00    -0.207 OA
BRANCH  81  84
ATOM     84  C   UNL     1      -2.929   0.560  -6.356  1.00  0.00     0.121 A 
ATOM     85  C   UNL     1      -3.010   1.726  -7.106  1.00  0.00     0.028 A 
ATOM     86  C   UNL     1      -2.845  -0.492  -7.349  1.00  0.00     0.181 A 
ATOM     87  C   UNL     1      -2.566   1.938  -8.440  1.00  0.00     0.044 A 
ATOM     88  C   UNL     1      -2.294  -0.346  -8.641  1.00  0.00     0.195 A 
ATOM     89  F   UNL     1      -3.296  -1.738  -7.187  1.00  0.00    -0.202 F 
ATOM     90  C   UNL     1      -2.081   0.892  -9.162  1.00  0.00     0.161 A 
ATOM     91  F   UNL     1      -1.992  -1.436  -9.362  1.00  0.00    -0.200 F 
ATOM     92  F   UNL     1      -1.530   1.074 -10.366  1.00  0.00    -0.204 F 
ENDBRANCH  81  84
ENDBRANCH  79  81
ENDBRANCH  78  79
ENDBRANCH  72  74
ENDBRANCH  71  72
ENDBRANCH   1  71
TORSDOF 14
