REMARK SMILES CN(C)S(=O)(=O)c1cccc(-c2cc(Cl)cc(C(=O)OCCOC(=O)c3ccc(-c4c5nc(c(-c6c(F)c(F)c(F)c(F)c6F)c6ccc([nH]6)c(-c6c(F)c(F)c(F)c(F)c6F)c6nc(c(-c7c(F)c(F)c(F)c(F)c7F)c7ccc4[nH]7)C=C6)C=C5)cc3)c2)c1
REMARK SMILES IDX 21 1 20 2 18 3 19 4 17 5 12 6 13 7 89 8 14 9 15 10 16 11
REMARK SMILES IDX 11 12 7 13 8 14 90 15 9 16 10 17 4 18 5 19 6 20 2 21 1 22
REMARK SMILES IDX 3 23 22 24 23 25 24 26 25 27 26 28 27 29 88 30 28 31 87 32
REMARK SMILES IDX 29 33 30 34 31 35 81 36 32 37 86 38 80 39 82 40 33 41 85 42
REMARK SMILES IDX 79 43 78 44 34 46 66 47 46 48 65 49 47 50 50 51 64 52 83 53
REMARK SMILES IDX 48 54 49 55 63 57 84 58 51 59 35 60 36 61 44 62 37 63 38 64
REMARK SMILES IDX 42 65 45 66 39 67 40 68 43 69 41 70 67 71 68 72 76 73 69 74
REMARK SMILES IDX 70 75 74 76 77 77 71 78 72 79 75 80 73 81 52 82 53 83 61 84
REMARK SMILES IDX 54 85 55 86 59 87 62 88 56 89 57 90 60 91 58 92
REMARK H PARENT 82 45 50 56
REMARK Flexibility Score: inf
ROOT
ATOM      1  C   UNL     1       5.373  -8.685   2.481  1.00  0.00     0.275 C 
ENDROOT
BRANCH   1   2
ATOM      2  O   UNL     1       4.094  -8.168   2.900  1.00  0.00    -0.458 OA
BRANCH   2   3
ATOM      3  C   UNL     1       2.997  -8.871   2.529  1.00  0.00     0.338 C 
ATOM      4  O   UNL     1       2.974  -9.899   1.872  1.00  0.00    -0.246 OA
BRANCH   3   5
ATOM      5  C   UNL     1       1.781  -8.276   3.139  1.00  0.00     0.062 A 
ATOM      6  C   UNL     1       0.533  -6.337   3.933  1.00  0.00    -0.016 A 
ATOM      7  C   UNL     1      -0.513  -7.181   4.322  1.00  0.00     0.029 A 
ATOM      8  C   UNL     1       1.703  -6.910   3.396  1.00  0.00     0.024 A 
ATOM      9  C   UNL     1      -0.431  -8.550   4.071  1.00  0.00     0.042 A 
ATOM     10  Cl  UNL     1      -1.728  -9.585   4.526  1.00  0.00    -0.084 Cl
ATOM     11  C   UNL     1       0.682  -9.089   3.431  1.00  0.00     0.036 A 
BRANCH   6  12
ATOM     12  C   UNL     1       0.405  -4.877   3.947  1.00  0.00    -0.017 A 
ATOM     13  C   UNL     1       0.649  -2.790   2.716  1.00  0.00     0.083 A 
ATOM     14  C   UNL     1       0.366  -2.056   3.865  1.00  0.00     0.022 A 
ATOM     15  C   UNL     1       0.644  -4.183   2.751  1.00  0.00     0.030 A 
ATOM     16  C   UNL     1       0.070  -2.736   5.050  1.00  0.00     0.002 A 
ATOM     17  C   UNL     1       0.093  -4.137   5.093  1.00  0.00     0.009 A 
BRANCH  13  18
ATOM     18  S   UNL     1       1.097  -2.033   1.181  1.00  0.00     0.242 S 
ATOM     19  O   UNL     1       0.501  -2.814   0.116  1.00  0.00    -0.207 OA
ATOM     20  O   UNL     1       2.527  -1.817   1.240  1.00  0.00    -0.207 OA
BRANCH  18  21
ATOM     21  N   UNL     1       0.321  -0.509   1.169  1.00  0.00    -0.204 NA
ATOM     22  C   UNL     1       0.864   0.369   0.102  1.00  0.00     0.124 C 
ATOM     23  C   UNL     1      -1.158  -0.563   1.108  1.00  0.00     0.124 C 
ENDBRANCH  18  21
ENDBRANCH  13  18
ENDBRANCH   6  12
ENDBRANCH   3   5
ENDBRANCH   2   3
ENDBRANCH   1   2
BRANCH   1  24
ATOM     24  C   UNL     1       6.111  -9.330   3.655  1.00  0.00     0.275 C 
BRANCH  24  25
ATOM     25  O   UNL     1       5.439 -10.537   4.060  1.00  0.00    -0.458 OA
BRANCH  25  26
ATOM     26  C   UNL     1       4.769 -10.463   5.231  1.00  0.00     0.338 C 
ATOM     27  O   UNL     1       4.720  -9.528   6.011  1.00  0.00    -0.246 OA
BRANCH  26  28
ATOM     28  C   UNL     1       3.959 -11.676   5.409  1.00  0.00     0.060 A 
ATOM     29  C   UNL     1       2.706 -11.702   4.806  1.00  0.00     0.016 A 
ATOM     30  C   UNL     1       4.335 -12.688   6.285  1.00  0.00     0.016 A 
ATOM     31  C   UNL     1       1.777 -12.679   5.138  1.00  0.00     0.010 A 
ATOM     32  C   UNL     1       3.431 -13.725   6.555  1.00  0.00     0.010 A 
ATOM     33  C   UNL     1       2.127 -13.708   6.018  1.00  0.00    -0.014 A 
BRANCH  33  34
ATOM     34  C   UNL     1       1.102 -14.703   6.440  1.00  0.00     0.031 A 
ATOM     35  C   UNL     1       0.730 -14.821   7.894  1.00  0.00     0.074 A 
ATOM     36  C   UNL     1       0.472 -15.475   5.533  1.00  0.00     0.049 A 
ATOM     37  N   UNL     1       0.004 -15.728   8.498  1.00  0.00    -0.248 NA
ATOM     38  C   UNL     1       1.260 -13.783   8.792  1.00  0.00     0.031 C 
ATOM     39  C   UNL     1       0.678 -15.422   4.086  1.00  0.00     0.029 A 
ATOM     40  N   UNL     1      -0.478 -16.454   5.697  1.00  0.00    -0.354 N 
ATOM     41  C   UNL     1       0.047 -15.409   9.850  1.00  0.00     0.074 A 
ATOM     42  C   UNL     1       0.873 -14.228   9.978  1.00  0.00     0.031 C 
ATOM     43  C   UNL     1      -0.140 -16.304   3.493  1.00  0.00     0.029 A 
ATOM     44  C   UNL     1      -0.864 -17.046   4.520  1.00  0.00     0.049 A 
ATOM     45  H   UNL     1      -0.847 -16.706   6.574  1.00  0.00     0.167 HD
ATOM     46  C   UNL     1      -0.548 -16.046  10.887  1.00  0.00     0.037 A 
ATOM     47  C   UNL     1      -1.675 -18.097   4.292  1.00  0.00     0.037 A 
ATOM     48  C   UNL     1      -1.420 -17.183  10.746  1.00  0.00     0.049 A 
ATOM     49  C   UNL     1      -2.308 -18.803   5.458  1.00  0.00     0.074 A 
ATOM     50  C   UNL     1      -2.081 -17.895  11.733  1.00  0.00     0.029 A 
ATOM     51  N   UNL     1      -1.769 -17.765   9.535  1.00  0.00    -0.354 N 
ATOM     52  N   UNL     1      -2.208 -18.540   6.738  1.00  0.00    -0.248 NA
ATOM     53  C   UNL     1      -3.155 -19.963   5.148  1.00  0.00     0.031 C 
ATOM     54  C   UNL     1      -2.798 -18.929  11.123  1.00  0.00     0.029 A 
ATOM     55  C   UNL     1      -2.627 -18.832   9.751  1.00  0.00     0.049 A 
ATOM     56  H   UNL     1      -1.453 -17.464   8.653  1.00  0.00     0.167 HD
ATOM     57  C   UNL     1      -2.990 -19.486   7.385  1.00  0.00     0.074 A 
ATOM     58  C   UNL     1      -3.572 -20.321   6.355  1.00  0.00     0.031 C 
ATOM     59  C   UNL     1      -3.204 -19.649   8.714  1.00  0.00     0.037 A 
BRANCH  46  60
ATOM     60  C   UNL     1      -0.235 -15.552  12.271  1.00  0.00     0.064 A 
ATOM     61  C   UNL     1      -0.708 -14.322  12.752  1.00  0.00     0.173 A 
ATOM     62  C   UNL     1       0.553 -16.332  13.133  1.00  0.00     0.173 A 
ATOM     63  F   UNL     1      -1.452 -13.530  11.966  1.00  0.00    -0.203 F 
ATOM     64  C   UNL     1      -0.371 -13.874  14.028  1.00  0.00     0.198 A 
ATOM     65  C   UNL     1       0.860 -15.897  14.419  1.00  0.00     0.198 A 
ATOM     66  F   UNL     1       1.026 -17.520  12.727  1.00  0.00    -0.203 F 
ATOM     67  F   UNL     1      -0.782 -12.668  14.443  1.00  0.00    -0.200 F 
ATOM     68  C   UNL     1       0.408 -14.663  14.861  1.00  0.00     0.200 A 
ATOM     69  F   UNL     1       1.601 -16.667  15.227  1.00  0.00    -0.200 F 
ATOM     70  F   UNL     1       0.731 -14.230  16.088  1.00  0.00    -0.200 F 
ENDBRANCH  46  60
BRANCH  47  71
ATOM     71  C   UNL     1      -1.900 -18.562   2.898  1.00  0.00     0.064 A 
ATOM     72  C   UNL     1      -3.147 -18.410   2.277  1.00  0.00     0.173 A 
ATOM     73  C   UNL     1      -0.866 -19.146   2.151  1.00  0.00     0.173 A 
ATOM     74  F   UNL     1      -4.175 -17.883   2.959  1.00  0.00    -0.203 F 
ATOM     75  C   UNL     1      -3.352 -18.828   0.964  1.00  0.00     0.198 A 
ATOM     76  C   UNL     1      -1.063 -19.535   0.828  1.00  0.00     0.198 A 
ATOM     77  F   UNL     1       0.346 -19.316   2.700  1.00  0.00    -0.203 F 
ATOM     78  F   UNL     1      -4.563 -18.704   0.405  1.00  0.00    -0.200 F 
ATOM     79  C   UNL     1      -2.307 -19.380   0.237  1.00  0.00     0.200 A 
ATOM     80  F   UNL     1      -0.047 -20.054   0.126  1.00  0.00    -0.200 F 
ATOM     81  F   UNL     1      -2.501 -19.768  -1.031  1.00  0.00    -0.200 F 
ENDBRANCH  47  71
BRANCH  59  82
ATOM     82  C   UNL     1      -4.141 -20.747   9.128  1.00  0.00     0.064 A 
ATOM     83  C   UNL     1      -3.776 -22.098   9.046  1.00  0.00     0.173 A 
ATOM     84  C   UNL     1      -5.409 -20.438   9.641  1.00  0.00     0.173 A 
ATOM     85  F   UNL     1      -2.580 -22.446   8.547  1.00  0.00    -0.203 F 
ATOM     86  C   UNL     1      -4.657 -23.102   9.440  1.00  0.00     0.198 A 
ATOM     87  C   UNL     1      -6.277 -21.442  10.060  1.00  0.00     0.198 A 
ATOM     88  F   UNL     1      -5.804 -19.160   9.745  1.00  0.00    -0.203 F 
ATOM     89  F   UNL     1      -4.307 -24.389   9.309  1.00  0.00    -0.200 F 
ATOM     90  C   UNL     1      -5.904 -22.773   9.952  1.00  0.00     0.200 A 
ATOM     91  F   UNL     1      -7.476 -21.122  10.566  1.00  0.00    -0.200 F 
ATOM     92  F   UNL     1      -6.749 -23.740  10.334  1.00  0.00    -0.200 F 
ENDBRANCH  59  82
ENDBRANCH  33  34
ENDBRANCH  26  28
ENDBRANCH  25  26
ENDBRANCH  24  25
ENDBRANCH   1  24
TORSDOF 14
