REMARK SMILES C/C(=N/OCc1ccccc1Nc1c(Cl)cccc1Cl)C(=O)OCCOC(=O)c1ccc(-c2c3nc(c(-c4c(F)c(F)c(F)c(F)c4F)c4ccc([nH]4)c(-c4c(F)c(F)c(F)c(F)c4F)c4nc(c(-c5c(F)c(F)c(F)c(F)c5F)c5ccc2[nH]5)C=C4)C=C3)cc1
REMARK SMILES IDX 23 1 21 2 22 3 2 4 1 5 3 6 4 7 5 8 6 9 7 10 11 11 8 12 10 13
REMARK SMILES IDX 9 14 12 15 13 17 14 18 19 19 15 20 16 21 18 22 20 23 17 24
REMARK SMILES IDX 24 25 25 26 26 27 27 28 28 29 29 30 30 31 91 32 31 33 90 34
REMARK SMILES IDX 32 35 33 36 34 37 84 38 35 39 89 40 83 41 85 42 36 43 88 44
REMARK SMILES IDX 82 45 81 46 37 48 69 49 49 50 68 51 50 52 53 53 67 54 86 55
REMARK SMILES IDX 51 56 52 57 66 59 87 60 54 61 38 62 39 63 47 64 40 65 41 66
REMARK SMILES IDX 45 67 48 68 42 69 43 70 46 71 44 72 70 73 71 74 79 75 72 76
REMARK SMILES IDX 73 77 77 78 80 79 74 80 75 81 78 82 76 83 55 84 56 85 64 86
REMARK SMILES IDX 57 87 58 88 62 89 65 90 59 91 60 92 63 93 61 94
REMARK H PARENT 12 16 85 47 53 58
REMARK Flexibility Score: inf
ROOT
ATOM      1  O   UNL     1       0.378  -2.720  -2.423  1.00  0.00    -0.458 OA
ENDROOT
BRANCH   1   2
ATOM      2  C   UNL     1       1.157  -2.349  -1.389  1.00  0.00     0.355 C 
ATOM      3  O   UNL     1       2.372  -2.232  -1.385  1.00  0.00    -0.245 OA
BRANCH   2   4
ATOM      4  C   UNL     1       0.323  -1.948  -0.178  1.00  0.00     0.161 C 
ATOM      5  C   UNL     1       0.690  -0.657   0.497  1.00  0.00     0.079 C 
ATOM      6  N   UNL     1      -0.666  -2.630   0.312  1.00  0.00    -0.084 NA
BRANCH   6   7
ATOM      7  O   UNL     1      -0.815  -3.871  -0.315  1.00  0.00    -0.390 OA
BRANCH   7   8
ATOM      8  C   UNL     1      -1.627  -4.698   0.526  1.00  0.00     0.302 C 
BRANCH   8   9
ATOM      9  C   UNL     1      -0.887  -5.069   1.797  1.00  0.00     0.016 A 
ATOM     10  C   UNL     1       0.340  -5.750   1.644  1.00  0.00     0.009 A 
ATOM     11  C   UNL     1      -1.352  -4.747   3.093  1.00  0.00     0.045 A 
ATOM     12  C   UNL     1       1.105  -6.116   2.746  1.00  0.00     0.001 A 
ATOM     13  C   UNL     1      -0.567  -5.146   4.188  1.00  0.00     0.026 A 
ATOM     14  C   UNL     1       0.647  -5.819   4.021  1.00  0.00     0.002 A 
BRANCH  11  15
ATOM     15  N   UNL     1      -2.535  -3.999   3.280  1.00  0.00    -0.353 N 
ATOM     16  H   UNL     1      -3.048  -3.841   2.454  1.00  0.00     0.167 HD
BRANCH  15  17
ATOM     17  C   UNL     1      -3.118  -3.436   4.442  1.00  0.00     0.076 A 
ATOM     18  C   UNL     1      -4.449  -3.787   4.766  1.00  0.00     0.066 A 
ATOM     19  C   UNL     1      -2.441  -2.589   5.342  1.00  0.00     0.066 A 
ATOM     20  Cl  UNL     1      -5.384  -4.782   3.695  1.00  0.00    -0.082 Cl
ATOM     21  C   UNL     1      -5.059  -3.355   5.947  1.00  0.00     0.023 A 
ATOM     22  C   UNL     1      -3.054  -2.162   6.530  1.00  0.00     0.023 A 
ATOM     23  Cl  UNL     1      -0.878  -1.925   4.997  1.00  0.00    -0.082 Cl
ATOM     24  C   UNL     1      -4.355  -2.553   6.838  1.00  0.00     0.003 A 
ENDBRANCH  15  17
ENDBRANCH  11  15
ENDBRANCH   8   9
ENDBRANCH   7   8
ENDBRANCH   6   7
ENDBRANCH   2   4
ENDBRANCH   1   2
BRANCH   1  25
ATOM     25  C   UNL     1       1.032  -3.077  -3.655  1.00  0.00     0.275 C 
BRANCH  25  26
ATOM     26  C   UNL     1       0.566  -2.155  -4.783  1.00  0.00     0.275 C 
BRANCH  26  27
ATOM     27  O   UNL     1       1.142  -0.844  -4.629  1.00  0.00    -0.458 OA
BRANCH  27  28
ATOM     28  C   UNL     1       0.402   0.013  -3.893  1.00  0.00     0.338 C 
ATOM     29  O   UNL     1      -0.704  -0.167  -3.415  1.00  0.00    -0.246 OA
BRANCH  28  30
ATOM     30  C   UNL     1       1.199   1.206  -3.593  1.00  0.00     0.060 A 
ATOM     31  C   UNL     1       1.743   1.307  -2.314  1.00  0.00     0.016 A 
ATOM     32  C   UNL     1       1.289   2.266  -4.491  1.00  0.00     0.016 A 
ATOM     33  C   UNL     1       2.304   2.502  -1.886  1.00  0.00     0.010 A 
ATOM     34  C   UNL     1       1.914   3.449  -4.081  1.00  0.00     0.010 A 
ATOM     35  C   UNL     1       2.392   3.588  -2.764  1.00  0.00    -0.014 A 
BRANCH  35  36
ATOM     36  C   UNL     1       2.930   4.884  -2.279  1.00  0.00     0.031 A 
ATOM     37  C   UNL     1       2.029   6.084  -2.198  1.00  0.00     0.074 A 
ATOM     38  C   UNL     1       4.211   4.976  -1.877  1.00  0.00     0.049 A 
ATOM     39  N   UNL     1       2.329   7.331  -1.936  1.00  0.00    -0.248 NA
ATOM     40  C   UNL     1       0.599   5.853  -2.454  1.00  0.00     0.031 C 
ATOM     41  C   UNL     1       5.170   3.871  -1.848  1.00  0.00     0.029 A 
ATOM     42  N   UNL     1       4.926   6.050  -1.409  1.00  0.00    -0.354 N 
ATOM     43  C   UNL     1       1.139   8.038  -2.043  1.00  0.00     0.074 A 
ATOM     44  C   UNL     1       0.109   7.083  -2.395  1.00  0.00     0.031 C 
ATOM     45  C   UNL     1       6.340   4.318  -1.365  1.00  0.00     0.029 A 
ATOM     46  C   UNL     1       6.234   5.752  -1.117  1.00  0.00     0.049 A 
ATOM     47  H   UNL     1       4.538   6.947  -1.292  1.00  0.00     0.167 HD
ATOM     48  C   UNL     1       0.928   9.364  -1.864  1.00  0.00     0.037 A 
ATOM     49  C   UNL     1       7.244   6.552  -0.728  1.00  0.00     0.037 A 
ATOM     50  C   UNL     1       1.946  10.300  -1.467  1.00  0.00     0.049 A 
ATOM     51  C   UNL     1       6.989   8.024  -0.559  1.00  0.00     0.074 A 
ATOM     52  C   UNL     1       1.835  11.664  -1.260  1.00  0.00     0.029 A 
ATOM     53  N   UNL     1       3.265   9.962  -1.200  1.00  0.00    -0.354 N 
ATOM     54  N   UNL     1       5.873   8.693  -0.718  1.00  0.00    -0.248 NA
ATOM     55  C   UNL     1       8.138   8.854  -0.172  1.00  0.00     0.031 C 
ATOM     56  C   UNL     1       3.093  12.156  -0.895  1.00  0.00     0.029 A 
ATOM     57  C   UNL     1       3.979  11.092  -0.836  1.00  0.00     0.049 A 
ATOM     58  H   UNL     1       3.639   9.053  -1.259  1.00  0.00     0.167 HD
ATOM     59  C   UNL     1       6.179  10.017  -0.436  1.00  0.00     0.074 A 
ATOM     60  C   UNL     1       7.583  10.054  -0.079  1.00  0.00     0.031 C 
ATOM     61  C   UNL     1       5.373  11.105  -0.475  1.00  0.00     0.037 A 
BRANCH  48  62
ATOM     62  C   UNL     1      -0.452   9.888  -2.131  1.00  0.00     0.064 A 
ATOM     63  C   UNL     1      -1.519   9.652  -1.252  1.00  0.00     0.173 A 
ATOM     64  C   UNL     1      -0.701  10.665  -3.273  1.00  0.00     0.173 A 
ATOM     65  F   UNL     1      -1.336   8.901  -0.155  1.00  0.00    -0.203 F 
ATOM     66  C   UNL     1      -2.790  10.156  -1.518  1.00  0.00     0.198 A 
ATOM     67  C   UNL     1      -1.966  11.188  -3.523  1.00  0.00     0.198 A 
ATOM     68  F   UNL     1       0.286  10.923  -4.144  1.00  0.00    -0.203 F 
ATOM     69  F   UNL     1      -3.805   9.883  -0.687  1.00  0.00    -0.200 F 
ATOM     70  C   UNL     1      -3.011  10.928  -2.649  1.00  0.00     0.200 A 
ATOM     71  F   UNL     1      -2.175  11.943  -4.611  1.00  0.00    -0.200 F 
ATOM     72  F   UNL     1      -4.234  11.417  -2.901  1.00  0.00    -0.200 F 
ENDBRANCH  48  62
BRANCH  49  73
ATOM     73  C   UNL     1       8.594   5.978  -0.498  1.00  0.00     0.064 A 
ATOM     74  C   UNL     1       9.136   5.902   0.791  1.00  0.00     0.173 A 
ATOM     75  C   UNL     1       9.367   5.489  -1.562  1.00  0.00     0.173 A 
ATOM     76  F   UNL     1       8.446   6.380   1.837  1.00  0.00    -0.203 F 
ATOM     77  C   UNL     1      10.405   5.367   1.007  1.00  0.00     0.198 A 
ATOM     78  C   UNL     1      10.623   4.929  -1.342  1.00  0.00     0.198 A 
ATOM     79  F   UNL     1       8.893   5.540  -2.816  1.00  0.00    -0.203 F 
ATOM     80  F   UNL     1      10.917   5.342   2.245  1.00  0.00    -0.200 F 
ATOM     81  C   UNL     1      11.143   4.874  -0.058  1.00  0.00     0.200 A 
ATOM     82  F   UNL     1      11.327   4.443  -2.373  1.00  0.00    -0.200 F 
ATOM     83  F   UNL     1      12.360   4.354   0.151  1.00  0.00    -0.200 F 
ENDBRANCH  49  73
BRANCH  61  84
ATOM     84  C   UNL     1       5.981  12.419  -0.088  1.00  0.00     0.064 A 
ATOM     85  C   UNL     1       6.855  13.102  -0.946  1.00  0.00     0.173 A 
ATOM     86  C   UNL     1       5.662  13.014   1.141  1.00  0.00     0.173 A 
ATOM     87  F   UNL     1       7.203  12.564  -2.124  1.00  0.00    -0.203 F 
ATOM     88  C   UNL     1       7.406  14.326  -0.576  1.00  0.00     0.198 A 
ATOM     89  C   UNL     1       6.195  14.249   1.497  1.00  0.00     0.198 A 
ATOM     90  F   UNL     1       4.826  12.400   1.992  1.00  0.00    -0.203 F 
ATOM     91  F   UNL     1       8.272  14.943  -1.392  1.00  0.00    -0.200 F 
ATOM     92  C   UNL     1       7.071  14.901   0.641  1.00  0.00     0.200 A 
ATOM     93  F   UNL     1       5.864  14.808   2.669  1.00  0.00    -0.200 F 
ATOM     94  F   UNL     1       7.600  16.080   0.994  1.00  0.00    -0.200 F 
ENDBRANCH  61  84
ENDBRANCH  35  36
ENDBRANCH  28  30
ENDBRANCH  27  28
ENDBRANCH  26  27
ENDBRANCH  25  26
ENDBRANCH   1  25
TORSDOF 16
