REMARK SMILES O=C(OCCOC(=O)c1ccc(-c2c3nc(c(-c4c(F)c(F)c(F)c(F)c4F)c4ccc([nH]4)c(-c4c(F)c(F)c(F)c(F)c4F)c4nc(c(-c5c(F)c(F)c(F)c(F)c5F)c5ccc2[nH]5)C=C4)C=C3)cc1)C1=NN(c2ccc(S(=O)(=O)[O-])cc2)C(=O)/C1=C/Nc1ccccc1
REMARK SMILES IDX 4 1 3 2 2 3 1 4 72 5 73 6 87 7 74 8 85 9 88 10 86 11 75 12
REMARK SMILES IDX 76 13 84 14 77 15 83 16 78 17 79 18 80 19 81 20 82 21 89 22
REMARK SMILES IDX 90 24 91 25 95 26 92 27 94 28 93 29 5 30 6 31 7 32 8 33 9 34
REMARK SMILES IDX 10 35 71 36 11 37 70 38 12 39 13 40 14 41 64 42 15 43 69 44
REMARK SMILES IDX 63 45 65 46 16 47 68 48 62 49 61 50 17 52 49 53 29 54 48 55
REMARK SMILES IDX 30 56 33 57 47 58 66 59 31 60 32 61 46 63 67 64 34 65 18 66
REMARK SMILES IDX 19 67 27 68 20 69 21 70 25 71 28 72 22 73 23 74 26 75 24 76
REMARK SMILES IDX 50 77 51 78 59 79 52 80 53 81 57 82 60 83 54 84 55 85 58 86
REMARK SMILES IDX 56 87 35 88 36 89 44 90 37 91 38 92 42 93 45 94 39 95 40 96
REMARK SMILES IDX 43 97 41 98
REMARK H PARENT 89 23 65 51 33 62
REMARK Flexibility Score: inf
ROOT
ATOM      1  C   UNL     1       3.706   1.093   1.306  1.00  0.00     0.275 C 
ENDROOT
BRANCH   1   2
ATOM      2  O   UNL     1       3.393   1.460  -0.037  1.00  0.00    -0.457 OA
BRANCH   2   3
ATOM      3  C   UNL     1       2.956   0.449  -0.788  1.00  0.00     0.359 C 
ATOM      4  O   UNL     1       1.823   0.396  -1.248  1.00  0.00    -0.244 OA
BRANCH   3   5
ATOM      5  C   UNL     1       3.990  -0.577  -1.198  1.00  0.00     0.183 C 
ATOM      6  N   UNL     1       3.952  -0.881  -2.465  1.00  0.00    -0.157 NA
ATOM      7  C   UNL     1       5.045  -1.361  -0.463  1.00  0.00     0.093 C 
ATOM      8  N   UNL     1       4.867  -1.860  -2.638  1.00  0.00    -0.196 N 
ATOM      9  C   UNL     1       5.709  -2.106  -1.563  1.00  0.00     0.282 C 
ATOM     10  C   UNL     1       5.436  -1.847   0.734  1.00  0.00     0.099 C 
ATOM     11  O   UNL     1       6.663  -2.858  -1.467  1.00  0.00    -0.267 OA
BRANCH   8  12
ATOM     12  C   UNL     1       4.660  -2.703  -3.719  1.00  0.00     0.069 A 
ATOM     13  C   UNL     1       4.096  -2.194  -4.894  1.00  0.00     0.030 A 
ATOM     14  C   UNL     1       4.983  -4.057  -3.593  1.00  0.00     0.030 A 
ATOM     15  C   UNL     1       4.084  -2.985  -6.021  1.00  0.00     0.021 A 
ATOM     16  C   UNL     1       4.929  -4.865  -4.698  1.00  0.00     0.021 A 
ATOM     17  C   UNL     1       4.590  -4.280  -5.913  1.00  0.00     0.054 A 
BRANCH  17  18
ATOM     18  S   UNL     1       4.853  -5.214  -7.353  1.00  0.00     0.124 S 
ATOM     19  O   UNL     1       3.894  -4.764  -8.332  1.00  0.00    -0.237 OA
ATOM     20  O   UNL     1       6.274  -5.232  -7.628  1.00  0.00    -0.237 OA
ATOM     21  O   UNL     1       4.466  -6.707  -6.890  1.00  0.00    -0.744 OA
ENDBRANCH  17  18
ENDBRANCH   8  12
BRANCH  10  22
ATOM     22  N   UNL     1       4.762  -1.975   1.918  1.00  0.00    -0.361 N 
ATOM     23  H   UNL     1       3.786  -2.055   1.813  1.00  0.00     0.166 HD
BRANCH  22  24
ATOM     24  C   UNL     1       5.194  -2.014   3.251  1.00  0.00     0.038 A 
ATOM     25  C   UNL     1       4.231  -2.264   4.249  1.00  0.00     0.026 A 
ATOM     26  C   UNL     1       6.497  -1.724   3.645  1.00  0.00     0.026 A 
ATOM     27  C   UNL     1       4.532  -2.105   5.600  1.00  0.00     0.002 A 
ATOM     28  C   UNL     1       6.802  -1.567   5.002  1.00  0.00     0.002 A 
ATOM     29  C   UNL     1       5.816  -1.731   5.975  1.00  0.00     0.000 A 
ENDBRANCH  22  24
ENDBRANCH  10  22
ENDBRANCH   3   5
ENDBRANCH   2   3
ENDBRANCH   1   2
BRANCH   1  30
ATOM     30  C   UNL     1       2.658   0.139   1.944  1.00  0.00     0.275 C 
BRANCH  30  31
ATOM     31  O   UNL     1       2.536  -1.093   1.142  1.00  0.00    -0.458 OA
BRANCH  31  32
ATOM     32  C   UNL     1       1.391  -1.821   1.099  1.00  0.00     0.338 C 
ATOM     33  O   UNL     1       0.441  -1.666   1.841  1.00  0.00    -0.246 OA
BRANCH  32  34
ATOM     34  C   UNL     1       1.461  -2.841  -0.017  1.00  0.00     0.060 A 
ATOM     35  C   UNL     1       0.529  -2.778  -1.060  1.00  0.00     0.016 A 
ATOM     36  C   UNL     1       2.370  -3.906  -0.029  1.00  0.00     0.016 A 
ATOM     37  C   UNL     1       0.455  -3.791  -2.057  1.00  0.00     0.010 A 
ATOM     38  C   UNL     1       2.315  -4.896  -1.050  1.00  0.00     0.010 A 
ATOM     39  C   UNL     1       1.321  -4.896  -2.060  1.00  0.00    -0.014 A 
BRANCH  39  40
ATOM     40  C   UNL     1       1.112  -6.123  -2.956  1.00  0.00     0.031 A 
ATOM     41  C   UNL     1       0.829  -7.470  -2.290  1.00  0.00     0.074 A 
ATOM     42  C   UNL     1       1.115  -6.124  -4.317  1.00  0.00     0.049 A 
ATOM     43  N   UNL     1       0.720  -8.669  -2.818  1.00  0.00    -0.248 NA
ATOM     44  C   UNL     1       0.622  -7.453  -0.833  1.00  0.00     0.031 C 
ATOM     45  C   UNL     1       1.216  -4.950  -5.178  1.00  0.00     0.029 A 
ATOM     46  N   UNL     1       1.056  -7.175  -5.232  1.00  0.00    -0.354 N 
ATOM     47  C   UNL     1       0.400  -9.529  -1.770  1.00  0.00     0.074 A 
ATOM     48  C   UNL     1       0.440  -8.736  -0.560  1.00  0.00     0.031 C 
ATOM     49  C   UNL     1       1.286  -5.341  -6.468  1.00  0.00     0.029 A 
ATOM     50  C   UNL     1       1.268  -6.801  -6.552  1.00  0.00     0.049 A 
ATOM     51  H   UNL     1       0.878  -8.105  -4.963  1.00  0.00     0.167 HD
ATOM     52  C   UNL     1       0.044 -10.839  -1.798  1.00  0.00     0.037 A 
ATOM     53  C   UNL     1       1.480  -7.537  -7.678  1.00  0.00     0.037 A 
ATOM     54  C   UNL     1      -0.021 -11.654  -2.984  1.00  0.00     0.049 A 
ATOM     55  C   UNL     1       1.365  -9.039  -7.628  1.00  0.00     0.074 A 
ATOM     56  C   UNL     1      -0.475 -12.957  -3.115  1.00  0.00     0.029 A 
ATOM     57  N   UNL     1       0.408 -11.259  -4.239  1.00  0.00    -0.354 N 
ATOM     58  N   UNL     1       1.126  -9.825  -6.611  1.00  0.00    -0.248 NA
ATOM     59  C   UNL     1       1.514  -9.752  -8.911  1.00  0.00     0.031 C 
ATOM     60  C   UNL     1      -0.239 -13.380  -4.427  1.00  0.00     0.029 A 
ATOM     61  C   UNL     1       0.284 -12.313  -5.133  1.00  0.00     0.049 A 
ATOM     62  H   UNL     1       0.749 -10.363  -4.464  1.00  0.00     0.167 HD
ATOM     63  C   UNL     1       1.032 -11.105  -7.141  1.00  0.00     0.074 A 
ATOM     64  C   UNL     1       1.332 -11.012  -8.550  1.00  0.00     0.031 C 
ATOM     65  C   UNL     1       0.642 -12.243  -6.522  1.00  0.00     0.037 A 
BRANCH  52  66
ATOM     66  C   UNL     1      -0.323 -11.493  -0.490  1.00  0.00     0.064 A 
ATOM     67  C   UNL     1      -1.475 -11.124   0.223  1.00  0.00     0.173 A 
ATOM     68  C   UNL     1       0.462 -12.532   0.033  1.00  0.00     0.173 A 
ATOM     69  F   UNL     1      -2.268 -10.143  -0.234  1.00  0.00    -0.203 F 
ATOM     70  C   UNL     1      -1.795 -11.730   1.435  1.00  0.00     0.198 A 
ATOM     71  C   UNL     1       0.117 -13.164   1.225  1.00  0.00     0.198 A 
ATOM     72  F   UNL     1       1.560 -12.946  -0.619  1.00  0.00    -0.203 F 
ATOM     73  F   UNL     1      -2.862 -11.313   2.130  1.00  0.00    -0.200 F 
ATOM     74  C   UNL     1      -1.001 -12.752   1.933  1.00  0.00     0.200 A 
ATOM     75  F   UNL     1       0.872 -14.168   1.692  1.00  0.00    -0.200 F 
ATOM     76  F   UNL     1      -1.310 -13.335   3.099  1.00  0.00    -0.200 F 
ENDBRANCH  52  66
BRANCH  53  77
ATOM     77  C   UNL     1       1.929  -6.937  -8.982  1.00  0.00     0.064 A 
ATOM     78  C   UNL     1       1.112  -6.136  -9.783  1.00  0.00     0.173 A 
ATOM     79  C   UNL     1       3.221  -7.214  -9.486  1.00  0.00     0.173 A 
ATOM     80  F   UNL     1      -0.174  -5.951  -9.452  1.00  0.00    -0.203 F 
ATOM     81  C   UNL     1       1.601  -5.547 -10.957  1.00  0.00     0.198 A 
ATOM     82  C   UNL     1       3.724  -6.593 -10.629  1.00  0.00     0.198 A 
ATOM     83  F   UNL     1       4.029  -8.075  -8.842  1.00  0.00    -0.203 F 
ATOM     84  F   UNL     1       0.788  -4.800 -11.717  1.00  0.00    -0.200 F 
ATOM     85  C   UNL     1       2.918  -5.740 -11.354  1.00  0.00     0.200 A 
ATOM     86  F   UNL     1       4.999  -6.800 -10.989  1.00  0.00    -0.200 F 
ATOM     87  F   UNL     1       3.398  -5.127 -12.445  1.00  0.00    -0.200 F 
ENDBRANCH  53  77
BRANCH  65  88
ATOM     88  C   UNL     1       0.434 -13.452  -7.385  1.00  0.00     0.064 A 
ATOM     89  C   UNL     1       1.499 -14.177  -7.938  1.00  0.00     0.173 A 
ATOM     90  C   UNL     1      -0.872 -13.877  -7.678  1.00  0.00     0.173 A 
ATOM     91  F   UNL     1       2.764 -13.787  -7.723  1.00  0.00    -0.203 F 
ATOM     92  C   UNL     1       1.262 -15.271  -8.768  1.00  0.00     0.198 A 
ATOM     93  C   UNL     1      -1.104 -14.989  -8.480  1.00  0.00     0.198 A 
ATOM     94  F   UNL     1      -1.927 -13.207  -7.189  1.00  0.00    -0.203 F 
ATOM     95  F   UNL     1       2.292 -15.916  -9.334  1.00  0.00    -0.200 F 
ATOM     96  C   UNL     1      -0.038 -15.681  -9.030  1.00  0.00     0.200 A 
ATOM     97  F   UNL     1      -2.361 -15.383  -8.729  1.00  0.00    -0.200 F 
ATOM     98  F   UNL     1      -0.262 -16.735  -9.827  1.00  0.00    -0.200 F 
ENDBRANCH  65  88
ENDBRANCH  39  40
ENDBRANCH  32  34
ENDBRANCH  31  32
ENDBRANCH  30  31
ENDBRANCH   1  30
TORSDOF 15
