REMARK SMILES CCOC(=O)c1c(C)nn(-c2ncccc2NC(=O)/C=C/C(=O)OCCOC(=O)c2ccc(-c3c4nc(c(-c5c(F)c(F)c(F)c(F)c5F)c5ccc([nH]5)c(-c5c(F)c(F)c(F)c(F)c5F)c5nc(c(-c6c(F)c(F)c(F)c(F)c6F)c6ccc3[nH]6)C=C5)C=C4)cc2)c1C
REMARK SMILES IDX 22 1 23 2 21 3 20 4 18 5 17 6 19 8 16 9 11 10 12 11 13 12
REMARK SMILES IDX 15 13 14 14 10 15 6 16 7 17 93 18 8 19 9 20 94 21 4 22 5 23
REMARK SMILES IDX 3 24 2 25 1 26 24 27 25 28 26 29 27 30 28 31 29 32 30 33
REMARK SMILES IDX 31 34 92 35 32 36 91 37 33 38 34 39 35 40 85 41 36 42 90 43
REMARK SMILES IDX 84 44 86 45 37 46 89 47 83 48 82 49 38 51 70 52 50 53 69 54
REMARK SMILES IDX 51 55 54 56 68 57 87 58 52 59 53 60 67 62 88 63 55 64 39 65
REMARK SMILES IDX 40 66 48 67 41 68 42 69 46 70 49 71 43 72 44 73 47 74 45 75
REMARK SMILES IDX 71 76 72 77 80 78 73 79 74 80 78 81 81 82 75 83 76 84 79 85
REMARK SMILES IDX 77 86 56 87 57 88 65 89 58 90 59 91 63 92 66 93 60 94 61 95
REMARK SMILES IDX 64 96 62 97
REMARK H PARENT 17 7 86 50 54 61
REMARK Flexibility Score: inf
ROOT
ATOM      1  C   UNL     1       4.004   2.739  -4.932  1.00  0.00     0.331 C 
ATOM      2  O   UNL     1       4.248   3.104  -6.072  1.00  0.00    -0.247 OA
ENDROOT
BRANCH   1   3
ATOM      3  C   UNL     1       3.514   3.716  -3.734  1.00  0.00     0.099 C 
ATOM      4  C   UNL     1       4.158   4.908  -2.393  1.00  0.00     0.079 C 
BRANCH   4   5
ATOM      5  C   UNL     1       3.705   6.076  -1.346  1.00  0.00     0.248 C 
ATOM      6  N   UNL     1       3.350   7.317  -1.842  1.00  0.00    -0.319 N 
ATOM      7  H   UNL     1       3.160   8.005  -1.165  1.00  0.00     0.170 HD
ATOM      8  O   UNL     1       3.784   5.880  -0.135  1.00  0.00    -0.270 OA
BRANCH   6   9
ATOM      9  C   UNL     1       3.222   7.736  -3.186  1.00  0.00     0.086 A 
ATOM     10  C   UNL     1       3.393   6.896  -4.280  1.00  0.00     0.177 A 
ATOM     11  N   UNL     1       3.316   7.265  -5.583  1.00  0.00    -0.235 NA
ATOM     12  C   UNL     1       3.030   8.561  -5.811  1.00  0.00     0.114 A 
ATOM     13  C   UNL     1       2.907   9.063  -3.467  1.00  0.00     0.032 A 
ATOM     14  C   UNL     1       2.801   9.482  -4.798  1.00  0.00     0.022 A 
BRANCH  10  15
ATOM     15  N   UNL     1       3.447   5.521  -3.977  1.00  0.00    -0.216 N 
ATOM     16  C   UNL     1       3.191   3.319  -1.888  1.00  0.00     0.104 A 
ATOM     17  C   UNL     1       5.024   3.259  -2.706  1.00  0.00     0.075 A 
ATOM     18  C   UNL     1       2.268   4.731  -2.680  1.00  0.00     0.058 A 
ATOM     19  C   UNL     1       6.069   2.225  -2.499  1.00  0.00     0.070 C 
ATOM     20  N   UNL     1       5.149   4.595  -3.935  1.00  0.00    -0.171 NA
ATOM     21  C   UNL     1       0.867   5.212  -2.508  1.00  0.00     0.068 C 
BRANCH  16  22
ATOM     22  C   UNL     1       2.690   2.361  -0.919  1.00  0.00     0.341 C 
ATOM     23  O   UNL     1       3.428   1.641  -0.261  1.00  0.00    -0.246 OA
BRANCH  22  24
ATOM     24  O   UNL     1       1.331   2.358  -0.861  1.00  0.00    -0.462 OA
BRANCH  24  25
ATOM     25  C   UNL     1       0.729   1.554   0.164  1.00  0.00     0.230 C 
ATOM     26  C   UNL     1       0.824   0.062  -0.106  1.00  0.00     0.049 C 
ENDBRANCH  24  25
ENDBRANCH  22  24
ENDBRANCH  16  22
ENDBRANCH  10  15
ENDBRANCH   6   9
ENDBRANCH   4   5
ENDBRANCH   1   3
BRANCH   1  27
ATOM     27  O   UNL     1       3.725   1.463  -4.533  1.00  0.00    -0.459 OA
BRANCH  27  28
ATOM     28  C   UNL     1       3.680   0.495  -5.592  1.00  0.00     0.275 C 
BRANCH  28  29
ATOM     29  C   UNL     1       2.266   0.353  -6.143  1.00  0.00     0.275 C 
BRANCH  29  30
ATOM     30  O   UNL     1       1.857   1.520  -6.863  1.00  0.00    -0.458 OA
BRANCH  30  31
ATOM     31  C   UNL     1       1.072   2.372  -6.171  1.00  0.00     0.338 C 
ATOM     32  O   UNL     1       0.825   2.356  -4.976  1.00  0.00    -0.246 OA
BRANCH  31  33
ATOM     33  C   UNL     1       0.347   3.244  -7.096  1.00  0.00     0.060 A 
ATOM     34  C   UNL     1      -0.170   4.453  -6.615  1.00  0.00     0.016 A 
ATOM     35  C   UNL     1      -0.079   2.689  -8.306  1.00  0.00     0.016 A 
ATOM     36  C   UNL     1      -1.240   5.034  -7.272  1.00  0.00     0.010 A 
ATOM     37  C   UNL     1      -1.146   3.264  -8.955  1.00  0.00     0.010 A 
ATOM     38  C   UNL     1      -1.765   4.384  -8.390  1.00  0.00    -0.014 A 
BRANCH  38  39
ATOM     39  C   UNL     1      -3.001   4.866  -8.983  1.00  0.00     0.031 A 
ATOM     40  C   UNL     1      -2.893   6.056  -9.867  1.00  0.00     0.074 A 
ATOM     41  C   UNL     1      -4.112   4.104  -8.931  1.00  0.00     0.049 A 
ATOM     42  N   UNL     1      -3.673   7.088  -9.929  1.00  0.00    -0.248 NA
ATOM     43  C   UNL     1      -1.748   6.114 -10.790  1.00  0.00     0.031 C 
ATOM     44  C   UNL     1      -4.250   2.761  -8.355  1.00  0.00     0.029 A 
ATOM     45  N   UNL     1      -5.311   4.305  -9.542  1.00  0.00    -0.354 N 
ATOM     46  C   UNL     1      -3.201   7.862 -10.987  1.00  0.00     0.074 A 
ATOM     47  C   UNL     1      -1.967   7.265 -11.423  1.00  0.00     0.031 C 
ATOM     48  C   UNL     1      -5.369   2.186  -8.846  1.00  0.00     0.029 A 
ATOM     49  C   UNL     1      -6.064   3.148  -9.685  1.00  0.00     0.049 A 
ATOM     50  H   UNL     1      -5.616   5.188  -9.854  1.00  0.00     0.167 HD
ATOM     51  C   UNL     1      -3.941   8.854 -11.552  1.00  0.00     0.037 A 
ATOM     52  C   UNL     1      -7.119   2.971 -10.516  1.00  0.00     0.037 A 
ATOM     53  C   UNL     1      -4.982   9.316 -10.680  1.00  0.00     0.049 A 
ATOM     54  C   UNL     1      -7.608   4.316 -10.917  1.00  0.00     0.074 A 
ATOM     55  C   UNL     1      -4.999   9.871  -9.414  1.00  0.00     0.029 A 
ATOM     56  N   UNL     1      -6.281   8.954 -10.936  1.00  0.00    -0.354 N 
ATOM     57  N   UNL     1      -8.230   5.142 -10.123  1.00  0.00    -0.248 NA
ATOM     58  C   UNL     1      -7.041   4.914 -12.118  1.00  0.00     0.031 C 
ATOM     59  C   UNL     1      -6.173   9.352  -8.797  1.00  0.00     0.029 A 
ATOM     60  C   UNL     1      -6.807   8.541  -9.738  1.00  0.00     0.049 A 
ATOM     61  H   UNL     1      -6.743   8.984 -11.805  1.00  0.00     0.167 HD
ATOM     62  C   UNL     1      -7.779   6.398 -10.500  1.00  0.00     0.074 A 
ATOM     63  C   UNL     1      -7.141   6.206 -11.797  1.00  0.00     0.031 C 
ATOM     64  C   UNL     1      -7.706   7.423  -9.601  1.00  0.00     0.037 A 
BRANCH  51  65
ATOM     65  C   UNL     1      -3.881   9.211 -13.011  1.00  0.00     0.064 A 
ATOM     66  C   UNL     1      -4.474  10.404 -13.466  1.00  0.00     0.173 A 
ATOM     67  C   UNL     1      -3.510   8.288 -14.014  1.00  0.00     0.173 A 
ATOM     68  F   UNL     1      -4.892  11.334 -12.595  1.00  0.00    -0.203 F 
ATOM     69  C   UNL     1      -4.726  10.629 -14.822  1.00  0.00     0.198 A 
ATOM     70  C   UNL     1      -3.713   8.540 -15.369  1.00  0.00     0.198 A 
ATOM     71  F   UNL     1      -3.042   7.070 -13.713  1.00  0.00    -0.203 F 
ATOM     72  F   UNL     1      -5.397  11.725 -15.200  1.00  0.00    -0.200 F 
ATOM     73  C   UNL     1      -4.348   9.697 -15.771  1.00  0.00     0.200 A 
ATOM     74  F   UNL     1      -3.357   7.616 -16.272  1.00  0.00    -0.200 F 
ATOM     75  F   UNL     1      -4.638   9.886 -17.065  1.00  0.00    -0.200 F 
ENDBRANCH  51  65
BRANCH  52  76
ATOM     76  C   UNL     1      -7.582   1.725 -11.172  1.00  0.00     0.064 A 
ATOM     77  C   UNL     1      -8.859   1.646 -11.750  1.00  0.00     0.173 A 
ATOM     78  C   UNL     1      -6.706   0.656 -11.452  1.00  0.00     0.173 A 
ATOM     79  F   UNL     1      -9.740   2.643 -11.582  1.00  0.00    -0.203 F 
ATOM     80  C   UNL     1      -9.233   0.571 -12.563  1.00  0.00     0.198 A 
ATOM     81  C   UNL     1      -7.088  -0.427 -12.244  1.00  0.00     0.198 A 
ATOM     82  F   UNL     1      -5.431   0.678 -11.039  1.00  0.00    -0.203 F 
ATOM     83  F   UNL     1     -10.440   0.563 -13.146  1.00  0.00    -0.200 F 
ATOM     84  C   UNL     1      -8.347  -0.464 -12.810  1.00  0.00     0.200 A 
ATOM     85  F   UNL     1      -6.207  -1.405 -12.499  1.00  0.00    -0.200 F 
ATOM     86  F   UNL     1      -8.689  -1.472 -13.624  1.00  0.00    -0.200 F 
ENDBRANCH  52  76
BRANCH  64  87
ATOM     87  C   UNL     1      -8.358   7.237  -8.262  1.00  0.00     0.064 A 
ATOM     88  C   UNL     1      -7.972   6.242  -7.347  1.00  0.00     0.173 A 
ATOM     89  C   UNL     1      -9.289   8.188  -7.825  1.00  0.00     0.173 A 
ATOM     90  F   UNL     1      -7.002   5.370  -7.644  1.00  0.00    -0.203 F 
ATOM     91  C   UNL     1      -8.536   6.170  -6.075  1.00  0.00     0.198 A 
ATOM     92  C   UNL     1      -9.822   8.137  -6.540  1.00  0.00     0.198 A 
ATOM     93  F   UNL     1      -9.644   9.201  -8.631  1.00  0.00    -0.203 F 
ATOM     94  F   UNL     1      -8.159   5.202  -5.227  1.00  0.00    -0.200 F 
ATOM     95  C   UNL     1      -9.456   7.122  -5.671  1.00  0.00     0.200 A 
ATOM     96  F   UNL     1     -10.669   9.092  -6.132  1.00  0.00    -0.200 F 
ATOM     97  F   UNL     1      -9.965   7.080  -4.431  1.00  0.00    -0.200 F 
ENDBRANCH  64  87
ENDBRANCH  38  39
ENDBRANCH  31  33
ENDBRANCH  30  31
ENDBRANCH  29  30
ENDBRANCH  28  29
ENDBRANCH  27  28
ENDBRANCH   1  27
TORSDOF 17
