REMARK SMILES O=C(CCCC[C@@H]1CCSS1)OCCOC(=O)c1ccc(-c2c3nc(c(-c4c(F)c(F)c(F)c(F)c4F)c4ccc([nH]4)c(-c4c(F)c(F)c(F)c(F)c4F)c4nc(c(-c5c(F)c(F)c(F)c(F)c5F)c5ccc2[nH]5)C=C4)C=C3)cc1
REMARK SMILES IDX 13 1 12 2 2 3 1 4 3 5 4 6 5 7 6 8 7 9 8 10 11 11 9 12 10 13
REMARK SMILES IDX 14 14 15 15 16 16 17 17 18 18 19 19 80 20 20 21 79 22 21 23
REMARK SMILES IDX 22 24 23 25 73 26 24 27 78 28 72 29 74 30 25 31 77 32 71 33
REMARK SMILES IDX 70 34 26 36 58 37 38 38 57 39 39 40 42 41 56 42 75 43 40 44
REMARK SMILES IDX 41 45 55 47 76 48 43 49 27 50 28 51 36 52 29 53 30 54 34 55
REMARK SMILES IDX 37 56 31 57 32 58 35 59 33 60 59 61 60 62 68 63 61 64 62 65
REMARK SMILES IDX 66 66 69 67 63 68 64 69 67 70 65 71 44 72 45 73 53 74 46 75
REMARK SMILES IDX 47 76 51 77 54 78 48 79 49 80 52 81 50 82
REMARK H PARENT 74 35 42 46
REMARK Flexibility Score: inf
ROOT
ATOM      1  C   UNL     1       3.654  -0.258   1.510  1.00  0.00     0.274 C 
ENDROOT
BRANCH   1   2
ATOM      2  O   UNL     1       2.455   0.175   0.845  1.00  0.00    -0.462 OA
BRANCH   2   3
ATOM      3  C   UNL     1       2.560   1.028  -0.208  1.00  0.00     0.305 C 
ATOM      4  O   UNL     1       1.913   2.069  -0.251  1.00  0.00    -0.252 OA
BRANCH   3   5
ATOM      5  C   UNL     1       3.347   0.522  -1.401  1.00  0.00     0.123 C 
BRANCH   5   6
ATOM      6  C   UNL     1       4.364   1.513  -1.963  1.00  0.00     0.012 C 
BRANCH   6   7
ATOM      7  C   UNL     1       5.663   1.651  -1.157  1.00  0.00     0.002 C 
BRANCH   7   8
ATOM      8  C   UNL     1       6.432   0.350  -0.879  1.00  0.00     0.015 C 
BRANCH   8   9
ATOM      9  C   UNL     1       7.039  -0.364  -2.091  1.00  0.00     0.059 C 
ATOM     10  C   UNL     1       7.336  -1.833  -1.734  1.00  0.00     0.027 C 
ATOM     11  S   UNL     1       8.611   0.415  -2.588  1.00  0.00    -0.091 SA
ATOM     12  C   UNL     1       8.352  -2.442  -2.688  1.00  0.00     0.083 C 
ATOM     13  S   UNL     1       9.740  -1.291  -2.694  1.00  0.00    -0.094 SA
ENDBRANCH   8   9
ENDBRANCH   7   8
ENDBRANCH   6   7
ENDBRANCH   5   6
ENDBRANCH   3   5
ENDBRANCH   2   3
ENDBRANCH   1   2
BRANCH   1  14
ATOM     14  C   UNL     1       3.826  -1.782   1.496  1.00  0.00     0.275 C 
BRANCH  14  15
ATOM     15  O   UNL     1       3.662  -2.323   0.174  1.00  0.00    -0.458 OA
BRANCH  15  16
ATOM     16  C   UNL     1       2.388  -2.700  -0.118  1.00  0.00     0.338 C 
ATOM     17  O   UNL     1       1.452  -2.768   0.654  1.00  0.00    -0.246 OA
BRANCH  16  18
ATOM     18  C   UNL     1       2.240  -2.872  -1.580  1.00  0.00     0.060 A 
ATOM     19  C   UNL     1       1.061  -2.402  -2.172  1.00  0.00     0.016 A 
ATOM     20  C   UNL     1       3.221  -3.491  -2.361  1.00  0.00     0.016 A 
ATOM     21  C   UNL     1       0.840  -2.585  -3.537  1.00  0.00     0.010 A 
ATOM     22  C   UNL     1       2.996  -3.679  -3.728  1.00  0.00     0.010 A 
ATOM     23  C   UNL     1       1.792  -3.254  -4.317  1.00  0.00    -0.014 A 
BRANCH  23  24
ATOM     24  C   UNL     1       1.464  -3.651  -5.707  1.00  0.00     0.031 A 
ATOM     25  C   UNL     1       0.942  -5.038  -5.959  1.00  0.00     0.074 A 
ATOM     26  C   UNL     1       1.634  -2.801  -6.734  1.00  0.00     0.049 A 
ATOM     27  N   UNL     1       0.629  -5.616  -7.091  1.00  0.00    -0.248 NA
ATOM     28  C   UNL     1       0.754  -5.889  -4.774  1.00  0.00     0.031 C 
ATOM     29  C   UNL     1       2.115  -1.427  -6.622  1.00  0.00     0.029 A 
ATOM     30  N   UNL     1       1.436  -2.983  -8.080  1.00  0.00    -0.354 N 
ATOM     31  C   UNL     1       0.210  -6.896  -6.755  1.00  0.00     0.074 A 
ATOM     32  C   UNL     1       0.338  -7.022  -5.319  1.00  0.00     0.031 C 
ATOM     33  C   UNL     1       2.200  -0.895  -7.854  1.00  0.00     0.029 A 
ATOM     34  C   UNL     1       1.799  -1.899  -8.840  1.00  0.00     0.049 A 
ATOM     35  H   UNL     1       1.068  -3.812  -8.464  1.00  0.00     0.167 HD
ATOM     36  C   UNL     1      -0.248  -7.875  -7.569  1.00  0.00     0.037 A 
ATOM     37  C   UNL     1       1.825  -1.745 -10.178  1.00  0.00     0.037 A 
ATOM     38  C   UNL     1      -0.378  -7.755  -8.996  1.00  0.00     0.049 A 
ATOM     39  C   UNL     1       1.365  -2.869 -11.070  1.00  0.00     0.074 A 
ATOM     40  C   UNL     1      -0.880  -8.677  -9.898  1.00  0.00     0.029 A 
ATOM     41  N   UNL     1       0.011  -6.645  -9.730  1.00  0.00    -0.354 N 
ATOM     42  N   UNL     1       0.913  -4.054 -10.741  1.00  0.00    -0.248 NA
ATOM     43  C   UNL     1       1.416  -2.632 -12.521  1.00  0.00     0.031 C 
ATOM     44  C   UNL     1      -0.748  -8.144 -11.184  1.00  0.00     0.029 A 
ATOM     45  C   UNL     1      -0.207  -6.873 -11.079  1.00  0.00     0.049 A 
ATOM     46  H   UNL     1       0.386  -5.818  -9.350  1.00  0.00     0.167 HD
ATOM     47  C   UNL     1       0.602  -4.692 -11.935  1.00  0.00     0.074 A 
ATOM     48  C   UNL     1       0.913  -3.762 -13.000  1.00  0.00     0.031 C 
ATOM     49  C   UNL     1       0.101  -5.936 -12.130  1.00  0.00     0.037 A 
BRANCH  36  50
ATOM     50  C   UNL     1      -0.621  -9.178  -6.930  1.00  0.00     0.064 A 
ATOM     51  C   UNL     1      -1.784  -9.312  -6.157  1.00  0.00     0.173 A 
ATOM     52  C   UNL     1       0.190 -10.309  -7.104  1.00  0.00     0.173 A 
ATOM     53  F   UNL     1      -2.582  -8.254  -5.950  1.00  0.00    -0.203 F 
ATOM     54  C   UNL     1      -2.107 -10.526  -5.558  1.00  0.00     0.198 A 
ATOM     55  C   UNL     1      -0.150 -11.528  -6.524  1.00  0.00     0.198 A 
ATOM     56  F   UNL     1       1.312 -10.231  -7.835  1.00  0.00    -0.203 F 
ATOM     57  F   UNL     1      -3.197 -10.620  -4.784  1.00  0.00    -0.200 F 
ATOM     58  C   UNL     1      -1.293 -11.634  -5.745  1.00  0.00     0.200 A 
ATOM     59  F   UNL     1       0.634 -12.598  -6.710  1.00  0.00    -0.200 F 
ATOM     60  F   UNL     1      -1.605 -12.801  -5.166  1.00  0.00    -0.200 F 
ENDBRANCH  36  50
BRANCH  37  61
ATOM     61  C   UNL     1       2.324  -0.473 -10.761  1.00  0.00     0.064 A 
ATOM     62  C   UNL     1       1.453   0.432 -11.381  1.00  0.00     0.173 A 
ATOM     63  C   UNL     1       3.687  -0.144 -10.713  1.00  0.00     0.173 A 
ATOM     64  F   UNL     1       0.146   0.146 -11.473  1.00  0.00    -0.203 F 
ATOM     65  C   UNL     1       1.928   1.616 -11.942  1.00  0.00     0.198 A 
ATOM     66  C   UNL     1       4.157   1.050 -11.254  1.00  0.00     0.198 A 
ATOM     67  F   UNL     1       4.560  -0.981 -10.134  1.00  0.00    -0.203 F 
ATOM     68  F   UNL     1       1.081   2.448 -12.562  1.00  0.00    -0.200 F 
ATOM     69  C   UNL     1       3.279   1.927 -11.873  1.00  0.00     0.200 A 
ATOM     70  F   UNL     1       5.461   1.349 -11.179  1.00  0.00    -0.200 F 
ATOM     71  F   UNL     1       3.734   3.066 -12.410  1.00  0.00    -0.200 F 
ENDBRANCH  37  61
BRANCH  49  72
ATOM     72  C   UNL     1      -0.173  -6.367 -13.541  1.00  0.00     0.064 A 
ATOM     73  C   UNL     1       0.865  -6.734 -14.409  1.00  0.00     0.173 A 
ATOM     74  C   UNL     1      -1.492  -6.489 -14.003  1.00  0.00     0.173 A 
ATOM     75  F   UNL     1       2.143  -6.622 -14.018  1.00  0.00    -0.203 F 
ATOM     76  C   UNL     1       0.592  -7.200 -15.693  1.00  0.00     0.198 A 
ATOM     77  C   UNL     1      -1.763  -6.977 -15.278  1.00  0.00     0.198 A 
ATOM     78  F   UNL     1      -2.520  -6.157 -13.207  1.00  0.00    -0.203 F 
ATOM     79  F   UNL     1       1.599  -7.522 -16.516  1.00  0.00    -0.200 F 
ATOM     80  C   UNL     1      -0.721  -7.330 -16.122  1.00  0.00     0.200 A 
ATOM     81  F   UNL     1      -3.032  -7.114 -15.686  1.00  0.00    -0.200 F 
ATOM     82  F   UNL     1      -0.982  -7.795 -17.352  1.00  0.00    -0.200 F 
ENDBRANCH  49  72
ENDBRANCH  23  24
ENDBRANCH  16  18
ENDBRANCH  15  16
ENDBRANCH  14  15
ENDBRANCH   1  14
TORSDOF 15
