REMARK SMILES COC(=O)[C@H]1CC[C@]2(C)[C@H]3CC=C4[C@@H]5CC(C)(C)CC[C@@]5(C(=O)OCCOC(=O)c5ccc(-c6c7nc(c(-c8c(F)c(F)c(F)c(F)c8F)c8ccc([nH]8)c(-c8c(F)c(F)c(F)c(F)c8F)c8nc(c(-c9c(F)c(F)c(F)c(F)c9F)c9ccc6[nH]9)C=C8)C=C7)cc5)CC[C@@]4(C)[C@@]3(C)CC[C@H]2C1(C)C
REMARK SMILES IDX 25 1 24 2 22 3 23 4 21 5 5 6 6 7 102 8 7 9 101 10 103 11
REMARK SMILES IDX 104 12 8 13 100 14 9 15 10 16 99 17 11 18 97 19 12 20 95 21
REMARK SMILES IDX 98 22 13 23 94 24 96 25 14 26 93 27 15 28 16 29 20 30 17 31
REMARK SMILES IDX 18 32 19 33 3 34 4 35 2 36 1 37 26 38 27 39 28 40 29 41
REMARK SMILES IDX 30 42 31 43 92 44 32 45 91 46 33 47 34 48 35 49 85 50 36 51
REMARK SMILES IDX 90 52 84 53 86 54 37 55 89 56 83 57 82 58 38 60 70 61 50 62
REMARK SMILES IDX 69 63 51 64 54 65 68 66 87 67 52 68 53 69 67 71 88 72 55 73
REMARK SMILES IDX 39 74 40 75 48 76 41 77 42 78 46 79 49 80 43 81 44 82 47 83
REMARK SMILES IDX 45 84 71 85 72 86 80 87 73 88 74 89 78 90 81 91 75 92 76 93
REMARK SMILES IDX 79 94 77 95 56 96 57 97 65 98 58 99 59 100 63 101 66 102
REMARK SMILES IDX 60 103 61 104 64 105 62 106
REMARK H PARENT 86 59 54 70
REMARK Flexibility Score: inf
ROOT
ATOM      1  C   UNL     1      -6.366   4.544  -5.711  1.00  0.00     0.274 C 
ENDROOT
BRANCH   1   2
ATOM      2  O   UNL     1      -7.047   3.746  -4.715  1.00  0.00    -0.462 OA
BRANCH   2   3
ATOM      3  C   UNL     1      -6.836   4.152  -3.439  1.00  0.00     0.312 C 
ATOM      4  O   UNL     1      -6.761   5.333  -3.132  1.00  0.00    -0.252 OA
BRANCH   3   5
ATOM      5  C   UNL     1      -6.431   3.057  -2.454  1.00  0.00     0.075 C 
ATOM      6  C   UNL     1       1.689   2.137  -2.561  1.00  0.00     0.105 C 
ATOM      7  C   UNL     1       2.070   3.617  -2.123  1.00  0.00     0.016 C 
ATOM      8  C   UNL     1       0.154   1.746  -2.606  1.00  0.00    -0.019 C 
ATOM      9  C   UNL     1       0.965   4.593  -1.581  1.00  0.00     0.008 C 
ATOM     10  C   UNL     1      -0.575   2.781  -1.709  1.00  0.00     0.002 C 
ATOM     11  C   UNL     1      -0.477   1.641  -4.026  1.00  0.00     0.012 C 
ATOM     12  C   UNL     1      -0.014   0.318  -2.004  1.00  0.00     0.012 C 
ATOM     13  C   UNL     1      -0.427   4.268  -2.196  1.00  0.00    -0.026 C 
ATOM     14  C   UNL     1      -1.946   2.388  -1.219  1.00  0.00     0.005 C 
ATOM     15  C   UNL     1      -0.143   4.514  -3.719  1.00  0.00     0.012 C 
ATOM     16  C   UNL     1      -1.629   5.282  -1.727  1.00  0.00     0.006 C 
ATOM     17  C   UNL     1      -2.398   3.338  -0.129  1.00  0.00     0.008 C 
ATOM     18  C   UNL     1      -2.427   5.810  -2.983  1.00  0.00     0.032 C 
ATOM     19  C   UNL     1      -2.721   4.779  -0.590  1.00  0.00    -0.020 C 
ATOM     20  C   UNL     1      -3.379   4.736  -3.424  1.00  0.00    -0.027 C 
ATOM     21  C   UNL     1      -4.271   4.889  -1.140  1.00  0.00    -0.006 C 
ATOM     22  C   UNL     1      -2.569   5.659   0.683  1.00  0.00     0.012 C 
ATOM     23  C   UNL     1      -4.193   4.189  -2.504  1.00  0.00    -0.063 C 
ATOM     24  C   UNL     1      -5.412   4.238  -0.266  1.00  0.00     0.013 C 
ATOM     25  C   UNL     1      -4.703   6.403  -1.252  1.00  0.00     0.017 C 
ATOM     26  C   UNL     1      -4.932   2.853  -2.648  1.00  0.00     0.033 C 
ATOM     27  C   UNL     1      -6.633   3.577  -0.986  1.00  0.00     0.020 C 
ATOM     28  C   UNL     1      -4.585   1.995  -3.880  1.00  0.00     0.015 C 
ATOM     29  C   UNL     1      -5.285   0.622  -3.872  1.00  0.00    -0.035 C 
ATOM     30  C   UNL     1      -7.249   1.754  -2.642  1.00  0.00     0.020 C 
ATOM     31  C   UNL     1      -4.937  -0.115  -5.180  1.00  0.00     0.011 C 
ATOM     32  C   UNL     1      -4.785  -0.255  -2.704  1.00  0.00     0.011 C 
ATOM     33  C   UNL     1      -6.806   0.841  -3.794  1.00  0.00     0.007 C 
BRANCH   6  34
ATOM     34  C   UNL     1       2.384   1.733  -3.867  1.00  0.00     0.309 C 
ATOM     35  O   UNL     1       2.809   2.503  -4.716  1.00  0.00    -0.252 OA
BRANCH  34  36
ATOM     36  O   UNL     1       2.366   0.375  -3.999  1.00  0.00    -0.469 OA
ATOM     37  C   UNL     1       2.660  -0.098  -5.314  1.00  0.00     0.282 C 
ENDBRANCH  34  36
ENDBRANCH   6  34
ENDBRANCH   3   5
ENDBRANCH   2   3
ENDBRANCH   1   2
BRANCH   1  38
ATOM     38  C   UNL     1      -7.116   5.749  -6.289  1.00  0.00     0.275 C 
BRANCH  38  39
ATOM     39  O   UNL     1      -7.305   6.779  -5.307  1.00  0.00    -0.458 OA
BRANCH  39  40
ATOM     40  C   UNL     1      -8.544   6.808  -4.760  1.00  0.00     0.338 C 
ATOM     41  O   UNL     1      -9.548   6.273  -5.203  1.00  0.00    -0.246 OA
BRANCH  40  42
ATOM     42  C   UNL     1      -8.483   7.381  -3.397  1.00  0.00     0.060 A 
ATOM     43  C   UNL     1      -9.105   6.628  -2.391  1.00  0.00     0.016 A 
ATOM     44  C   UNL     1      -7.776   8.544  -3.076  1.00  0.00     0.016 A 
ATOM     45  C   UNL     1      -9.036   7.039  -1.068  1.00  0.00     0.010 A 
ATOM     46  C   UNL     1      -7.777   9.005  -1.753  1.00  0.00     0.010 A 
ATOM     47  C   UNL     1      -8.444   8.272  -0.757  1.00  0.00    -0.014 A 
BRANCH  47  48
ATOM     48  C   UNL     1      -8.872   8.902   0.514  1.00  0.00     0.031 A 
ATOM     49  C   UNL     1     -10.307   9.352   0.575  1.00  0.00     0.074 A 
ATOM     50  C   UNL     1      -8.083   8.995   1.596  1.00  0.00     0.049 A 
ATOM     51  N   UNL     1     -11.031   9.697   1.606  1.00  0.00    -0.248 NA
ATOM     52  C   UNL     1     -11.040   9.364  -0.706  1.00  0.00     0.031 C 
ATOM     53  C   UNL     1      -6.689   8.579   1.673  1.00  0.00     0.029 A 
ATOM     54  N   UNL     1      -8.363   9.464   2.855  1.00  0.00    -0.354 N 
ATOM     55  C   UNL     1     -12.314   9.876   1.110  1.00  0.00     0.074 A 
ATOM     56  C   UNL     1     -12.271   9.639  -0.314  1.00  0.00     0.031 C 
ATOM     57  C   UNL     1      -6.228   8.809   2.915  1.00  0.00     0.029 A 
ATOM     58  C   UNL     1      -7.297   9.402   3.716  1.00  0.00     0.049 A 
ATOM     59  H   UNL     1      -9.246   9.813   3.116  1.00  0.00     0.167 HD
ATOM     60  C   UNL     1     -13.436  10.215   1.781  1.00  0.00     0.037 A 
ATOM     61  C   UNL     1      -7.205   9.792   5.002  1.00  0.00     0.037 A 
ATOM     62  C   UNL     1     -13.449  10.611   3.158  1.00  0.00     0.049 A 
ATOM     63  C   UNL     1      -8.430  10.350   5.683  1.00  0.00     0.074 A 
ATOM     64  C   UNL     1     -14.504  11.087   3.912  1.00  0.00     0.029 A 
ATOM     65  N   UNL     1     -12.325  10.628   3.971  1.00  0.00    -0.354 N 
ATOM     66  N   UNL     1      -9.656  10.455   5.230  1.00  0.00    -0.248 NA
ATOM     67  C   UNL     1      -8.255  10.844   7.056  1.00  0.00     0.031 C 
ATOM     68  C   UNL     1     -14.003  11.448   5.169  1.00  0.00     0.029 A 
ATOM     69  C   UNL     1     -12.650  11.147   5.211  1.00  0.00     0.049 A 
ATOM     70  H   UNL     1     -11.430  10.317   3.705  1.00  0.00     0.167 HD
ATOM     71  C   UNL     1     -10.402  11.004   6.264  1.00  0.00     0.074 A 
ATOM     72  C   UNL     1      -9.493  11.195   7.376  1.00  0.00     0.031 C 
ATOM     73  C   UNL     1     -11.720  11.325   6.296  1.00  0.00     0.037 A 
BRANCH  60  74
ATOM     74  C   UNL     1     -14.703  10.234   0.988  1.00  0.00     0.064 A 
ATOM     75  C   UNL     1     -15.349   9.040   0.631  1.00  0.00     0.173 A 
ATOM     76  C   UNL     1     -15.239  11.442   0.525  1.00  0.00     0.173 A 
ATOM     77  F   UNL     1     -14.850   7.858   1.022  1.00  0.00    -0.203 F 
ATOM     78  C   UNL     1     -16.481   9.058  -0.178  1.00  0.00     0.198 A 
ATOM     79  C   UNL     1     -16.380  11.456  -0.271  1.00  0.00     0.198 A 
ATOM     80  F   UNL     1     -14.640  12.605   0.822  1.00  0.00    -0.203 F 
ATOM     81  F   UNL     1     -17.059   7.905  -0.547  1.00  0.00    -0.200 F 
ATOM     82  C   UNL     1     -16.996  10.265  -0.627  1.00  0.00     0.200 A 
ATOM     83  F   UNL     1     -16.871  12.622  -0.713  1.00  0.00    -0.200 F 
ATOM     84  F   UNL     1     -18.078  10.280  -1.419  1.00  0.00    -0.200 F 
ENDBRANCH  60  74
BRANCH  61  85
ATOM     85  C   UNL     1      -5.911   9.695   5.729  1.00  0.00     0.064 A 
ATOM     86  C   UNL     1      -5.746   8.820   6.812  1.00  0.00     0.173 A 
ATOM     87  C   UNL     1      -4.825  10.513   5.383  1.00  0.00     0.173 A 
ATOM     88  F   UNL     1      -6.764   8.038   7.201  1.00  0.00    -0.203 F 
ATOM     89  C   UNL     1      -4.553   8.782   7.532  1.00  0.00     0.198 A 
ATOM     90  C   UNL     1      -3.624  10.456   6.088  1.00  0.00     0.198 A 
ATOM     91  F   UNL     1      -4.931  11.376   4.362  1.00  0.00    -0.203 F 
ATOM     92  F   UNL     1      -4.440   7.973   8.594  1.00  0.00    -0.200 F 
ATOM     93  C   UNL     1      -3.492   9.597   7.168  1.00  0.00     0.200 A 
ATOM     94  F   UNL     1      -2.600  11.243   5.729  1.00  0.00    -0.200 F 
ATOM     95  F   UNL     1      -2.348   9.564   7.865  1.00  0.00    -0.200 F 
ENDBRANCH  61  85
BRANCH  73  96
ATOM     96  C   UNL     1     -12.255  11.896   7.574  1.00  0.00     0.064 A 
ATOM     97  C   UNL     1     -11.958  13.207   7.972  1.00  0.00     0.173 A 
ATOM     98  C   UNL     1     -13.113  11.137   8.383  1.00  0.00     0.173 A 
ATOM     99  F   UNL     1     -11.132  13.966   7.236  1.00  0.00    -0.203 F 
ATOM    100  C   UNL     1     -12.483  13.730   9.150  1.00  0.00     0.198 A 
ATOM    101  C   UNL     1     -13.658  11.673   9.545  1.00  0.00     0.198 A 
ATOM    102  F   UNL     1     -13.432   9.880   8.039  1.00  0.00    -0.203 F 
ATOM    103  F   UNL     1     -12.152  14.970   9.535  1.00  0.00    -0.200 F 
ATOM    104  C   UNL     1     -13.337  12.966   9.931  1.00  0.00     0.200 A 
ATOM    105  F   UNL     1     -14.493  10.938  10.292  1.00  0.00    -0.200 F 
ATOM    106  F   UNL     1     -13.847  13.474  11.061  1.00  0.00    -0.200 F 
ENDBRANCH  73  96
ENDBRANCH  47  48
ENDBRANCH  40  42
ENDBRANCH  39  40
ENDBRANCH  38  39
ENDBRANCH   1  38
TORSDOF 13
