REMARK SMILES O=C(OCCOC(=O)[C@H]1CC=CC[C@@H]1C(=O)Nc1ccccc1C(=O)NCc1ccco1)c1ccc(-c2c3nc(c(-c4c(F)c(F)c(F)c(F)c4F)c4ccc([nH]4)c(-c4c(F)c(F)c(F)c(F)c4F)c4nc(c(-c5c(F)c(F)c(F)c(F)c5F)c5ccc2[nH]5)C=C4)C=C3)cc1
REMARK SMILES IDX 6 1 5 2 4 3 3 4 2 5 1 6 33 7 34 8 95 9 35 10 94 11 36 12
REMARK SMILES IDX 37 13 38 14 88 15 39 16 93 17 87 18 89 19 40 20 92 21 86 22
REMARK SMILES IDX 85 23 41 25 73 26 53 27 72 28 54 29 57 30 71 31 90 32 55 33
REMARK SMILES IDX 56 34 70 36 91 37 58 38 42 39 43 40 51 41 44 42 45 43 49 44
REMARK SMILES IDX 52 45 46 46 47 47 50 48 48 49 74 50 75 51 83 52 76 53 77 54
REMARK SMILES IDX 81 55 84 56 78 57 79 58 82 59 80 60 59 61 60 62 68 63 61 64
REMARK SMILES IDX 62 65 66 66 69 67 63 68 64 69 67 70 65 71 7 72 8 73 9 74
REMARK SMILES IDX 10 75 14 76 11 77 13 78 12 79 15 80 16 81 17 82 18 84 19 85
REMARK SMILES IDX 23 86 20 87 22 88 21 89 24 90 25 91 26 92 27 94 28 95 29 96
REMARK SMILES IDX 32 97 30 98 31 99
REMARK H PARENT 89 24 57 35 17 83 26 93
REMARK Flexibility Score: inf
ROOT
ATOM      1  O   UNL     1       4.343   0.903  -1.657  1.00  0.00    -0.462 OA
ENDROOT
BRANCH   1   2
ATOM      2  C   UNL     1       5.013  -0.263  -2.176  1.00  0.00     0.274 C 
BRANCH   2   3
ATOM      3  C   UNL     1       5.276  -1.389  -1.167  1.00  0.00     0.275 C 
BRANCH   3   4
ATOM      4  O   UNL     1       4.222  -1.605  -0.220  1.00  0.00    -0.458 OA
BRANCH   4   5
ATOM      5  C   UNL     1       4.236  -1.223   1.079  1.00  0.00     0.338 C 
ATOM      6  O   UNL     1       3.682  -1.902   1.933  1.00  0.00    -0.246 OA
BRANCH   5   7
ATOM      7  C   UNL     1       4.690   0.150   1.448  1.00  0.00     0.060 A 
ATOM      8  C   UNL     1       5.845   0.784   0.985  1.00  0.00     0.016 A 
ATOM      9  C   UNL     1       3.880   0.838   2.362  1.00  0.00     0.016 A 
ATOM     10  C   UNL     1       6.162   2.087   1.382  1.00  0.00     0.010 A 
ATOM     11  C   UNL     1       4.176   2.153   2.730  1.00  0.00     0.010 A 
ATOM     12  C   UNL     1       5.335   2.781   2.267  1.00  0.00    -0.014 A 
BRANCH  12  13
ATOM     13  C   UNL     1       5.806   4.054   2.863  1.00  0.00     0.031 A 
ATOM     14  C   UNL     1       6.191   4.053   4.318  1.00  0.00     0.074 A 
ATOM     15  C   UNL     1       5.969   5.166   2.121  1.00  0.00     0.049 A 
ATOM     16  N   UNL     1       6.769   4.992   5.023  1.00  0.00    -0.248 NA
ATOM     17  C   UNL     1       5.880   2.836   5.086  1.00  0.00     0.031 C 
ATOM     18  C   UNL     1       5.636   5.305   0.704  1.00  0.00     0.029 A 
ATOM     19  N   UNL     1       6.477   6.395   2.463  1.00  0.00    -0.354 N 
ATOM     20  C   UNL     1       6.918   4.457   6.294  1.00  0.00     0.074 A 
ATOM     21  C   UNL     1       6.248   3.179   6.306  1.00  0.00     0.031 C 
ATOM     22  C   UNL     1       5.957   6.548   0.297  1.00  0.00     0.029 A 
ATOM     23  C   UNL     1       6.516   7.290   1.422  1.00  0.00     0.049 A 
ATOM     24  H   UNL     1       6.784   6.615   3.372  1.00  0.00     0.167 HD
ATOM     25  C   UNL     1       7.625   4.936   7.342  1.00  0.00     0.037 A 
ATOM     26  C   UNL     1       6.976   8.555   1.383  1.00  0.00     0.037 A 
ATOM     27  C   UNL     1       8.313   6.191   7.334  1.00  0.00     0.049 A 
ATOM     28  C   UNL     1       7.676   9.118   2.591  1.00  0.00     0.074 A 
ATOM     29  C   UNL     1       9.092   6.761   8.322  1.00  0.00     0.029 A 
ATOM     30  N   UNL     1       8.293   7.077   6.268  1.00  0.00    -0.354 N 
ATOM     31  N   UNL     1       7.908   8.554   3.750  1.00  0.00    -0.248 NA
ATOM     32  C   UNL     1       8.227  10.475   2.460  1.00  0.00     0.031 C 
ATOM     33  C   UNL     1       9.523   8.011   7.861  1.00  0.00     0.029 A 
ATOM     34  C   UNL     1       9.038   8.200   6.576  1.00  0.00     0.049 A 
ATOM     35  H   UNL     1       7.819   6.929   5.418  1.00  0.00     0.167 HD
ATOM     36  C   UNL     1       8.692   9.454   4.460  1.00  0.00     0.074 A 
ATOM     37  C   UNL     1       8.871  10.613   3.611  1.00  0.00     0.031 C 
ATOM     38  C   UNL     1       9.235   9.322   5.695  1.00  0.00     0.037 A 
BRANCH  25  39
ATOM     39  C   UNL     1       7.696   4.049   8.548  1.00  0.00     0.064 A 
ATOM     40  C   UNL     1       8.416   2.841   8.513  1.00  0.00     0.173 A 
ATOM     41  C   UNL     1       6.960   4.345   9.701  1.00  0.00     0.173 A 
ATOM     42  F   UNL     1       9.112   2.502   7.417  1.00  0.00    -0.203 F 
ATOM     43  C   UNL     1       8.344   1.935   9.566  1.00  0.00     0.198 A 
ATOM     44  C   UNL     1       6.916   3.448  10.766  1.00  0.00     0.198 A 
ATOM     45  F   UNL     1       6.254   5.482   9.780  1.00  0.00    -0.203 F 
ATOM     46  F   UNL     1       8.962   0.750   9.471  1.00  0.00    -0.200 F 
ATOM     47  C   UNL     1       7.592   2.238  10.690  1.00  0.00     0.200 A 
ATOM     48  F   UNL     1       6.190   3.740  11.854  1.00  0.00    -0.200 F 
ATOM     49  F   UNL     1       7.499   1.353  11.692  1.00  0.00    -0.200 F 
ENDBRANCH  25  39
BRANCH  26  50
ATOM     50  C   UNL     1       6.856   9.371   0.148  1.00  0.00     0.064 A 
ATOM     51  C   UNL     1       7.956   9.586  -0.693  1.00  0.00     0.173 A 
ATOM     52  C   UNL     1       5.650  10.005  -0.177  1.00  0.00     0.173 A 
ATOM     53  F   UNL     1       9.138   9.025  -0.401  1.00  0.00    -0.203 F 
ATOM     54  C   UNL     1       7.858  10.419  -1.806  1.00  0.00     0.198 A 
ATOM     55  C   UNL     1       5.547  10.822  -1.302  1.00  0.00     0.198 A 
ATOM     56  F   UNL     1       4.574   9.838   0.604  1.00  0.00    -0.203 F 
ATOM     57  F   UNL     1       8.935  10.642  -2.570  1.00  0.00    -0.200 F 
ATOM     58  C   UNL     1       6.653  11.035  -2.112  1.00  0.00     0.200 A 
ATOM     59  F   UNL     1       4.379  11.409  -1.596  1.00  0.00    -0.200 F 
ATOM     60  F   UNL     1       6.560  11.841  -3.178  1.00  0.00    -0.200 F 
ENDBRANCH  26  50
BRANCH  38  61
ATOM     61  C   UNL     1      10.145  10.412   6.170  1.00  0.00     0.064 A 
ATOM     62  C   UNL     1       9.654  11.653   6.594  1.00  0.00     0.173 A 
ATOM     63  C   UNL     1      11.526  10.180   6.258  1.00  0.00     0.173 A 
ATOM     64  F   UNL     1       8.343  11.926   6.509  1.00  0.00    -0.203 F 
ATOM     65  C   UNL     1      10.517  12.630   7.081  1.00  0.00     0.198 A 
ATOM     66  C   UNL     1      12.382  11.148   6.770  1.00  0.00     0.198 A 
ATOM     67  F   UNL     1      12.040   9.005   5.864  1.00  0.00    -0.203 F 
ATOM     68  F   UNL     1      10.034  13.825   7.450  1.00  0.00    -0.200 F 
ATOM     69  C   UNL     1      11.878  12.374   7.178  1.00  0.00     0.200 A 
ATOM     70  F   UNL     1      13.694  10.894   6.873  1.00  0.00    -0.200 F 
ATOM     71  F   UNL     1      12.704  13.312   7.660  1.00  0.00    -0.200 F 
ENDBRANCH  38  61
ENDBRANCH  12  13
ENDBRANCH   5   7
ENDBRANCH   4   5
ENDBRANCH   3   4
ENDBRANCH   2   3
ENDBRANCH   1   2
BRANCH   1  72
ATOM     72  C   UNL     1       2.984   0.785  -1.666  1.00  0.00     0.310 C 
ATOM     73  O   UNL     1       2.402  -0.265  -1.909  1.00  0.00    -0.252 OA
BRANCH  72  74
ATOM     74  C   UNL     1       2.268   2.118  -1.406  1.00  0.00     0.116 C 
ATOM     75  C   UNL     1       1.282   2.230  -2.578  1.00  0.00     0.043 C 
ATOM     76  C   UNL     1       1.624   2.069  -0.013  1.00  0.00     0.097 C 
ATOM     77  C   UNL     1      -0.049   1.580  -2.329  1.00  0.00    -0.030 C 
ATOM     78  C   UNL     1       0.371   1.183   0.100  1.00  0.00     0.041 C 
ATOM     79  C   UNL     1      -0.445   1.099  -1.144  1.00  0.00    -0.030 C 
BRANCH  76  80
ATOM     80  C   UNL     1       1.553   3.209   1.013  1.00  0.00     0.228 C 
ATOM     81  O   UNL     1       1.368   2.891   2.204  1.00  0.00    -0.274 OA
ATOM     82  N   UNL     1       1.760   4.531   0.854  1.00  0.00    -0.325 N 
ATOM     83  H   UNL     1       2.064   4.954   1.690  1.00  0.00     0.169 HD
BRANCH  82  84
ATOM     84  C   UNL     1       1.657   5.459  -0.184  1.00  0.00     0.054 A 
ATOM     85  C   UNL     1       2.530   6.556  -0.058  1.00  0.00     0.027 A 
ATOM     86  C   UNL     1       0.790   5.437  -1.274  1.00  0.00     0.063 A 
ATOM     87  C   UNL     1       2.743   7.443  -1.112  1.00  0.00     0.002 A 
ATOM     88  C   UNL     1       1.073   6.290  -2.367  1.00  0.00     0.016 A 
ATOM     89  C   UNL     1       2.068   7.260  -2.304  1.00  0.00     0.001 A 
BRANCH  86  90
ATOM     90  C   UNL     1      -0.485   4.685  -1.406  1.00  0.00     0.253 C 
ATOM     91  O   UNL     1      -0.915   4.460  -2.541  1.00  0.00    -0.269 OA
ATOM     92  N   UNL     1      -1.263   4.272  -0.368  1.00  0.00    -0.345 N 
ATOM     93  H   UNL     1      -1.879   3.542  -0.609  1.00  0.00     0.164 HD
BRANCH  92  94
ATOM     94  C   UNL     1      -1.373   4.684   1.019  1.00  0.00     0.191 C 
BRANCH  94  95
ATOM     95  C   UNL     1      -2.727   4.285   1.480  1.00  0.00     0.122 A 
ATOM     96  C   UNL     1      -3.315   3.054   1.705  1.00  0.00     0.047 A 
ATOM     97  O   UNL     1      -3.634   5.281   1.677  1.00  0.00    -0.467 OA
ATOM     98  C   UNL     1      -4.668   3.315   2.025  1.00  0.00     0.042 A 
ATOM     99  C   UNL     1      -4.809   4.683   2.005  1.00  0.00     0.195 A 
ENDBRANCH  94  95
ENDBRANCH  92  94
ENDBRANCH  86  90
ENDBRANCH  82  84
ENDBRANCH  76  80
ENDBRANCH  72  74
ENDBRANCH   1  72
TORSDOF 16
