REMARK SMILES NS(=O)(=O)c1ccc(-n2nc(NC(=O)NCCCC(=O)OCCOC(=O)c3ccc(-c4c5nc(c(-c6c(F)c(F)c(F)c(F)c6F)c6ccc([nH]6)c(-c6c(F)c(F)c(F)c(F)c6F)c6nc(c(-c7c(F)c(F)c(F)c(F)c7F)c7ccc4[nH]7)C=C6)C=C5)cc3)cc2-c2ccccc2)cc1
REMARK SMILES IDX 19 1 20 2 18 3 17 4 16 5 15 6 12 7 13 8 14 10 11 12 9 13
REMARK SMILES IDX 10 14 91 15 90 16 8 17 5 18 6 19 99 20 7 21 98 22 2 23 3 24
REMARK SMILES IDX 4 25 1 26 92 29 93 30 97 31 94 32 96 33 95 34 21 35 22 36
REMARK SMILES IDX 23 37 24 38 25 39 26 40 27 41 28 42 89 43 29 44 88 45 30 46
REMARK SMILES IDX 31 47 32 48 82 49 33 50 87 51 81 52 83 53 34 54 86 55 80 56
REMARK SMILES IDX 79 57 35 59 67 60 47 61 66 62 48 63 51 64 65 65 84 66 49 67
REMARK SMILES IDX 50 68 64 70 85 71 52 72 36 73 37 74 45 75 38 76 39 77 43 78
REMARK SMILES IDX 46 79 40 80 41 81 44 82 42 83 68 84 69 85 77 86 70 87 71 88
REMARK SMILES IDX 75 89 78 90 72 91 73 92 76 93 74 94 53 95 54 96 62 97 55 98
REMARK SMILES IDX 56 99 60 100 63 101 57 102 58 103 61 104 59 105
REMARK H PARENT 12 9 15 11 1 27 1 28 83 58 51 69
REMARK Flexibility Score: inf
ROOT
ATOM      1  C   UNL     1       3.350   6.122   1.145  1.00  0.00     0.305 C 
ATOM      2  O   UNL     1       3.525   5.456   2.160  1.00  0.00    -0.252 OA
ENDROOT
BRANCH   1   3
ATOM      3  C   UNL     1       4.486   6.648   0.299  1.00  0.00     0.124 C 
BRANCH   3   4
ATOM      4  C   UNL     1       4.502   6.295  -1.188  1.00  0.00     0.033 C 
BRANCH   4   5
ATOM      5  C   UNL     1       3.369   6.825  -2.070  1.00  0.00     0.118 C 
BRANCH   5   6
ATOM      6  N   UNL     1       3.289   8.279  -2.128  1.00  0.00    -0.338 N 
ATOM      7  N   UNL     1       2.908   8.771  -4.435  1.00  0.00    -0.291 N 
ATOM      8  C   UNL     1       3.137   9.147  -3.156  1.00  0.00     0.320 C 
ATOM      9  H   UNL     1       3.258   9.383  -5.123  1.00  0.00     0.173 HD
ATOM     10  O   UNL     1       3.325  10.345  -2.918  1.00  0.00    -0.248 OA
ATOM     11  H   UNL     1       3.361   8.715  -1.248  1.00  0.00     0.165 HD
BRANCH   7  12
ATOM     12  C   UNL     1       2.260   7.662  -4.912  1.00  0.00     0.157 A 
ATOM     13  N   UNL     1       1.374   5.784  -4.821  1.00  0.00    -0.231 N 
ATOM     14  N   UNL     1       1.395   6.962  -4.190  1.00  0.00    -0.149 NA
ATOM     15  C   UNL     1       1.732   5.879  -6.157  1.00  0.00     0.076 A 
ATOM     16  C   UNL     1       2.354   7.119  -6.222  1.00  0.00     0.078 A 
BRANCH  13  17
ATOM     17  C   UNL     1       1.179   4.630  -4.060  1.00  0.00     0.065 A 
ATOM     18  C   UNL     1       0.519   2.286  -2.937  1.00  0.00     0.082 A 
ATOM     19  C   UNL     1       1.672   2.333  -3.720  1.00  0.00     0.024 A 
ATOM     20  C   UNL     1      -0.223   3.409  -2.578  1.00  0.00     0.024 A 
ATOM     21  C   UNL     1       2.000   3.525  -4.306  1.00  0.00     0.030 A 
ATOM     22  C   UNL     1       0.138   4.619  -3.126  1.00  0.00     0.030 A 
BRANCH  18  23
ATOM     23  S   UNL     1      -0.120   0.726  -2.549  1.00  0.00     0.238 S 
ATOM     24  O   UNL     1       0.960  -0.206  -2.786  1.00  0.00    -0.207 OA
ATOM     25  O   UNL     1      -1.411   0.578  -3.170  1.00  0.00    -0.207 OA
BRANCH  23  26
ATOM     26  N   UNL     1      -0.362   0.821  -0.878  1.00  0.00    -0.225 NA
ATOM     27  H   UNL     1      -0.743  -0.062  -0.539  1.00  0.00     0.137 HD
ATOM     28  H   UNL     1      -1.016   1.576  -0.672  1.00  0.00     0.137 HD
ENDBRANCH  23  26
ENDBRANCH  18  23
ENDBRANCH  13  17
BRANCH  15  29
ATOM     29  C   UNL     1       1.522   4.799  -7.141  1.00  0.00     0.000 A 
ATOM     30  C   UNL     1       0.345   4.024  -7.119  1.00  0.00     0.010 A 
ATOM     31  C   UNL     1       2.506   4.469  -8.079  1.00  0.00     0.010 A 
ATOM     32  C   UNL     1       0.167   2.943  -7.989  1.00  0.00     0.001 A 
ATOM     33  C   UNL     1       2.321   3.395  -8.962  1.00  0.00     0.001 A 
ATOM     34  C   UNL     1       1.155   2.633  -8.915  1.00  0.00     0.000 A 
ENDBRANCH  15  29
ENDBRANCH   7  12
ENDBRANCH   5   6
ENDBRANCH   4   5
ENDBRANCH   3   4
ENDBRANCH   1   3
BRANCH   1  35
ATOM     35  O   UNL     1       2.138   6.536   0.694  1.00  0.00    -0.462 OA
BRANCH  35  36
ATOM     36  C   UNL     1       0.996   6.078   1.439  1.00  0.00     0.274 C 
BRANCH  36  37
ATOM     37  C   UNL     1       0.481   4.732   0.941  1.00  0.00     0.275 C 
BRANCH  37  38
ATOM     38  O   UNL     1       1.342   3.632   1.266  1.00  0.00    -0.458 OA
BRANCH  38  39
ATOM     39  C   UNL     1       2.292   3.333   0.346  1.00  0.00     0.338 C 
ATOM     40  O   UNL     1       2.603   4.013  -0.616  1.00  0.00    -0.246 OA
BRANCH  39  41
ATOM     41  C   UNL     1       2.668   1.910   0.455  1.00  0.00     0.060 A 
ATOM     42  C   UNL     1       3.373   1.354  -0.620  1.00  0.00     0.016 A 
ATOM     43  C   UNL     1       2.043   1.090   1.398  1.00  0.00     0.016 A 
ATOM     44  C   UNL     1       3.269  -0.009  -0.864  1.00  0.00     0.010 A 
ATOM     45  C   UNL     1       1.902  -0.260   1.122  1.00  0.00     0.010 A 
ATOM     46  C   UNL     1       2.439  -0.795  -0.054  1.00  0.00    -0.014 A 
BRANCH  46  47
ATOM     47  C   UNL     1       2.330  -2.236  -0.309  1.00  0.00     0.031 A 
ATOM     48  C   UNL     1       3.478  -2.938   0.306  1.00  0.00     0.074 A 
ATOM     49  C   UNL     1       1.306  -2.925  -0.864  1.00  0.00     0.049 A 
ATOM     50  N   UNL     1       4.512  -3.430  -0.292  1.00  0.00    -0.248 NA
ATOM     51  C   UNL     1       3.594  -2.883   1.772  1.00  0.00     0.031 C 
ATOM     52  C   UNL     1       0.005  -2.454  -1.305  1.00  0.00     0.029 A 
ATOM     53  N   UNL     1       1.198  -4.271  -1.119  1.00  0.00    -0.354 N 
ATOM     54  C   UNL     1       5.289  -3.953   0.733  1.00  0.00     0.074 A 
ATOM     55  C   UNL     1       4.833  -3.338   1.947  1.00  0.00     0.031 C 
ATOM     56  C   UNL     1      -0.820  -3.456  -1.623  1.00  0.00     0.029 A 
ATOM     57  C   UNL     1      -0.091  -4.676  -1.468  1.00  0.00     0.049 A 
ATOM     58  H   UNL     1       1.960  -4.892  -1.061  1.00  0.00     0.167 HD
ATOM     59  C   UNL     1       5.960  -5.122   0.557  1.00  0.00     0.037 A 
ATOM     60  C   UNL     1      -0.602  -5.909  -1.663  1.00  0.00     0.037 A 
ATOM     61  C   UNL     1       6.126  -5.415  -0.846  1.00  0.00     0.049 A 
ATOM     62  C   UNL     1       0.543  -6.794  -1.934  1.00  0.00     0.074 A 
ATOM     63  C   UNL     1       6.740  -4.799  -1.917  1.00  0.00     0.029 A 
ATOM     64  N   UNL     1       5.277  -6.348  -1.382  1.00  0.00    -0.354 N 
ATOM     65  N   UNL     1       1.274  -6.714  -3.014  1.00  0.00    -0.248 NA
ATOM     66  C   UNL     1       1.179  -7.422  -0.790  1.00  0.00     0.031 C 
ATOM     67  C   UNL     1       5.938  -5.119  -3.053  1.00  0.00     0.029 A 
ATOM     68  C   UNL     1       4.899  -5.953  -2.635  1.00  0.00     0.049 A 
ATOM     69  H   UNL     1       4.985  -7.175  -0.934  1.00  0.00     0.167 HD
ATOM     70  C   UNL     1       2.578  -6.877  -2.567  1.00  0.00     0.074 A 
ATOM     71  C   UNL     1       2.445  -7.409  -1.212  1.00  0.00     0.031 C 
ATOM     72  C   UNL     1       3.624  -6.300  -3.228  1.00  0.00     0.037 A 
BRANCH  59  73
ATOM     73  C   UNL     1       6.029  -6.200   1.621  1.00  0.00     0.064 A 
ATOM     74  C   UNL     1       6.832  -7.330   1.374  1.00  0.00     0.173 A 
ATOM     75  C   UNL     1       5.134  -6.326   2.712  1.00  0.00     0.173 A 
ATOM     76  F   UNL     1       7.701  -7.337   0.353  1.00  0.00    -0.203 F 
ATOM     77  C   UNL     1       6.689  -8.512   2.105  1.00  0.00     0.198 A 
ATOM     78  C   UNL     1       5.037  -7.486   3.475  1.00  0.00     0.198 A 
ATOM     79  F   UNL     1       4.233  -5.393   3.029  1.00  0.00    -0.203 F 
ATOM     80  F   UNL     1       7.379  -9.602   1.744  1.00  0.00    -0.200 F 
ATOM     81  C   UNL     1       5.788  -8.591   3.151  1.00  0.00     0.200 A 
ATOM     82  F   UNL     1       4.142  -7.543   4.472  1.00  0.00    -0.200 F 
ATOM     83  F   UNL     1       5.604  -9.741   3.811  1.00  0.00    -0.200 F 
ENDBRANCH  59  73
BRANCH  60  84
ATOM     84  C   UNL     1      -1.992  -6.326  -1.350  1.00  0.00     0.064 A 
ATOM     85  C   UNL     1      -2.533  -7.514  -1.854  1.00  0.00     0.173 A 
ATOM     86  C   UNL     1      -2.769  -5.655  -0.373  1.00  0.00     0.173 A 
ATOM     87  F   UNL     1      -1.849  -8.234  -2.755  1.00  0.00    -0.203 F 
ATOM     88  C   UNL     1      -3.763  -8.009  -1.400  1.00  0.00     0.198 A 
ATOM     89  C   UNL     1      -4.003  -6.136   0.060  1.00  0.00     0.198 A 
ATOM     90  F   UNL     1      -2.313  -4.557   0.246  1.00  0.00    -0.203 F 
ATOM     91  F   UNL     1      -4.220  -9.182  -1.861  1.00  0.00    -0.200 F 
ATOM     92  C   UNL     1      -4.493  -7.324  -0.441  1.00  0.00     0.200 A 
ATOM     93  F   UNL     1      -4.682  -5.471   1.007  1.00  0.00    -0.200 F 
ATOM     94  F   UNL     1      -5.643  -7.827   0.029  1.00  0.00    -0.200 F 
ENDBRANCH  60  84
BRANCH  72  95
ATOM     95  C   UNL     1       3.387  -5.813  -4.631  1.00  0.00     0.064 A 
ATOM     96  C   UNL     1       2.574  -4.718  -4.968  1.00  0.00     0.173 A 
ATOM     97  C   UNL     1       4.146  -6.396  -5.657  1.00  0.00     0.173 A 
ATOM     98  F   UNL     1       1.881  -4.062  -4.027  1.00  0.00    -0.203 F 
ATOM     99  C   UNL     1       2.512  -4.247  -6.282  1.00  0.00     0.198 A 
ATOM    100  C   UNL     1       4.105  -5.906  -6.958  1.00  0.00     0.198 A 
ATOM    101  F   UNL     1       4.976  -7.414  -5.380  1.00  0.00    -0.203 F 
ATOM    102  F   UNL     1       1.732  -3.199  -6.588  1.00  0.00    -0.200 F 
ATOM    103  C   UNL     1       3.284  -4.836  -7.272  1.00  0.00     0.200 A 
ATOM    104  F   UNL     1       4.887  -6.451  -7.900  1.00  0.00    -0.200 F 
ATOM    105  F   UNL     1       3.258  -4.357  -8.524  1.00  0.00    -0.200 F 
ENDBRANCH  72  95
ENDBRANCH  46  47
ENDBRANCH  39  41
ENDBRANCH  38  39
ENDBRANCH  37  38
ENDBRANCH  36  37
ENDBRANCH  35  36
ENDBRANCH   1  35
TORSDOF 19
