REMARK SMILES O=C(OCCOC(=O)[C@@H]1CCCN(C(=O)Nc2ccccc2)C1)c1ccc(-c2c3nc(c(-c4c(F)c(F)c(F)c(F)c4F)c4ccc([nH]4)c(-c4c(F)c(F)c(F)c(F)c4F)c4nc(c(-c5c(F)c(F)c(F)c(F)c5F)c5ccc2[nH]5)C=C4)C=C3)cc1
REMARK SMILES IDX 4 1 3 2 2 3 1 4 24 5 25 6 86 7 26 8 85 9 27 10 28 11 29 12
REMARK SMILES IDX 79 13 30 14 84 15 78 16 80 17 31 18 83 19 77 20 76 21 32 23
REMARK SMILES IDX 64 24 44 25 63 26 45 27 48 28 62 29 81 30 46 31 47 32 61 34
REMARK SMILES IDX 82 35 49 36 33 37 34 38 42 39 35 40 36 41 40 42 43 43 37 44
REMARK SMILES IDX 38 45 41 46 39 47 65 48 66 49 74 50 67 51 68 52 72 53 75 54
REMARK SMILES IDX 69 55 70 56 73 57 71 58 50 59 51 60 59 61 52 62 53 63 57 64
REMARK SMILES IDX 60 65 54 66 55 67 58 68 56 69 5 70 6 71 7 72 8 73 9 74 10 75
REMARK SMILES IDX 23 76 11 77 13 78 12 79 14 80 15 81 16 82 17 84 18 85 22 86
REMARK SMILES IDX 19 87 21 88 20 89
REMARK H PARENT 80 22 48 33 16 83
REMARK Flexibility Score: inf
ROOT
ATOM      1  C   UNL     1       4.438   1.490  -1.396  1.00  0.00     0.275 C 
ENDROOT
BRANCH   1   2
ATOM      2  O   UNL     1       3.738   0.336  -1.881  1.00  0.00    -0.458 OA
BRANCH   2   3
ATOM      3  C   UNL     1       3.586  -0.760  -1.113  1.00  0.00     0.338 C 
ATOM      4  O   UNL     1       2.887  -1.713  -1.433  1.00  0.00    -0.246 OA
BRANCH   3   5
ATOM      5  C   UNL     1       4.117  -0.701   0.256  1.00  0.00     0.060 A 
ATOM      6  C   UNL     1       5.642  -1.157   0.800  1.00  0.00     0.016 A 
ATOM      7  C   UNL     1       2.889  -0.480   1.431  1.00  0.00     0.016 A 
ATOM      8  C   UNL     1       5.990  -1.458   2.464  1.00  0.00     0.010 A 
ATOM      9  C   UNL     1       3.175  -0.836   3.333  1.00  0.00     0.010 A 
ATOM     10  C   UNL     1       4.837  -1.317   3.787  1.00  0.00    -0.014 A 
BRANCH  10  11
ATOM     11  C   UNL     1       5.420  -1.611   5.112  1.00  0.00     0.031 A 
ATOM     12  C   UNL     1       6.064  -2.955   5.338  1.00  0.00     0.074 A 
ATOM     13  C   UNL     1       5.640  -0.603   5.973  1.00  0.00     0.049 A 
ATOM     14  N   UNL     1       6.796  -3.405   6.326  1.00  0.00    -0.248 NA
ATOM     15  C   UNL     1       5.871  -3.940   4.272  1.00  0.00     0.031 C 
ATOM     16  C   UNL     1       5.220   0.781   5.792  1.00  0.00     0.029 A 
ATOM     17  N   UNL     1       6.323  -0.578   7.158  1.00  0.00    -0.354 N 
ATOM     18  C   UNL     1       7.144  -4.708   5.971  1.00  0.00     0.074 A 
ATOM     19  C   UNL     1       6.487  -5.005   4.740  1.00  0.00     0.031 C 
ATOM     20  C   UNL     1       5.607   1.517   6.841  1.00  0.00     0.029 A 
ATOM     21  C   UNL     1       6.313   0.651   7.769  1.00  0.00     0.049 A 
ATOM     22  H   UNL     1       6.779  -1.365   7.535  1.00  0.00     0.167 HD
ATOM     23  C   UNL     1       7.982  -5.583   6.571  1.00  0.00     0.037 A 
ATOM     24  C   UNL     1       6.814   1.028   8.956  1.00  0.00     0.037 A 
ATOM     25  C   UNL     1       8.621  -5.278   7.809  1.00  0.00     0.049 A 
ATOM     26  C   UNL     1       7.624   0.010   9.706  1.00  0.00     0.074 A 
ATOM     27  C   UNL     1       9.421  -6.071   8.603  1.00  0.00     0.029 A 
ATOM     28  N   UNL     1       8.502  -4.045   8.431  1.00  0.00    -0.354 N 
ATOM     29  N   UNL     1       7.930  -1.221   9.360  1.00  0.00    -0.248 NA
ATOM     30  C   UNL     1       8.182   0.433  10.991  1.00  0.00     0.031 C 
ATOM     31  C   UNL     1       9.733  -5.330   9.747  1.00  0.00     0.029 A 
ATOM     32  C   UNL     1       9.193  -4.056   9.620  1.00  0.00     0.049 A 
ATOM     33  H   UNL     1       7.999  -3.277   8.076  1.00  0.00     0.167 HD
ATOM     34  C   UNL     1       8.742  -1.711  10.370  1.00  0.00     0.074 A 
ATOM     35  C   UNL     1       8.897  -0.630  11.326  1.00  0.00     0.031 C 
ATOM     36  C   UNL     1       9.310  -2.935  10.513  1.00  0.00     0.037 A 
BRANCH  23  37
ATOM     37  C   UNL     1       8.198  -6.919   5.905  1.00  0.00     0.064 A 
ATOM     38  C   UNL     1       8.855  -7.030   4.665  1.00  0.00     0.173 A 
ATOM     39  C   UNL     1       7.675  -8.093   6.466  1.00  0.00     0.173 A 
ATOM     40  F   UNL     1       9.332  -5.935   4.054  1.00  0.00    -0.203 F 
ATOM     41  C   UNL     1       8.938  -8.251   3.998  1.00  0.00     0.198 A 
ATOM     42  C   UNL     1       7.794  -9.320   5.813  1.00  0.00     0.198 A 
ATOM     43  F   UNL     1       7.020  -8.050   7.636  1.00  0.00    -0.203 F 
ATOM     44  F   UNL     1       9.483  -8.308   2.774  1.00  0.00    -0.200 F 
ATOM     45  C   UNL     1       8.414  -9.396   4.575  1.00  0.00     0.200 A 
ATOM     46  F   UNL     1       7.283 -10.427   6.371  1.00  0.00    -0.200 F 
ATOM     47  F   UNL     1       8.483 -10.568   3.927  1.00  0.00    -0.200 F 
ENDBRANCH  23  37
BRANCH  24  48
ATOM     48  C   UNL     1       6.540   2.395   9.479  1.00  0.00     0.064 A 
ATOM     49  C   UNL     1       7.560   3.327   9.704  1.00  0.00     0.173 A 
ATOM     50  C   UNL     1       5.221   2.803   9.750  1.00  0.00     0.173 A 
ATOM     51  F   UNL     1       8.836   2.998   9.455  1.00  0.00    -0.203 F 
ATOM     52  C   UNL     1       7.280   4.596  10.213  1.00  0.00     0.198 A 
ATOM     53  C   UNL     1       4.938   4.083  10.221  1.00  0.00     0.198 A 
ATOM     54  F   UNL     1       4.199   1.963   9.532  1.00  0.00    -0.203 F 
ATOM     55  F   UNL     1       8.281   5.449  10.467  1.00  0.00    -0.200 F 
ATOM     56  C   UNL     1       5.969   4.974  10.467  1.00  0.00     0.200 A 
ATOM     57  F   UNL     1       3.667   4.452  10.432  1.00  0.00    -0.200 F 
ATOM     58  F   UNL     1       5.702   6.195  10.951  1.00  0.00    -0.200 F 
ENDBRANCH  24  48
BRANCH  36  59
ATOM     59  C   UNL     1      10.170  -3.139  11.714  1.00  0.00     0.064 A 
ATOM     60  C   UNL     1       9.622  -3.212  13.000  1.00  0.00     0.173 A 
ATOM     61  C   UNL     1      11.551  -3.327  11.560  1.00  0.00     0.173 A 
ATOM     62  F   UNL     1       8.304  -3.035  13.185  1.00  0.00    -0.203 F 
ATOM     63  C   UNL     1      10.438  -3.422  14.103  1.00  0.00     0.198 A 
ATOM     64  C   UNL     1      12.355  -3.587  12.660  1.00  0.00     0.198 A 
ATOM     65  F   UNL     1      12.110  -3.286  10.341  1.00  0.00    -0.203 F 
ATOM     66  F   UNL     1       9.908  -3.419  15.333  1.00  0.00    -0.200 F 
ATOM     67  C   UNL     1      11.801  -3.619  13.931  1.00  0.00     0.200 A 
ATOM     68  F   UNL     1      13.665  -3.810  12.489  1.00  0.00    -0.200 F 
ATOM     69  F   UNL     1      12.584  -3.837  14.995  1.00  0.00    -0.200 F 
ENDBRANCH  36  59
ENDBRANCH  10  11
ENDBRANCH   3   5
ENDBRANCH   2   3
ENDBRANCH   1   2
BRANCH   1  70
ATOM     70  C   UNL     1       3.538   2.469  -0.598  1.00  0.00     0.274 C 
BRANCH  70  71
ATOM     71  O   UNL     1       2.872   1.874   0.549  1.00  0.00    -0.462 OA
BRANCH  71  72
ATOM     72  C   UNL     1       1.544   1.736   0.913  1.00  0.00     0.310 C 
ATOM     73  O   UNL     1       0.602   2.116   0.242  1.00  0.00    -0.252 OA
BRANCH  72  74
ATOM     74  C   UNL     1       1.467   0.961   2.369  1.00  0.00     0.119 C 
ATOM     75  C   UNL     1       3.066   1.308   2.939  1.00  0.00     0.019 C 
ATOM     76  C   UNL     1       0.874  -0.845   2.457  1.00  0.00     0.136 C 
ATOM     77  C   UNL     1       4.452   0.125   2.296  1.00  0.00     0.023 C 
ATOM     78  N   UNL     1       1.977  -2.230   2.020  1.00  0.00    -0.324 N 
ATOM     79  C   UNL     1       3.849  -1.978   2.005  1.00  0.00     0.121 C 
BRANCH  78  80
ATOM     80  C   UNL     1       1.407  -3.234   1.216  1.00  0.00     0.321 C 
ATOM     81  O   UNL     1       0.201  -3.255   0.977  1.00  0.00    -0.248 OA
ATOM     82  N   UNL     1       2.292  -3.962   0.454  1.00  0.00    -0.308 N 
ATOM     83  H   UNL     1       2.197  -3.875  -0.522  1.00  0.00     0.171 HD
BRANCH  82  84
ATOM     84  C   UNL     1       3.316  -4.814   0.903  1.00  0.00     0.042 A 
ATOM     85  C   UNL     1       4.475  -4.950   0.121  1.00  0.00     0.026 A 
ATOM     86  C   UNL     1       3.223  -5.482   2.121  1.00  0.00     0.026 A 
ATOM     87  C   UNL     1       5.553  -5.707   0.584  1.00  0.00     0.002 A 
ATOM     88  C   UNL     1       4.267  -6.310   2.539  1.00  0.00     0.002 A 
ATOM     89  C   UNL     1       5.436  -6.411   1.778  1.00  0.00     0.000 A 
ENDBRANCH  82  84
ENDBRANCH  78  80
ENDBRANCH  72  74
ENDBRANCH  71  72
ENDBRANCH  70  71
ENDBRANCH   1  70
TORSDOF 13
