REMARK SMILES CC1(C)C(NC(=O)c2cc(F)c(F)cc2C(=O)OCCOC(=O)c2ccc(-c3c4nc(c(-c5c(F)c(F)c(F)c(F)c5F)c5ccc([nH]5)c(-c5c(F)c(F)c(F)c(F)c5F)c5nc(c(-c6c(F)c(F)c(F)c(F)c6F)c6ccc3[nH]6)C=C5)C=C4)cc2)C1(C)C
REMARK SMILES IDX 19 1 18 2 16 3 17 4 15 5 8 6 9 7 10 8 14 9 11 10 12 11 13 12
REMARK SMILES IDX 6 13 5 14 7 16 4 17 1 18 2 19 3 20 87 21 88 22 89 23 20 24
REMARK SMILES IDX 21 25 22 26 23 27 24 28 25 29 86 30 26 31 85 32 27 33 28 34
REMARK SMILES IDX 29 35 79 36 30 37 84 38 78 39 80 40 31 41 83 42 77 43 76 44
REMARK SMILES IDX 32 46 64 47 44 48 63 49 45 50 48 51 62 52 81 53 46 54 47 55
REMARK SMILES IDX 61 57 82 58 49 59 33 60 34 61 42 62 35 63 36 64 40 65 43 66
REMARK SMILES IDX 37 67 38 68 41 69 39 70 65 71 66 72 74 73 67 74 68 75 72 76
REMARK SMILES IDX 75 77 69 78 70 79 73 80 71 81 50 82 51 83 59 84 52 85 53 86
REMARK SMILES IDX 57 87 60 88 54 89 55 90 58 91 56 92
REMARK H PARENT 5 15 80 45 48 56
REMARK Flexibility Score: inf
ROOT
ATOM      1  C   UNL     1      -2.011   6.316  -0.649  1.00  0.00     0.275 C 
ENDROOT
BRANCH   1   2
ATOM      2  O   UNL     1      -0.782   5.559  -0.671  1.00  0.00    -0.458 OA
BRANCH   2   3
ATOM      3  C   UNL     1       0.353   6.293  -0.618  1.00  0.00     0.339 C 
ATOM      4  O   UNL     1       0.435   7.477  -0.341  1.00  0.00    -0.246 OA
BRANCH   3   5
ATOM      5  C   UNL     1       1.572   5.474  -0.827  1.00  0.00     0.075 A 
ATOM      6  C   UNL     1       1.694   4.447  -1.774  1.00  0.00     0.057 A 
ATOM      7  C   UNL     1       2.942   3.835  -1.989  1.00  0.00     0.057 A 
ATOM      8  C   UNL     1       4.020   4.156  -1.175  1.00  0.00     0.159 A 
ATOM      9  C   UNL     1       2.691   5.816  -0.046  1.00  0.00     0.059 A 
ATOM     10  F   UNL     1       5.179   3.505  -1.331  1.00  0.00    -0.204 F 
ATOM     11  C   UNL     1       3.890   5.129  -0.196  1.00  0.00     0.159 A 
ATOM     12  F   UNL     1       4.918   5.421   0.610  1.00  0.00    -0.204 F 
BRANCH   6  13
ATOM     13  C   UNL     1       0.536   3.967  -2.557  1.00  0.00     0.252 C 
ATOM     14  N   UNL     1       0.181   2.635  -2.453  1.00  0.00    -0.348 N 
ATOM     15  H   UNL     1      -0.658   2.372  -2.897  1.00  0.00     0.164 HD
ATOM     16  O   UNL     1      -0.083   4.752  -3.265  1.00  0.00    -0.269 OA
BRANCH  14  17
ATOM     17  C   UNL     1       0.892   1.591  -1.773  1.00  0.00     0.094 C 
ATOM     18  C   UNL     1       0.876  -0.395  -0.125  1.00  0.00     0.014 C 
ATOM     19  C   UNL     1       0.375   0.215  -1.423  1.00  0.00    -0.007 C 
ATOM     20  C   UNL     1      -1.081  -0.104  -1.659  1.00  0.00     0.014 C 
ATOM     21  C   UNL     1       1.368   0.392  -2.586  1.00  0.00    -0.007 C 
ATOM     22  C   UNL     1       2.830   0.023  -2.443  1.00  0.00     0.014 C 
ATOM     23  C   UNL     1       0.880   0.188  -4.006  1.00  0.00     0.014 C 
ENDBRANCH  14  17
ENDBRANCH   6  13
ENDBRANCH   3   5
ENDBRANCH   2   3
ENDBRANCH   1   2
BRANCH   1  24
ATOM     24  C   UNL     1      -2.780   6.094   0.650  1.00  0.00     0.275 C 
BRANCH  24  25
ATOM     25  O   UNL     1      -2.022   6.590   1.768  1.00  0.00    -0.458 OA
BRANCH  25  26
ATOM     26  C   UNL     1      -1.482   5.645   2.563  1.00  0.00     0.338 C 
ATOM     27  O   UNL     1      -1.609   4.429   2.485  1.00  0.00    -0.246 OA
BRANCH  26  28
ATOM     28  C   UNL     1      -0.605   6.275   3.554  1.00  0.00     0.060 A 
ATOM     29  C   UNL     1       0.687   6.619   3.164  1.00  0.00     0.016 A 
ATOM     30  C   UNL     1      -0.988   6.369   4.891  1.00  0.00     0.016 A 
ATOM     31  C   UNL     1       1.631   6.986   4.119  1.00  0.00     0.010 A 
ATOM     32  C   UNL     1      -0.057   6.804   5.842  1.00  0.00     0.010 A 
ATOM     33  C   UNL     1       1.274   7.078   5.473  1.00  0.00    -0.014 A 
BRANCH  33  34
ATOM     34  C   UNL     1       2.309   7.375   6.504  1.00  0.00     0.031 A 
ATOM     35  C   UNL     1       2.624   6.354   7.568  1.00  0.00     0.074 A 
ATOM     36  C   UNL     1       3.011   8.525   6.468  1.00  0.00     0.049 A 
ATOM     37  N   UNL     1       3.370   6.474   8.639  1.00  0.00    -0.248 NA
ATOM     38  C   UNL     1       2.017   5.022   7.411  1.00  0.00     0.031 C 
ATOM     39  C   UNL     1       2.870   9.572   5.456  1.00  0.00     0.029 A 
ATOM     40  N   UNL     1       4.002   8.998   7.295  1.00  0.00    -0.354 N 
ATOM     41  C   UNL     1       3.281   5.257   9.303  1.00  0.00     0.074 A 
ATOM     42  C   UNL     1       2.410   4.409   8.520  1.00  0.00     0.031 C 
ATOM     43  C   UNL     1       3.776  10.534   5.689  1.00  0.00     0.029 A 
ATOM     44  C   UNL     1       4.505  10.218   6.914  1.00  0.00     0.049 A 
ATOM     45  H   UNL     1       4.321   8.508   8.088  1.00  0.00     0.167 HD
ATOM     46  C   UNL     1       3.876   4.882  10.460  1.00  0.00     0.037 A 
ATOM     47  C   UNL     1       5.425  11.009   7.499  1.00  0.00     0.037 A 
ATOM     48  C   UNL     1       4.793   5.701  11.208  1.00  0.00     0.049 A 
ATOM     49  C   UNL     1       6.035  10.589   8.808  1.00  0.00     0.074 A 
ATOM     50  C   UNL     1       5.428   5.413  12.404  1.00  0.00     0.029 A 
ATOM     51  N   UNL     1       5.231   6.956  10.815  1.00  0.00    -0.354 N 
ATOM     52  N   UNL     1       5.865   9.477   9.480  1.00  0.00    -0.248 NA
ATOM     53  C   UNL     1       6.941  11.550   9.457  1.00  0.00     0.031 C 
ATOM     54  C   UNL     1       6.236   6.502  12.745  1.00  0.00     0.029 A 
ATOM     55  C   UNL     1       6.127   7.454  11.745  1.00  0.00     0.049 A 
ATOM     56  H   UNL     1       4.947   7.423   9.996  1.00  0.00     0.167 HD
ATOM     57  C   UNL     1       6.645   9.600  10.621  1.00  0.00     0.074 A 
ATOM     58  C   UNL     1       7.307  10.884  10.544  1.00  0.00     0.031 C 
ATOM     59  C   UNL     1       6.789   8.727  11.647  1.00  0.00     0.037 A 
BRANCH  46  60
ATOM     60  C   UNL     1       3.553   3.527  11.013  1.00  0.00     0.064 A 
ATOM     61  C   UNL     1       2.746   3.406  12.155  1.00  0.00     0.173 A 
ATOM     62  C   UNL     1       4.114   2.361  10.476  1.00  0.00     0.173 A 
ATOM     63  F   UNL     1       2.192   4.495  12.710  1.00  0.00    -0.203 F 
ATOM     64  C   UNL     1       2.530   2.167  12.751  1.00  0.00     0.198 A 
ATOM     65  C   UNL     1       3.877   1.120  11.062  1.00  0.00     0.198 A 
ATOM     66  F   UNL     1       4.882   2.425   9.378  1.00  0.00    -0.203 F 
ATOM     67  F   UNL     1       1.786   2.079  13.863  1.00  0.00    -0.200 F 
ATOM     68  C   UNL     1       3.095   1.025  12.204  1.00  0.00     0.200 A 
ATOM     69  F   UNL     1       4.409   0.014  10.523  1.00  0.00    -0.200 F 
ATOM     70  F   UNL     1       2.888  -0.168  12.779  1.00  0.00    -0.200 F 
ENDBRANCH  46  60
BRANCH  47  71
ATOM     71  C   UNL     1       5.810  12.298   6.865  1.00  0.00     0.064 A 
ATOM     72  C   UNL     1       4.910  13.370   6.779  1.00  0.00     0.173 A 
ATOM     73  C   UNL     1       7.094  12.480   6.334  1.00  0.00     0.173 A 
ATOM     74  F   UNL     1       3.671  13.250   7.279  1.00  0.00    -0.203 F 
ATOM     75  C   UNL     1       5.272  14.566   6.163  1.00  0.00     0.198 A 
ATOM     76  C   UNL     1       7.465  13.687   5.745  1.00  0.00     0.198 A 
ATOM     77  F   UNL     1       8.000  11.495   6.421  1.00  0.00    -0.203 F 
ATOM     78  F   UNL     1       4.382  15.563   6.067  1.00  0.00    -0.200 F 
ATOM     79  C   UNL     1       6.550  14.726   5.652  1.00  0.00     0.200 A 
ATOM     80  F   UNL     1       8.711  13.848   5.279  1.00  0.00    -0.200 F 
ATOM     81  F   UNL     1       6.904  15.883   5.077  1.00  0.00    -0.200 F 
ENDBRANCH  47  71
BRANCH  59  82
ATOM     82  C   UNL     1       7.711   9.114  12.763  1.00  0.00     0.064 A 
ATOM     83  C   UNL     1       8.959   8.489  12.904  1.00  0.00     0.173 A 
ATOM     84  C   UNL     1       7.325  10.048  13.735  1.00  0.00     0.173 A 
ATOM     85  F   UNL     1       9.367   7.583  12.003  1.00  0.00    -0.203 F 
ATOM     86  C   UNL     1       9.783   8.778  13.988  1.00  0.00     0.198 A 
ATOM     87  C   UNL     1       8.162  10.350  14.806  1.00  0.00     0.198 A 
ATOM     88  F   UNL     1       6.146  10.679  13.633  1.00  0.00    -0.203 F 
ATOM     89  F   UNL     1      10.960   8.150  14.118  1.00  0.00    -0.200 F 
ATOM     90  C   UNL     1       9.385   9.709  14.936  1.00  0.00     0.200 A 
ATOM     91  F   UNL     1       7.785  11.262  15.711  1.00  0.00    -0.200 F 
ATOM     92  F   UNL     1      10.182   9.990  15.976  1.00  0.00    -0.200 F 
ENDBRANCH  59  82
ENDBRANCH  33  34
ENDBRANCH  26  28
ENDBRANCH  25  26
ENDBRANCH  24  25
ENDBRANCH   1  24
TORSDOF 13
