REMARK SMILES O=C(OCCOC(=O)c1ccc(-c2c3nc(c(-c4c(F)c(F)c(F)c(F)c4F)c4ccc([nH]4)c(-c4c(F)c(F)c(F)c(F)c4F)c4nc(c(-c5c(F)c(F)c(F)c(F)c5F)c5ccc2[nH]5)C=C4)C=C3)cc1)C1=NN(c2ccc([N+](=O)[O-])cc2)[C@H](c2ccccc2)C1
REMARK SMILES IDX 4 1 3 2 2 3 1 4 72 5 73 6 91 7 74 8 84 9 75 10 76 11 83 12
REMARK SMILES IDX 77 13 82 14 78 15 79 16 80 17 81 18 85 19 86 20 90 21 87 22
REMARK SMILES IDX 89 23 88 24 5 25 6 26 7 27 8 28 9 29 10 30 71 31 11 32 70 33
REMARK SMILES IDX 12 34 13 35 14 36 64 37 15 38 69 39 63 40 65 41 16 42 68 43
REMARK SMILES IDX 62 44 61 45 17 47 49 48 29 49 48 50 30 51 33 52 47 53 66 54
REMARK SMILES IDX 31 55 32 56 46 58 67 59 34 60 18 61 19 62 27 63 20 64 21 65
REMARK SMILES IDX 25 66 28 67 22 68 23 69 26 70 24 71 50 72 51 73 59 74 52 75
REMARK SMILES IDX 53 76 57 77 60 78 54 79 55 80 58 81 56 82 35 83 36 84 44 85
REMARK SMILES IDX 37 86 38 87 42 88 45 89 39 90 40 91 43 92 41 93
REMARK H PARENT 65 46 33 57
REMARK Flexibility Score: inf
ROOT
ATOM      1  C   UNL     1       4.083  -1.387  -0.019  1.00  0.00     0.275 C 
ENDROOT
BRANCH   1   2
ATOM      2  O   UNL     1       2.959  -0.735   0.607  1.00  0.00    -0.458 OA
BRANCH   2   3
ATOM      3  C   UNL     1       2.772   0.585   0.707  1.00  0.00     0.354 C 
ATOM      4  O   UNL     1       1.780   1.058   1.254  1.00  0.00    -0.245 OA
BRANCH   3   5
ATOM      5  C   UNL     1       3.743   1.579   0.095  1.00  0.00     0.148 C 
ATOM      6  N   UNL     1       4.950   1.312  -0.287  1.00  0.00    -0.169 NA
ATOM      7  C   UNL     1       3.285   2.986  -0.123  1.00  0.00     0.098 C 
ATOM      8  N   UNL     1       5.499   2.471  -0.741  1.00  0.00    -0.257 N 
ATOM      9  C   UNL     1       4.543   3.594  -0.751  1.00  0.00     0.144 C 
BRANCH   8  10
ATOM     10  C   UNL     1       6.471   2.379  -1.741  1.00  0.00     0.061 A 
ATOM     11  C   UNL     1       6.241   1.655  -2.920  1.00  0.00     0.035 A 
ATOM     12  C   UNL     1       7.714   3.002  -1.578  1.00  0.00     0.035 A 
ATOM     13  C   UNL     1       7.202   1.582  -3.932  1.00  0.00     0.088 A 
ATOM     14  C   UNL     1       8.697   2.926  -2.571  1.00  0.00     0.088 A 
ATOM     15  C   UNL     1       8.433   2.220  -3.750  1.00  0.00     0.269 A 
BRANCH  15  16
ATOM     16  N   UNL     1       9.457   2.137  -4.798  1.00  0.00     0.062 N 
ATOM     17  O   UNL     1       9.170   1.520  -5.835  1.00  0.00    -0.258 OA
ATOM     18  O   UNL     1      10.544   2.693  -4.588  1.00  0.00    -0.258 OA
ENDBRANCH  15  16
ENDBRANCH   8  10
BRANCH   9  19
ATOM     19  C   UNL     1       5.121   4.812  -0.049  1.00  0.00    -0.023 A 
ATOM     20  C   UNL     1       4.994   5.039   1.330  1.00  0.00     0.006 A 
ATOM     21  C   UNL     1       5.881   5.727  -0.801  1.00  0.00     0.006 A 
ATOM     22  C   UNL     1       5.600   6.144   1.934  1.00  0.00     0.000 A 
ATOM     23  C   UNL     1       6.513   6.812  -0.192  1.00  0.00     0.000 A 
ATOM     24  C   UNL     1       6.369   7.022   1.176  1.00  0.00     0.000 A 
ENDBRANCH   9  19
ENDBRANCH   3   5
ENDBRANCH   2   3
ENDBRANCH   1   2
BRANCH   1  25
ATOM     25  C   UNL     1       3.858  -1.652  -1.510  1.00  0.00     0.275 C 
BRANCH  25  26
ATOM     26  O   UNL     1       3.397  -0.485  -2.213  1.00  0.00    -0.458 OA
BRANCH  26  27
ATOM     27  C   UNL     1       2.057  -0.408  -2.427  1.00  0.00     0.338 C 
ATOM     28  O   UNL     1       1.219  -1.234  -2.128  1.00  0.00    -0.246 OA
BRANCH  27  29
ATOM     29  C   UNL     1       1.737   0.946  -2.940  1.00  0.00     0.060 A 
ATOM     30  C   UNL     1       0.597   1.593  -2.451  1.00  0.00     0.016 A 
ATOM     31  C   UNL     1       2.569   1.598  -3.856  1.00  0.00     0.016 A 
ATOM     32  C   UNL     1       0.307   2.903  -2.853  1.00  0.00     0.010 A 
ATOM     33  C   UNL     1       2.292   2.913  -4.238  1.00  0.00     0.010 A 
ATOM     34  C   UNL     1       1.157   3.576  -3.743  1.00  0.00    -0.014 A 
BRANCH  34  35
ATOM     35  C   UNL     1       0.836   4.944  -4.223  1.00  0.00     0.031 A 
ATOM     36  C   UNL     1       0.267   5.127  -5.602  1.00  0.00     0.074 A 
ATOM     37  C   UNL     1       1.095   6.025  -3.463  1.00  0.00     0.049 A 
ATOM     38  N   UNL     1      -0.054   6.233  -6.224  1.00  0.00    -0.248 NA
ATOM     39  C   UNL     1       0.036   3.904  -6.386  1.00  0.00     0.031 C 
ATOM     40  C   UNL     1       1.658   5.999  -2.116  1.00  0.00     0.029 A 
ATOM     41  N   UNL     1       0.942   7.364  -3.732  1.00  0.00    -0.354 N 
ATOM     42  C   UNL     1      -0.535   5.840  -7.465  1.00  0.00     0.074 A 
ATOM     43  C   UNL     1      -0.418   4.399  -7.529  1.00  0.00     0.031 C 
ATOM     44  C   UNL     1       1.838   7.260  -1.687  1.00  0.00     0.029 A 
ATOM     45  C   UNL     1       1.401   8.185  -2.731  1.00  0.00     0.049 A 
ATOM     46  H   UNL     1       0.541   7.703  -4.564  1.00  0.00     0.167 HD
ATOM     47  C   UNL     1      -1.052   6.608  -8.452  1.00  0.00     0.037 A 
ATOM     48  C   UNL     1       1.470   9.529  -2.666  1.00  0.00     0.037 A 
ATOM     49  C   UNL     1      -1.185   8.039  -8.394  1.00  0.00     0.049 A 
ATOM     50  C   UNL     1       0.946  10.362  -3.807  1.00  0.00     0.074 A 
ATOM     51  C   UNL     1      -1.783   8.885  -9.312  1.00  0.00     0.029 A 
ATOM     52  N   UNL     1      -0.700   8.835  -7.371  1.00  0.00    -0.354 N 
ATOM     53  N   UNL     1       0.388   9.974  -4.927  1.00  0.00    -0.248 NA
ATOM     54  C   UNL     1       1.054  11.823  -3.670  1.00  0.00     0.031 C 
ATOM     55  C   UNL     1      -1.615  10.201  -8.868  1.00  0.00     0.029 A 
ATOM     56  C   UNL     1      -0.946  10.169  -7.655  1.00  0.00     0.049 A 
ATOM     57  H   UNL     1      -0.246   8.504  -6.562  1.00  0.00     0.167 HD
ATOM     58  C   UNL     1       0.052  11.136  -5.610  1.00  0.00     0.074 A 
ATOM     59  C   UNL     1       0.460  12.246  -4.776  1.00  0.00     0.031 C 
ATOM     60  C   UNL     1      -0.544  11.269  -6.819  1.00  0.00     0.037 A 
BRANCH  47  61
ATOM     61  C   UNL     1      -1.530   5.913  -9.688  1.00  0.00     0.064 A 
ATOM     62  C   UNL     1      -2.733   5.192  -9.697  1.00  0.00     0.173 A 
ATOM     63  C   UNL     1      -0.814   6.022 -10.888  1.00  0.00     0.173 A 
ATOM     64  F   UNL     1      -3.445   5.053  -8.569  1.00  0.00    -0.203 F 
ATOM     65  C   UNL     1      -3.195   4.592 -10.864  1.00  0.00     0.198 A 
ATOM     66  C   UNL     1      -1.290   5.437 -12.058  1.00  0.00     0.198 A 
ATOM     67  F   UNL     1       0.341   6.704 -10.927  1.00  0.00    -0.203 F 
ATOM     68  F   UNL     1      -4.333   3.884 -10.846  1.00  0.00    -0.200 F 
ATOM     69  C   UNL     1      -2.478   4.721 -12.044  1.00  0.00     0.200 A 
ATOM     70  F   UNL     1      -0.600   5.569 -13.199  1.00  0.00    -0.200 F 
ATOM     71  F   UNL     1      -2.930   4.152 -13.170  1.00  0.00    -0.200 F 
ENDBRANCH  47  61
BRANCH  48  72
ATOM     72  C   UNL     1       2.062  10.191  -1.474  1.00  0.00     0.064 A 
ATOM     73  C   UNL     1       1.263  10.923  -0.585  1.00  0.00     0.173 A 
ATOM     74  C   UNL     1       3.443  10.156  -1.238  1.00  0.00     0.173 A 
ATOM     75  F   UNL     1      -0.060  11.007  -0.788  1.00  0.00    -0.203 F 
ATOM     76  C   UNL     1       1.829  11.621   0.480  1.00  0.00     0.198 A 
ATOM     77  C   UNL     1       4.005  10.834  -0.159  1.00  0.00     0.198 A 
ATOM     78  F   UNL     1       4.250   9.476  -2.066  1.00  0.00    -0.203 F 
ATOM     79  F   UNL     1       1.051  12.363   1.280  1.00  0.00    -0.200 F 
ATOM     80  C   UNL     1       3.199  11.575   0.693  1.00  0.00     0.200 A 
ATOM     81  F   UNL     1       5.329  10.787   0.045  1.00  0.00    -0.200 F 
ATOM     82  F   UNL     1       3.744  12.261   1.707  1.00  0.00    -0.200 F 
ENDBRANCH  48  72
BRANCH  60  83
ATOM     83  C   UNL     1      -0.813  12.660  -7.314  1.00  0.00     0.064 A 
ATOM     84  C   UNL     1       0.221  13.483  -7.781  1.00  0.00     0.173 A 
ATOM     85  C   UNL     1      -2.125  13.155  -7.372  1.00  0.00     0.173 A 
ATOM     86  F   UNL     1       1.494  13.062  -7.731  1.00  0.00    -0.203 F 
ATOM     87  C   UNL     1      -0.046  14.757  -8.275  1.00  0.00     0.198 A 
ATOM     88  C   UNL     1      -2.391  14.419  -7.891  1.00  0.00     0.198 A 
ATOM     89  F   UNL     1      -3.150  12.405  -6.941  1.00  0.00    -0.203 F 
ATOM     90  F   UNL     1       0.962  15.541  -8.684  1.00  0.00    -0.200 F 
ATOM     91  C   UNL     1      -1.352  15.221  -8.338  1.00  0.00     0.200 A 
ATOM     92  F   UNL     1      -3.655  14.860  -7.961  1.00  0.00    -0.200 F 
ATOM     93  F   UNL     1      -1.608  16.443  -8.825  1.00  0.00    -0.200 F 
ENDBRANCH  60  83
ENDBRANCH  34  35
ENDBRANCH  27  29
ENDBRANCH  26  27
ENDBRANCH  25  26
ENDBRANCH   1  25
TORSDOF 14
