REMARK SMILES O=C(Cc1cccn(C(F)F)c1=O)OCCOC(=O)c1ccc(-c2c3nc(c(-c4c(F)c(F)c(F)c(F)c4F)c4ccc([nH]4)c(-c4c(F)c(F)c(F)c(F)c4F)c4nc(c(-c5c(F)c(F)c(F)c(F)c5F)c5ccc2[nH]5)C=C4)C=C3)cc1
REMARK SMILES IDX 15 1 14 2 2 3 1 4 3 5 4 6 5 7 12 8 6 9 8 10 13 11 7 12 9 13
REMARK SMILES IDX 10 14 11 15 16 16 17 17 18 18 19 19 20 20 21 21 82 22 22 23
REMARK SMILES IDX 81 24 23 25 24 26 25 27 75 28 26 29 80 30 74 31 76 32 27 33
REMARK SMILES IDX 79 34 73 35 72 36 28 38 60 39 40 40 59 41 41 42 44 43 58 44
REMARK SMILES IDX 77 45 42 46 43 47 57 49 78 50 45 51 29 52 30 53 38 54 31 55
REMARK SMILES IDX 32 56 36 57 39 58 33 59 34 60 37 61 35 62 61 63 62 64 70 65
REMARK SMILES IDX 63 66 64 67 68 68 71 69 65 70 66 71 69 72 67 73 46 74 47 75
REMARK SMILES IDX 55 76 48 77 49 78 53 79 56 80 50 81 51 82 54 83 52 84
REMARK H PARENT 76 37 44 48
REMARK Flexibility Score: inf
ROOT
ATOM      1  C   UNL     1       4.373   1.319  -0.005  1.00  0.00     0.274 C 
ENDROOT
BRANCH   1   2
ATOM      2  O   UNL     1       3.075   1.180  -0.625  1.00  0.00    -0.462 OA
BRANCH   2   3
ATOM      3  C   UNL     1       2.517   0.009  -1.014  1.00  0.00     0.310 C 
ATOM      4  O   UNL     1       1.638  -0.001  -1.873  1.00  0.00    -0.252 OA
BRANCH   3   5
ATOM      5  C   UNL     1       2.981  -1.272  -0.356  1.00  0.00     0.164 C 
BRANCH   5   6
ATOM      6  C   UNL     1       3.859  -2.140  -1.207  1.00  0.00     0.029 A 
ATOM      7  C   UNL     1       4.774  -1.697  -2.089  1.00  0.00     0.011 A 
ATOM      8  C   UNL     1       3.710  -3.625  -1.005  1.00  0.00     0.258 A 
ATOM      9  C   UNL     1       5.626  -2.608  -2.806  1.00  0.00     0.019 A 
ATOM     10  N   UNL     1       4.543  -4.431  -1.760  1.00  0.00    -0.258 N 
ATOM     11  O   UNL     1       2.897  -4.060  -0.192  1.00  0.00    -0.269 OA
ATOM     12  C   UNL     1       5.487  -3.926  -2.632  1.00  0.00     0.095 A 
BRANCH  10  13
ATOM     13  C   UNL     1       4.379  -5.857  -1.647  1.00  0.00     0.451 C 
ATOM     14  F   UNL     1       3.924  -6.351  -2.830  1.00  0.00    -0.185 F 
ATOM     15  F   UNL     1       5.585  -6.445  -1.429  1.00  0.00    -0.185 F 
ENDBRANCH  10  13
ENDBRANCH   5   6
ENDBRANCH   3   5
ENDBRANCH   2   3
ENDBRANCH   1   2
BRANCH   1  16
ATOM     16  C   UNL     1       4.254   1.798   1.441  1.00  0.00     0.275 C 
BRANCH  16  17
ATOM     17  O   UNL     1       3.918   0.691   2.294  1.00  0.00    -0.458 OA
BRANCH  17  18
ATOM     18  C   UNL     1       2.600   0.527   2.572  1.00  0.00     0.338 C 
ATOM     19  O   UNL     1       1.695   1.274   2.256  1.00  0.00    -0.246 OA
BRANCH  18  20
ATOM     20  C   UNL     1       2.393  -0.817   3.170  1.00  0.00     0.060 A 
ATOM     21  C   UNL     1       3.414  -1.491   3.849  1.00  0.00     0.016 A 
ATOM     22  C   UNL     1       1.147  -1.433   2.994  1.00  0.00     0.016 A 
ATOM     23  C   UNL     1       3.183  -2.772   4.354  1.00  0.00     0.010 A 
ATOM     24  C   UNL     1       0.912  -2.708   3.513  1.00  0.00     0.010 A 
ATOM     25  C   UNL     1       1.927  -3.383   4.205  1.00  0.00    -0.014 A 
BRANCH  25  26
ATOM     26  C   UNL     1       1.655  -4.664   4.899  1.00  0.00     0.031 A 
ATOM     27  C   UNL     1       1.608  -5.968   4.165  1.00  0.00     0.074 A 
ATOM     28  C   UNL     1       1.461  -4.634   6.231  1.00  0.00     0.049 A 
ATOM     29  N   UNL     1       1.526  -7.180   4.657  1.00  0.00    -0.248 NA
ATOM     30  C   UNL     1       1.651  -5.912   2.698  1.00  0.00     0.031 C 
ATOM     31  C   UNL     1       1.438  -3.417   7.043  1.00  0.00     0.029 A 
ATOM     32  N   UNL     1       1.264  -5.646   7.135  1.00  0.00    -0.354 N 
ATOM     33  C   UNL     1       1.533  -8.034   3.564  1.00  0.00     0.074 A 
ATOM     34  C   UNL     1       1.572  -7.199   2.380  1.00  0.00     0.031 C 
ATOM     35  C   UNL     1       1.277  -3.755   8.331  1.00  0.00     0.029 A 
ATOM     36  C   UNL     1       1.168  -5.208   8.432  1.00  0.00     0.049 A 
ATOM     37  H   UNL     1       1.198  -6.594   6.878  1.00  0.00     0.167 HD
ATOM     38  C   UNL     1       1.530  -9.389   3.557  1.00  0.00     0.037 A 
ATOM     39  C   UNL     1       1.024  -5.897   9.579  1.00  0.00     0.037 A 
ATOM     40  C   UNL     1       1.474 -10.213   4.739  1.00  0.00     0.049 A 
ATOM     41  C   UNL     1       0.978  -7.398   9.539  1.00  0.00     0.074 A 
ATOM     42  C   UNL     1       1.535 -11.593   4.831  1.00  0.00     0.029 A 
ATOM     43  N   UNL     1       1.319  -9.735   6.032  1.00  0.00    -0.354 N 
ATOM     44  N   UNL     1       1.099  -8.199   8.509  1.00  0.00    -0.248 NA
ATOM     45  C   UNL     1       0.783  -8.090  10.820  1.00  0.00     0.031 C 
ATOM     46  C   UNL     1       1.361 -11.952   6.172  1.00  0.00     0.029 A 
ATOM     47  C   UNL     1       1.242 -10.795   6.923  1.00  0.00     0.049 A 
ATOM     48  H   UNL     1       1.272  -8.784   6.281  1.00  0.00     0.167 HD
ATOM     49  C   UNL     1       1.008  -9.487   9.016  1.00  0.00     0.074 A 
ATOM     50  C   UNL     1       0.839  -9.362  10.449  1.00  0.00     0.031 C 
ATOM     51  C   UNL     1       1.060 -10.665   8.348  1.00  0.00     0.037 A 
BRANCH  38  52
ATOM     52  C   UNL     1       1.607 -10.081   2.227  1.00  0.00     0.064 A 
ATOM     53  C   UNL     1       2.794 -10.087   1.479  1.00  0.00     0.173 A 
ATOM     54  C   UNL     1       0.518 -10.817   1.737  1.00  0.00     0.173 A 
ATOM     55  F   UNL     1       3.863  -9.396   1.903  1.00  0.00    -0.203 F 
ATOM     56  C   UNL     1       2.883 -10.792   0.281  1.00  0.00     0.198 A 
ATOM     57  C   UNL     1       0.618 -11.540   0.551  1.00  0.00     0.198 A 
ATOM     58  F   UNL     1      -0.636 -10.854   2.420  1.00  0.00    -0.203 F 
ATOM     59  F   UNL     1       4.019 -10.760  -0.429  1.00  0.00    -0.200 F 
ATOM     60  C   UNL     1       1.798 -11.524  -0.177  1.00  0.00     0.200 A 
ATOM     61  F   UNL     1      -0.425 -12.261   0.117  1.00  0.00    -0.200 F 
ATOM     62  F   UNL     1       1.891 -12.216  -1.321  1.00  0.00    -0.200 F 
ENDBRANCH  38  52
BRANCH  39  63
ATOM     63  C   UNL     1       0.970  -5.159  10.864  1.00  0.00     0.064 A 
ATOM     64  C   UNL     1       2.058  -5.181  11.747  1.00  0.00     0.173 A 
ATOM     65  C   UNL     1      -0.140  -4.375  11.208  1.00  0.00     0.173 A 
ATOM     66  F   UNL     1       3.134  -5.928  11.465  1.00  0.00    -0.203 F 
ATOM     67  C   UNL     1       2.036  -4.444  12.929  1.00  0.00     0.198 A 
ATOM     68  C   UNL     1      -0.151  -3.621  12.379  1.00  0.00     0.198 A 
ATOM     69  F   UNL     1      -1.201  -4.318  10.389  1.00  0.00    -0.203 F 
ATOM     70  F   UNL     1       3.081  -4.496  13.766  1.00  0.00    -0.200 F 
ATOM     71  C   UNL     1       0.936  -3.658  13.239  1.00  0.00     0.200 A 
ATOM     72  F   UNL     1      -1.208  -2.850  12.667  1.00  0.00    -0.200 F 
ATOM     73  F   UNL     1       0.924  -2.935  14.367  1.00  0.00    -0.200 F 
ENDBRANCH  39  63
BRANCH  51  74
ATOM     74  C   UNL     1       0.927 -11.925   9.151  1.00  0.00     0.064 A 
ATOM     75  C   UNL     1      -0.310 -12.325   9.679  1.00  0.00     0.173 A 
ATOM     76  C   UNL     1       2.027 -12.777   9.335  1.00  0.00     0.173 A 
ATOM     77  F   UNL     1      -1.387 -11.538   9.545  1.00  0.00    -0.203 F 
ATOM     78  C   UNL     1      -0.438 -13.529  10.367  1.00  0.00     0.198 A 
ATOM     79  C   UNL     1       1.889 -13.992  10.001  1.00  0.00     0.198 A 
ATOM     80  F   UNL     1       3.230 -12.441   8.847  1.00  0.00    -0.203 F 
ATOM     81  F   UNL     1      -1.623 -13.879  10.887  1.00  0.00    -0.200 F 
ATOM     82  C   UNL     1       0.658 -14.366  10.518  1.00  0.00     0.200 A 
ATOM     83  F   UNL     1       2.946 -14.804  10.136  1.00  0.00    -0.200 F 
ATOM     84  F   UNL     1       0.528 -15.532  11.165  1.00  0.00    -0.200 F 
ENDBRANCH  51  74
ENDBRANCH  25  26
ENDBRANCH  18  20
ENDBRANCH  17  18
ENDBRANCH  16  17
ENDBRANCH   1  16
TORSDOF 13
