REMARK SMILES CCC[C@]1(C(=O)OCCOC(=O)c2ccc(-c3c4nc(c(-c5c(F)c(F)c(F)c(F)c5F)c5ccc([nH]5)c(-c5c(F)c(F)c(F)c(F)c5F)c5nc(c(-c6c(F)c(F)c(F)c(F)c6F)c6ccc3[nH]6)C=C5)C=C4)cc2)CCN(c2cncc(C(=O)OC)n2)C1
REMARK SMILES IDX 8 1 7 2 5 3 6 4 4 5 76 6 89 7 77 8 78 9 3 10 2 11 1 12 79 13
REMARK SMILES IDX 80 14 88 15 81 16 83 17 82 18 84 19 85 20 86 21 87 22 9 23
REMARK SMILES IDX 10 24 11 25 12 26 13 27 14 28 75 29 15 30 74 31 16 32 17 33
REMARK SMILES IDX 18 34 68 35 19 36 73 37 67 38 69 39 20 40 72 41 66 42 65 43
REMARK SMILES IDX 21 45 53 46 33 47 52 48 34 49 37 50 51 51 70 52 35 53 36 54
REMARK SMILES IDX 50 56 71 57 38 58 22 59 23 60 31 61 24 62 25 63 29 64 32 65
REMARK SMILES IDX 26 66 27 67 30 68 28 69 54 70 55 71 63 72 56 73 57 74 61 75
REMARK SMILES IDX 64 76 58 77 59 78 62 79 60 80 39 81 40 82 48 83 41 84 42 85
REMARK SMILES IDX 46 86 49 87 43 88 44 89 47 90 45 91
REMARK H PARENT 69 44 37 55
REMARK Flexibility Score: inf
ROOT
ATOM      1  C   UNL     1      -0.485  -1.498  -6.211  1.00  0.00     0.274 C 
ENDROOT
BRANCH   1   2
ATOM      2  O   UNL     1      -0.528  -1.567  -4.768  1.00  0.00    -0.462 OA
BRANCH   2   3
ATOM      3  C   UNL     1       0.585  -1.159  -4.104  1.00  0.00     0.314 C 
ATOM      4  O   UNL     1       1.584  -0.719  -4.666  1.00  0.00    -0.252 OA
BRANCH   3   5
ATOM      5  C   UNL     1       0.522  -1.371  -2.580  1.00  0.00     0.087 C 
ATOM      6  C   UNL     1      -0.887  -1.644  -2.027  1.00  0.00     0.042 C 
ATOM      7  C   UNL     1       1.250  -2.736  -2.361  1.00  0.00     0.137 C 
ATOM      8  C   UNL     1      -0.625  -2.592  -0.869  1.00  0.00     0.119 C 
ATOM      9  N   UNL     1       0.401  -3.457  -1.412  1.00  0.00    -0.354 N 
BRANCH   5  10
ATOM     10  C   UNL     1       1.280  -0.189  -1.883  1.00  0.00     0.020 C 
BRANCH  10  11
ATOM     11  C   UNL     1       0.697   0.612  -0.705  1.00  0.00    -0.002 C 
ATOM     12  C   UNL     1       1.231   0.210   0.661  1.00  0.00     0.004 C 
ENDBRANCH  10  11
ENDBRANCH   5  10
BRANCH   9  13
ATOM     13  C   UNL     1       0.392  -4.830  -1.402  1.00  0.00     0.148 A 
ATOM     14  C   UNL     1      -0.749  -5.573  -1.065  1.00  0.00     0.157 A 
ATOM     15  N   UNL     1       1.521  -5.491  -1.756  1.00  0.00    -0.221 NA
ATOM     16  N   UNL     1      -0.826  -6.928  -1.056  1.00  0.00    -0.258 NA
ATOM     17  C   UNL     1       1.471  -6.856  -1.725  1.00  0.00     0.169 A 
ATOM     18  C   UNL     1       0.321  -7.553  -1.389  1.00  0.00     0.147 A 
BRANCH  17  19
ATOM     19  C   UNL     1       2.684  -7.658  -2.027  1.00  0.00     0.358 C 
ATOM     20  O   UNL     1       2.702  -8.877  -1.979  1.00  0.00    -0.244 OA
BRANCH  19  21
ATOM     21  O   UNL     1       3.744  -6.867  -2.338  1.00  0.00    -0.464 OA
ATOM     22  C   UNL     1       4.946  -7.598  -2.580  1.00  0.00     0.282 C 
ENDBRANCH  19  21
ENDBRANCH  17  19
ENDBRANCH   9  13
ENDBRANCH   3   5
ENDBRANCH   2   3
ENDBRANCH   1   2
BRANCH   1  23
ATOM     23  C   UNL     1      -1.287  -0.314  -6.753  1.00  0.00     0.275 C 
BRANCH  23  24
ATOM     24  O   UNL     1      -0.673   0.945  -6.417  1.00  0.00    -0.458 OA
BRANCH  24  25
ATOM     25  C   UNL     1      -1.166   1.512  -5.297  1.00  0.00     0.338 C 
ATOM     26  O   UNL     1      -2.037   1.071  -4.562  1.00  0.00    -0.246 OA
BRANCH  25  27
ATOM     27  C   UNL     1      -0.452   2.748  -4.957  1.00  0.00     0.060 A 
ATOM     28  C   UNL     1       0.686   2.619  -4.179  1.00  0.00     0.016 A 
ATOM     29  C   UNL     1      -1.076   3.985  -5.081  1.00  0.00     0.016 A 
ATOM     30  C   UNL     1       1.056   3.651  -3.325  1.00  0.00     0.010 A 
ATOM     31  C   UNL     1      -0.578   5.079  -4.361  1.00  0.00     0.010 A 
ATOM     32  C   UNL     1       0.437   4.907  -3.400  1.00  0.00    -0.014 A 
BRANCH  32  33
ATOM     33  C   UNL     1       0.803   6.000  -2.441  1.00  0.00     0.031 A 
ATOM     34  C   UNL     1      -0.271   6.737  -1.669  1.00  0.00     0.074 A 
ATOM     35  C   UNL     1       2.096   6.323  -2.221  1.00  0.00     0.049 A 
ATOM     36  N   UNL     1      -0.183   7.835  -0.957  1.00  0.00    -0.248 NA
ATOM     37  C   UNL     1      -1.632   6.180  -1.725  1.00  0.00     0.031 C 
ATOM     38  C   UNL     1       3.253   5.676  -2.842  1.00  0.00     0.029 A 
ATOM     39  N   UNL     1       2.659   7.274  -1.403  1.00  0.00    -0.354 N 
ATOM     40  C   UNL     1      -1.480   8.137  -0.551  1.00  0.00     0.074 A 
ATOM     41  C   UNL     1      -2.339   7.114  -1.105  1.00  0.00     0.031 C 
ATOM     42  C   UNL     1       4.379   6.195  -2.337  1.00  0.00     0.029 A 
ATOM     43  C   UNL     1       4.032   7.303  -1.459  1.00  0.00     0.049 A 
ATOM     44  H   UNL     1       2.130   7.876  -0.831  1.00  0.00     0.167 HD
ATOM     45  C   UNL     1      -1.913   9.171   0.214  1.00  0.00     0.037 A 
ATOM     46  C   UNL     1       4.922   8.158  -0.919  1.00  0.00     0.037 A 
ATOM     47  C   UNL     1      -1.043  10.148   0.821  1.00  0.00     0.049 A 
ATOM     48  C   UNL     1       4.416   9.313  -0.104  1.00  0.00     0.074 A 
ATOM     49  C   UNL     1      -1.378  11.225   1.624  1.00  0.00     0.029 A 
ATOM     50  N   UNL     1       0.341  10.153   0.708  1.00  0.00    -0.354 N 
ATOM     51  N   UNL     1       3.184   9.629   0.212  1.00  0.00    -0.248 NA
ATOM     52  C   UNL     1       5.428  10.242   0.414  1.00  0.00     0.031 C 
ATOM     53  C   UNL     1      -0.203  11.912   1.952  1.00  0.00     0.029 A 
ATOM     54  C   UNL     1       0.871  11.223   1.413  1.00  0.00     0.049 A 
ATOM     55  H   UNL     1       0.868   9.494   0.202  1.00  0.00     0.167 HD
ATOM     56  C   UNL     1       3.273  10.778   0.985  1.00  0.00     0.074 A 
ATOM     57  C   UNL     1       4.683  11.086   1.112  1.00  0.00     0.031 C 
ATOM     58  C   UNL     1       2.277  11.516   1.536  1.00  0.00     0.037 A 
BRANCH  45  59
ATOM     59  C   UNL     1      -3.398   9.328   0.407  1.00  0.00     0.064 A 
ATOM     60  C   UNL     1      -4.160   8.426   1.165  1.00  0.00     0.173 A 
ATOM     61  C   UNL     1      -4.068  10.426  -0.159  1.00  0.00     0.173 A 
ATOM     62  F   UNL     1      -3.577   7.353   1.722  1.00  0.00    -0.203 F 
ATOM     63  C   UNL     1      -5.536   8.593   1.315  1.00  0.00     0.198 A 
ATOM     64  C   UNL     1      -5.437  10.612   0.024  1.00  0.00     0.198 A 
ATOM     65  F   UNL     1      -3.393  11.329  -0.886  1.00  0.00    -0.203 F 
ATOM     66  F   UNL     1      -6.250   7.683   1.992  1.00  0.00    -0.200 F 
ATOM     67  C   UNL     1      -6.171   9.689   0.751  1.00  0.00     0.200 A 
ATOM     68  F   UNL     1      -6.044  11.682  -0.507  1.00  0.00    -0.200 F 
ATOM     69  F   UNL     1      -7.493   9.851   0.902  1.00  0.00    -0.200 F 
ENDBRANCH  45  59
BRANCH  46  70
ATOM     70  C   UNL     1       6.378   7.981  -1.177  1.00  0.00     0.064 A 
ATOM     71  C   UNL     1       7.265   7.675  -0.135  1.00  0.00     0.173 A 
ATOM     72  C   UNL     1       6.914   8.119  -2.467  1.00  0.00     0.173 A 
ATOM     73  F   UNL     1       6.808   7.557   1.121  1.00  0.00    -0.203 F 
ATOM     74  C   UNL     1       8.631   7.534  -0.371  1.00  0.00     0.198 A 
ATOM     75  C   UNL     1       8.274   7.936  -2.708  1.00  0.00     0.198 A 
ATOM     76  F   UNL     1       6.112   8.411  -3.501  1.00  0.00    -0.203 F 
ATOM     77  F   UNL     1       9.463   7.298   0.653  1.00  0.00    -0.200 F 
ATOM     78  C   UNL     1       9.133   7.655  -1.658  1.00  0.00     0.200 A 
ATOM     79  F   UNL     1       8.749   8.033  -3.957  1.00  0.00    -0.200 F 
ATOM     80  F   UNL     1      10.445   7.510  -1.885  1.00  0.00    -0.200 F 
ENDBRANCH  46  70
BRANCH  58  81
ATOM     81  C   UNL     1       2.689  12.694   2.372  1.00  0.00     0.064 A 
ATOM     82  C   UNL     1       3.287  13.832   1.810  1.00  0.00     0.173 A 
ATOM     83  C   UNL     1       2.494  12.676   3.762  1.00  0.00     0.173 A 
ATOM     84  F   UNL     1       3.511  13.894   0.488  1.00  0.00    -0.203 F 
ATOM     85  C   UNL     1       3.719  14.885   2.612  1.00  0.00     0.198 A 
ATOM     86  C   UNL     1       2.891  13.748   4.556  1.00  0.00     0.198 A 
ATOM     87  F   UNL     1       1.919  11.617   4.351  1.00  0.00    -0.203 F 
ATOM     88  F   UNL     1       4.359  15.926   2.061  1.00  0.00    -0.200 F 
ATOM     89  C   UNL     1       3.517  14.844   3.983  1.00  0.00     0.200 A 
ATOM     90  F   UNL     1       2.679  13.713   5.879  1.00  0.00    -0.200 F 
ATOM     91  F   UNL     1       3.938  15.855   4.755  1.00  0.00    -0.200 F 
ENDBRANCH  58  81
ENDBRANCH  32  33
ENDBRANCH  25  27
ENDBRANCH  24  25
ENDBRANCH  23  24
ENDBRANCH   1  23
TORSDOF 16
