REMARK SMILES C[C@H]([NH3+])c1ccc(F)cc1OCC(C)(C)C(=O)OCCOC(=O)c1ccc(-c2c3nc(c(-c4c(F)c(F)c(F)c(F)c4F)c4ccc([nH]4)c(-c4c(F)c(F)c(F)c(F)c4F)c4nc(c(-c5c(F)c(F)c(F)c(F)c5F)c5ccc2[nH]5)C=C4)C=C3)cc1
REMARK SMILES IDX 18 1 16 2 17 3 13 4 14 5 15 6 12 7 11 8 10 9 4 10 5 11 6 12
REMARK SMILES IDX 9 13 7 14 8 15 2 16 1 17 3 18 19 22 20 23 21 24 22 25 23 26
REMARK SMILES IDX 24 27 25 28 86 29 26 30 85 31 27 32 28 33 29 34 79 35 30 36
REMARK SMILES IDX 84 37 78 38 80 39 31 40 83 41 77 42 76 43 32 45 64 46 44 47
REMARK SMILES IDX 63 48 45 49 48 50 62 51 81 52 46 53 47 54 61 56 82 57 49 58
REMARK SMILES IDX 33 59 34 60 42 61 35 62 36 63 40 64 43 65 37 66 38 67 41 68
REMARK SMILES IDX 39 69 65 70 66 71 74 72 67 73 68 74 72 75 75 76 69 77 70 78
REMARK SMILES IDX 73 79 71 80 50 81 51 82 59 83 52 84 53 85 57 86 60 87 54 88
REMARK SMILES IDX 55 89 58 90 56 91
REMARK H PARENT 3 19 3 20 3 21 80 44 48 55
REMARK Flexibility Score: inf
ROOT
ATOM      1  O   UNL     1       0.969  -2.140   4.135  1.00  0.00    -0.462 OA
ENDROOT
BRANCH   1   2
ATOM      2  C   UNL     1       0.278  -1.141   3.515  1.00  0.00     0.315 C 
ATOM      3  O   UNL     1      -0.913  -0.926   3.698  1.00  0.00    -0.251 OA
BRANCH   2   4
ATOM      4  C   UNL     1       1.147  -0.408   2.485  1.00  0.00     0.096 C 
ATOM      5  C   UNL     1       0.952  -1.160   1.164  1.00  0.00     0.027 C 
ATOM      6  C   UNL     1       2.643  -0.473   2.870  1.00  0.00     0.027 C 
BRANCH   4   7
ATOM      7  C   UNL     1       0.797   1.102   2.401  1.00  0.00     0.247 C 
BRANCH   7   8
ATOM      8  O   UNL     1      -0.568   1.473   2.315  1.00  0.00    -0.492 OA
BRANCH   8   9
ATOM      9  C   UNL     1      -1.379   1.345   1.232  1.00  0.00     0.131 A 
ATOM     10  C   UNL     1      -1.090   1.417  -0.142  1.00  0.00     0.051 A 
ATOM     11  C   UNL     1      -2.183   1.318  -1.049  1.00  0.00     0.017 A 
ATOM     12  C   UNL     1      -3.499   1.152  -0.622  1.00  0.00     0.040 A 
ATOM     13  C   UNL     1      -2.719   1.200   1.647  1.00  0.00     0.086 A 
ATOM     14  C   UNL     1      -3.756   1.101   0.731  1.00  0.00     0.126 A 
ATOM     15  F   UNL     1      -5.018   0.970   1.163  1.00  0.00    -0.207 F 
BRANCH  10  16
ATOM     16  C   UNL     1       0.276   1.695  -0.746  1.00  0.00     0.212 C 
ATOM     17  C   UNL     1       0.532   3.196  -0.861  1.00  0.00     0.081 C 
BRANCH  16  18
ATOM     18  N   UNL     1       0.458   1.048  -2.055  1.00  0.00    -0.351 N 
ATOM     19  H   UNL     1      -0.214   1.432  -2.720  1.00  0.00     0.345 HD
ATOM     20  H   UNL     1       0.307   0.043  -1.962  1.00  0.00     0.345 HD
ATOM     21  H   UNL     1       1.405   1.220  -2.391  1.00  0.00     0.345 HD
ENDBRANCH  16  18
ENDBRANCH  10  16
ENDBRANCH   8   9
ENDBRANCH   7   8
ENDBRANCH   4   7
ENDBRANCH   2   4
ENDBRANCH   1   2
BRANCH   1  22
ATOM     22  C   UNL     1       0.223  -2.986   5.031  1.00  0.00     0.274 C 
BRANCH  22  23
ATOM     23  C   UNL     1       0.494  -2.614   6.486  1.00  0.00     0.275 C 
BRANCH  23  24
ATOM     24  O   UNL     1      -0.032  -1.306   6.771  1.00  0.00    -0.458 OA
BRANCH  24  25
ATOM     25  C   UNL     1       0.888  -0.331   6.940  1.00  0.00     0.338 C 
ATOM     26  O   UNL     1       2.102  -0.434   6.933  1.00  0.00    -0.246 OA
BRANCH  25  27
ATOM     27  C   UNL     1       0.207   0.964   7.072  1.00  0.00     0.060 A 
ATOM     28  C   UNL     1      -0.256   1.590   5.919  1.00  0.00     0.016 A 
ATOM     29  C   UNL     1       0.157   1.621   8.299  1.00  0.00     0.016 A 
ATOM     30  C   UNL     1      -0.694   2.909   5.965  1.00  0.00     0.010 A 
ATOM     31  C   UNL     1      -0.371   2.916   8.360  1.00  0.00     0.010 A 
ATOM     32  C   UNL     1      -0.772   3.587   7.189  1.00  0.00    -0.014 A 
BRANCH  32  33
ATOM     33  C   UNL     1      -1.235   5.001   7.232  1.00  0.00     0.031 A 
ATOM     34  C   UNL     1      -0.326   6.079   7.758  1.00  0.00     0.074 A 
ATOM     35  C   UNL     1      -2.457   5.334   6.772  1.00  0.00     0.049 A 
ATOM     36  N   UNL     1      -0.599   7.328   8.042  1.00  0.00    -0.248 NA
ATOM     37  C   UNL     1       1.075   5.701   8.005  1.00  0.00     0.031 C 
ATOM     38  C   UNL     1      -3.419   4.408   6.174  1.00  0.00     0.029 A 
ATOM     39  N   UNL     1      -3.095   6.550   6.722  1.00  0.00    -0.354 N 
ATOM     40  C   UNL     1       0.575   7.865   8.554  1.00  0.00     0.074 A 
ATOM     41  C   UNL     1       1.567   6.812   8.537  1.00  0.00     0.031 C 
ATOM     42  C   UNL     1      -4.500   5.093   5.773  1.00  0.00     0.029 A 
ATOM     43  C   UNL     1      -4.350   6.490   6.168  1.00  0.00     0.049 A 
ATOM     44  H   UNL     1      -2.690   7.385   7.051  1.00  0.00     0.167 HD
ATOM     45  C   UNL     1       0.799   9.124   8.999  1.00  0.00     0.037 A 
ATOM     46  C   UNL     1      -5.295   7.440   6.029  1.00  0.00     0.037 A 
ATOM     47  C   UNL     1      -0.170  10.188   8.956  1.00  0.00     0.049 A 
ATOM     48  C   UNL     1      -5.035   8.820   6.562  1.00  0.00     0.074 A 
ATOM     49  C   UNL     1      -0.031  11.499   9.379  1.00  0.00     0.029 A 
ATOM     50  N   UNL     1      -1.451  10.068   8.439  1.00  0.00    -0.354 N 
ATOM     51  N   UNL     1      -3.954   9.296   7.129  1.00  0.00    -0.248 NA
ATOM     52  C   UNL     1      -6.138   9.786   6.465  1.00  0.00     0.031 C 
ATOM     53  C   UNL     1      -1.238  12.165   9.144  1.00  0.00     0.029 A 
ATOM     54  C   UNL     1      -2.116  11.280   8.541  1.00  0.00     0.049 A 
ATOM     55  H   UNL     1      -1.831   9.245   8.056  1.00  0.00     0.167 HD
ATOM     56  C   UNL     1      -4.245  10.611   7.460  1.00  0.00     0.074 A 
ATOM     57  C   UNL     1      -5.596  10.868   7.008  1.00  0.00     0.031 C 
ATOM     58  C   UNL     1      -3.464  11.518   8.094  1.00  0.00     0.037 A 
BRANCH  45  59
ATOM     59  C   UNL     1       2.137   9.424   9.605  1.00  0.00     0.064 A 
ATOM     60  C   UNL     1       2.254   9.612  10.992  1.00  0.00     0.173 A 
ATOM     61  C   UNL     1       3.287   9.587   8.820  1.00  0.00     0.173 A 
ATOM     62  F   UNL     1       1.182   9.473  11.786  1.00  0.00    -0.203 F 
ATOM     63  C   UNL     1       3.471   9.964  11.567  1.00  0.00     0.198 A 
ATOM     64  C   UNL     1       4.509   9.916   9.403  1.00  0.00     0.198 A 
ATOM     65  F   UNL     1       3.229   9.403   7.493  1.00  0.00    -0.203 F 
ATOM     66  F   UNL     1       3.553  10.166  12.890  1.00  0.00    -0.200 F 
ATOM     67  C   UNL     1       4.598  10.113  10.773  1.00  0.00     0.200 A 
ATOM     68  F   UNL     1       5.602  10.038   8.638  1.00  0.00    -0.200 F 
ATOM     69  F   UNL     1       5.772  10.443  11.330  1.00  0.00    -0.200 F 
ENDBRANCH  45  59
BRANCH  46  70
ATOM     70  C   UNL     1      -6.590   7.094   5.390  1.00  0.00     0.064 A 
ATOM     71  C   UNL     1      -7.507   6.239   6.018  1.00  0.00     0.173 A 
ATOM     72  C   UNL     1      -6.918   7.587   4.121  1.00  0.00     0.173 A 
ATOM     73  F   UNL     1      -7.240   5.746   7.237  1.00  0.00    -0.203 F 
ATOM     74  C   UNL     1      -8.690   5.863   5.386  1.00  0.00     0.198 A 
ATOM     75  C   UNL     1      -8.115   7.233   3.501  1.00  0.00     0.198 A 
ATOM     76  F   UNL     1      -6.087   8.433   3.495  1.00  0.00    -0.203 F 
ATOM     77  F   UNL     1      -9.531   5.014   5.992  1.00  0.00    -0.200 F 
ATOM     78  C   UNL     1      -8.994   6.362   4.129  1.00  0.00     0.200 A 
ATOM     79  F   UNL     1      -8.419   7.739   2.298  1.00  0.00    -0.200 F 
ATOM     80  F   UNL     1     -10.137   6.010   3.525  1.00  0.00    -0.200 F 
ENDBRANCH  46  70
BRANCH  58  81
ATOM     81  C   UNL     1      -4.047  12.877   8.339  1.00  0.00     0.064 A 
ATOM     82  C   UNL     1      -3.615  13.984   7.595  1.00  0.00     0.173 A 
ATOM     83  C   UNL     1      -4.988  13.091   9.356  1.00  0.00     0.173 A 
ATOM     84  F   UNL     1      -2.711  13.829   6.615  1.00  0.00    -0.203 F 
ATOM     85  C   UNL     1      -4.098  15.260   7.867  1.00  0.00     0.198 A 
ATOM     86  C   UNL     1      -5.485  14.366   9.612  1.00  0.00     0.198 A 
ATOM     87  F   UNL     1      -5.440  12.059  10.085  1.00  0.00    -0.203 F 
ATOM     88  F   UNL     1      -3.653  16.308   7.160  1.00  0.00    -0.200 F 
ATOM     89  C   UNL     1      -5.034  15.450   8.873  1.00  0.00     0.200 A 
ATOM     90  F   UNL     1      -6.404  14.545  10.570  1.00  0.00    -0.200 F 
ATOM     91  F   UNL     1      -5.504  16.678   9.129  1.00  0.00    -0.200 F 
ENDBRANCH  58  81
ENDBRANCH  32  33
ENDBRANCH  25  27
ENDBRANCH  24  25
ENDBRANCH  23  24
ENDBRANCH  22  23
ENDBRANCH   1  22
TORSDOF 16
