REMARK SMILES Cc1n[nH]c(C[N@H+]2CCC[C@H](c3cccc(C(=O)OCCOC(=O)c4ccc(-c5c6nc(c(-c7c(F)c(F)c(F)c(F)c7F)c7ccc([nH]7)c(-c7c(F)c(F)c(F)c(F)c7F)c7nc(c(-c8c(F)c(F)c(F)c(F)c8F)c8ccc5[nH]8)C=C7)C=C6)cc4)c3)C2)n1
REMARK SMILES IDX 20 1 19 2 17 3 18 4 16 5 12 6 13 7 88 8 14 9 15 10 11 11
REMARK SMILES IDX 7 12 8 13 89 14 9 16 10 17 6 18 5 19 1 20 2 21 3 22 90 23
REMARK SMILES IDX 4 24 21 26 22 27 23 28 24 29 25 30 26 31 87 32 27 33 86 34
REMARK SMILES IDX 28 35 29 36 30 37 80 38 31 39 85 40 79 41 81 42 32 43 84 44
REMARK SMILES IDX 78 45 77 46 33 48 65 49 45 50 64 51 46 52 49 53 63 54 82 55
REMARK SMILES IDX 47 56 48 57 62 59 83 60 50 61 34 62 35 63 43 64 36 65 37 66
REMARK SMILES IDX 41 67 44 68 38 69 39 70 42 71 40 72 66 73 67 74 75 75 68 76
REMARK SMILES IDX 69 77 73 78 76 79 70 80 71 81 74 82 72 83 51 84 52 85 60 86
REMARK SMILES IDX 53 87 54 88 58 89 61 90 55 91 56 92 59 93 57 94
REMARK H PARENT 7 15 4 25 81 47 49 58
REMARK Flexibility Score: inf
ROOT
ATOM      1  C   UNL     1      -0.234   1.161  12.053  1.00  0.00     0.275 C 
ENDROOT
BRANCH   1   2
ATOM      2  O   UNL     1      -0.412   0.440  10.823  1.00  0.00    -0.458 OA
BRANCH   2   3
ATOM      3  C   UNL     1      -1.357  -0.533  10.822  1.00  0.00     0.338 C 
ATOM      4  O   UNL     1      -1.921  -0.994  11.806  1.00  0.00    -0.246 OA
BRANCH   3   5
ATOM      5  C   UNL     1      -1.734  -0.883   9.426  1.00  0.00     0.060 A 
ATOM      6  C   UNL     1      -1.315  -0.792   7.019  1.00  0.00    -0.038 A 
ATOM      7  C   UNL     1      -2.507  -1.506   6.822  1.00  0.00     0.004 A 
ATOM      8  C   UNL     1      -0.973  -0.447   8.336  1.00  0.00     0.020 A 
ATOM      9  C   UNL     1      -3.295  -1.913   7.901  1.00  0.00     0.001 A 
ATOM     10  C   UNL     1      -2.902  -1.617   9.204  1.00  0.00     0.016 A 
BRANCH   6  11
ATOM     11  C   UNL     1      -0.385  -0.373   5.880  1.00  0.00     0.074 C 
ATOM     12  N   UNL     1      -0.526  -2.423   4.441  1.00  0.00    -0.328 N 
ATOM     13  C   UNL     1       0.860  -2.795   4.745  1.00  0.00     0.262 C 
ATOM     14  C   UNL     1      -0.722  -0.959   4.488  1.00  0.00     0.270 C 
ATOM     15  H   UNL     1      -1.098  -2.831   5.180  1.00  0.00     0.348 HD
ATOM     16  C   UNL     1       1.317  -2.233   6.093  1.00  0.00     0.062 C 
ATOM     17  C   UNL     1       1.095  -0.724   6.165  1.00  0.00     0.020 C 
BRANCH  12  18
ATOM     18  C   UNL     1      -1.024  -3.012   3.186  1.00  0.00     0.340 C 
BRANCH  18  19
ATOM     19  C   UNL     1      -0.353  -2.509   1.953  1.00  0.00     0.179 A 
ATOM     20  C   UNL     1       0.938  -0.133  -0.304  1.00  0.00     0.092 C 
ATOM     21  C   UNL     1       0.532  -1.341   0.439  1.00  0.00     0.147 A 
ATOM     22  N   UNL     1       1.053  -2.553   0.214  1.00  0.00    -0.159 NA
ATOM     23  N   UNL     1      -0.370  -1.286   1.463  1.00  0.00    -0.211 NA
ATOM     24  N   UNL     1       0.463  -3.281   1.177  1.00  0.00    -0.258 N 
ATOM     25  H   UNL     1       0.601  -4.247   1.306  1.00  0.00     0.192 HD
ENDBRANCH  18  19
ENDBRANCH  12  18
ENDBRANCH   6  11
ENDBRANCH   3   5
ENDBRANCH   2   3
ENDBRANCH   1   2
BRANCH   1  26
ATOM     26  C   UNL     1      -1.150   2.378  12.098  1.00  0.00     0.275 C 
BRANCH  26  27
ATOM     27  O   UNL     1      -2.515   1.978  12.212  1.00  0.00    -0.458 OA
BRANCH  27  28
ATOM     28  C   UNL     1      -3.188   1.870  11.045  1.00  0.00     0.338 C 
ATOM     29  O   UNL     1      -2.734   1.973   9.918  1.00  0.00    -0.246 OA
BRANCH  28  30
ATOM     30  C   UNL     1      -4.625   1.777  11.324  1.00  0.00     0.060 A 
ATOM     31  C   UNL     1      -5.483   1.571  10.238  1.00  0.00     0.016 A 
ATOM     32  C   UNL     1      -5.104   2.183  12.577  1.00  0.00     0.016 A 
ATOM     33  C   UNL     1      -6.800   1.968  10.352  1.00  0.00     0.010 A 
ATOM     34  C   UNL     1      -6.411   2.593  12.685  1.00  0.00     0.010 A 
ATOM     35  C   UNL     1      -7.215   2.562  11.546  1.00  0.00    -0.014 A 
BRANCH  35  36
ATOM     36  C   UNL     1      -8.514   3.204  11.584  1.00  0.00     0.031 A 
ATOM     37  C   UNL     1      -9.664   2.291  11.765  1.00  0.00     0.074 A 
ATOM     38  C   UNL     1      -8.607   4.548  11.625  1.00  0.00     0.049 A 
ATOM     39  N   UNL     1     -10.728   2.179  11.041  1.00  0.00    -0.248 NA
ATOM     40  C   UNL     1      -9.575   1.314  12.863  1.00  0.00     0.031 C 
ATOM     41  C   UNL     1      -7.511   5.514  11.782  1.00  0.00     0.029 A 
ATOM     42  N   UNL     1      -9.719   5.332  11.665  1.00  0.00    -0.354 N 
ATOM     43  C   UNL     1     -11.515   1.224  11.677  1.00  0.00     0.074 A 
ATOM     44  C   UNL     1     -10.707   0.631  12.709  1.00  0.00     0.031 C 
ATOM     45  C   UNL     1      -8.024   6.717  12.118  1.00  0.00     0.029 A 
ATOM     46  C   UNL     1      -9.474   6.633  12.073  1.00  0.00     0.049 A 
ATOM     47  H   UNL     1     -10.615   5.004  11.426  1.00  0.00     0.167 HD
ATOM     48  C   UNL     1     -12.854   1.140  11.461  1.00  0.00     0.037 A 
ATOM     49  C   UNL     1     -10.404   7.548  12.432  1.00  0.00     0.037 A 
ATOM     50  C   UNL     1     -13.241   1.800  10.247  1.00  0.00     0.049 A 
ATOM     51  C   UNL     1     -11.713   7.096  11.905  1.00  0.00     0.074 A 
ATOM     52  C   UNL     1     -13.040   1.573   8.902  1.00  0.00     0.029 A 
ATOM     53  N   UNL     1     -13.694   3.087  10.364  1.00  0.00    -0.354 N 
ATOM     54  N   UNL     1     -12.018   7.045  10.639  1.00  0.00    -0.248 NA
ATOM     55  C   UNL     1     -12.597   6.348  12.788  1.00  0.00     0.031 C 
ATOM     56  C   UNL     1     -13.031   2.862   8.295  1.00  0.00     0.029 A 
ATOM     57  C   UNL     1     -13.237   3.813   9.296  1.00  0.00     0.049 A 
ATOM     58  H   UNL     1     -14.254   3.434  11.096  1.00  0.00     0.167 HD
ATOM     59  C   UNL     1     -12.864   5.953  10.524  1.00  0.00     0.074 A 
ATOM     60  C   UNL     1     -13.303   5.668  11.882  1.00  0.00     0.031 C 
ATOM     61  C   UNL     1     -12.894   5.215   9.376  1.00  0.00     0.037 A 
BRANCH  48  62
ATOM     62  C   UNL     1     -13.850   0.782  12.533  1.00  0.00     0.064 A 
ATOM     63  C   UNL     1     -15.184   0.509  12.178  1.00  0.00     0.173 A 
ATOM     64  C   UNL     1     -13.613   0.985  13.911  1.00  0.00     0.173 A 
ATOM     65  F   UNL     1     -15.526   0.338  10.892  1.00  0.00    -0.203 F 
ATOM     66  C   UNL     1     -16.210   0.493  13.127  1.00  0.00     0.198 A 
ATOM     67  C   UNL     1     -14.628   0.910  14.861  1.00  0.00     0.198 A 
ATOM     68  F   UNL     1     -12.419   1.376  14.376  1.00  0.00    -0.203 F 
ATOM     69  F   UNL     1     -17.481   0.344  12.730  1.00  0.00    -0.200 F 
ATOM     70  C   UNL     1     -15.931   0.693  14.467  1.00  0.00     0.200 A 
ATOM     71  F   UNL     1     -14.341   1.131  16.152  1.00  0.00    -0.200 F 
ATOM     72  F   UNL     1     -16.919   0.729  15.371  1.00  0.00    -0.200 F 
ENDBRANCH  48  62
BRANCH  49  73
ATOM     73  C   UNL     1     -10.277   8.612  13.452  1.00  0.00     0.064 A 
ATOM     74  C   UNL     1     -11.126   9.728  13.450  1.00  0.00     0.173 A 
ATOM     75  C   UNL     1      -9.485   8.426  14.603  1.00  0.00     0.173 A 
ATOM     76  F   UNL     1     -11.945   9.948  12.412  1.00  0.00    -0.203 F 
ATOM     77  C   UNL     1     -11.193  10.597  14.544  1.00  0.00     0.198 A 
ATOM     78  C   UNL     1      -9.544   9.299  15.688  1.00  0.00     0.198 A 
ATOM     79  F   UNL     1      -8.707   7.341  14.734  1.00  0.00    -0.203 F 
ATOM     80  F   UNL     1     -12.059  11.620  14.532  1.00  0.00    -0.200 F 
ATOM     81  C   UNL     1     -10.408  10.377  15.664  1.00  0.00     0.200 A 
ATOM     82  F   UNL     1      -8.806   9.053  16.780  1.00  0.00    -0.200 F 
ATOM     83  F   UNL     1     -10.513  11.177  16.734  1.00  0.00    -0.200 F 
ENDBRANCH  49  73
BRANCH  61  84
ATOM     84  C   UNL     1     -12.292   5.838   8.151  1.00  0.00     0.064 A 
ATOM     85  C   UNL     1     -10.918   6.089   7.998  1.00  0.00     0.173 A 
ATOM     86  C   UNL     1     -13.121   6.074   7.048  1.00  0.00     0.173 A 
ATOM     87  F   UNL     1     -10.053   5.796   8.976  1.00  0.00    -0.203 F 
ATOM     88  C   UNL     1     -10.407   6.598   6.806  1.00  0.00     0.198 A 
ATOM     89  C   UNL     1     -12.603   6.547   5.846  1.00  0.00     0.198 A 
ATOM     90  F   UNL     1     -14.433   5.798   7.121  1.00  0.00    -0.203 F 
ATOM     91  F   UNL     1      -9.094   6.844   6.687  1.00  0.00    -0.200 F 
ATOM     92  C   UNL     1     -11.249   6.819   5.728  1.00  0.00     0.200 A 
ATOM     93  F   UNL     1     -13.413   6.713   4.791  1.00  0.00    -0.200 F 
ATOM     94  F   UNL     1     -10.753   7.269   4.567  1.00  0.00    -0.200 F 
ENDBRANCH  61  84
ENDBRANCH  35  36
ENDBRANCH  28  30
ENDBRANCH  27  28
ENDBRANCH  26  27
ENDBRANCH   1  26
TORSDOF 14
