REMARK SMILES CCCCOC(=O)c1ccc(N2C[C@H](C(=O)OCCOC(=O)c3ccc(-c4c5nc(c(-c6c(F)c(F)c(F)c(F)c6F)c6ccc([nH]6)c(-c6c(F)c(F)c(F)c(F)c6F)c6nc(c(-c7c(F)c(F)c(F)c(F)c7F)c7ccc4[nH]7)C=C6)C=C5)cc3)CC2=O)cc1
REMARK SMILES IDX 15 1 16 2 14 3 12 4 13 5 87 6 86 7 88 8 11 9 8 10 9 11 90 12
REMARK SMILES IDX 10 13 89 14 6 15 7 16 5 17 4 18 3 19 2 20 1 21 17 22 18 23
REMARK SMILES IDX 19 24 20 25 21 26 22 27 23 28 24 29 85 30 25 31 84 32 26 33
REMARK SMILES IDX 27 34 28 35 78 36 29 37 83 38 77 39 79 40 30 41 82 42 76 43
REMARK SMILES IDX 75 44 31 46 63 47 43 48 62 49 44 50 47 51 61 52 80 53 45 54
REMARK SMILES IDX 46 55 60 57 81 58 48 59 32 60 33 61 41 62 34 63 35 64 39 65
REMARK SMILES IDX 42 66 36 67 37 68 40 69 38 70 64 71 65 72 73 73 66 74 67 75
REMARK SMILES IDX 71 76 74 77 68 78 69 79 72 80 70 81 49 82 50 83 58 84 51 85
REMARK SMILES IDX 52 86 56 87 59 88 53 89 54 90 57 91 55 92
REMARK H PARENT 79 45 47 56
REMARK Flexibility Score: inf
ROOT
ATOM      1  C   UNL     1     -10.208  -0.167   0.009  1.00  0.00     0.311 C 
ATOM      2  O   UNL     1     -11.414  -0.368  -0.083  1.00  0.00    -0.252 OA
ENDROOT
BRANCH   1   3
ATOM      3  C   UNL     1      -9.658   1.163   0.468  1.00  0.00     0.128 C 
ATOM      4  N   UNL     1      -7.392   1.690   0.166  1.00  0.00    -0.312 N 
ATOM      5  C   UNL     1      -8.290   1.096   1.119  1.00  0.00     0.141 C 
ATOM      6  C   UNL     1      -8.062   2.304  -0.891  1.00  0.00     0.227 C 
ATOM      7  C   UNL     1      -9.540   2.148  -0.678  1.00  0.00     0.117 C 
ATOM      8  O   UNL     1      -7.590   2.892  -1.853  1.00  0.00    -0.274 OA
BRANCH   4   9
ATOM      9  C   UNL     1      -5.993   1.714   0.351  1.00  0.00     0.044 A 
ATOM     10  C   UNL     1      -3.208   1.716   0.511  1.00  0.00     0.060 A 
ATOM     11  C   UNL     1      -3.920   0.615   0.990  1.00  0.00     0.018 A 
ATOM     12  C   UNL     1      -3.866   2.832   0.002  1.00  0.00     0.018 A 
ATOM     13  C   UNL     1      -5.318   0.630   0.936  1.00  0.00     0.027 A 
ATOM     14  C   UNL     1      -5.254   2.820  -0.087  1.00  0.00     0.027 A 
BRANCH  10  15
ATOM     15  C   UNL     1      -1.756   1.657   0.362  1.00  0.00     0.338 C 
ATOM     16  O   UNL     1      -1.223   1.212  -0.642  1.00  0.00    -0.246 OA
BRANCH  15  17
ATOM     17  O   UNL     1      -1.170   2.218   1.441  1.00  0.00    -0.462 OA
BRANCH  17  18
ATOM     18  C   UNL     1       0.253   2.391   1.347  1.00  0.00     0.233 C 
BRANCH  18  19
ATOM     19  C   UNL     1       0.999   1.282   2.087  1.00  0.00     0.041 C 
BRANCH  19  20
ATOM     20  C   UNL     1       0.803  -0.126   1.518  1.00  0.00     0.000 C 
ATOM     21  C   UNL     1       1.452  -0.329   0.156  1.00  0.00     0.004 C 
ENDBRANCH  19  20
ENDBRANCH  18  19
ENDBRANCH  17  18
ENDBRANCH  15  17
ENDBRANCH  10  15
ENDBRANCH   4   9
ENDBRANCH   1   3
BRANCH   1  22
ATOM     22  O   UNL     1      -9.245  -1.078  -0.271  1.00  0.00    -0.462 OA
BRANCH  22  23
ATOM     23  C   UNL     1      -9.695  -2.406  -0.601  1.00  0.00     0.274 C 
BRANCH  23  24
ATOM     24  C   UNL     1      -9.600  -3.346   0.606  1.00  0.00     0.275 C 
BRANCH  24  25
ATOM     25  O   UNL     1     -10.485  -2.944   1.670  1.00  0.00    -0.458 OA
BRANCH  25  26
ATOM     26  C   UNL     1      -9.913  -2.199   2.643  1.00  0.00     0.338 C 
ATOM     27  O   UNL     1      -8.749  -1.846   2.724  1.00  0.00    -0.246 OA
BRANCH  26  28
ATOM     28  C   UNL     1     -10.939  -1.717   3.578  1.00  0.00     0.060 A 
ATOM     29  C   UNL     1     -11.251  -0.356   3.559  1.00  0.00     0.016 A 
ATOM     30  C   UNL     1     -11.490  -2.556   4.544  1.00  0.00     0.016 A 
ATOM     31  C   UNL     1     -12.108   0.184   4.510  1.00  0.00     0.010 A 
ATOM     32  C   UNL     1     -12.361  -2.015   5.496  1.00  0.00     0.010 A 
ATOM     33  C   UNL     1     -12.664  -0.640   5.493  1.00  0.00    -0.014 A 
BRANCH  33  34
ATOM     34  C   UNL     1     -13.508  -0.054   6.561  1.00  0.00     0.031 A 
ATOM     35  C   UNL     1     -12.975   0.023   7.962  1.00  0.00     0.074 A 
ATOM     36  C   UNL     1     -14.737   0.411   6.272  1.00  0.00     0.049 A 
ATOM     37  N   UNL     1     -13.597   0.326   9.071  1.00  0.00    -0.248 NA
ATOM     38  C   UNL     1     -11.546  -0.285   8.137  1.00  0.00     0.031 C 
ATOM     39  C   UNL     1     -15.330   0.462   4.936  1.00  0.00     0.029 A 
ATOM     40  N   UNL     1     -15.715   0.916   7.092  1.00  0.00    -0.354 N 
ATOM     41  C   UNL     1     -12.648   0.216  10.078  1.00  0.00     0.074 A 
ATOM     42  C   UNL     1     -11.408  -0.190   9.452  1.00  0.00     0.031 C 
ATOM     43  C   UNL     1     -16.575   0.956   5.028  1.00  0.00     0.029 A 
ATOM     44  C   UNL     1     -16.888   1.194   6.434  1.00  0.00     0.049 A 
ATOM     45  H   UNL     1     -15.588   1.066   8.056  1.00  0.00     0.167 HD
ATOM     46  C   UNL     1     -12.804   0.435  11.405  1.00  0.00     0.037 A 
ATOM     47  C   UNL     1     -18.093   1.550   6.920  1.00  0.00     0.037 A 
ATOM     48  C   UNL     1     -14.041   0.854  12.011  1.00  0.00     0.049 A 
ATOM     49  C   UNL     1     -18.261   1.705   8.408  1.00  0.00     0.074 A 
ATOM     50  C   UNL     1     -14.313   1.087  13.348  1.00  0.00     0.029 A 
ATOM     51  N   UNL     1     -15.212   1.111  11.314  1.00  0.00    -0.354 N 
ATOM     52  N   UNL     1     -17.372   1.563   9.362  1.00  0.00    -0.248 NA
ATOM     53  C   UNL     1     -19.603   2.061   8.890  1.00  0.00     0.031 C 
ATOM     54  C   UNL     1     -15.660   1.444  13.464  1.00  0.00     0.029 A 
ATOM     55  C   UNL     1     -16.212   1.489  12.194  1.00  0.00     0.049 A 
ATOM     56  H   UNL     1     -15.317   1.035  10.338  1.00  0.00     0.167 HD
ATOM     57  C   UNL     1     -18.034   1.852  10.547  1.00  0.00     0.074 A 
ATOM     58  C   UNL     1     -19.399   2.180  10.194  1.00  0.00     0.031 C 
ATOM     59  C   UNL     1     -17.555   1.847  11.815  1.00  0.00     0.037 A 
BRANCH  46  60
ATOM     60  C   UNL     1     -11.623   0.198  12.299  1.00  0.00     0.064 A 
ATOM     61  C   UNL     1     -10.523   1.068  12.316  1.00  0.00     0.173 A 
ATOM     62  C   UNL     1     -11.616  -0.886  13.190  1.00  0.00     0.173 A 
ATOM     63  F   UNL     1     -10.473   2.110  11.474  1.00  0.00    -0.203 F 
ATOM     64  C   UNL     1      -9.453   0.852  13.182  1.00  0.00     0.198 A 
ATOM     65  C   UNL     1     -10.558  -1.083  14.074  1.00  0.00     0.198 A 
ATOM     66  F   UNL     1     -12.645  -1.747  13.216  1.00  0.00    -0.203 F 
ATOM     67  F   UNL     1      -8.395   1.675  13.156  1.00  0.00    -0.200 F 
ATOM     68  C   UNL     1      -9.476  -0.217  14.066  1.00  0.00     0.200 A 
ATOM     69  F   UNL     1     -10.588  -2.110  14.935  1.00  0.00    -0.200 F 
ATOM     70  F   UNL     1      -8.451  -0.416  14.907  1.00  0.00    -0.200 F 
ENDBRANCH  46  60
BRANCH  47  71
ATOM     71  C   UNL     1     -19.245   1.743   6.000  1.00  0.00     0.064 A 
ATOM     72  C   UNL     1     -19.834   3.004   5.833  1.00  0.00     0.173 A 
ATOM     73  C   UNL     1     -19.803   0.666   5.294  1.00  0.00     0.173 A 
ATOM     74  F   UNL     1     -19.354   4.061   6.504  1.00  0.00    -0.203 F 
ATOM     75  C   UNL     1     -20.952   3.175   5.018  1.00  0.00     0.198 A 
ATOM     76  C   UNL     1     -20.899   0.844   4.453  1.00  0.00     0.198 A 
ATOM     77  F   UNL     1     -19.280  -0.563   5.418  1.00  0.00    -0.203 F 
ATOM     78  F   UNL     1     -21.530   4.380   4.923  1.00  0.00    -0.200 F 
ATOM     79  C   UNL     1     -21.480   2.096   4.325  1.00  0.00     0.200 A 
ATOM     80  F   UNL     1     -21.398  -0.199   3.775  1.00  0.00    -0.200 F 
ATOM     81  F   UNL     1     -22.556   2.261   3.543  1.00  0.00    -0.200 F 
ENDBRANCH  47  71
BRANCH  59  82
ATOM     82  C   UNL     1     -18.487   2.281  12.908  1.00  0.00     0.064 A 
ATOM     83  C   UNL     1     -19.542   1.470  13.348  1.00  0.00     0.173 A 
ATOM     84  C   UNL     1     -18.280   3.506  13.560  1.00  0.00     0.173 A 
ATOM     85  F   UNL     1     -19.789   0.297  12.746  1.00  0.00    -0.203 F 
ATOM     86  C   UNL     1     -20.370   1.880  14.390  1.00  0.00     0.198 A 
ATOM     87  C   UNL     1     -19.091   3.899  14.620  1.00  0.00     0.198 A 
ATOM     88  F   UNL     1     -17.279   4.315  13.180  1.00  0.00    -0.203 F 
ATOM     89  F   UNL     1     -21.399   1.109  14.768  1.00  0.00    -0.200 F 
ATOM     90  C   UNL     1     -20.138   3.089  15.031  1.00  0.00     0.200 A 
ATOM     91  F   UNL     1     -18.856   5.060  15.248  1.00  0.00    -0.200 F 
ATOM     92  F   UNL     1     -20.929   3.475  16.041  1.00  0.00    -0.200 F 
ENDBRANCH  59  82
ENDBRANCH  33  34
ENDBRANCH  26  28
ENDBRANCH  25  26
ENDBRANCH  24  25
ENDBRANCH  23  24
ENDBRANCH  22  23
ENDBRANCH   1  22
TORSDOF 17
