REMARK SMILES O=C(OCCOC(=O)c1ccc(-c2c3nc(c(-c4c(F)c(F)c(F)c(F)c4F)c4ccc([nH]4)c(-c4c(F)c(F)c(F)c(F)c4F)c4nc(c(-c5c(F)c(F)c(F)c(F)c5F)c5ccc2[nH]5)C=C4)C=C3)cc1)C1=Cc2cc(S(F)(F)(F)(F)F)ccc2O[C@H]1C(F)(F)F
REMARK SMILES IDX 5 1 4 2 3 3 2 4 1 5 72 6 73 7 87 8 74 9 86 10 75 11 85 12
REMARK SMILES IDX 76 13 84 14 83 15 88 16 89 17 90 18 91 19 77 20 78 21 79 22
REMARK SMILES IDX 80 23 81 24 82 25 6 26 7 27 8 28 9 29 10 30 71 31 11 32
REMARK SMILES IDX 70 33 12 34 13 35 14 36 64 37 15 38 69 39 63 40 65 41 16 42
REMARK SMILES IDX 68 43 62 44 61 45 17 47 49 48 29 49 48 50 30 51 33 52 47 53
REMARK SMILES IDX 66 54 31 55 32 56 46 58 67 59 34 60 18 61 19 62 27 63 20 64
REMARK SMILES IDX 21 65 25 66 28 67 22 68 23 69 26 70 24 71 50 72 51 73 59 74
REMARK SMILES IDX 52 75 53 76 57 77 60 78 54 79 55 80 58 81 56 82 35 83 36 84
REMARK SMILES IDX 44 85 37 86 38 87 42 88 45 89 39 90 40 91 43 92 41 93
REMARK H PARENT 65 46 33 57
REMARK Flexibility Score: inf
ROOT
ATOM      1  C   UNL     1       5.002  -1.319  -0.100  1.00  0.00     0.275 C 
ENDROOT
BRANCH   1   2
ATOM      2  C   UNL     1       4.496  -0.557   1.114  1.00  0.00     0.275 C 
BRANCH   2   3
ATOM      3  O   UNL     1       3.076  -0.557   1.114  1.00  0.00    -0.459 OA
BRANCH   3   4
ATOM      4  C   UNL     1       2.366   0.018   0.027  1.00  0.00     0.338 C 
ATOM      5  O   UNL     1       1.095   0.018   0.027  1.00  0.00    -0.246 OA
BRANCH   4   6
ATOM      6  C   UNL     1       3.126   0.633  -1.137  1.00  0.00     0.087 C 
ATOM      7  C   UNL     1       4.486   0.633  -1.137  1.00  0.00     0.027 C 
ATOM      8  C   UNL     1       2.366   1.248  -2.301  1.00  0.00     0.316 C 
ATOM      9  C   UNL     1       5.246   0.018   0.027  1.00  0.00     0.019 A 
ATOM     10  O   UNL     1       3.631  -1.721   0.158  1.00  0.00    -0.475 OA
ATOM     11  C   UNL     1       6.384   0.667   0.476  1.00  0.00     0.036 A 
ATOM     12  C   UNL     1       4.883  -1.159   0.523  1.00  0.00     0.128 A 
ATOM     13  C   UNL     1       7.240  -0.148   1.254  1.00  0.00     0.107 A 
ATOM     14  C   UNL     1       5.709  -1.839   1.386  1.00  0.00     0.048 A 
ATOM     15  C   UNL     1       6.878  -1.283   1.825  1.00  0.00     0.028 A 
BRANCH   8  16
ATOM     16  C   UNL     1       0.871   1.119  -2.055  1.00  0.00     0.430 C 
ATOM     17  F   UNL     1       0.554   1.667  -0.885  1.00  0.00    -0.167 F 
ATOM     18  F   UNL     1       0.224   1.750  -3.030  1.00  0.00    -0.167 F 
ATOM     19  F   UNL     1       0.525  -0.165  -2.052  1.00  0.00    -0.167 F 
ENDBRANCH   8  16
BRANCH  13  20
ATOM     20  S   UNL     1       8.949   0.402   1.483  1.00  0.00     0.310 S 
ATOM     21  F   UNL     1       8.802   0.402   3.062  1.00  0.00    -0.094 F 
ATOM     22  F   UNL     1       8.433   1.891   1.504  1.00  0.00    -0.094 F 
ATOM     23  F   UNL     1      10.416   0.878   1.681  1.00  0.00    -0.094 F 
ATOM     24  F   UNL     1       9.428  -1.098   1.600  1.00  0.00    -0.094 F 
ATOM     25  F   UNL     1       7.452  -0.098   1.396  1.00  0.00    -0.094 F 
ENDBRANCH  13  20
ENDBRANCH   4   6
ENDBRANCH   3   4
ENDBRANCH   2   3
ENDBRANCH   1   2
BRANCH   1  26
ATOM     26  O   UNL     1       4.529  -0.694  -1.283  1.00  0.00    -0.458 OA
BRANCH  26  27
ATOM     27  C   UNL     1       3.133  -0.572  -1.513  1.00  0.00     0.338 C 
ATOM     28  O   UNL     1       2.307  -1.024  -0.659  1.00  0.00    -0.246 OA
BRANCH  27  29
ATOM     29  C   UNL     1       2.626   0.098  -2.780  1.00  0.00     0.060 A 
ATOM     30  C   UNL     1       1.691   1.105  -2.609  1.00  0.00     0.016 A 
ATOM     31  C   UNL     1       3.140  -0.170  -3.974  1.00  0.00     0.016 A 
ATOM     32  C   UNL     1       1.143   1.589  -3.820  1.00  0.00     0.010 A 
ATOM     33  C   UNL     1       2.646   0.442  -5.101  1.00  0.00     0.010 A 
ATOM     34  C   UNL     1       1.680   1.404  -5.012  1.00  0.00    -0.014 A 
BRANCH  34  35
ATOM     35  C   UNL     1       1.247   2.219  -6.221  1.00  0.00     0.031 A 
ATOM     36  C   UNL     1       0.712   1.575  -7.338  1.00  0.00     0.074 A 
ATOM     37  C   UNL     1       1.571   3.564  -6.184  1.00  0.00     0.049 A 
ATOM     38  N   UNL     1       0.394   2.118  -8.515  1.00  0.00    -0.248 NA
ATOM     39  C   UNL     1       0.398   0.140  -7.391  1.00  0.00     0.031 C 
ATOM     40  C   UNL     1       2.103   4.222  -5.057  1.00  0.00     0.029 A 
ATOM     41  N   UNL     1       1.446   4.492  -7.194  1.00  0.00    -0.354 N 
ATOM     42  C   UNL     1      -0.110   1.189  -9.330  1.00  0.00     0.074 A 
ATOM     43  C   UNL     1      -0.109  -0.098  -8.621  1.00  0.00     0.031 C 
ATOM     44  C   UNL     1       2.307   5.524  -5.387  1.00  0.00     0.029 A 
ATOM     45  C   UNL     1       1.905   5.703  -6.725  1.00  0.00     0.049 A 
ATOM     46  H   UNL     1       1.091   4.319  -8.095  1.00  0.00     0.167 HD
ATOM     47  C   UNL     1      -0.573   1.365 -10.634  1.00  0.00     0.037 A 
ATOM     48  C   UNL     1       1.979   6.905  -7.410  1.00  0.00     0.037 A 
ATOM     49  C   UNL     1      -0.539   2.578 -11.305  1.00  0.00     0.049 A 
ATOM     50  C   UNL     1       1.570   7.069  -8.735  1.00  0.00     0.074 A 
ATOM     51  C   UNL     1      -1.009   2.774 -12.618  1.00  0.00     0.029 A 
ATOM     52  N   UNL     1      -0.058   3.783 -10.844  1.00  0.00    -0.354 N 
ATOM     53  N   UNL     1       1.029   6.149  -9.536  1.00  0.00    -0.248 NA
ATOM     54  C   UNL     1       1.674   8.330  -9.481  1.00  0.00     0.031 C 
ATOM     55  C   UNL     1      -0.805   4.077 -12.948  1.00  0.00     0.029 A 
ATOM     56  C   UNL     1      -0.203   4.716 -11.847  1.00  0.00     0.049 A 
ATOM     57  H   UNL     1       0.325   3.949  -9.952  1.00  0.00     0.167 HD
ATOM     58  C   UNL     1       0.751   6.683 -10.727  1.00  0.00     0.074 A 
ATOM     59  C   UNL     1       1.168   8.092 -10.711  1.00  0.00     0.031 C 
ATOM     60  C   UNL     1       0.162   6.053 -11.825  1.00  0.00     0.037 A 
BRANCH  47  61
ATOM     61  C   UNL     1      -1.146   0.159 -11.361  1.00  0.00     0.064 A 
ATOM     62  C   UNL     1      -2.300  -0.501 -10.971  1.00  0.00     0.173 A 
ATOM     63  C   UNL     1      -0.510  -0.168 -12.480  1.00  0.00     0.173 A 
ATOM     64  F   UNL     1      -3.103  -0.051 -10.011  1.00  0.00    -0.203 F 
ATOM     65  C   UNL     1      -2.547  -1.696 -11.687  1.00  0.00     0.198 A 
ATOM     66  C   UNL     1      -0.891  -1.272 -13.203  1.00  0.00     0.198 A 
ATOM     67  F   UNL     1       0.505   0.580 -12.904  1.00  0.00    -0.203 F 
ATOM     68  F   UNL     1      -3.402  -2.568 -11.160  1.00  0.00    -0.200 F 
ATOM     69  C   UNL     1      -1.987  -2.006 -12.842  1.00  0.00     0.200 A 
ATOM     70  F   UNL     1      -0.184  -1.633 -14.270  1.00  0.00    -0.200 F 
ATOM     71  F   UNL     1      -2.463  -2.981 -13.612  1.00  0.00    -0.200 F 
ENDBRANCH  47  61
BRANCH  48  72
ATOM     72  C   UNL     1       2.537   8.114  -6.677  1.00  0.00     0.064 A 
ATOM     73  C   UNL     1       1.838   9.308  -6.606  1.00  0.00     0.173 A 
ATOM     74  C   UNL     1       3.782   8.017  -6.225  1.00  0.00     0.173 A 
ATOM     75  F   UNL     1       0.526   9.394  -6.807  1.00  0.00    -0.203 F 
ATOM     76  C   UNL     1       2.647  10.429  -6.302  1.00  0.00     0.198 A 
ATOM     77  C   UNL     1       4.467   9.136  -5.816  1.00  0.00     0.198 A 
ATOM     78  F   UNL     1       4.371   6.826  -6.169  1.00  0.00    -0.203 F 
ATOM     79  F   UNL     1       2.155  11.636  -6.563  1.00  0.00    -0.200 F 
ATOM     80  C   UNL     1       3.856  10.359  -5.776  1.00  0.00     0.200 A 
ATOM     81  F   UNL     1       5.741   9.027  -5.452  1.00  0.00    -0.200 F 
ATOM     82  F   UNL     1       4.449  11.421  -5.238  1.00  0.00    -0.200 F 
ENDBRANCH  48  72
BRANCH  60  83
ATOM     83  C   UNL     1      -0.095   6.884 -13.071  1.00  0.00     0.064 A 
ATOM     84  C   UNL     1       1.029   7.350 -13.733  1.00  0.00     0.173 A 
ATOM     85  C   UNL     1      -1.312   7.059 -13.573  1.00  0.00     0.173 A 
ATOM     86  F   UNL     1       2.265   6.985 -13.407  1.00  0.00    -0.203 F 
ATOM     87  C   UNL     1       0.742   8.251 -14.786  1.00  0.00     0.198 A 
ATOM     88  C   UNL     1      -1.504   7.842 -14.686  1.00  0.00     0.198 A 
ATOM     89  F   UNL     1      -2.355   6.471 -12.993  1.00  0.00    -0.203 F 
ATOM     90  F   UNL     1       1.733   9.016 -15.233  1.00  0.00    -0.200 F 
ATOM     91  C   UNL     1      -0.442   8.384 -15.356  1.00  0.00     0.200 A 
ATOM     92  F   UNL     1      -2.740   8.076 -15.117  1.00  0.00    -0.200 F 
ATOM     93  F   UNL     1      -0.594   9.011 -16.518  1.00  0.00    -0.200 F 
ENDBRANCH  60  83
ENDBRANCH  34  35
ENDBRANCH  27  29
ENDBRANCH  26  27
ENDBRANCH   1  26
TORSDOF 13
