REMARK SMILES O=C(C[C@H](NC(=O)[C@]12C[C@H]3C[C@H](C[C@H](C3)C1)C2)c1ccc(Cl)cc1Cl)OCCOC(=O)c1ccc(-c2c3nc(c(-c4c(F)c(F)c(F)c(F)c4F)c4ccc([nH]4)c(-c4c(F)c(F)c(F)c(F)c4F)c4nc(c(-c5c(F)c(F)c(F)c(F)c5F)c5ccc2[nH]5)C=C4)C=C3)cc1
REMARK SMILES IDX 27 1 26 2 2 3 1 4 3 5 4 6 18 7 19 8 24 9 20 10 23 11 25 12
REMARK SMILES IDX 21 13 22 14 5 15 6 16 7 18 8 19 9 20 16 21 17 22 10 23 14 24
REMARK SMILES IDX 12 25 11 26 15 27 13 28 28 29 29 30 30 31 31 32 32 33 33 34
REMARK SMILES IDX 94 35 34 36 93 37 35 38 36 39 37 40 87 41 38 42 92 43 86 44
REMARK SMILES IDX 88 45 39 46 91 47 85 48 84 49 40 51 72 52 52 53 71 54 53 55
REMARK SMILES IDX 56 56 70 57 89 58 54 59 55 60 69 62 90 63 57 64 41 65 42 66
REMARK SMILES IDX 50 67 43 68 44 69 48 70 51 71 45 72 46 73 49 74 47 75 73 76
REMARK SMILES IDX 74 77 82 78 75 79 76 80 80 81 83 82 77 83 78 84 81 85 79 86
REMARK SMILES IDX 58 87 59 88 67 89 60 90 61 91 65 92 68 93 62 94 63 95 66 96
REMARK SMILES IDX 64 97
REMARK H PARENT 5 17 88 50 56 61
REMARK Flexibility Score: inf
ROOT
ATOM      1  C   UNL     1       4.335  -0.698   1.568  1.00  0.00     0.274 C 
ENDROOT
BRANCH   1   2
ATOM      2  O   UNL     1       5.491  -1.195   0.859  1.00  0.00    -0.462 OA
BRANCH   2   3
ATOM      3  C   UNL     1       5.650  -1.214  -0.481  1.00  0.00     0.308 C 
ATOM      4  O   UNL     1       6.588  -1.829  -0.983  1.00  0.00    -0.252 OA
BRANCH   3   5
ATOM      5  C   UNL     1       4.722  -0.401  -1.344  1.00  0.00     0.152 C 
BRANCH   5   6
ATOM      6  C   UNL     1       3.735  -1.184  -2.212  1.00  0.00     0.125 C 
BRANCH   6   7
ATOM      7  C   UNL     1       4.402  -2.273  -3.042  1.00  0.00    -0.006 A 
ATOM      8  C   UNL     1       5.225  -1.827  -4.105  1.00  0.00     0.009 A 
ATOM      9  C   UNL     1       4.349  -3.659  -2.805  1.00  0.00     0.047 A 
ATOM     10  C   UNL     1       5.962  -2.717  -4.888  1.00  0.00     0.021 A 
ATOM     11  C   UNL     1       5.069  -4.554  -3.609  1.00  0.00     0.041 A 
ATOM     12  Cl  UNL     1       3.454  -4.368  -1.507  1.00  0.00    -0.084 Cl
ATOM     13  C   UNL     1       5.876  -4.079  -4.637  1.00  0.00     0.042 A 
ATOM     14  Cl  UNL     1       6.785  -5.181  -5.595  1.00  0.00    -0.084 Cl
ENDBRANCH   6   7
BRANCH   6  15
ATOM     15  N   UNL     1       2.562  -1.581  -1.447  1.00  0.00    -0.348 N 
ATOM     16  C   UNL     1       1.383  -0.967  -1.160  1.00  0.00     0.226 C 
ATOM     17  H   UNL     1       2.639  -2.481  -1.055  1.00  0.00     0.164 HD
ATOM     18  O   UNL     1       0.743  -1.459  -0.225  1.00  0.00    -0.274 OA
BRANCH  16  19
ATOM     19  C   UNL     1       0.849   0.260  -1.930  1.00  0.00     0.050 C 
ATOM     20  C   UNL     1      -0.585   0.599  -1.405  1.00  0.00     0.020 C 
ATOM     21  C   UNL     1       0.702  -0.044  -3.441  1.00  0.00     0.020 C 
ATOM     22  C   UNL     1       1.708   1.525  -1.707  1.00  0.00     0.020 C 
ATOM     23  C   UNL     1      -1.191   1.799  -2.155  1.00  0.00    -0.010 C 
ATOM     24  C   UNL     1       0.139   1.173  -4.192  1.00  0.00    -0.010 C 
ATOM     25  C   UNL     1       1.116   2.727  -2.463  1.00  0.00    -0.010 C 
ATOM     26  C   UNL     1      -0.295   3.025  -1.943  1.00  0.00     0.007 C 
ATOM     27  C   UNL     1      -1.264   1.485  -3.656  1.00  0.00     0.007 C 
ATOM     28  C   UNL     1       1.056   2.384  -3.960  1.00  0.00     0.007 C 
ENDBRANCH  16  19
ENDBRANCH   6  15
ENDBRANCH   5   6
ENDBRANCH   3   5
ENDBRANCH   2   3
ENDBRANCH   1   2
BRANCH   1  29
ATOM     29  C   UNL     1       4.576   0.696   2.156  1.00  0.00     0.275 C 
BRANCH  29  30
ATOM     30  O   UNL     1       4.559   1.707   1.129  1.00  0.00    -0.458 OA
BRANCH  30  31
ATOM     31  C   UNL     1       5.770   2.082   0.639  1.00  0.00     0.338 C 
ATOM     32  O   UNL     1       6.858   1.704   1.020  1.00  0.00    -0.246 OA
BRANCH  31  33
ATOM     33  C   UNL     1       5.571   2.901  -0.584  1.00  0.00     0.060 A 
ATOM     34  C   UNL     1       6.492   2.763  -1.633  1.00  0.00     0.016 A 
ATOM     35  C   UNL     1       4.491   3.778  -0.717  1.00  0.00     0.016 A 
ATOM     36  C   UNL     1       6.343   3.503  -2.811  1.00  0.00     0.010 A 
ATOM     37  C   UNL     1       4.353   4.530  -1.887  1.00  0.00     0.010 A 
ATOM     38  C   UNL     1       5.284   4.410  -2.933  1.00  0.00    -0.014 A 
BRANCH  38  39
ATOM     39  C   UNL     1       5.232   5.384  -4.051  1.00  0.00     0.031 A 
ATOM     40  C   UNL     1       5.751   6.771  -3.805  1.00  0.00     0.074 A 
ATOM     41  C   UNL     1       4.681   5.077  -5.239  1.00  0.00     0.049 A 
ATOM     42  N   UNL     1       5.690   7.832  -4.567  1.00  0.00    -0.248 NA
ATOM     43  C   UNL     1       6.422   6.988  -2.514  1.00  0.00     0.031 C 
ATOM     44  C   UNL     1       4.172   3.765  -5.622  1.00  0.00     0.029 A 
ATOM     45  N   UNL     1       4.428   5.870  -6.332  1.00  0.00    -0.354 N 
ATOM     46  C   UNL     1       6.305   8.845  -3.844  1.00  0.00     0.074 A 
ATOM     47  C   UNL     1       6.703   8.280  -2.573  1.00  0.00     0.031 C 
ATOM     48  C   UNL     1       3.621   3.852  -6.846  1.00  0.00     0.029 A 
ATOM     49  C   UNL     1       3.725   5.231  -7.323  1.00  0.00     0.049 A 
ATOM     50  H   UNL     1       4.723   6.807  -6.398  1.00  0.00     0.167 HD
ATOM     51  C   UNL     1       6.525  10.129  -4.208  1.00  0.00     0.037 A 
ATOM     52  C   UNL     1       3.202   5.712  -8.469  1.00  0.00     0.037 A 
ATOM     53  C   UNL     1       6.125  10.697  -5.466  1.00  0.00     0.049 A 
ATOM     54  C   UNL     1       3.396   7.164  -8.829  1.00  0.00     0.074 A 
ATOM     55  C   UNL     1       6.332  11.980  -5.938  1.00  0.00     0.029 A 
ATOM     56  N   UNL     1       5.420  10.017  -6.447  1.00  0.00    -0.354 N 
ATOM     57  N   UNL     1       4.018   8.106  -8.162  1.00  0.00    -0.248 NA
ATOM     58  C   UNL     1       2.820   7.618 -10.104  1.00  0.00     0.031 C 
ATOM     59  C   UNL     1       5.709  12.091  -7.186  1.00  0.00     0.029 A 
ATOM     60  C   UNL     1       5.158  10.862  -7.513  1.00  0.00     0.049 A 
ATOM     61  H   UNL     1       5.146   9.072  -6.395  1.00  0.00     0.167 HD
ATOM     62  C   UNL     1       3.940   9.249  -8.948  1.00  0.00     0.074 A 
ATOM     63  C   UNL     1       3.207   8.886 -10.142  1.00  0.00     0.031 C 
ATOM     64  C   UNL     1       4.440  10.485  -8.704  1.00  0.00     0.037 A 
BRANCH  51  65
ATOM     65  C   UNL     1       7.204  11.011  -3.204  1.00  0.00     0.064 A 
ATOM     66  C   UNL     1       8.562  10.856  -2.888  1.00  0.00     0.173 A 
ATOM     67  C   UNL     1       6.482  12.011  -2.538  1.00  0.00     0.173 A 
ATOM     68  F   UNL     1       9.289   9.898  -3.484  1.00  0.00    -0.203 F 
ATOM     69  C   UNL     1       9.163  11.646  -1.912  1.00  0.00     0.198 A 
ATOM     70  C   UNL     1       7.093  12.818  -1.584  1.00  0.00     0.198 A 
ATOM     71  F   UNL     1       5.181  12.197  -2.805  1.00  0.00    -0.203 F 
ATOM     72  F   UNL     1      10.445  11.438  -1.580  1.00  0.00    -0.200 F 
ATOM     73  C   UNL     1       8.430  12.628  -1.264  1.00  0.00     0.200 A 
ATOM     74  F   UNL     1       6.385  13.771  -0.962  1.00  0.00    -0.200 F 
ATOM     75  F   UNL     1       9.007  13.382  -0.319  1.00  0.00    -0.200 F 
ENDBRANCH  51  65
BRANCH  52  76
ATOM     76  C   UNL     1       2.431   4.809  -9.361  1.00  0.00     0.064 A 
ATOM     77  C   UNL     1       2.954   4.389 -10.591  1.00  0.00     0.173 A 
ATOM     78  C   UNL     1       1.155   4.350  -9.002  1.00  0.00     0.173 A 
ATOM     79  F   UNL     1       4.159   4.823 -10.988  1.00  0.00    -0.203 F 
ATOM     80  C   UNL     1       2.225   3.552 -11.434  1.00  0.00     0.198 A 
ATOM     81  C   UNL     1       0.437   3.495  -9.835  1.00  0.00     0.198 A 
ATOM     82  F   UNL     1       0.611   4.724  -7.834  1.00  0.00    -0.203 F 
ATOM     83  F   UNL     1       2.734   3.192 -12.620  1.00  0.00    -0.200 F 
ATOM     84  C   UNL     1       0.970   3.100 -11.053  1.00  0.00     0.200 A 
ATOM     85  F   UNL     1      -0.771   3.054  -9.458  1.00  0.00    -0.200 F 
ATOM     86  F   UNL     1       0.274   2.289 -11.860  1.00  0.00    -0.200 F 
ENDBRANCH  52  76
BRANCH  64  87
ATOM     87  C   UNL     1       4.261  11.537  -9.760  1.00  0.00     0.064 A 
ATOM     88  C   UNL     1       3.024  12.160  -9.979  1.00  0.00     0.173 A 
ATOM     89  C   UNL     1       5.363  11.982 -10.507  1.00  0.00     0.173 A 
ATOM     90  F   UNL     1       1.938  11.761  -9.300  1.00  0.00    -0.203 F 
ATOM     91  C   UNL     1       2.896  13.186 -10.912  1.00  0.00     0.198 A 
ATOM     92  C   UNL     1       5.237  13.025 -11.420  1.00  0.00     0.198 A 
ATOM     93  F   UNL     1       6.569  11.423 -10.329  1.00  0.00    -0.203 F 
ATOM     94  F   UNL     1       1.699  13.751 -11.125  1.00  0.00    -0.200 F 
ATOM     95  C   UNL     1       4.003  13.624 -11.624  1.00  0.00     0.200 A 
ATOM     96  F   UNL     1       6.311  13.456 -12.096  1.00  0.00    -0.200 F 
ATOM     97  F   UNL     1       3.881  14.623 -12.509  1.00  0.00    -0.200 F 
ENDBRANCH  64  87
ENDBRANCH  38  39
ENDBRANCH  31  33
ENDBRANCH  30  31
ENDBRANCH  29  30
ENDBRANCH   1  29
TORSDOF 15
