REMARK SMILES O=C(OCCOC(=O)[C@@H](Cc1c[nH]c2ccccc12)NC(=O)c1ccc(F)cc1F)c1ccc(-c2c3nc(c(-c4c(F)c(F)c(F)c(F)c4F)c4ccc([nH]4)c(-c4c(F)c(F)c(F)c(F)c4F)c4nc(c(-c5c(F)c(F)c(F)c(F)c5F)c5ccc2[nH]5)C=C4)C=C3)cc1
REMARK SMILES IDX 4 1 3 2 2 3 1 4 31 5 32 6 93 7 33 8 92 9 34 10 35 11 36 12
REMARK SMILES IDX 86 13 37 14 91 15 85 16 87 17 38 18 90 19 84 20 83 21 39 23
REMARK SMILES IDX 71 24 51 25 70 26 52 27 55 28 69 29 88 30 53 31 54 32 68 34
REMARK SMILES IDX 89 35 56 36 40 37 41 38 49 39 42 40 43 41 47 42 50 43 44 44
REMARK SMILES IDX 45 45 48 46 46 47 72 48 73 49 81 50 74 51 75 52 79 53 82 54
REMARK SMILES IDX 76 55 77 56 80 57 78 58 57 59 58 60 66 61 59 62 60 63 64 64
REMARK SMILES IDX 67 65 61 66 62 67 65 68 63 69 5 70 6 71 7 72 8 73 9 74 10 75
REMARK SMILES IDX 11 76 12 77 19 78 13 79 14 80 18 81 15 83 17 84 16 85 20 86
REMARK SMILES IDX 21 87 22 89 23 90 24 91 29 92 25 93 28 94 30 95 26 96 27 97
REMARK H PARENT 87 22 55 33 13 82 20 88
REMARK Flexibility Score: inf
ROOT
ATOM      1  C   UNL     1       3.823  -1.309  -1.584  1.00  0.00     0.275 C 
ENDROOT
BRANCH   1   2
ATOM      2  O   UNL     1       2.613  -1.365  -0.822  1.00  0.00    -0.458 OA
BRANCH   2   3
ATOM      3  C   UNL     1       2.373  -0.716   0.337  1.00  0.00     0.338 C 
ATOM      4  O   UNL     1       1.266  -0.788   0.864  1.00  0.00    -0.246 OA
BRANCH   3   5
ATOM      5  C   UNL     1       3.361   0.205   0.966  1.00  0.00     0.060 A 
ATOM      6  C   UNL     1       4.764   0.717   0.176  1.00  0.00     0.016 A 
ATOM      7  C   UNL     1       2.787   0.889   2.469  1.00  0.00     0.016 A 
ATOM      8  C   UNL     1       5.612   2.039   0.807  1.00  0.00     0.010 A 
ATOM      9  C   UNL     1       3.463   2.215   3.259  1.00  0.00     0.010 A 
ATOM     10  C   UNL     1       4.921   2.930   2.570  1.00  0.00    -0.014 A 
BRANCH  10  11
ATOM     11  C   UNL     1       5.338   4.105   3.611  1.00  0.00     0.031 A 
ATOM     12  C   UNL     1       5.878   3.643   4.936  1.00  0.00     0.074 A 
ATOM     13  C   UNL     1       5.335   5.434   3.321  1.00  0.00     0.049 A 
ATOM     14  N   UNL     1       6.652   4.285   5.766  1.00  0.00    -0.248 NA
ATOM     15  C   UNL     1       5.478   2.310   5.420  1.00  0.00     0.031 C 
ATOM     16  C   UNL     1       4.604   6.077   2.236  1.00  0.00     0.029 A 
ATOM     17  N   UNL     1       6.200   6.431   3.730  1.00  0.00    -0.354 N 
ATOM     18  C   UNL     1       6.841   3.420   6.832  1.00  0.00     0.074 A 
ATOM     19  C   UNL     1       6.056   2.242   6.603  1.00  0.00     0.031 C 
ATOM     20  C   UNL     1       5.287   7.150   1.814  1.00  0.00     0.029 A 
ATOM     21  C   UNL     1       6.317   7.453   2.793  1.00  0.00     0.049 A 
ATOM     22  H   UNL     1       6.680   6.420   4.589  1.00  0.00     0.167 HD
ATOM     23  C   UNL     1       7.641   3.592   7.899  1.00  0.00     0.037 A 
ATOM     24  C   UNL     1       7.139   8.525   2.743  1.00  0.00     0.037 A 
ATOM     25  C   UNL     1       8.390   4.791   8.101  1.00  0.00     0.049 A 
ATOM     26  C   UNL     1       8.014   8.712   3.949  1.00  0.00     0.074 A 
ATOM     27  C   UNL     1       9.189   5.135   9.167  1.00  0.00     0.029 A 
ATOM     28  N   UNL     1       8.403   5.855   7.206  1.00  0.00    -0.354 N 
ATOM     29  N   UNL     1       8.241   7.864   4.925  1.00  0.00    -0.248 NA
ATOM     30  C   UNL     1       8.665  10.015   4.114  1.00  0.00     0.031 C 
ATOM     31  C   UNL     1       9.627   6.441   8.953  1.00  0.00     0.029 A 
ATOM     32  C   UNL     1       9.177   6.876   7.713  1.00  0.00     0.049 A 
ATOM     33  H   UNL     1       7.931   5.876   6.342  1.00  0.00     0.167 HD
ATOM     34  C   UNL     1       9.019   8.540   5.844  1.00  0.00     0.074 A 
ATOM     35  C   UNL     1       9.290   9.848   5.272  1.00  0.00     0.031 C 
ATOM     36  C   UNL     1       9.434   8.140   7.069  1.00  0.00     0.037 A 
BRANCH  23  37
ATOM     37  C   UNL     1       7.684   2.495   8.913  1.00  0.00     0.064 A 
ATOM     38  C   UNL     1       7.103   2.685  10.173  1.00  0.00     0.173 A 
ATOM     39  C   UNL     1       8.284   1.256   8.641  1.00  0.00     0.173 A 
ATOM     40  F   UNL     1       6.480   3.837  10.464  1.00  0.00    -0.203 F 
ATOM     41  C   UNL     1       7.153   1.687  11.140  1.00  0.00     0.198 A 
ATOM     42  C   UNL     1       8.301   0.246   9.599  1.00  0.00     0.198 A 
ATOM     43  F   UNL     1       8.804   1.005   7.429  1.00  0.00    -0.203 F 
ATOM     44  F   UNL     1       6.617   1.903  12.349  1.00  0.00    -0.200 F 
ATOM     45  C   UNL     1       7.752   0.470  10.853  1.00  0.00     0.200 A 
ATOM     46  F   UNL     1       8.834  -0.948   9.304  1.00  0.00    -0.200 F 
ATOM     47  F   UNL     1       7.791  -0.494  11.783  1.00  0.00    -0.200 F 
ENDBRANCH  23  37
BRANCH  24  48
ATOM     48  C   UNL     1       7.080   9.536   1.632  1.00  0.00     0.064 A 
ATOM     49  C   UNL     1       5.870  10.160   1.278  1.00  0.00     0.173 A 
ATOM     50  C   UNL     1       8.216   9.926   0.901  1.00  0.00     0.173 A 
ATOM     51  F   UNL     1       4.750   9.894   1.967  1.00  0.00    -0.203 F 
ATOM     52  C   UNL     1       5.779  11.055   0.211  1.00  0.00     0.198 A 
ATOM     53  C   UNL     1       8.137  10.870  -0.131  1.00  0.00     0.198 A 
ATOM     54  F   UNL     1       9.419   9.416   1.205  1.00  0.00    -0.203 F 
ATOM     55  F   UNL     1       4.588  11.564  -0.131  1.00  0.00    -0.200 F 
ATOM     56  C   UNL     1       6.915  11.417  -0.488  1.00  0.00     0.200 A 
ATOM     57  F   UNL     1       9.248  11.258  -0.772  1.00  0.00    -0.200 F 
ATOM     58  F   UNL     1       6.834  12.303  -1.491  1.00  0.00    -0.200 F 
ENDBRANCH  24  48
BRANCH  36  59
ATOM     59  C   UNL     1      10.256   9.108   7.851  1.00  0.00     0.064 A 
ATOM     60  C   UNL     1      11.601   8.815   8.116  1.00  0.00     0.173 A 
ATOM     61  C   UNL     1       9.680  10.234   8.450  1.00  0.00     0.173 A 
ATOM     62  F   UNL     1      12.177   7.731   7.574  1.00  0.00    -0.203 F 
ATOM     63  C   UNL     1      12.332   9.598   8.995  1.00  0.00     0.198 A 
ATOM     64  C   UNL     1      10.431  11.044   9.290  1.00  0.00     0.198 A 
ATOM     65  F   UNL     1       8.397  10.547   8.212  1.00  0.00    -0.203 F 
ATOM     66  F   UNL     1      13.591   9.257   9.301  1.00  0.00    -0.200 F 
ATOM     67  C   UNL     1      11.749  10.714   9.577  1.00  0.00     0.200 A 
ATOM     68  F   UNL     1       9.877  12.137   9.831  1.00  0.00    -0.200 F 
ATOM     69  F   UNL     1      12.458  11.473  10.422  1.00  0.00    -0.200 F 
ENDBRANCH  36  59
ENDBRANCH  10  11
ENDBRANCH   3   5
ENDBRANCH   2   3
ENDBRANCH   1   2
BRANCH   1  70
ATOM     70  C   UNL     1       3.890  -0.099  -2.573  1.00  0.00     0.274 C 
BRANCH  70  71
ATOM     71  O   UNL     1       3.612   1.234  -2.030  1.00  0.00    -0.461 OA
BRANCH  71  72
ATOM     72  C   UNL     1       2.319   1.565  -1.790  1.00  0.00     0.329 C 
ATOM     73  O   UNL     1       1.380   0.890  -2.200  1.00  0.00    -0.250 OA
BRANCH  72  74
ATOM     74  C   UNL     1       2.101   2.808  -0.881  1.00  0.00     0.197 C 
BRANCH  74  75
ATOM     75  C   UNL     1       2.410   2.683   0.622  1.00  0.00     0.074 C 
BRANCH  75  76
ATOM     76  C   UNL     1       3.897   2.493   1.133  1.00  0.00    -0.020 A 
ATOM     77  C   UNL     1       5.013   3.884   0.773  1.00  0.00     0.087 A 
ATOM     78  C   UNL     1       5.126   1.136   2.287  1.00  0.00     0.003 A 
ATOM     79  N   UNL     1       6.630   3.584   1.593  1.00  0.00    -0.361 N 
ATOM     80  C   UNL     1       6.746   1.960   2.416  1.00  0.00     0.046 A 
ATOM     81  C   UNL     1       5.235  -0.264   2.723  1.00  0.00     0.010 A 
ATOM     82  H   UNL     1       7.365   4.238   1.588  1.00  0.00     0.166 HD
ATOM     83  C   UNL     1       7.892   1.151   2.448  1.00  0.00     0.026 A 
ATOM     84  C   UNL     1       6.491  -0.901   2.626  1.00  0.00     0.001 A 
ATOM     85  C   UNL     1       7.721  -0.242   2.438  1.00  0.00     0.002 A 
ENDBRANCH  75  76
ENDBRANCH  74  75
BRANCH  74  86
ATOM     86  N   UNL     1       2.514   4.140  -1.329  1.00  0.00    -0.338 N 
ATOM     87  C   UNL     1       1.791   5.300  -1.083  1.00  0.00     0.254 C 
ATOM     88  H   UNL     1       3.355   4.217  -1.834  1.00  0.00     0.164 HD
ATOM     89  O   UNL     1       2.328   6.400  -1.101  1.00  0.00    -0.269 OA
BRANCH  87  90
ATOM     90  C   UNL     1       0.339   5.179  -0.808  1.00  0.00     0.075 A 
ATOM     91  C   UNL     1      -0.163   4.864   0.465  1.00  0.00     0.020 A 
ATOM     92  C   UNL     1      -0.528   5.240  -1.898  1.00  0.00     0.138 A 
ATOM     93  C   UNL     1      -1.510   4.516   0.609  1.00  0.00     0.040 A 
ATOM     94  C   UNL     1      -1.877   4.938  -1.749  1.00  0.00     0.079 A 
ATOM     95  F   UNL     1      -0.065   5.547  -3.118  1.00  0.00    -0.206 F 
ATOM     96  C   UNL     1      -2.351   4.553  -0.501  1.00  0.00     0.126 A 
ATOM     97  F   UNL     1      -3.636   4.203  -0.363  1.00  0.00    -0.207 F 
ENDBRANCH  87  90
ENDBRANCH  74  86
ENDBRANCH  72  74
ENDBRANCH  71  72
ENDBRANCH  70  71
ENDBRANCH   1  70
TORSDOF 15
