REMARK SMILES C[C@@H](NC1=[NH+]CCC1)C(=O)OCCOC(=O)c1ccc(-c2c3nc(c(-c4c(F)c(F)c(F)c(F)c4F)c4ccc([nH]4)c(-c4c(F)c(F)c(F)c(F)c4F)c4nc(c(-c5c(F)c(F)c(F)c(F)c5F)c5ccc2[nH]5)C=C4)C=C3)cc1
REMARK SMILES IDX 13 1 12 2 11 3 9 4 10 5 2 6 1 7 3 8 4 9 5 11 8 12 6 13 7 15
REMARK SMILES IDX 14 16 15 17 16 18 17 19 18 20 79 21 19 22 78 23 20 24 21 25
REMARK SMILES IDX 22 26 72 27 23 28 77 29 71 30 73 31 24 32 76 33 70 34 69 35
REMARK SMILES IDX 25 37 57 38 37 39 56 40 38 41 41 42 55 43 74 44 39 45 40 46
REMARK SMILES IDX 54 48 75 49 42 50 26 51 27 52 35 53 28 54 29 55 33 56 36 57
REMARK SMILES IDX 30 58 31 59 34 60 32 61 58 62 59 63 67 64 60 65 61 66 65 67
REMARK SMILES IDX 68 68 62 69 63 70 66 71 64 72 43 73 44 74 52 75 45 76 46 77
REMARK SMILES IDX 50 78 53 79 47 80 48 81 51 82 49 83
REMARK H PARENT 3 10 5 14 73 36 41 47
REMARK Flexibility Score: inf
ROOT
ATOM      1  C   UNL     1      -3.572  -0.447   0.471  1.00  0.00     0.275 C 
ENDROOT
BRANCH   1   2
ATOM      2  C   UNL     1      -3.122   0.879  -0.154  1.00  0.00     0.274 C 
BRANCH   2   3
ATOM      3  O   UNL     1      -1.697   0.951  -0.361  1.00  0.00    -0.459 OA
BRANCH   3   4
ATOM      4  C   UNL     1      -0.971   1.489   0.657  1.00  0.00     0.350 C 
ATOM      5  O   UNL     1      -1.450   1.860   1.726  1.00  0.00    -0.247 OA
BRANCH   4   6
ATOM      6  C   UNL     1       0.516   1.638   0.326  1.00  0.00     0.279 C 
ATOM      7  C   UNL     1       1.066   0.369  -0.328  1.00  0.00     0.071 C 
BRANCH   6   8
ATOM      8  N   UNL     1       0.843   2.779  -0.525  1.00  0.00    -0.265 N 
ATOM      9  C   UNL     1       0.030   3.787  -0.937  1.00  0.00     0.243 C 
ATOM     10  H   UNL     1       1.774   2.824  -0.842  1.00  0.00     0.305 HD
ATOM     11  N   UNL     1       0.106   4.197  -2.171  1.00  0.00    -0.279 N 
ATOM     12  C   UNL     1      -0.932   4.547  -0.067  1.00  0.00     0.131 C 
ATOM     13  C   UNL     1      -0.932   5.236  -2.307  1.00  0.00     0.234 C 
ATOM     14  H   UNL     1       0.726   3.879  -2.867  1.00  0.00     0.304 HD
ATOM     15  C   UNL     1      -1.881   5.009  -1.145  1.00  0.00     0.058 C 
ENDBRANCH   6   8
ENDBRANCH   4   6
ENDBRANCH   3   4
ENDBRANCH   2   3
ENDBRANCH   1   2
BRANCH   1  16
ATOM     16  O   UNL     1      -3.183  -0.556   1.854  1.00  0.00    -0.458 OA
BRANCH  16  17
ATOM     17  C   UNL     1      -1.983  -1.146   2.066  1.00  0.00     0.338 C 
ATOM     18  O   UNL     1      -1.257  -1.653   1.228  1.00  0.00    -0.246 OA
BRANCH  17  19
ATOM     19  C   UNL     1      -1.552  -0.933   3.459  1.00  0.00     0.060 A 
ATOM     20  C   UNL     1      -0.284  -0.375   3.663  1.00  0.00     0.016 A 
ATOM     21  C   UNL     1      -2.341  -1.314   4.545  1.00  0.00     0.016 A 
ATOM     22  C   UNL     1       0.201  -0.187   4.952  1.00  0.00     0.010 A 
ATOM     23  C   UNL     1      -1.843  -1.146   5.842  1.00  0.00     0.010 A 
ATOM     24  C   UNL     1      -0.567  -0.592   6.048  1.00  0.00    -0.014 A 
BRANCH  24  25
ATOM     25  C   UNL     1       0.021  -0.525   7.404  1.00  0.00     0.031 A 
ATOM     26  C   UNL     1       0.604  -1.767   8.008  1.00  0.00     0.074 A 
ATOM     27  C   UNL     1       0.071   0.645   8.064  1.00  0.00     0.049 A 
ATOM     28  N   UNL     1       1.113  -1.952   9.199  1.00  0.00    -0.248 NA
ATOM     29  C   UNL     1       0.621  -2.963   7.152  1.00  0.00     0.031 C 
ATOM     30  C   UNL     1      -0.405   1.926   7.545  1.00  0.00     0.029 A 
ATOM     31  N   UNL     1       0.545   0.942   9.317  1.00  0.00    -0.354 N 
ATOM     32  C   UNL     1       1.495  -3.285   9.241  1.00  0.00     0.074 A 
ATOM     33  C   UNL     1       1.149  -3.868   7.963  1.00  0.00     0.031 C 
ATOM     34  C   UNL     1      -0.208   2.873   8.478  1.00  0.00     0.029 A 
ATOM     35  C   UNL     1       0.368   2.256   9.671  1.00  0.00     0.049 A 
ATOM     36  H   UNL     1       0.970   0.277   9.905  1.00  0.00     0.167 HD
ATOM     37  C   UNL     1       2.082  -3.958  10.259  1.00  0.00     0.037 A 
ATOM     38  C   UNL     1       0.617   2.879  10.839  1.00  0.00     0.037 A 
ATOM     39  C   UNL     1       2.427  -3.369  11.525  1.00  0.00     0.049 A 
ATOM     40  C   UNL     1       1.204   2.090  11.979  1.00  0.00     0.074 A 
ATOM     41  C   UNL     1       3.026  -3.963  12.621  1.00  0.00     0.029 A 
ATOM     42  N   UNL     1       2.198  -2.042  11.864  1.00  0.00    -0.354 N 
ATOM     43  N   UNL     1       1.556   0.828  12.018  1.00  0.00    -0.248 NA
ATOM     44  C   UNL     1       1.425   2.812  13.240  1.00  0.00     0.031 C 
ATOM     45  C   UNL     1       3.119  -3.008  13.639  1.00  0.00     0.029 A 
ATOM     46  C   UNL     1       2.623  -1.806  13.161  1.00  0.00     0.049 A 
ATOM     47  H   UNL     1       1.793  -1.369  11.270  1.00  0.00     0.167 HD
ATOM     48  C   UNL     1       2.058   0.609  13.294  1.00  0.00     0.074 A 
ATOM     49  C   UNL     1       1.979   1.874  13.995  1.00  0.00     0.031 C 
ATOM     50  C   UNL     1       2.540  -0.536  13.838  1.00  0.00     0.037 A 
BRANCH  37  51
ATOM     51  C   UNL     1       2.349  -5.420  10.055  1.00  0.00     0.064 A 
ATOM     52  C   UNL     1       3.368  -5.874   9.204  1.00  0.00     0.173 A 
ATOM     53  C   UNL     1       1.587  -6.379  10.738  1.00  0.00     0.173 A 
ATOM     54  F   UNL     1       4.113  -4.997   8.515  1.00  0.00    -0.203 F 
ATOM     55  C   UNL     1       3.598  -7.236   9.028  1.00  0.00     0.198 A 
ATOM     56  C   UNL     1       1.837  -7.739  10.579  1.00  0.00     0.198 A 
ATOM     57  F   UNL     1       0.601  -5.997  11.563  1.00  0.00    -0.203 F 
ATOM     58  F   UNL     1       4.546  -7.649   8.176  1.00  0.00    -0.200 F 
ATOM     59  C   UNL     1       2.837  -8.167   9.720  1.00  0.00     0.200 A 
ATOM     60  F   UNL     1       1.106  -8.637  11.255  1.00  0.00    -0.200 F 
ATOM     61  F   UNL     1       3.062  -9.477   9.551  1.00  0.00    -0.200 F 
ENDBRANCH  37  51
BRANCH  38  62
ATOM     62  C   UNL     1       0.287   4.319  10.996  1.00  0.00     0.064 A 
ATOM     63  C   UNL     1       1.294   5.283  11.137  1.00  0.00     0.173 A 
ATOM     64  C   UNL     1      -1.045   4.759  11.020  1.00  0.00     0.173 A 
ATOM     65  F   UNL     1       2.582   4.909  11.149  1.00  0.00    -0.203 F 
ATOM     66  C   UNL     1       0.982   6.630  11.309  1.00  0.00     0.198 A 
ATOM     67  C   UNL     1      -1.356   6.109  11.163  1.00  0.00     0.198 A 
ATOM     68  F   UNL     1      -2.047   3.876  10.894  1.00  0.00    -0.203 F 
ATOM     69  F   UNL     1       1.963   7.526  11.485  1.00  0.00    -0.200 F 
ATOM     70  C   UNL     1      -0.342   7.043  11.315  1.00  0.00     0.200 A 
ATOM     71  F   UNL     1      -2.636   6.504  11.159  1.00  0.00    -0.200 F 
ATOM     72  F   UNL     1      -0.642   8.339  11.476  1.00  0.00    -0.200 F 
ENDBRANCH  38  62
BRANCH  50  73
ATOM     73  C   UNL     1       3.049  -0.466  15.247  1.00  0.00     0.064 A 
ATOM     74  C   UNL     1       2.176  -0.355  16.339  1.00  0.00     0.173 A 
ATOM     75  C   UNL     1       4.424  -0.554  15.510  1.00  0.00     0.173 A 
ATOM     76  F   UNL     1       0.854  -0.252  16.138  1.00  0.00    -0.203 F 
ATOM     77  C   UNL     1       2.664  -0.313  17.642  1.00  0.00     0.198 A 
ATOM     78  C   UNL     1       4.906  -0.540  16.816  1.00  0.00     0.198 A 
ATOM     79  F   UNL     1       5.300  -0.669  14.500  1.00  0.00    -0.203 F 
ATOM     80  F   UNL     1       1.815  -0.164  18.669  1.00  0.00    -0.200 F 
ATOM     81  C   UNL     1       4.027  -0.413  17.880  1.00  0.00     0.200 A 
ATOM     82  F   UNL     1       6.222  -0.650  17.044  1.00  0.00    -0.200 F 
ATOM     83  F   UNL     1       4.494  -0.381  19.136  1.00  0.00    -0.200 F 
ENDBRANCH  50  73
ENDBRANCH  24  25
ENDBRANCH  17  19
ENDBRANCH  16  17
ENDBRANCH   1  16
TORSDOF 12
