REMARK SMILES Cc1cc(CNc2ccc(C(=O)OCCOC(=O)c3ccc(-c4c5nc(c(-c6c(F)c(F)c(F)c(F)c6F)c6ccc([nH]6)c(-c6c(F)c(F)c(F)c(F)c6F)c6nc(c(-c7c(F)c(F)c(F)c(F)c7F)c7ccc4[nH]7)C=C6)C=C5)cc3)c(F)c2F)sc1C
REMARK SMILES IDX 14 1 13 2 11 3 12 4 10 5 7 6 8 7 84 8 9 9 82 10 85 11 83 12
REMARK SMILES IDX 6 13 5 15 4 16 1 17 2 18 3 19 87 20 86 21 88 22 15 23 16 24
REMARK SMILES IDX 17 25 18 26 19 27 20 28 81 29 21 30 80 31 22 32 23 33 24 34
REMARK SMILES IDX 74 35 25 36 79 37 73 38 75 39 26 40 78 41 72 42 71 43 27 45
REMARK SMILES IDX 59 46 39 47 58 48 40 49 43 50 57 51 76 52 41 53 42 54 56 56
REMARK SMILES IDX 77 57 44 58 28 59 29 60 37 61 30 62 31 63 35 64 38 65 32 66
REMARK SMILES IDX 33 67 36 68 34 69 60 70 61 71 69 72 62 73 63 74 67 75 70 76
REMARK SMILES IDX 64 77 65 78 68 79 66 80 45 81 46 82 54 83 47 84 48 85 52 86
REMARK SMILES IDX 55 87 49 88 50 89 53 90 51 91
REMARK H PARENT 6 14 75 44 43 55
REMARK Flexibility Score: inf
ROOT
ATOM      1  C   UNL     1      -0.329 -10.583   1.316  1.00  0.00     0.275 C 
ENDROOT
BRANCH   1   2
ATOM      2  O   UNL     1      -0.089  -9.165   1.415  1.00  0.00    -0.458 OA
BRANCH   2   3
ATOM      3  C   UNL     1       1.206  -8.777   1.446  1.00  0.00     0.341 C 
ATOM      4  O   UNL     1       2.188  -9.497   1.343  1.00  0.00    -0.246 OA
BRANCH   3   5
ATOM      5  C   UNL     1       1.319  -7.307   1.483  1.00  0.00     0.099 A 
ATOM      6  C   UNL     1       1.627  -4.501   1.489  1.00  0.00     0.074 A 
ATOM      7  C   UNL     1       2.487  -5.304   0.742  1.00  0.00     0.030 A 
ATOM      8  C   UNL     1       0.623  -5.136   2.244  1.00  0.00     0.182 A 
ATOM      9  C   UNL     1       2.358  -6.695   0.765  1.00  0.00     0.021 A 
ATOM     10  C   UNL     1       0.458  -6.519   2.234  1.00  0.00     0.175 A 
ATOM     11  F   UNL     1      -0.208  -4.384   2.985  1.00  0.00    -0.201 F 
ATOM     12  F   UNL     1      -0.510  -7.068   2.984  1.00  0.00    -0.203 F 
BRANCH   6  13
ATOM     13  N   UNL     1       1.729  -3.120   1.497  1.00  0.00    -0.378 N 
ATOM     14  H   UNL     1       1.624  -2.647   2.354  1.00  0.00     0.161 HD
BRANCH  13  15
ATOM     15  C   UNL     1       1.986  -2.335   0.295  1.00  0.00     0.160 C 
BRANCH  15  16
ATOM     16  C   UNL     1       0.924  -1.292   0.097  1.00  0.00     0.024 A 
ATOM     17  C   UNL     1      -2.677  -0.244  -0.100  1.00  0.00     0.045 C 
ATOM     18  C   UNL     1      -1.185  -0.278  -0.061  1.00  0.00    -0.037 A 
ATOM     19  C   UNL     1      -0.437  -1.496  -0.002  1.00  0.00     0.021 A 
ATOM     20  C   UNL     1      -0.339   0.821  -0.050  1.00  0.00     0.005 A 
ATOM     21  S   UNL     1       1.310   0.366   0.030  1.00  0.00    -0.144 S 
ATOM     22  C   UNL     1      -0.702   2.269  -0.083  1.00  0.00     0.056 C 
ENDBRANCH  15  16
ENDBRANCH  13  15
ENDBRANCH   6  13
ENDBRANCH   3   5
ENDBRANCH   2   3
ENDBRANCH   1   2
BRANCH   1  23
ATOM     23  C   UNL     1      -0.783 -10.961  -0.093  1.00  0.00     0.275 C 
BRANCH  23  24
ATOM     24  O   UNL     1       0.284 -10.720  -1.029  1.00  0.00    -0.458 OA
BRANCH  24  25
ATOM     25  C   UNL     1       0.025  -9.811  -1.994  1.00  0.00     0.338 C 
ATOM     26  O   UNL     1      -1.014  -9.213  -2.205  1.00  0.00    -0.246 OA
BRANCH  25  27
ATOM     27  C   UNL     1       1.242  -9.585  -2.789  1.00  0.00     0.060 A 
ATOM     28  C   UNL     1       2.324  -8.945  -2.192  1.00  0.00     0.016 A 
ATOM     29  C   UNL     1       1.261  -9.872  -4.152  1.00  0.00     0.016 A 
ATOM     30  C   UNL     1       3.394  -8.506  -2.968  1.00  0.00     0.010 A 
ATOM     31  C   UNL     1       2.381  -9.516  -4.913  1.00  0.00     0.010 A 
ATOM     32  C   UNL     1       3.445  -8.795  -4.339  1.00  0.00    -0.014 A 
BRANCH  32  33
ATOM     33  C   UNL     1       4.581  -8.311  -5.176  1.00  0.00     0.031 A 
ATOM     34  C   UNL     1       4.324  -7.417  -6.362  1.00  0.00     0.074 A 
ATOM     35  C   UNL     1       5.850  -8.653  -4.877  1.00  0.00     0.049 A 
ATOM     36  N   UNL     1       5.144  -7.044  -7.314  1.00  0.00    -0.248 NA
ATOM     37  C   UNL     1       2.962  -6.880  -6.503  1.00  0.00     0.031 C 
ATOM     38  C   UNL     1       6.260  -9.470  -3.735  1.00  0.00     0.029 A 
ATOM     39  N   UNL     1       7.034  -8.348  -5.506  1.00  0.00    -0.354 N 
ATOM     40  C   UNL     1       4.383  -6.287  -8.196  1.00  0.00     0.074 A 
ATOM     41  C   UNL     1       3.037  -6.247  -7.666  1.00  0.00     0.031 C 
ATOM     42  C   UNL     1       7.598  -9.563  -3.717  1.00  0.00     0.029 A 
ATOM     43  C   UNL     1       8.137  -8.893  -4.896  1.00  0.00     0.049 A 
ATOM     44  H   UNL     1       7.086  -7.791  -6.316  1.00  0.00     0.167 HD
ATOM     45  C   UNL     1       4.774  -5.685  -9.345  1.00  0.00     0.037 A 
ATOM     46  C   UNL     1       9.434  -8.896  -5.261  1.00  0.00     0.037 A 
ATOM     47  C   UNL     1       6.128  -5.666  -9.836  1.00  0.00     0.049 A 
ATOM     48  C   UNL     1       9.843  -8.236  -6.546  1.00  0.00     0.074 A 
ATOM     49  C   UNL     1       6.622  -5.057 -10.977  1.00  0.00     0.029 A 
ATOM     50  N   UNL     1       7.206  -6.267  -9.205  1.00  0.00    -0.354 N 
ATOM     51  N   UNL     1       9.104  -7.587  -7.411  1.00  0.00    -0.248 NA
ATOM     52  C   UNL     1      11.261  -8.335  -6.922  1.00  0.00     0.031 C 
ATOM     53  C   UNL     1       7.994  -5.317 -11.054  1.00  0.00     0.029 A 
ATOM     54  C   UNL     1       8.362  -6.054  -9.940  1.00  0.00     0.049 A 
ATOM     55  H   UNL     1       7.158  -6.770  -8.360  1.00  0.00     0.167 HD
ATOM     56  C   UNL     1       9.960  -7.203  -8.433  1.00  0.00     0.074 A 
ATOM     57  C   UNL     1      11.282  -7.670  -8.070  1.00  0.00     0.031 C 
ATOM     58  C   UNL     1       9.670  -6.532  -9.573  1.00  0.00     0.037 A 
BRANCH  45  59
ATOM     59  C   UNL     1       3.720  -5.016 -10.178  1.00  0.00     0.064 A 
ATOM     60  C   UNL     1       3.328  -5.584 -11.401  1.00  0.00     0.173 A 
ATOM     61  C   UNL     1       3.142  -3.794  -9.807  1.00  0.00     0.173 A 
ATOM     62  F   UNL     1       3.856  -6.749 -11.806  1.00  0.00    -0.203 F 
ATOM     63  C   UNL     1       2.403  -4.948 -12.224  1.00  0.00     0.198 A 
ATOM     64  C   UNL     1       2.197  -3.174 -10.621  1.00  0.00     0.198 A 
ATOM     65  F   UNL     1       3.474  -3.217  -8.643  1.00  0.00    -0.203 F 
ATOM     66  F   UNL     1       2.064  -5.496 -13.400  1.00  0.00    -0.200 F 
ATOM     67  C   UNL     1       1.835  -3.746 -11.832  1.00  0.00     0.200 A 
ATOM     68  F   UNL     1       1.631  -2.023 -10.230  1.00  0.00    -0.200 F 
ATOM     69  F   UNL     1       0.934  -3.140 -12.618  1.00  0.00    -0.200 F 
ENDBRANCH  45  59
BRANCH  46  70
ATOM     70  C   UNL     1      10.429  -9.582  -4.397  1.00  0.00     0.064 A 
ATOM     71  C   UNL     1      10.436 -10.979  -4.263  1.00  0.00     0.173 A 
ATOM     72  C   UNL     1      11.355  -8.849  -3.645  1.00  0.00     0.173 A 
ATOM     73  F   UNL     1       9.569 -11.725  -4.964  1.00  0.00    -0.203 F 
ATOM     74  C   UNL     1      11.306 -11.613  -3.380  1.00  0.00     0.198 A 
ATOM     75  C   UNL     1      12.244  -9.486  -2.782  1.00  0.00     0.198 A 
ATOM     76  F   UNL     1      11.404  -7.514  -3.760  1.00  0.00    -0.203 F 
ATOM     77  F   UNL     1      11.258 -12.944  -3.234  1.00  0.00    -0.200 F 
ATOM     78  C   UNL     1      12.210 -10.866  -2.640  1.00  0.00     0.200 A 
ATOM     79  F   UNL     1      13.133  -8.764  -2.085  1.00  0.00    -0.200 F 
ATOM     80  F   UNL     1      13.047 -11.476  -1.790  1.00  0.00    -0.200 F 
ENDBRANCH  46  70
BRANCH  58  81
ATOM     81  C   UNL     1      10.800  -6.256 -10.519  1.00  0.00     0.064 A 
ATOM     82  C   UNL     1      11.311  -4.957 -10.661  1.00  0.00     0.173 A 
ATOM     83  C   UNL     1      11.332  -7.266 -11.332  1.00  0.00     0.173 A 
ATOM     84  F   UNL     1      10.830  -3.956  -9.909  1.00  0.00    -0.203 F 
ATOM     85  C   UNL     1      12.306  -4.678 -11.594  1.00  0.00     0.198 A 
ATOM     86  C   UNL     1      12.343  -6.988 -12.248  1.00  0.00     0.198 A 
ATOM     87  F   UNL     1      10.885  -8.526 -11.222  1.00  0.00    -0.203 F 
ATOM     88  F   UNL     1      12.761  -3.425 -11.732  1.00  0.00    -0.200 F 
ATOM     89  C   UNL     1      12.823  -5.694 -12.384  1.00  0.00     0.200 A 
ATOM     90  F   UNL     1      12.857  -7.974 -12.997  1.00  0.00    -0.200 F 
ATOM     91  F   UNL     1      13.787  -5.425 -13.275  1.00  0.00    -0.200 F 
ENDBRANCH  58  81
ENDBRANCH  32  33
ENDBRANCH  25  27
ENDBRANCH  24  25
ENDBRANCH  23  24
ENDBRANCH   1  23
TORSDOF 14
