REMARK SMILES O=C(OCCOC(=O)[C@@H]1CCCC[C@H]1C(=O)Nc1sc2c(c1C(=O)NC1CCCC1)CCC2)c1ccc(-c2c3nc(c(-c4c(F)c(F)c(F)c(F)c4F)c4ccc([nH]4)c(-c4c(F)c(F)c(F)c(F)c4F)c4nc(c(-c5c(F)c(F)c(F)c(F)c5F)c5ccc2[nH]5)C=C4)C=C3)cc1
REMARK SMILES IDX 5 1 4 2 3 3 2 4 1 5 34 6 35 7 96 8 36 9 95 10 37 11 38 12
REMARK SMILES IDX 39 13 89 14 40 15 94 16 88 17 90 18 41 19 93 20 87 21 86 22
REMARK SMILES IDX 42 24 74 25 54 26 73 27 55 28 58 29 72 30 91 31 56 32 57 33
REMARK SMILES IDX 71 35 92 36 59 37 43 38 44 39 52 40 45 41 46 42 50 43 53 44
REMARK SMILES IDX 47 45 48 46 51 47 49 48 75 49 76 50 84 51 77 52 78 53 82 54
REMARK SMILES IDX 85 55 79 56 80 57 83 58 81 59 60 60 61 61 69 62 62 63 63 64
REMARK SMILES IDX 67 65 70 66 64 67 65 68 68 69 66 70 6 71 7 72 8 73 9 74
REMARK SMILES IDX 10 75 14 76 11 77 13 78 12 79 15 80 16 81 17 82 18 84 19 85
REMARK SMILES IDX 22 86 20 87 21 88 33 89 31 90 32 91 23 92 24 93 25 94 26 96
REMARK SMILES IDX 27 97 30 98 28 99 29 100
REMARK H PARENT 90 23 58 34 17 83 25 95
REMARK Flexibility Score: inf
ROOT
ATOM      1  C   UNL     1       4.468  -1.047  -0.509  1.00  0.00     0.274 C 
ENDROOT
BRANCH   1   2
ATOM      2  C   UNL     1       4.738  -0.944   0.990  1.00  0.00     0.275 C 
BRANCH   2   3
ATOM      3  O   UNL     1       3.615  -0.844   1.891  1.00  0.00    -0.458 OA
BRANCH   3   4
ATOM      4  C   UNL     1       2.439  -0.307   1.496  1.00  0.00     0.338 C 
ATOM      5  O   UNL     1       1.446  -0.967   1.274  1.00  0.00    -0.246 OA
BRANCH   4   6
ATOM      6  C   UNL     1       2.375   1.177   1.621  1.00  0.00     0.060 A 
ATOM      7  C   UNL     1       3.494   1.986   1.859  1.00  0.00     0.016 A 
ATOM      8  C   UNL     1       1.104   1.764   1.508  1.00  0.00     0.016 A 
ATOM      9  C   UNL     1       3.341   3.356   2.039  1.00  0.00     0.010 A 
ATOM     10  C   UNL     1       0.948   3.128   1.695  1.00  0.00     0.010 A 
ATOM     11  C   UNL     1       2.061   3.912   2.003  1.00  0.00    -0.014 A 
BRANCH  11  12
ATOM     12  C   UNL     1       1.893   5.328   2.297  1.00  0.00     0.031 A 
ATOM     13  C   UNL     1       2.303   6.286   1.234  1.00  0.00     0.074 A 
ATOM     14  C   UNL     1       1.198   5.733   3.377  1.00  0.00     0.049 A 
ATOM     15  N   UNL     1       3.312   7.096   1.205  1.00  0.00    -0.248 NA
ATOM     16  C   UNL     1       1.537   6.260  -0.016  1.00  0.00     0.031 C 
ATOM     17  C   UNL     1       0.438   4.922   4.329  1.00  0.00     0.029 A 
ATOM     18  N   UNL     1       0.947   7.003   3.790  1.00  0.00    -0.354 N 
ATOM     19  C   UNL     1       3.200   7.809   0.007  1.00  0.00     0.074 A 
ATOM     20  C   UNL     1       2.238   7.093  -0.784  1.00  0.00     0.031 C 
ATOM     21  C   UNL     1      -0.363   5.727   5.063  1.00  0.00     0.029 A 
ATOM     22  C   UNL     1      -0.064   7.109   4.734  1.00  0.00     0.049 A 
ATOM     23  H   UNL     1       1.441   7.782   3.448  1.00  0.00     0.167 HD
ATOM     24  C   UNL     1       3.708   9.068  -0.140  1.00  0.00     0.037 A 
ATOM     25  C   UNL     1      -0.643   8.263   5.146  1.00  0.00     0.037 A 
ATOM     26  C   UNL     1       4.606   9.385   0.942  1.00  0.00     0.049 A 
ATOM     27  C   UNL     1       0.275   9.376   4.780  1.00  0.00     0.074 A 
ATOM     28  C   UNL     1       5.780   8.844   1.431  1.00  0.00     0.029 A 
ATOM     29  N   UNL     1       4.135  10.197   1.946  1.00  0.00    -0.354 N 
ATOM     30  N   UNL     1       1.449   9.549   5.324  1.00  0.00    -0.248 NA
ATOM     31  C   UNL     1       0.096   9.995   3.473  1.00  0.00     0.031 C 
ATOM     32  C   UNL     1       5.654   8.931   2.851  1.00  0.00     0.029 A 
ATOM     33  C   UNL     1       4.456   9.589   3.130  1.00  0.00     0.049 A 
ATOM     34  H   UNL     1       3.658  11.051   1.835  1.00  0.00     0.167 HD
ATOM     35  C   UNL     1       2.277   9.921   4.275  1.00  0.00     0.074 A 
ATOM     36  C   UNL     1       1.374  10.246   3.172  1.00  0.00     0.031 C 
ATOM     37  C   UNL     1       3.615   9.646   4.300  1.00  0.00     0.037 A 
BRANCH  24  38
ATOM     38  C   UNL     1       3.126  10.166  -1.017  1.00  0.00     0.064 A 
ATOM     39  C   UNL     1       3.799  11.408  -1.082  1.00  0.00     0.173 A 
ATOM     40  C   UNL     1       1.816  10.174  -1.540  1.00  0.00     0.173 A 
ATOM     41  F   UNL     1       5.058  11.531  -0.634  1.00  0.00    -0.203 F 
ATOM     42  C   UNL     1       3.166  12.578  -1.514  1.00  0.00     0.198 A 
ATOM     43  C   UNL     1       1.206  11.332  -2.023  1.00  0.00     0.198 A 
ATOM     44  F   UNL     1       1.022   9.100  -1.515  1.00  0.00    -0.203 F 
ATOM     45  F   UNL     1       3.801  13.753  -1.415  1.00  0.00    -0.200 F 
ATOM     46  C   UNL     1       1.864  12.541  -1.972  1.00  0.00     0.200 A 
ATOM     47  F   UNL     1      -0.060  11.274  -2.461  1.00  0.00    -0.200 F 
ATOM     48  F   UNL     1       1.229  13.668  -2.318  1.00  0.00    -0.200 F 
ENDBRANCH  24  38
BRANCH  25  49
ATOM     49  C   UNL     1      -2.063   8.480   5.510  1.00  0.00     0.064 A 
ATOM     50  C   UNL     1      -2.466   9.611   6.236  1.00  0.00     0.173 A 
ATOM     51  C   UNL     1      -3.090   7.715   4.922  1.00  0.00     0.173 A 
ATOM     52  F   UNL     1      -1.549  10.422   6.783  1.00  0.00    -0.203 F 
ATOM     53  C   UNL     1      -3.816   9.963   6.355  1.00  0.00     0.198 A 
ATOM     54  C   UNL     1      -4.436   8.063   5.045  1.00  0.00     0.198 A 
ATOM     55  F   UNL     1      -2.802   6.668   4.135  1.00  0.00    -0.203 F 
ATOM     56  F   UNL     1      -4.160  11.082   7.008  1.00  0.00    -0.200 F 
ATOM     57  C   UNL     1      -4.798   9.194   5.752  1.00  0.00     0.200 A 
ATOM     58  F   UNL     1      -5.371   7.332   4.423  1.00  0.00    -0.200 F 
ATOM     59  F   UNL     1      -6.085   9.563   5.815  1.00  0.00    -0.200 F 
ENDBRANCH  25  49
BRANCH  37  60
ATOM     60  C   UNL     1       4.209   9.132   5.579  1.00  0.00     0.064 A 
ATOM     61  C   UNL     1       3.859   7.904   6.166  1.00  0.00     0.173 A 
ATOM     62  C   UNL     1       5.290   9.826   6.136  1.00  0.00     0.173 A 
ATOM     63  F   UNL     1       2.913   7.128   5.628  1.00  0.00    -0.203 F 
ATOM     64  C   UNL     1       4.533   7.417   7.284  1.00  0.00     0.198 A 
ATOM     65  C   UNL     1       5.986   9.320   7.230  1.00  0.00     0.198 A 
ATOM     66  F   UNL     1       5.710  10.972   5.578  1.00  0.00    -0.203 F 
ATOM     67  F   UNL     1       4.176   6.242   7.826  1.00  0.00    -0.200 F 
ATOM     68  C   UNL     1       5.601   8.122   7.810  1.00  0.00     0.200 A 
ATOM     69  F   UNL     1       7.054   9.979   7.700  1.00  0.00    -0.200 F 
ATOM     70  F   UNL     1       6.282   7.633   8.856  1.00  0.00    -0.200 F 
ENDBRANCH  37  60
ENDBRANCH  11  12
ENDBRANCH   4   6
ENDBRANCH   3   4
ENDBRANCH   2   3
ENDBRANCH   1   2
BRANCH   1  71
ATOM     71  O   UNL     1       3.884   0.164  -1.025  1.00  0.00    -0.462 OA
BRANCH  71  72
ATOM     72  C   UNL     1       2.652   0.008  -1.589  1.00  0.00     0.309 C 
ATOM     73  O   UNL     1       2.050  -1.053  -1.629  1.00  0.00    -0.252 OA
BRANCH  72  74
ATOM     74  C   UNL     1       2.159   1.278  -2.267  1.00  0.00     0.111 C 
ATOM     75  C   UNL     1       2.709   2.600  -1.751  1.00  0.00     0.016 C 
ATOM     76  C   UNL     1       0.645   1.247  -2.490  1.00  0.00     0.093 C 
ATOM     77  C   UNL     1       2.169   3.753  -2.588  1.00  0.00     0.001 C 
ATOM     78  C   UNL     1       0.029   2.546  -3.034  1.00  0.00     0.014 C 
ATOM     79  C   UNL     1       0.659   3.809  -2.470  1.00  0.00     0.001 C 
BRANCH  76  80
ATOM     80  C   UNL     1       0.201   0.070  -3.376  1.00  0.00     0.228 C 
ATOM     81  O   UNL     1      -0.802  -0.574  -3.039  1.00  0.00    -0.274 OA
ATOM     82  N   UNL     1       0.779  -0.262  -4.579  1.00  0.00    -0.317 N 
ATOM     83  H   UNL     1       0.717  -1.206  -4.854  1.00  0.00     0.170 HD
BRANCH  82  84
ATOM     84  C   UNL     1       1.437   0.597  -5.441  1.00  0.00     0.108 A 
ATOM     85  S   UNL     1       0.417   1.042  -6.749  1.00  0.00    -0.122 S 
ATOM     86  C   UNL     1       2.762   1.079  -5.565  1.00  0.00     0.078 A 
ATOM     87  C   UNL     1       1.523   2.196  -7.193  1.00  0.00     0.011 A 
ATOM     88  C   UNL     1       2.694   2.183  -6.472  1.00  0.00    -0.019 A 
ATOM     89  C   UNL     1       1.448   3.227  -8.252  1.00  0.00     0.047 C 
ATOM     90  C   UNL     1       3.549   3.292  -6.959  1.00  0.00     0.038 C 
ATOM     91  C   UNL     1       2.565   4.181  -7.775  1.00  0.00     0.010 C 
BRANCH  86  92
ATOM     92  C   UNL     1       3.861   0.427  -4.822  1.00  0.00     0.254 C 
ATOM     93  O   UNL     1       3.744  -0.760  -4.495  1.00  0.00    -0.269 OA
ATOM     94  N   UNL     1       5.000   0.986  -4.297  1.00  0.00    -0.349 N 
ATOM     95  H   UNL     1       5.301   0.440  -3.536  1.00  0.00     0.164 HD
BRANCH  94  96
ATOM     96  C   UNL     1       5.921   2.101  -4.470  1.00  0.00     0.082 C 
ATOM     97  C   UNL     1       6.474   2.226  -5.872  1.00  0.00     0.025 C 
ATOM     98  C   UNL     1       5.519   3.482  -3.986  1.00  0.00     0.025 C 
ATOM     99  C   UNL     1       6.829   3.693  -6.059  1.00  0.00     0.002 C 
ATOM    100  C   UNL     1       6.207   4.481  -4.910  1.00  0.00     0.002 C 
ENDBRANCH  94  96
ENDBRANCH  86  92
ENDBRANCH  82  84
ENDBRANCH  76  80
ENDBRANCH  72  74
ENDBRANCH  71  72
ENDBRANCH   1  71
TORSDOF 15
