REMARK SMILES CCCCCCNC(=O)Oc1cccc(-c2ccc([C@@H](C)C(=O)OCCOC(=O)c3ccc(-c4c5nc(c(-c6c(F)c(F)c(F)c(F)c6F)c6ccc([nH]6)c(-c6c(F)c(F)c(F)c(F)c6F)c6nc(c(-c7c(F)c(F)c(F)c(F)c7F)c7ccc4[nH]7)C=C6)C=C5)cc3)cc2C(F)(F)F)c1
REMARK SMILES IDX 20 1 21 2 19 3 16 4 17 5 94 6 18 7 93 8 15 9 11 10 12 11
REMARK SMILES IDX 99 12 13 13 14 14 10 15 8 16 7 17 9 19 6 20 5 21 4 22 3 23
REMARK SMILES IDX 2 24 1 25 95 26 96 27 97 28 98 29 22 30 23 31 24 32 25 33
REMARK SMILES IDX 26 34 27 35 28 36 29 37 30 38 31 39 92 40 32 41 91 42 33 43
REMARK SMILES IDX 34 44 35 45 85 46 36 47 90 48 84 49 86 50 37 51 89 52 83 53
REMARK SMILES IDX 82 54 38 56 70 57 50 58 69 59 51 60 54 61 68 62 87 63 52 64
REMARK SMILES IDX 53 65 67 67 88 68 55 69 39 70 40 71 48 72 41 73 42 74 46 75
REMARK SMILES IDX 49 76 43 77 44 78 47 79 45 80 71 81 72 82 80 83 73 84 74 85
REMARK SMILES IDX 78 86 81 87 75 88 76 89 79 90 77 91 56 92 57 93 65 94 58 95
REMARK SMILES IDX 59 96 63 97 66 98 60 99 61 100 64 101 62 102
REMARK H PARENT 7 18 86 55 54 66
REMARK Flexibility Score: inf
ROOT
ATOM      1  C   UNL     1      -5.504 -12.379   6.117  1.00  0.00     0.126 C 
ATOM      2  C   UNL     1      -6.841 -13.116   6.135  1.00  0.00     0.025 C 
ENDROOT
BRANCH   1   3
ATOM      3  C   UNL     1      -5.365 -11.454   4.917  1.00  0.00    -0.033 A 
ATOM      4  C   UNL     1      -5.189  -9.644   2.716  1.00  0.00    -0.006 A 
ATOM      5  C   UNL     1      -5.359 -11.032   2.530  1.00  0.00     0.009 A 
ATOM      6  C   UNL     1      -5.086  -9.162   4.037  1.00  0.00     0.064 A 
ATOM      7  C   UNL     1      -5.454 -11.919   3.605  1.00  0.00     0.005 A 
ATOM      8  C   UNL     1      -5.168 -10.078   5.112  1.00  0.00     0.018 A 
BRANCH   4   9
ATOM      9  C   UNL     1      -5.214  -8.772   1.526  1.00  0.00    -0.014 A 
ATOM     10  C   UNL     1      -4.268  -7.057   0.101  1.00  0.00     0.133 A 
ATOM     11  C   UNL     1      -5.408  -7.051  -0.701  1.00  0.00     0.047 A 
ATOM     12  C   UNL     1      -4.153  -7.913   1.200  1.00  0.00     0.056 A 
ATOM     13  C   UNL     1      -6.450  -7.922  -0.409  1.00  0.00     0.004 A 
ATOM     14  C   UNL     1      -6.356  -8.766   0.698  1.00  0.00     0.009 A 
BRANCH  10  15
ATOM     15  O   UNL     1      -3.329  -6.042  -0.157  1.00  0.00    -0.410 OA
BRANCH  15  16
ATOM     16  C   UNL     1      -1.975  -6.333  -0.194  1.00  0.00     0.412 C 
ATOM     17  N   UNL     1      -1.197  -5.217  -0.346  1.00  0.00    -0.321 N 
ATOM     18  H   UNL     1      -0.225  -5.361  -0.396  1.00  0.00     0.167 HD
ATOM     19  O   UNL     1      -1.476  -7.449  -0.120  1.00  0.00    -0.224 OA
BRANCH  17  20
ATOM     20  C   UNL     1      -1.657  -3.845  -0.442  1.00  0.00     0.119 C 
BRANCH  20  21
ATOM     21  C   UNL     1      -1.079  -2.965   0.667  1.00  0.00     0.021 C 
BRANCH  21  22
ATOM     22  C   UNL     1       0.448  -2.821   0.648  1.00  0.00     0.002 C 
BRANCH  22  23
ATOM     23  C   UNL     1       1.042  -2.249  -0.644  1.00  0.00    -0.000 C 
BRANCH  23  24
ATOM     24  C   UNL     1       0.553  -0.852  -1.031  1.00  0.00    -0.003 C 
ATOM     25  C   UNL     1       0.925   0.218  -0.017  1.00  0.00     0.004 C 
ENDBRANCH  23  24
ENDBRANCH  22  23
ENDBRANCH  21  22
ENDBRANCH  20  21
ENDBRANCH  17  20
ENDBRANCH  15  16
ENDBRANCH  10  15
ENDBRANCH   4   9
BRANCH   6  26
ATOM     26  C   UNL     1      -4.874  -7.704   4.384  1.00  0.00     0.417 C 
ATOM     27  F   UNL     1      -5.396  -7.382   5.608  1.00  0.00    -0.166 F 
ATOM     28  F   UNL     1      -3.553  -7.374   4.464  1.00  0.00    -0.166 F 
ATOM     29  F   UNL     1      -5.437  -6.811   3.527  1.00  0.00    -0.166 F 
ENDBRANCH   6  26
ENDBRANCH   1   3
BRANCH   1  30
ATOM     30  C   UNL     1      -4.361 -13.360   6.349  1.00  0.00     0.313 C 
ATOM     31  O   UNL     1      -4.042 -13.728   7.476  1.00  0.00    -0.252 OA
BRANCH  30  32
ATOM     32  O   UNL     1      -3.777 -13.802   5.206  1.00  0.00    -0.462 OA
BRANCH  32  33
ATOM     33  C   UNL     1      -2.661 -14.702   5.353  1.00  0.00     0.274 C 
BRANCH  33  34
ATOM     34  C   UNL     1      -1.325 -13.970   5.199  1.00  0.00     0.275 C 
BRANCH  34  35
ATOM     35  O   UNL     1      -1.081 -13.083   6.308  1.00  0.00    -0.458 OA
BRANCH  35  36
ATOM     36  C   UNL     1      -1.426 -11.794   6.089  1.00  0.00     0.338 C 
ATOM     37  O   UNL     1      -1.864 -11.306   5.061  1.00  0.00    -0.246 OA
BRANCH  36  38
ATOM     38  C   UNL     1      -1.335 -11.027   7.339  1.00  0.00     0.060 A 
ATOM     39  C   UNL     1      -2.524 -10.536   7.879  1.00  0.00     0.016 A 
ATOM     40  C   UNL     1      -0.107 -10.684   7.903  1.00  0.00     0.016 A 
ATOM     41  C   UNL     1      -2.498  -9.665   8.961  1.00  0.00     0.010 A 
ATOM     42  C   UNL     1      -0.079  -9.819   9.005  1.00  0.00     0.010 A 
ATOM     43  C   UNL     1      -1.274  -9.284   9.523  1.00  0.00    -0.014 A 
BRANCH  43  44
ATOM     44  C   UNL     1      -1.267  -8.264  10.600  1.00  0.00     0.031 A 
ATOM     45  C   UNL     1      -0.812  -6.863  10.299  1.00  0.00     0.074 A 
ATOM     46  C   UNL     1      -1.723  -8.578  11.826  1.00  0.00     0.049 A 
ATOM     47  N   UNL     1      -0.714  -5.834  11.102  1.00  0.00    -0.248 NA
ATOM     48  C   UNL     1      -0.411  -6.581   8.911  1.00  0.00     0.031 C 
ATOM     49  C   UNL     1      -2.222  -9.893  12.228  1.00  0.00     0.029 A 
ATOM     50  N   UNL     1      -1.847  -7.813  12.958  1.00  0.00    -0.354 N 
ATOM     51  C   UNL     1      -0.216  -4.795  10.328  1.00  0.00     0.074 A 
ATOM     52  C   UNL     1      -0.022  -5.316   8.992  1.00  0.00     0.031 C 
ATOM     53  C   UNL     1      -2.600  -9.843  13.516  1.00  0.00     0.029 A 
ATOM     54  C   UNL     1      -2.337  -8.505  14.039  1.00  0.00     0.049 A 
ATOM     55  H   UNL     1      -1.607  -6.858  12.993  1.00  0.00     0.167 HD
ATOM     56  C   UNL     1       0.049  -3.520  10.699  1.00  0.00     0.037 A 
ATOM     57  C   UNL     1      -2.530  -8.108  15.311  1.00  0.00     0.037 A 
ATOM     58  C   UNL     1      -0.190  -2.990  12.016  1.00  0.00     0.049 A 
ATOM     59  C   UNL     1      -2.213  -6.688  15.696  1.00  0.00     0.074 A 
ATOM     60  C   UNL     1      -0.001  -1.696  12.471  1.00  0.00     0.029 A 
ATOM     61  N   UNL     1      -0.674  -3.725  13.087  1.00  0.00    -0.354 N 
ATOM     62  N   UNL     1      -1.766  -5.708  14.949  1.00  0.00    -0.248 NA
ATOM     63  C   UNL     1      -2.428  -6.318  17.102  1.00  0.00     0.031 C 
ATOM     64  C   UNL     1      -0.332  -1.657  13.829  1.00  0.00     0.029 A 
ATOM     65  C   UNL     1      -0.766  -2.917  14.209  1.00  0.00     0.049 A 
ATOM     66  H   UNL     1      -0.916  -4.678  13.055  1.00  0.00     0.167 HD
ATOM     67  C   UNL     1      -1.662  -4.606  15.787  1.00  0.00     0.074 A 
ATOM     68  C   UNL     1      -2.115  -5.030  17.095  1.00  0.00     0.031 C 
ATOM     69  C   UNL     1      -1.225  -3.355  15.501  1.00  0.00     0.037 A 
BRANCH  56  70
ATOM     70  C   UNL     1       0.651  -2.604   9.678  1.00  0.00     0.064 A 
ATOM     71  C   UNL     1      -0.109  -2.053   8.637  1.00  0.00     0.173 A 
ATOM     72  C   UNL     1       1.996  -2.217   9.788  1.00  0.00     0.173 A 
ATOM     73  F   UNL     1      -1.396  -2.400   8.485  1.00  0.00    -0.203 F 
ATOM     74  C   UNL     1       0.458  -1.155   7.737  1.00  0.00     0.198 A 
ATOM     75  C   UNL     1       2.553  -1.302   8.900  1.00  0.00     0.198 A 
ATOM     76  F   UNL     1       2.764  -2.712  10.770  1.00  0.00    -0.203 F 
ATOM     77  F   UNL     1      -0.279  -0.658   6.733  1.00  0.00    -0.200 F 
ATOM     78  C   UNL     1       1.785  -0.773   7.874  1.00  0.00     0.200 A 
ATOM     79  F   UNL     1       3.832  -0.925   9.041  1.00  0.00    -0.200 F 
ATOM     80  F   UNL     1       2.324   0.104   7.015  1.00  0.00    -0.200 F 
ENDBRANCH  56  70
BRANCH  57  81
ATOM     81  C   UNL     1      -3.022  -9.075  16.326  1.00  0.00     0.064 A 
ATOM     82  C   UNL     1      -4.289  -8.938  16.907  1.00  0.00     0.173 A 
ATOM     83  C   UNL     1      -2.216 -10.138  16.762  1.00  0.00     0.173 A 
ATOM     84  F   UNL     1      -5.086  -7.921  16.544  1.00  0.00    -0.203 F 
ATOM     85  C   UNL     1      -4.723  -9.811  17.903  1.00  0.00     0.198 A 
ATOM     86  C   UNL     1      -2.662 -11.028  17.735  1.00  0.00     0.198 A 
ATOM     87  F   UNL     1      -0.993 -10.312  16.239  1.00  0.00    -0.203 F 
ATOM     88  F   UNL     1      -5.917  -9.624  18.482  1.00  0.00    -0.200 F 
ATOM     89  C   UNL     1      -3.911 -10.858  18.312  1.00  0.00     0.200 A 
ATOM     90  F   UNL     1      -1.878 -12.044  18.121  1.00  0.00    -0.200 F 
ATOM     91  F   UNL     1      -4.326 -11.695  19.273  1.00  0.00    -0.200 F 
ENDBRANCH  57  81
BRANCH  69  92
ATOM     92  C   UNL     1      -1.236  -2.353  16.616  1.00  0.00     0.064 A 
ATOM     93  C   UNL     1      -0.300  -2.408  17.658  1.00  0.00     0.173 A 
ATOM     94  C   UNL     1      -2.171  -1.306  16.624  1.00  0.00     0.173 A 
ATOM     95  F   UNL     1       0.603  -3.400  17.702  1.00  0.00    -0.203 F 
ATOM     96  C   UNL     1      -0.312  -1.464  18.681  1.00  0.00     0.198 A 
ATOM     97  C   UNL     1      -2.163  -0.349  17.634  1.00  0.00     0.198 A 
ATOM     98  F   UNL     1      -3.083  -1.206  15.646  1.00  0.00    -0.203 F 
ATOM     99  F   UNL     1       0.564  -1.561  19.691  1.00  0.00    -0.200 F 
ATOM    100  C   UNL     1      -1.239  -0.432  18.665  1.00  0.00     0.200 A 
ATOM    101  F   UNL     1      -3.052   0.654  17.611  1.00  0.00    -0.200 F 
ATOM    102  F   UNL     1      -1.247   0.478  19.648  1.00  0.00    -0.200 F 
ENDBRANCH  69  92
ENDBRANCH  43  44
ENDBRANCH  36  38
ENDBRANCH  35  36
ENDBRANCH  34  35
ENDBRANCH  33  34
ENDBRANCH  32  33
ENDBRANCH  30  32
ENDBRANCH   1  30
TORSDOF 21
