REMARK SMILES Cc1cc(/C=C/C(=O)OCCOC(=O)c2ccc(-c3c4nc(c(-c5c(F)c(F)c(F)c(F)c5F)c5ccc([nH]5)c(-c5c(F)c(F)c(F)c(F)c5F)c5nc(c(-c6c(F)c(F)c(F)c(F)c6F)c6ccc3[nH]6)C=C5)C=C4)cc2)ccc1O
REMARK SMILES IDX 10 1 9 2 7 3 8 4 6 5 5 6 4 7 1 8 2 9 3 10 80 11 79 12 78 13
REMARK SMILES IDX 81 14 11 16 12 17 13 18 14 19 15 20 16 21 77 22 17 23 76 24
REMARK SMILES IDX 18 25 19 26 20 27 70 28 21 29 75 30 69 31 71 32 22 33 74 34
REMARK SMILES IDX 68 35 67 36 23 38 55 39 35 40 54 41 36 42 39 43 53 44 72 45
REMARK SMILES IDX 37 46 38 47 52 49 73 50 40 51 24 52 25 53 33 54 26 55 27 56
REMARK SMILES IDX 31 57 34 58 28 59 29 60 32 61 30 62 56 63 57 64 65 65 58 66
REMARK SMILES IDX 59 67 63 68 66 69 60 70 61 71 64 72 62 73 41 74 42 75 50 76
REMARK SMILES IDX 43 77 44 78 48 79 51 80 45 81 46 82 49 83 47 84
REMARK H PARENT 81 15 71 37 39 48
REMARK Flexibility Score: inf
ROOT
ATOM      1  C   UNL     1       7.041  -3.176  -0.103  1.00  0.00     0.275 C 
ENDROOT
BRANCH   1   2
ATOM      2  O   UNL     1       5.702  -2.666   0.043  1.00  0.00    -0.459 OA
BRANCH   2   3
ATOM      3  C   UNL     1       5.563  -1.607   0.873  1.00  0.00     0.330 C 
ATOM      4  O   UNL     1       6.447  -1.094   1.545  1.00  0.00    -0.247 OA
BRANCH   3   5
ATOM      5  C   UNL     1       4.198  -1.044   0.860  1.00  0.00     0.094 C 
ATOM      6  C   UNL     1       3.185  -1.456   0.083  1.00  0.00     0.015 C 
BRANCH   6   7
ATOM      7  C   UNL     1       1.887  -0.764   0.061  1.00  0.00    -0.025 A 
ATOM      8  C   UNL     1      -1.809  -1.706  -0.000  1.00  0.00     0.048 C 
ATOM      9  C   UNL     1      -0.560  -0.874   0.002  1.00  0.00    -0.009 A 
ATOM     10  C   UNL     1       0.697  -1.507   0.048  1.00  0.00     0.015 A 
ATOM     11  C   UNL     1      -0.600   0.524  -0.042  1.00  0.00     0.118 A 
ATOM     12  C   UNL     1       0.573   1.273  -0.051  1.00  0.00     0.047 A 
ATOM     13  C   UNL     1       1.810   0.633  -0.006  1.00  0.00     0.012 A 
BRANCH  11  14
ATOM     14  O   UNL     1      -1.764   1.237  -0.082  1.00  0.00    -0.508 OA
ATOM     15  H   UNL     1      -2.587   0.790  -0.078  1.00  0.00     0.293 HD
ENDBRANCH  11  14
ENDBRANCH   6   7
ENDBRANCH   3   5
ENDBRANCH   2   3
ENDBRANCH   1   2
BRANCH   1  16
ATOM     16  C   UNL     1       7.687  -2.695  -1.406  1.00  0.00     0.275 C 
BRANCH  16  17
ATOM     17  O   UNL     1       7.923  -1.274  -1.399  1.00  0.00    -0.458 OA
BRANCH  17  18
ATOM     18  C   UNL     1       6.919  -0.524  -1.912  1.00  0.00     0.338 C 
ATOM     19  O   UNL     1       5.875  -0.922  -2.400  1.00  0.00    -0.246 OA
BRANCH  18  20
ATOM     20  C   UNL     1       7.201   0.906  -1.695  1.00  0.00     0.060 A 
ATOM     21  C   UNL     1       6.218   1.677  -1.067  1.00  0.00     0.016 A 
ATOM     22  C   UNL     1       8.377   1.500  -2.161  1.00  0.00     0.016 A 
ATOM     23  C   UNL     1       6.405   3.049  -0.904  1.00  0.00     0.010 A 
ATOM     24  C   UNL     1       8.562   2.878  -2.001  1.00  0.00     0.010 A 
ATOM     25  C   UNL     1       7.573   3.662  -1.380  1.00  0.00    -0.014 A 
BRANCH  25  26
ATOM     26  C   UNL     1       7.732   5.132  -1.257  1.00  0.00     0.031 A 
ATOM     27  C   UNL     1       7.507   6.015  -2.450  1.00  0.00     0.074 A 
ATOM     28  C   UNL     1       8.050   5.673  -0.068  1.00  0.00     0.049 A 
ATOM     29  N   UNL     1       7.612   7.317  -2.549  1.00  0.00    -0.248 NA
ATOM     30  C   UNL     1       7.110   5.346  -3.698  1.00  0.00     0.031 C 
ATOM     31  C   UNL     1       8.267   4.922   1.167  1.00  0.00     0.029 A 
ATOM     32  N   UNL     1       8.247   6.982   0.295  1.00  0.00    -0.354 N 
ATOM     33  C   UNL     1       7.300   7.623  -3.867  1.00  0.00     0.074 A 
ATOM     34  C   UNL     1       7.025   6.369  -4.538  1.00  0.00     0.031 C 
ATOM     35  C   UNL     1       8.566   5.783   2.155  1.00  0.00     0.029 A 
ATOM     36  C   UNL     1       8.593   7.140   1.614  1.00  0.00     0.049 A 
ATOM     37  H   UNL     1       8.149   7.736  -0.331  1.00  0.00     0.167 HD
ATOM     38  C   UNL     1       7.239   8.840  -4.458  1.00  0.00     0.037 A 
ATOM     39  C   UNL     1       8.913   8.252   2.302  1.00  0.00     0.037 A 
ATOM     40  C   UNL     1       7.504  10.087  -3.789  1.00  0.00     0.049 A 
ATOM     41  C   UNL     1       8.894   9.586   1.605  1.00  0.00     0.074 A 
ATOM     42  C   UNL     1       7.442  11.372  -4.301  1.00  0.00     0.029 A 
ATOM     43  N   UNL     1       7.886  10.204  -2.461  1.00  0.00    -0.354 N 
ATOM     44  N   UNL     1       8.574   9.867   0.365  1.00  0.00    -0.248 NA
ATOM     45  C   UNL     1       9.284  10.757   2.403  1.00  0.00     0.031 C 
ATOM     46  C   UNL     1       7.829  12.264  -3.294  1.00  0.00     0.029 A 
ATOM     47  C   UNL     1       8.089  11.538  -2.143  1.00  0.00     0.049 A 
ATOM     48  H   UNL     1       7.997   9.451  -1.836  1.00  0.00     0.167 HD
ATOM     49  C   UNL     1       8.703  11.244   0.240  1.00  0.00     0.074 A 
ATOM     50  C   UNL     1       9.117  11.745   1.534  1.00  0.00     0.031 C 
ATOM     51  C   UNL     1       8.499  12.022  -0.850  1.00  0.00     0.037 A 
BRANCH  38  52
ATOM     52  C   UNL     1       6.887   8.885  -5.915  1.00  0.00     0.064 A 
ATOM     53  C   UNL     1       5.578   8.652  -6.363  1.00  0.00     0.173 A 
ATOM     54  C   UNL     1       7.861   9.211  -6.871  1.00  0.00     0.173 A 
ATOM     55  F   UNL     1       4.614   8.326  -5.489  1.00  0.00    -0.203 F 
ATOM     56  C   UNL     1       5.262   8.724  -7.717  1.00  0.00     0.198 A 
ATOM     57  C   UNL     1       7.535   9.306  -8.221  1.00  0.00     0.198 A 
ATOM     58  F   UNL     1       9.126   9.449  -6.493  1.00  0.00    -0.203 F 
ATOM     59  F   UNL     1       4.013   8.463  -8.127  1.00  0.00    -0.200 F 
ATOM     60  C   UNL     1       6.238   9.057  -8.644  1.00  0.00     0.200 A 
ATOM     61  F   UNL     1       8.478   9.639  -9.114  1.00  0.00    -0.200 F 
ATOM     62  F   UNL     1       5.930   9.134  -9.946  1.00  0.00    -0.200 F 
ENDBRANCH  38  52
BRANCH  39  63
ATOM     63  C   UNL     1       9.292   8.152   3.735  1.00  0.00     0.064 A 
ATOM     64  C   UNL     1       8.458   8.657   4.741  1.00  0.00     0.173 A 
ATOM     65  C   UNL     1      10.503   7.560   4.125  1.00  0.00     0.173 A 
ATOM     66  F   UNL     1       7.303   9.256   4.414  1.00  0.00    -0.203 F 
ATOM     67  C   UNL     1       8.826   8.586   6.082  1.00  0.00     0.198 A 
ATOM     68  C   UNL     1      10.858   7.467   5.468  1.00  0.00     0.198 A 
ATOM     69  F   UNL     1      11.338   7.066   3.199  1.00  0.00    -0.203 F 
ATOM     70  F   UNL     1       8.031   9.116   7.022  1.00  0.00    -0.200 F 
ATOM     71  C   UNL     1      10.023   7.986   6.445  1.00  0.00     0.200 A 
ATOM     72  F   UNL     1      12.011   6.879   5.815  1.00  0.00    -0.200 F 
ATOM     73  F   UNL     1      10.376   7.918   7.736  1.00  0.00    -0.200 F 
ENDBRANCH  39  63
BRANCH  51  74
ATOM     74  C   UNL     1       8.698  13.500  -0.687  1.00  0.00     0.064 A 
ATOM     75  C   UNL     1       9.980  14.059  -0.582  1.00  0.00     0.173 A 
ATOM     76  C   UNL     1       7.598  14.371  -0.679  1.00  0.00     0.173 A 
ATOM     77  F   UNL     1      11.063  13.266  -0.569  1.00  0.00    -0.203 F 
ATOM     78  C   UNL     1      10.153  15.434  -0.454  1.00  0.00     0.198 A 
ATOM     79  C   UNL     1       7.775  15.748  -0.576  1.00  0.00     0.198 A 
ATOM     80  F   UNL     1       6.352  13.886  -0.782  1.00  0.00    -0.203 F 
ATOM     81  F   UNL     1      11.384  15.944  -0.314  1.00  0.00    -0.200 F 
ATOM     82  C   UNL     1       9.051  16.278  -0.458  1.00  0.00     0.200 A 
ATOM     83  F   UNL     1       6.711  16.562  -0.590  1.00  0.00    -0.200 F 
ATOM     84  F   UNL     1       9.220  17.602  -0.341  1.00  0.00    -0.200 F 
ENDBRANCH  51  74
ENDBRANCH  25  26
ENDBRANCH  18  20
ENDBRANCH  17  18
ENDBRANCH  16  17
ENDBRANCH   1  16
TORSDOF 13
