REMARK SMILES O=C(OCCOC(=O)c1ccc(-c2c3nc(c(-c4c(F)c(F)c(F)c(F)c4F)c4ccc([nH]4)c(-c4c(F)c(F)c(F)c(F)c4F)c4nc(c(-c5c(F)c(F)c(F)c(F)c5F)c5ccc2[nH]5)C=C4)C=C3)cc1)c1ccc(C[C@H]2SC(=O)N(c3ccccc3)C2=O)cc1
REMARK SMILES IDX 4 1 3 2 2 3 1 4 72 5 73 6 91 7 74 8 90 9 75 10 76 11 77 12
REMARK SMILES IDX 78 13 88 14 79 15 81 16 89 17 80 18 82 19 83 20 87 21 84 22
REMARK SMILES IDX 86 23 85 24 5 25 6 26 7 27 8 28 9 29 10 30 71 31 11 32 70 33
REMARK SMILES IDX 12 34 13 35 14 36 64 37 15 38 69 39 63 40 65 41 16 42 68 43
REMARK SMILES IDX 62 44 61 45 17 47 49 48 29 49 48 50 30 51 33 52 47 53 66 54
REMARK SMILES IDX 31 55 32 56 46 58 67 59 34 60 18 61 19 62 27 63 20 64 21 65
REMARK SMILES IDX 25 66 28 67 22 68 23 69 26 70 24 71 50 72 51 73 59 74 52 75
REMARK SMILES IDX 53 76 57 77 60 78 54 79 55 80 58 81 56 82 35 83 36 84 44 85
REMARK SMILES IDX 37 86 38 87 42 88 45 89 39 90 40 91 43 92 41 93
REMARK H PARENT 65 46 33 57
REMARK Flexibility Score: inf
ROOT
ATOM      1  C   UNL     1       7.684  -7.994   3.721  1.00  0.00     0.275 C 
ENDROOT
BRANCH   1   2
ATOM      2  O   UNL     1       7.164  -9.119   2.982  1.00  0.00    -0.458 OA
BRANCH   2   3
ATOM      3  C   UNL     1       6.501  -9.160   1.800  1.00  0.00     0.338 C 
ATOM      4  O   UNL     1       5.885 -10.185   1.512  1.00  0.00    -0.246 OA
BRANCH   3   5
ATOM      5  C   UNL     1       6.559  -8.076   0.761  1.00  0.00     0.060 A 
ATOM      6  C   UNL     1       7.239  -6.874   0.894  1.00  0.00     0.016 A 
ATOM      7  C   UNL     1       5.966  -8.333  -0.491  1.00  0.00     0.016 A 
ATOM      8  C   UNL     1       7.435  -6.024  -0.185  1.00  0.00     0.004 A 
ATOM      9  C   UNL     1       6.060  -7.414  -1.552  1.00  0.00     0.004 A 
ATOM     10  C   UNL     1       6.809  -6.247  -1.405  1.00  0.00    -0.046 A 
BRANCH  10  11
ATOM     11  C   UNL     1       6.940  -5.203  -2.486  1.00  0.00     0.060 C 
BRANCH  11  12
ATOM     12  C   UNL     1       6.119  -3.925  -2.207  1.00  0.00     0.151 C 
ATOM     13  S   UNL     1       6.588  -3.000  -0.708  1.00  0.00    -0.050 SA
ATOM     14  C   UNL     1       6.351  -2.930  -3.322  1.00  0.00     0.248 C 
ATOM     15  C   UNL     1       7.594  -1.893  -1.611  1.00  0.00     0.293 C 
ATOM     16  N   UNL     1       7.187  -1.894  -2.926  1.00  0.00    -0.240 N 
ATOM     17  O   UNL     1       5.902  -3.126  -4.449  1.00  0.00    -0.273 OA
ATOM     18  O   UNL     1       8.455  -1.245  -1.059  1.00  0.00    -0.261 OA
BRANCH  16  19
ATOM     19  C   UNL     1       7.571  -0.855  -3.814  1.00  0.00     0.053 A 
ATOM     20  C   UNL     1       6.622  -0.308  -4.689  1.00  0.00     0.027 A 
ATOM     21  C   UNL     1       8.864  -0.315  -3.800  1.00  0.00     0.027 A 
ATOM     22  C   UNL     1       6.952   0.761  -5.522  1.00  0.00     0.002 A 
ATOM     23  C   UNL     1       9.204   0.732  -4.660  1.00  0.00     0.002 A 
ATOM     24  C   UNL     1       8.246   1.274  -5.514  1.00  0.00     0.000 A 
ENDBRANCH  16  19
ENDBRANCH  11  12
ENDBRANCH  10  11
ENDBRANCH   3   5
ENDBRANCH   2   3
ENDBRANCH   1   2
BRANCH   1  25
ATOM     25  C   UNL     1       9.204  -7.809   3.541  1.00  0.00     0.275 C 
BRANCH  25  26
ATOM     26  O   UNL     1       9.614  -7.786   2.156  1.00  0.00    -0.458 OA
BRANCH  26  27
ATOM     27  C   UNL     1       9.921  -8.991   1.609  1.00  0.00     0.338 C 
ATOM     28  O   UNL     1      10.062 -10.037   2.218  1.00  0.00    -0.246 OA
BRANCH  27  29
ATOM     29  C   UNL     1       9.911  -8.912   0.120  1.00  0.00     0.060 A 
ATOM     30  C   UNL     1       9.436 -10.023  -0.590  1.00  0.00     0.016 A 
ATOM     31  C   UNL     1      10.340  -7.783  -0.586  1.00  0.00     0.016 A 
ATOM     32  C   UNL     1       9.425 -10.026  -1.992  1.00  0.00     0.010 A 
ATOM     33  C   UNL     1      10.310  -7.780  -1.991  1.00  0.00     0.010 A 
ATOM     34  C   UNL     1       9.886  -8.915  -2.711  1.00  0.00    -0.014 A 
BRANCH  34  35
ATOM     35  C   UNL     1      10.084  -8.993  -4.191  1.00  0.00     0.031 A 
ATOM     36  C   UNL     1      11.486  -9.110  -4.733  1.00  0.00     0.074 A 
ATOM     37  C   UNL     1       9.058  -8.979  -5.066  1.00  0.00     0.049 A 
ATOM     38  N   UNL     1      11.900  -9.164  -5.976  1.00  0.00    -0.248 NA
ATOM     39  C   UNL     1      12.565  -9.172  -3.737  1.00  0.00     0.031 C 
ATOM     40  C   UNL     1       7.645  -8.918  -4.713  1.00  0.00     0.029 A 
ATOM     41  N   UNL     1       9.055  -9.008  -6.444  1.00  0.00    -0.354 N 
ATOM     42  C   UNL     1      13.283  -9.266  -5.908  1.00  0.00     0.074 A 
ATOM     43  C   UNL     1      13.641  -9.209  -4.507  1.00  0.00     0.031 C 
ATOM     44  C   UNL     1       6.910  -8.890  -5.839  1.00  0.00     0.029 A 
ATOM     45  C   UNL     1       7.801  -8.921  -7.000  1.00  0.00     0.049 A 
ATOM     46  H   UNL     1       9.877  -9.085  -6.981  1.00  0.00     0.167 HD
ATOM     47  C   UNL     1      14.180  -9.420  -6.913  1.00  0.00     0.037 A 
ATOM     48  C   UNL     1       7.412  -8.866  -8.291  1.00  0.00     0.037 A 
ATOM     49  C   UNL     1      13.849  -9.488  -8.312  1.00  0.00     0.049 A 
ATOM     50  C   UNL     1       8.435  -8.949  -9.399  1.00  0.00     0.074 A 
ATOM     51  C   UNL     1      14.699  -9.673  -9.389  1.00  0.00     0.029 A 
ATOM     52  N   UNL     1      12.570  -9.363  -8.831  1.00  0.00    -0.354 N 
ATOM     53  N   UNL     1       9.734  -9.097  -9.320  1.00  0.00    -0.248 NA
ATOM     54  C   UNL     1       7.931  -8.872 -10.781  1.00  0.00     0.031 C 
ATOM     55  C   UNL     1      13.944  -9.599 -10.563  1.00  0.00     0.029 A 
ATOM     56  C   UNL     1      12.614  -9.434 -10.216  1.00  0.00     0.049 A 
ATOM     57  H   UNL     1      11.752  -9.242  -8.297  1.00  0.00     0.167 HD
ATOM     58  C   UNL     1      10.193  -9.178 -10.632  1.00  0.00     0.074 A 
ATOM     59  C   UNL     1       9.035  -9.063 -11.489  1.00  0.00     0.031 C 
ATOM     60  C   UNL     1      11.463  -9.343 -11.077  1.00  0.00     0.037 A 
BRANCH  47  61
ATOM     61  C   UNL     1      15.627  -9.508  -6.527  1.00  0.00     0.064 A 
ATOM     62  C   UNL     1      16.144 -10.626  -5.853  1.00  0.00     0.173 A 
ATOM     63  C   UNL     1      16.511  -8.466  -6.847  1.00  0.00     0.173 A 
ATOM     64  F   UNL     1      15.338 -11.642  -5.513  1.00  0.00    -0.203 F 
ATOM     65  C   UNL     1      17.484 -10.678  -5.479  1.00  0.00     0.198 A 
ATOM     66  C   UNL     1      17.857  -8.539  -6.502  1.00  0.00     0.198 A 
ATOM     67  F   UNL     1      16.069  -7.380  -7.497  1.00  0.00    -0.203 F 
ATOM     68  F   UNL     1      17.942 -11.726  -4.780  1.00  0.00    -0.200 F 
ATOM     69  C   UNL     1      18.340  -9.638  -5.808  1.00  0.00     0.200 A 
ATOM     70  F   UNL     1      18.686  -7.539  -6.834  1.00  0.00    -0.200 F 
ATOM     71  F   UNL     1      19.629  -9.690  -5.448  1.00  0.00    -0.200 F 
ENDBRANCH  47  61
BRANCH  48  72
ATOM     72  C   UNL     1       5.968  -8.730  -8.630  1.00  0.00     0.064 A 
ATOM     73  C   UNL     1       5.269  -9.772  -9.255  1.00  0.00     0.173 A 
ATOM     74  C   UNL     1       5.274  -7.536  -8.383  1.00  0.00     0.173 A 
ATOM     75  F   UNL     1       5.897 -10.921  -9.544  1.00  0.00    -0.203 F 
ATOM     76  C   UNL     1       3.938  -9.618  -9.642  1.00  0.00     0.198 A 
ATOM     77  C   UNL     1       3.936  -7.393  -8.744  1.00  0.00     0.198 A 
ATOM     78  F   UNL     1       5.899  -6.507  -7.794  1.00  0.00    -0.203 F 
ATOM     79  F   UNL     1       3.312 -10.609 -10.289  1.00  0.00    -0.200 F 
ATOM     80  C   UNL     1       3.272  -8.430  -9.382  1.00  0.00     0.200 A 
ATOM     81  F   UNL     1       3.293  -6.246  -8.485  1.00  0.00    -0.200 F 
ATOM     82  F   UNL     1       1.994  -8.280  -9.757  1.00  0.00    -0.200 F 
ENDBRANCH  48  72
BRANCH  60  83
ATOM     83  C   UNL     1      11.685  -9.472 -12.560  1.00  0.00     0.064 A 
ATOM     84  C   UNL     1      11.536  -8.384 -13.433  1.00  0.00     0.173 A 
ATOM     85  C   UNL     1      12.119 -10.691 -13.106  1.00  0.00     0.173 A 
ATOM     86  F   UNL     1      11.113  -7.199 -12.969  1.00  0.00    -0.203 F 
ATOM     87  C   UNL     1      11.794  -8.517 -14.796  1.00  0.00     0.198 A 
ATOM     88  C   UNL     1      12.406 -10.812 -14.463  1.00  0.00     0.198 A 
ATOM     89  F   UNL     1      12.286 -11.764 -12.317  1.00  0.00    -0.203 F 
ATOM     90  F   UNL     1      11.606  -7.474 -15.617  1.00  0.00    -0.200 F 
ATOM     91  C   UNL     1      12.238  -9.727 -15.308  1.00  0.00     0.200 A 
ATOM     92  F   UNL     1      12.852 -11.978 -14.952  1.00  0.00    -0.200 F 
ATOM     93  F   UNL     1      12.501  -9.847 -16.617  1.00  0.00    -0.200 F 
ENDBRANCH  60  83
ENDBRANCH  34  35
ENDBRANCH  27  29
ENDBRANCH  26  27
ENDBRANCH  25  26
ENDBRANCH   1  25
TORSDOF 14
