REMARK SMILES COC[C@H]1CC[N@@H+]([C@H]2CCC[C@]([NH2+]C(C)C)(C(=O)OCCOC(=O)c3ccc(-c4c5nc(c(-c6c(F)c(F)c(F)c(F)c6F)c6ccc([nH]6)c(-c6c(F)c(F)c(F)c(F)c6F)c6nc(c(-c7c(F)c(F)c(F)c(F)c7F)c7ccc4[nH]7)C=C6)C=C5)cc3)C2)C1
REMARK SMILES IDX 20 1 19 2 17 3 18 4 12 5 8 6 9 7 88 8 10 9 11 10 7 11 4 12
REMARK SMILES IDX 5 13 89 14 6 15 3 17 2 18 1 19 13 20 14 23 15 24 16 25 21 26
REMARK SMILES IDX 22 27 23 28 24 29 25 30 26 31 87 32 27 33 86 34 28 35 29 36
REMARK SMILES IDX 30 37 80 38 31 39 85 40 79 41 81 42 32 43 84 44 78 45 77 46
REMARK SMILES IDX 33 48 65 49 45 50 64 51 46 52 49 53 63 54 82 55 47 56 48 57
REMARK SMILES IDX 62 59 83 60 50 61 34 62 35 63 43 64 36 65 37 66 41 67 44 68
REMARK SMILES IDX 38 69 39 70 42 71 40 72 66 73 67 74 75 75 68 76 69 77 73 78
REMARK SMILES IDX 76 79 70 80 71 81 74 82 72 83 51 84 52 85 60 86 53 87 54 88
REMARK SMILES IDX 58 89 61 90 55 91 56 92 59 93 57 94
REMARK H PARENT 7 16 13 21 13 22 81 47 49 58
REMARK Flexibility Score: inf
ROOT
ATOM      1  C   UNL     1       0.402  -6.867   3.249  1.00  0.00     0.274 C 
ENDROOT
BRANCH   1   2
ATOM      2  O   UNL     1      -0.011  -5.520   3.510  1.00  0.00    -0.457 OA
BRANCH   2   3
ATOM      3  C   UNL     1      -0.854  -4.886   2.647  1.00  0.00     0.368 C 
ATOM      4  O   UNL     1      -1.180  -5.355   1.565  1.00  0.00    -0.245 OA
BRANCH   3   5
ATOM      5  C   UNL     1      -1.381  -3.537   3.281  1.00  0.00     0.200 C 
ATOM      6  C   UNL     1      -1.455  -0.916   2.934  1.00  0.00     0.190 C 
ATOM      7  C   UNL     1      -0.191  -0.739   3.779  1.00  0.00     0.065 C 
ATOM      8  C   UNL     1      -1.387  -2.348   2.296  1.00  0.00     0.146 C 
ATOM      9  C   UNL     1      -0.105  -1.749   4.895  1.00  0.00     0.013 C 
ATOM     10  C   UNL     1      -0.367  -3.183   4.448  1.00  0.00     0.081 C 
BRANCH   6  11
ATOM     11  N   UNL     1      -2.733  -0.411   3.526  1.00  0.00    -0.332 N 
ATOM     12  C   UNL     1      -3.532   0.239   5.757  1.00  0.00     0.076 C 
ATOM     13  C   UNL     1      -2.619   1.313   5.208  1.00  0.00     0.073 C 
ATOM     14  C   UNL     1      -3.266  -0.926   4.807  1.00  0.00     0.268 C 
ATOM     15  C   UNL     1      -2.700   1.061   3.706  1.00  0.00     0.263 C 
ATOM     16  H   UNL     1      -3.358  -0.782   2.811  1.00  0.00     0.348 HD
BRANCH  12  17
ATOM     17  C   UNL     1      -3.357  -0.114   7.238  1.00  0.00     0.169 C 
BRANCH  17  18
ATOM     18  O   UNL     1      -2.014  -0.481   7.545  1.00  0.00    -0.384 OA
ATOM     19  C   UNL     1      -1.909  -1.763   8.156  1.00  0.00     0.194 C 
ENDBRANCH  17  18
ENDBRANCH  12  17
ENDBRANCH   6  11
BRANCH   5  20
ATOM     20  N   UNL     1      -2.784  -3.706   3.779  1.00  0.00    -0.330 N 
ATOM     21  H   UNL     1      -3.192  -2.772   3.812  1.00  0.00     0.347 HD
ATOM     22  H   UNL     1      -2.647  -4.210   4.655  1.00  0.00     0.347 HD
BRANCH  20  23
ATOM     23  C   UNL     1      -3.758  -4.561   3.067  1.00  0.00     0.176 C 
ATOM     24  C   UNL     1      -5.103  -4.368   3.800  1.00  0.00     0.075 C 
ATOM     25  C   UNL     1      -4.040  -4.225   1.597  1.00  0.00     0.075 C 
ENDBRANCH  20  23
ENDBRANCH   5  20
ENDBRANCH   3   5
ENDBRANCH   2   3
ENDBRANCH   1   2
BRANCH   1  26
ATOM     26  C   UNL     1       0.628  -7.529   4.611  1.00  0.00     0.275 C 
BRANCH  26  27
ATOM     27  O   UNL     1      -0.602  -7.528   5.370  1.00  0.00    -0.458 OA
BRANCH  27  28
ATOM     28  C   UNL     1      -0.692  -6.591   6.343  1.00  0.00     0.338 C 
ATOM     29  O   UNL     1       0.170  -5.803   6.711  1.00  0.00    -0.246 OA
BRANCH  28  30
ATOM     30  C   UNL     1      -2.048  -6.605   6.913  1.00  0.00     0.060 A 
ATOM     31  C   UNL     1      -2.850  -5.468   6.786  1.00  0.00     0.016 A 
ATOM     32  C   UNL     1      -2.499  -7.707   7.642  1.00  0.00     0.016 A 
ATOM     33  C   UNL     1      -4.113  -5.429   7.378  1.00  0.00     0.010 A 
ATOM     34  C   UNL     1      -3.764  -7.667   8.236  1.00  0.00     0.010 A 
ATOM     35  C   UNL     1      -4.577  -6.528   8.107  1.00  0.00    -0.014 A 
BRANCH  35  36
ATOM     36  C   UNL     1      -5.899  -6.479   8.772  1.00  0.00     0.031 A 
ATOM     37  C   UNL     1      -5.987  -6.129  10.226  1.00  0.00     0.074 A 
ATOM     38  C   UNL     1      -7.013  -6.766   8.077  1.00  0.00     0.049 A 
ATOM     39  N   UNL     1      -7.024  -6.152  11.023  1.00  0.00    -0.248 NA
ATOM     40  C   UNL     1      -4.739  -5.691  10.868  1.00  0.00     0.031 C 
ATOM     41  C   UNL     1      -7.059  -7.066   6.647  1.00  0.00     0.029 A 
ATOM     42  N   UNL     1      -8.317  -6.877   8.490  1.00  0.00    -0.354 N 
ATOM     43  C   UNL     1      -6.554  -5.747  12.264  1.00  0.00     0.074 A 
ATOM     44  C   UNL     1      -5.137  -5.488  12.116  1.00  0.00     0.031 C 
ATOM     45  C   UNL     1      -8.325  -7.363   6.307  1.00  0.00     0.029 A 
ATOM     46  C   UNL     1      -9.165  -7.312   7.502  1.00  0.00     0.049 A 
ATOM     47  H   UNL     1      -8.615  -6.666   9.404  1.00  0.00     0.167 HD
ATOM     48  C   UNL     1      -7.245  -5.613  13.421  1.00  0.00     0.037 A 
ATOM     49  C   UNL     1     -10.463  -7.669   7.566  1.00  0.00     0.037 A 
ATOM     50  C   UNL     1      -8.652  -5.879  13.566  1.00  0.00     0.049 A 
ATOM     51  C   UNL     1     -11.191  -7.585   8.880  1.00  0.00     0.074 A 
ATOM     52  C   UNL     1      -9.443  -5.754  14.694  1.00  0.00     0.029 A 
ATOM     53  N   UNL     1      -9.476  -6.338  12.549  1.00  0.00    -0.354 N 
ATOM     54  N   UNL     1     -10.746  -7.192  10.049  1.00  0.00    -0.248 NA
ATOM     55  C   UNL     1     -12.602  -8.000   8.886  1.00  0.00     0.031 C 
ATOM     56  C   UNL     1     -10.736  -6.182  14.372  1.00  0.00     0.029 A 
ATOM     57  C   UNL     1     -10.761  -6.530  13.031  1.00  0.00     0.049 A 
ATOM     58  H   UNL     1      -9.190  -6.503  11.621  1.00  0.00     0.167 HD
ATOM     59  C   UNL     1     -11.820  -7.293  10.922  1.00  0.00     0.074 A 
ATOM     60  C   UNL     1     -12.945  -7.775  10.147  1.00  0.00     0.031 C 
ATOM     61  C   UNL     1     -11.870  -7.009  12.247  1.00  0.00     0.037 A 
BRANCH  48  62
ATOM     62  C   UNL     1      -6.471  -5.199  14.635  1.00  0.00     0.064 A 
ATOM     63  C   UNL     1      -6.020  -3.883  14.811  1.00  0.00     0.173 A 
ATOM     64  C   UNL     1      -6.193  -6.132  15.646  1.00  0.00     0.173 A 
ATOM     65  F   UNL     1      -6.247  -2.960  13.865  1.00  0.00    -0.203 F 
ATOM     66  C   UNL     1      -5.297  -3.522  15.945  1.00  0.00     0.198 A 
ATOM     67  C   UNL     1      -5.490  -5.762  16.788  1.00  0.00     0.198 A 
ATOM     68  F   UNL     1      -6.606  -7.403  15.524  1.00  0.00    -0.203 F 
ATOM     69  F   UNL     1      -4.838  -2.269  16.073  1.00  0.00    -0.200 F 
ATOM     70  C   UNL     1      -5.037  -4.459  16.934  1.00  0.00     0.200 A 
ATOM     71  F   UNL     1      -5.246  -6.667  17.746  1.00  0.00    -0.200 F 
ATOM     72  F   UNL     1      -4.340  -4.109  18.024  1.00  0.00    -0.200 F 
ENDBRANCH  48  62
BRANCH  49  73
ATOM     73  C   UNL     1     -11.143  -8.181   6.349  1.00  0.00     0.064 A 
ATOM     74  C   UNL     1     -12.125  -7.426   5.697  1.00  0.00     0.173 A 
ATOM     75  C   UNL     1     -10.820  -9.438   5.816  1.00  0.00     0.173 A 
ATOM     76  F   UNL     1     -12.486  -6.231   6.186  1.00  0.00    -0.203 F 
ATOM     77  C   UNL     1     -12.766  -7.912   4.559  1.00  0.00     0.198 A 
ATOM     78  C   UNL     1     -11.444  -9.912   4.665  1.00  0.00     0.198 A 
ATOM     79  F   UNL     1      -9.889 -10.200   6.409  1.00  0.00    -0.203 F 
ATOM     80  F   UNL     1     -13.728  -7.187   3.973  1.00  0.00    -0.200 F 
ATOM     81  C   UNL     1     -12.420  -9.152   4.040  1.00  0.00     0.200 A 
ATOM     82  F   UNL     1     -11.099 -11.106   4.162  1.00  0.00    -0.200 F 
ATOM     83  F   UNL     1     -13.032  -9.616   2.942  1.00  0.00    -0.200 F 
ENDBRANCH  49  73
BRANCH  61  84
ATOM     84  C   UNL     1     -13.189  -7.187  12.940  1.00  0.00     0.064 A 
ATOM     85  C   UNL     1     -13.688  -8.459  13.253  1.00  0.00     0.173 A 
ATOM     86  C   UNL     1     -13.937  -6.069  13.340  1.00  0.00     0.173 A 
ATOM     87  F   UNL     1     -13.017  -9.559  12.878  1.00  0.00    -0.203 F 
ATOM     88  C   UNL     1     -14.897  -8.606  13.928  1.00  0.00     0.198 A 
ATOM     89  C   UNL     1     -15.133  -6.220  14.036  1.00  0.00     0.198 A 
ATOM     90  F   UNL     1     -13.499  -4.831  13.068  1.00  0.00    -0.203 F 
ATOM     91  F   UNL     1     -15.374  -9.832  14.186  1.00  0.00    -0.200 F 
ATOM     92  C   UNL     1     -15.615  -7.487  14.325  1.00  0.00     0.200 A 
ATOM     93  F   UNL     1     -15.820  -5.137  14.428  1.00  0.00    -0.200 F 
ATOM     94  F   UNL     1     -16.774  -7.631  14.982  1.00  0.00    -0.200 F 
ENDBRANCH  61  84
ENDBRANCH  35  36
ENDBRANCH  28  30
ENDBRANCH  27  28
ENDBRANCH  26  27
ENDBRANCH   1  26
TORSDOF 16
