REMARK SMILES O=C(OCCOC(=O)c1cccc([C@@H]2CCC[N@@H+](Cc3cccc(OCCO)c3)C2)c1)c1ccc(-c2c3nc(c(-c4c(F)c(F)c(F)c(F)c4F)c4ccc([nH]4)c(-c4c(F)c(F)c(F)c(F)c4F)c4nc(c(-c5c(F)c(F)c(F)c(F)c5F)c5ccc2[nH]5)C=C4)C=C3)cc1
REMARK SMILES IDX 7 1 8 2 6 3 5 4 4 5 3 6 2 7 1 8 32 9 33 10 94 11 34 12 93 13
REMARK SMILES IDX 35 14 36 15 37 16 87 17 38 18 92 19 86 20 88 21 39 22 91 23
REMARK SMILES IDX 85 24 84 25 40 27 72 28 52 29 71 30 53 31 56 32 70 33 89 34
REMARK SMILES IDX 54 35 55 36 69 38 90 39 57 40 41 41 42 42 50 43 43 44 44 45
REMARK SMILES IDX 48 46 51 47 45 48 46 49 49 50 47 51 73 52 74 53 82 54 75 55
REMARK SMILES IDX 76 56 80 57 83 58 77 59 78 60 81 61 79 62 58 63 59 64 67 65
REMARK SMILES IDX 60 66 61 67 65 68 68 69 62 70 63 71 66 72 64 73 9 74 10 75
REMARK SMILES IDX 31 76 11 77 13 78 12 79 14 80 15 81 30 82 16 83 18 84 17 85
REMARK SMILES IDX 19 87 20 88 21 89 29 90 22 91 24 92 23 93 25 94 26 95 27 96
REMARK SMILES IDX 28 97
REMARK H PARENT 88 26 56 37 18 86 28 98
REMARK Flexibility Score: inf
ROOT
ATOM      1  C   UNL     1       2.082  -1.733   0.310  1.00  0.00     0.338 C 
ATOM      2  O   UNL     1       1.309  -1.285   1.136  1.00  0.00    -0.246 OA
ENDROOT
BRANCH   1   3
ATOM      3  O   UNL     1       3.441  -1.704   0.344  1.00  0.00    -0.458 OA
BRANCH   3   4
ATOM      4  C   UNL     1       4.023  -1.073   1.484  1.00  0.00     0.275 C 
BRANCH   4   5
ATOM      5  C   UNL     1       4.431   0.362   1.175  1.00  0.00     0.275 C 
BRANCH   5   6
ATOM      6  O   UNL     1       3.377   1.154   0.591  1.00  0.00    -0.458 OA
BRANCH   6   7
ATOM      7  C   UNL     1       2.912   1.301  -0.670  1.00  0.00     0.338 C 
ATOM      8  O   UNL     1       1.919   2.014  -0.828  1.00  0.00    -0.246 OA
BRANCH   7   9
ATOM      9  C   UNL     1       3.486   0.677  -1.914  1.00  0.00     0.060 A 
ATOM     10  C   UNL     1       4.749   0.108  -2.058  1.00  0.00     0.016 A 
ATOM     11  C   UNL     1       2.685   0.748  -3.078  1.00  0.00     0.016 A 
ATOM     12  C   UNL     1       5.189  -0.369  -3.307  1.00  0.00     0.010 A 
ATOM     13  C   UNL     1       3.116   0.263  -4.325  1.00  0.00     0.010 A 
ATOM     14  C   UNL     1       4.381  -0.306  -4.452  1.00  0.00    -0.014 A 
BRANCH  14  15
ATOM     15  C   UNL     1       4.962  -0.691  -5.773  1.00  0.00     0.031 A 
ATOM     16  C   UNL     1       5.950   0.245  -6.388  1.00  0.00     0.074 A 
ATOM     17  C   UNL     1       4.626  -1.831  -6.412  1.00  0.00     0.049 A 
ATOM     18  N   UNL     1       6.739   0.060  -7.409  1.00  0.00    -0.248 NA
ATOM     19  C   UNL     1       6.013   1.593  -5.800  1.00  0.00     0.031 C 
ATOM     20  C   UNL     1       3.546  -2.691  -5.979  1.00  0.00     0.029 A 
ATOM     21  N   UNL     1       5.142  -2.500  -7.505  1.00  0.00    -0.354 N 
ATOM     22  C   UNL     1       7.317   1.297  -7.651  1.00  0.00     0.074 A 
ATOM     23  C   UNL     1       6.861   2.199  -6.616  1.00  0.00     0.031 C 
ATOM     24  C   UNL     1       3.576  -3.839  -6.671  1.00  0.00     0.029 A 
ATOM     25  C   UNL     1       4.646  -3.791  -7.655  1.00  0.00     0.049 A 
ATOM     26  H   UNL     1       5.799  -2.100  -8.119  1.00  0.00     0.167 HD
ATOM     27  C   UNL     1       8.084   1.655  -8.705  1.00  0.00     0.037 A 
ATOM     28  C   UNL     1       5.060  -4.807  -8.458  1.00  0.00     0.037 A 
ATOM     29  C   UNL     1       8.491   0.735  -9.731  1.00  0.00     0.049 A 
ATOM     30  C   UNL     1       6.139  -4.428  -9.457  1.00  0.00     0.074 A 
ATOM     31  C   UNL     1       9.231   0.978 -10.872  1.00  0.00     0.029 A 
ATOM     32  N   UNL     1       8.173  -0.619  -9.735  1.00  0.00    -0.354 N 
ATOM     33  N   UNL     1       6.867  -3.336  -9.517  1.00  0.00    -0.248 NA
ATOM     34  C   UNL     1       6.456  -5.410 -10.502  1.00  0.00     0.031 C 
ATOM     35  C   UNL     1       9.323  -0.221 -11.589  1.00  0.00     0.029 A 
ATOM     36  C   UNL     1       8.676  -1.219 -10.875  1.00  0.00     0.049 A 
ATOM     37  H   UNL     1       7.665  -1.081  -9.030  1.00  0.00     0.167 HD
ATOM     38  C   UNL     1       7.726  -3.508 -10.593  1.00  0.00     0.074 A 
ATOM     39  C   UNL     1       7.531  -4.868 -11.054  1.00  0.00     0.031 C 
ATOM     40  C   UNL     1       8.531  -2.611 -11.218  1.00  0.00     0.037 A 
BRANCH  27  41
ATOM     41  C   UNL     1       8.373   3.118  -8.857  1.00  0.00     0.064 A 
ATOM     42  C   UNL     1       9.257   3.804  -8.012  1.00  0.00     0.173 A 
ATOM     43  C   UNL     1       7.680   3.861  -9.826  1.00  0.00     0.173 A 
ATOM     44  F   UNL     1       9.911   3.147  -7.043  1.00  0.00    -0.203 F 
ATOM     45  C   UNL     1       9.409   5.186  -8.109  1.00  0.00     0.198 A 
ATOM     46  C   UNL     1       7.855   5.237  -9.937  1.00  0.00     0.198 A 
ATOM     47  F   UNL     1       6.809   3.256 -10.647  1.00  0.00    -0.203 F 
ATOM     48  F   UNL     1      10.202   5.833  -7.244  1.00  0.00    -0.200 F 
ATOM     49  C   UNL     1       8.710   5.901  -9.071  1.00  0.00     0.200 A 
ATOM     50  F   UNL     1       7.175   5.924 -10.866  1.00  0.00    -0.200 F 
ATOM     51  F   UNL     1       8.843   7.232  -9.150  1.00  0.00    -0.200 F 
ENDBRANCH  27  41
BRANCH  28  52
ATOM     52  C   UNL     1       4.633  -6.261  -8.271  1.00  0.00     0.064 A 
ATOM     53  C   UNL     1       5.594  -7.298  -8.249  1.00  0.00     0.173 A 
ATOM     54  C   UNL     1       3.321  -6.685  -8.014  1.00  0.00     0.173 A 
ATOM     55  F   UNL     1       6.881  -7.032  -8.515  1.00  0.00    -0.203 F 
ATOM     56  C   UNL     1       5.298  -8.614  -7.882  1.00  0.00     0.198 A 
ATOM     57  C   UNL     1       3.026  -7.990  -7.586  1.00  0.00     0.198 A 
ATOM     58  F   UNL     1       2.292  -5.841  -8.168  1.00  0.00    -0.203 F 
ATOM     59  F   UNL     1       6.277  -9.529  -7.847  1.00  0.00    -0.200 F 
ATOM     60  C   UNL     1       4.018  -8.951  -7.505  1.00  0.00     0.200 A 
ATOM     61  F   UNL     1       1.773  -8.305  -7.230  1.00  0.00    -0.200 F 
ATOM     62  F   UNL     1       3.742 -10.188  -7.070  1.00  0.00    -0.200 F 
ENDBRANCH  28  52
BRANCH  40  63
ATOM     63  C   UNL     1       9.257  -3.097 -12.441  1.00  0.00     0.064 A 
ATOM     64  C   UNL     1       8.558  -3.436 -13.611  1.00  0.00     0.173 A 
ATOM     65  C   UNL     1      10.656  -3.185 -12.461  1.00  0.00     0.173 A 
ATOM     66  F   UNL     1       7.218  -3.366 -13.642  1.00  0.00    -0.203 F 
ATOM     67  C   UNL     1       9.228  -3.899 -14.737  1.00  0.00     0.198 A 
ATOM     68  C   UNL     1      11.326  -3.610 -13.605  1.00  0.00     0.198 A 
ATOM     69  F   UNL     1      11.372  -2.850 -11.378  1.00  0.00    -0.203 F 
ATOM     70  F   UNL     1       8.532  -4.285 -15.815  1.00  0.00    -0.200 F 
ATOM     71  C   UNL     1      10.611  -3.980 -14.736  1.00  0.00     0.200 A 
ATOM     72  F   UNL     1      12.665  -3.667 -13.614  1.00  0.00    -0.200 F 
ATOM     73  F   UNL     1      11.256  -4.421 -15.824  1.00  0.00    -0.200 F 
ENDBRANCH  40  63
ENDBRANCH  14  15
ENDBRANCH   7   9
ENDBRANCH   6   7
ENDBRANCH   5   6
ENDBRANCH   4   5
ENDBRANCH   3   4
ENDBRANCH   1   3
BRANCH   1  74
ATOM     74  C   UNL     1       1.685  -2.327  -0.979  1.00  0.00     0.060 A 
ATOM     75  C   UNL     1       0.639  -1.781  -1.718  1.00  0.00     0.016 A 
ATOM     76  C   UNL     1       2.424  -3.399  -1.482  1.00  0.00     0.020 A 
ATOM     77  C   UNL     1       0.352  -2.311  -2.975  1.00  0.00     0.001 A 
ATOM     78  C   UNL     1       2.178  -3.924  -2.750  1.00  0.00    -0.038 A 
ATOM     79  C   UNL     1       1.106  -3.381  -3.481  1.00  0.00     0.004 A 
BRANCH  78  80
ATOM     80  C   UNL     1       3.117  -4.968  -3.351  1.00  0.00     0.074 C 
ATOM     81  C   UNL     1       3.051  -6.348  -2.681  1.00  0.00     0.020 C 
ATOM     82  C   UNL     1       4.591  -4.469  -3.417  1.00  0.00     0.270 C 
ATOM     83  C   UNL     1       3.913  -6.467  -1.421  1.00  0.00     0.062 C 
ATOM     84  N   UNL     1       5.248  -4.526  -2.115  1.00  0.00    -0.331 N 
ATOM     85  C   UNL     1       5.321  -5.875  -1.578  1.00  0.00     0.262 C 
ATOM     86  H   UNL     1       4.613  -4.048  -1.475  1.00  0.00     0.348 HD
BRANCH  84  87
ATOM     87  C   UNL     1       6.416  -3.667  -1.939  1.00  0.00     0.299 C 
BRANCH  87  88
ATOM     88  C   UNL     1       7.731  -4.144  -2.497  1.00  0.00     0.010 A 
ATOM     89  C   UNL     1       8.679  -4.742  -1.653  1.00  0.00     0.010 A 
ATOM     90  C   UNL     1       8.024  -4.025  -3.860  1.00  0.00     0.056 A 
ATOM     91  C   UNL     1       9.885  -5.229  -2.159  1.00  0.00     0.004 A 
ATOM     92  C   UNL     1       9.176  -4.629  -4.374  1.00  0.00     0.119 A 
ATOM     93  C   UNL     1      10.133  -5.178  -3.525  1.00  0.00     0.046 A 
BRANCH  92  94
ATOM     94  O   UNL     1       9.368  -4.875  -5.706  1.00  0.00    -0.491 OA
BRANCH  94  95
ATOM     95  C   UNL     1       8.186  -5.342  -6.356  1.00  0.00     0.257 C 
BRANCH  95  96
ATOM     96  C   UNL     1       7.614  -6.696  -5.869  1.00  0.00     0.197 C 
BRANCH  96  97
ATOM     97  O   UNL     1       7.709  -7.061  -4.505  1.00  0.00    -0.393 OA
ATOM     98  H   UNL     1       8.641  -7.189  -4.269  1.00  0.00     0.210 HD
ENDBRANCH  96  97
ENDBRANCH  95  96
ENDBRANCH  94  95
ENDBRANCH  92  94
ENDBRANCH  87  88
ENDBRANCH  84  87
ENDBRANCH  78  80
ENDBRANCH   1  74
TORSDOF 18
