REMARK SMILES COC(=O)c1c(NC(=O)[C@@H]2[C@H]3CC[C@H](CC3)[C@H]2C(=O)OCCOC(=O)c2ccc(-c3c4nc(c(-c5c(F)c(F)c(F)c(F)c5F)c5ccc([nH]5)c(-c5c(F)c(F)c(F)c(F)c5F)c5nc(c(-c6c(F)c(F)c(F)c(F)c6F)c6ccc3[nH]6)C=C5)C=C4)cc2)sc(C)c1-c1ccc(C)cc1
REMARK SMILES IDX 21 1 20 2 18 3 19 4 17 5 10 6 11 7 12 8 16 9 14 10 13 11
REMARK SMILES IDX 15 12 8 13 7 14 9 16 6 17 5 18 92 19 89 20 90 21 91 22 3 23
REMARK SMILES IDX 4 24 2 25 1 26 93 27 94 28 99 29 95 30 98 31 96 32 97 33
REMARK SMILES IDX 22 34 23 35 24 36 25 37 26 38 27 39 88 40 28 41 87 42 29 43
REMARK SMILES IDX 30 44 31 45 81 46 32 47 86 48 80 49 82 50 33 51 85 52 79 53
REMARK SMILES IDX 78 54 34 56 66 57 46 58 65 59 47 60 50 61 64 62 83 63 48 64
REMARK SMILES IDX 49 65 63 67 84 68 51 69 35 70 36 71 44 72 37 73 38 74 42 75
REMARK SMILES IDX 45 76 39 77 40 78 43 79 41 80 67 81 68 82 76 83 69 84 70 85
REMARK SMILES IDX 74 86 77 87 71 88 72 89 75 90 73 91 52 92 53 93 61 94 54 95
REMARK SMILES IDX 55 96 59 97 62 98 56 99 57 100 60 101 58 102
REMARK H PARENT 7 15 82 55 50 66
REMARK Flexibility Score: inf
ROOT
ATOM      1  C   UNL     1       4.606   8.470  -1.345  1.00  0.00     0.274 C 
ENDROOT
BRANCH   1   2
ATOM      2  O   UNL     1       3.560   7.890  -2.158  1.00  0.00    -0.462 OA
BRANCH   2   3
ATOM      3  C   UNL     1       3.249   8.568  -3.294  1.00  0.00     0.310 C 
ATOM      4  O   UNL     1       3.715   9.667  -3.583  1.00  0.00    -0.252 OA
BRANCH   3   5
ATOM      5  C   UNL     1       2.232   7.873  -4.192  1.00  0.00     0.115 C 
ATOM      6  C   UNL     1       2.199   6.309  -4.190  1.00  0.00     0.096 C 
ATOM      7  C   UNL     1       0.728   5.862  -3.906  1.00  0.00     0.002 C 
ATOM      8  C   UNL     1       0.327   6.411  -2.521  1.00  0.00     0.005 C 
ATOM      9  C   UNL     1      -0.280   6.461  -4.920  1.00  0.00     0.005 C 
ATOM     10  C   UNL     1       0.832   8.463  -3.897  1.00  0.00     0.004 C 
ATOM     11  C   UNL     1       0.310   7.946  -2.545  1.00  0.00     0.005 C 
ATOM     12  C   UNL     1      -0.122   7.984  -5.002  1.00  0.00     0.005 C 
BRANCH   6  13
ATOM     13  C   UNL     1       2.662   5.754  -5.553  1.00  0.00     0.229 C 
ATOM     14  N   UNL     1       3.640   4.843  -5.803  1.00  0.00    -0.317 N 
ATOM     15  H   UNL     1       3.652   4.563  -6.746  1.00  0.00     0.170 HD
ATOM     16  O   UNL     1       2.127   6.199  -6.584  1.00  0.00    -0.274 OA
BRANCH  14  17
ATOM     17  C   UNL     1       4.623   4.212  -5.061  1.00  0.00     0.111 A 
ATOM     18  C   UNL     1       5.804   3.671  -5.567  1.00  0.00     0.102 A 
ATOM     19  C   UNL     1       6.760   3.436  -4.495  1.00  0.00     0.012 A 
ATOM     20  S   UNL     1       4.497   3.937  -3.395  1.00  0.00    -0.122 S 
ATOM     21  C   UNL     1       6.192   3.697  -3.255  1.00  0.00     0.012 A 
ATOM     22  C   UNL     1       6.844   3.818  -1.915  1.00  0.00     0.057 C 
BRANCH  18  23
ATOM     23  C   UNL     1       6.056   3.520  -7.000  1.00  0.00     0.341 C 
ATOM     24  O   UNL     1       5.450   4.152  -7.861  1.00  0.00    -0.246 OA
BRANCH  23  25
ATOM     25  O   UNL     1       7.014   2.590  -7.276  1.00  0.00    -0.465 OA
ATOM     26  C   UNL     1       7.338   2.433  -8.655  1.00  0.00     0.282 C 
ENDBRANCH  23  25
ENDBRANCH  18  23
BRANCH  19  27
ATOM     27  C   UNL     1       8.190   3.125  -4.627  1.00  0.00    -0.016 A 
ATOM     28  C   UNL     1       9.033   3.935  -5.401  1.00  0.00     0.009 A 
ATOM     29  C   UNL     1       8.731   1.995  -4.003  1.00  0.00     0.009 A 
ATOM     30  C   UNL     1      10.388   3.616  -5.552  1.00  0.00     0.004 A 
ATOM     31  C   UNL     1      10.089   1.686  -4.139  1.00  0.00     0.004 A 
ATOM     32  C   UNL     1      10.929   2.495  -4.911  1.00  0.00    -0.051 A 
ATOM     33  C   UNL     1      12.375   2.137  -5.100  1.00  0.00     0.044 C 
ENDBRANCH  19  27
ENDBRANCH  14  17
ENDBRANCH   6  13
ENDBRANCH   3   5
ENDBRANCH   2   3
ENDBRANCH   1   2
BRANCH   1  34
ATOM     34  C   UNL     1       5.997   7.870  -1.627  1.00  0.00     0.275 C 
BRANCH  34  35
ATOM     35  O   UNL     1       6.577   8.280  -2.886  1.00  0.00    -0.458 OA
BRANCH  35  36
ATOM     36  C   UNL     1       6.089   7.590  -3.934  1.00  0.00     0.338 C 
ATOM     37  O   UNL     1       5.223   6.733  -3.880  1.00  0.00    -0.246 OA
BRANCH  36  38
ATOM     38  C   UNL     1       6.585   7.987  -5.244  1.00  0.00     0.060 A 
ATOM     39  C   UNL     1       5.622   8.340  -6.197  1.00  0.00     0.016 A 
ATOM     40  C   UNL     1       7.919   7.806  -5.599  1.00  0.00     0.016 A 
ATOM     41  C   UNL     1       5.989   8.538  -7.516  1.00  0.00     0.010 A 
ATOM     42  C   UNL     1       8.292   8.019  -6.927  1.00  0.00     0.010 A 
ATOM     43  C   UNL     1       7.330   8.397  -7.882  1.00  0.00    -0.014 A 
BRANCH  43  44
ATOM     44  C   UNL     1       7.741   8.786  -9.242  1.00  0.00     0.031 A 
ATOM     45  C   UNL     1       7.988   7.764 -10.299  1.00  0.00     0.074 A 
ATOM     46  C   UNL     1       7.881  10.099  -9.490  1.00  0.00     0.049 A 
ATOM     47  N   UNL     1       8.502   7.925 -11.490  1.00  0.00    -0.248 NA
ATOM     48  C   UNL     1       7.609   6.380  -9.982  1.00  0.00     0.031 C 
ATOM     49  C   UNL     1       7.591  11.168  -8.531  1.00  0.00     0.029 A 
ATOM     50  N   UNL     1       8.310  10.757 -10.610  1.00  0.00    -0.354 N 
ATOM     51  C   UNL     1       8.526   6.663 -12.063  1.00  0.00     0.074 A 
ATOM     52  C   UNL     1       7.976   5.744 -11.088  1.00  0.00     0.031 C 
ATOM     53  C   UNL     1       7.870  12.350  -9.098  1.00  0.00     0.029 A 
ATOM     54  C   UNL     1       8.405  12.114 -10.434  1.00  0.00     0.049 A 
ATOM     55  H   UNL     1       8.527  10.303 -11.456  1.00  0.00     0.167 HD
ATOM     56  C   UNL     1       8.973   6.318 -13.294  1.00  0.00     0.037 A 
ATOM     57  C   UNL     1       8.913  13.056 -11.246  1.00  0.00     0.037 A 
ATOM     58  C   UNL     1       9.496   7.258 -14.253  1.00  0.00     0.049 A 
ATOM     59  C   UNL     1       9.455  12.639 -12.580  1.00  0.00     0.074 A 
ATOM     60  C   UNL     1       9.977   7.018 -15.528  1.00  0.00     0.029 A 
ATOM     61  N   UNL     1       9.597   8.627 -14.038  1.00  0.00    -0.354 N 
ATOM     62  N   UNL     1       9.521  11.438 -13.102  1.00  0.00    -0.248 NA
ATOM     63  C   UNL     1       9.998  13.701 -13.434  1.00  0.00     0.031 C 
ATOM     64  C   UNL     1      10.399   8.237 -16.072  1.00  0.00     0.029 A 
ATOM     65  C   UNL     1      10.148   9.242 -15.150  1.00  0.00     0.049 A 
ATOM     66  H   UNL     1       9.318   9.091 -13.216  1.00  0.00     0.167 HD
ATOM     67  C   UNL     1      10.101  11.597 -14.349  1.00  0.00     0.074 A 
ATOM     68  C   UNL     1      10.359  13.015 -14.510  1.00  0.00     0.031 C 
ATOM     69  C   UNL     1      10.396  10.655 -15.277  1.00  0.00     0.037 A 
BRANCH  56  70
ATOM     70  C   UNL     1       8.951   4.866 -13.662  1.00  0.00     0.064 A 
ATOM     71  C   UNL     1       7.761   4.206 -13.998  1.00  0.00     0.173 A 
ATOM     72  C   UNL     1      10.148   4.135 -13.720  1.00  0.00     0.173 A 
ATOM     73  F   UNL     1       6.590   4.856 -13.943  1.00  0.00    -0.203 F 
ATOM     74  C   UNL     1       7.768   2.862 -14.366  1.00  0.00     0.198 A 
ATOM     75  C   UNL     1      10.153   2.798 -14.108  1.00  0.00     0.198 A 
ATOM     76  F   UNL     1      11.313   4.720 -13.407  1.00  0.00    -0.203 F 
ATOM     77  F   UNL     1       6.615   2.240 -14.652  1.00  0.00    -0.200 F 
ATOM     78  C   UNL     1       8.964   2.161 -14.427  1.00  0.00     0.200 A 
ATOM     79  F   UNL     1      11.310   2.124 -14.171  1.00  0.00    -0.200 F 
ATOM     80  F   UNL     1       8.969   0.870 -14.785  1.00  0.00    -0.200 F 
ENDBRANCH  56  70
BRANCH  57  81
ATOM     81  C   UNL     1       8.956  14.463 -10.784  1.00  0.00     0.064 A 
ATOM     82  C   UNL     1       8.093  15.425 -11.320  1.00  0.00     0.173 A 
ATOM     83  C   UNL     1       9.822  14.858  -9.752  1.00  0.00     0.173 A 
ATOM     84  F   UNL     1       7.260  15.095 -12.318  1.00  0.00    -0.203 F 
ATOM     85  C   UNL     1       8.095  16.734 -10.843  1.00  0.00     0.198 A 
ATOM     86  C   UNL     1       9.806  16.160  -9.260  1.00  0.00     0.198 A 
ATOM     87  F   UNL     1      10.662  13.968  -9.202  1.00  0.00    -0.203 F 
ATOM     88  F   UNL     1       7.275  17.644 -11.387  1.00  0.00    -0.200 F 
ATOM     89  C   UNL     1       8.944  17.098  -9.808  1.00  0.00     0.200 A 
ATOM     90  F   UNL     1      10.617  16.502  -8.250  1.00  0.00    -0.200 F 
ATOM     91  F   UNL     1       8.934  18.353  -9.339  1.00  0.00    -0.200 F 
ENDBRANCH  57  81
BRANCH  69  92
ATOM     92  C   UNL     1      11.016  11.139 -16.551  1.00  0.00     0.064 A 
ATOM     93  C   UNL     1      12.369  11.499 -16.610  1.00  0.00     0.173 A 
ATOM     94  C   UNL     1      10.256  11.213 -17.727  1.00  0.00     0.173 A 
ATOM     95  F   UNL     1      13.127  11.460 -15.505  1.00  0.00    -0.203 F 
ATOM     96  C   UNL     1      12.937  11.935 -17.803  1.00  0.00     0.198 A 
ATOM     97  C   UNL     1      10.833  11.630 -18.922  1.00  0.00     0.198 A 
ATOM     98  F   UNL     1       8.958  10.877 -17.715  1.00  0.00    -0.203 F 
ATOM     99  F   UNL     1      14.224  12.309 -17.833  1.00  0.00    -0.200 F 
ATOM    100  C   UNL     1      12.171  11.994 -18.959  1.00  0.00     0.200 A 
ATOM    101  F   UNL     1      10.094  11.682 -20.039  1.00  0.00    -0.200 F 
ATOM    102  F   UNL     1      12.721  12.411 -20.107  1.00  0.00    -0.200 F 
ENDBRANCH  69  92
ENDBRANCH  43  44
ENDBRANCH  36  38
ENDBRANCH  35  36
ENDBRANCH  34  35
ENDBRANCH   1  34
TORSDOF 16
