REMARK SMILES CC[N@@H+](C)Cc1cc2c(cc1Cl)C=C(C(=O)OCCOC(=O)c1ccc(-c3c4nc(c(-c5c(F)c(F)c(F)c(F)c5F)c5ccc([nH]5)c(-c5c(F)c(F)c(F)c(F)c5F)c5nc(c(-c6c(F)c(F)c(F)c(F)c6F)c6ccc3[nH]6)C=C5)C=C4)cc1)[C@@H](C(F)(F)F)O2
REMARK SMILES IDX 18 1 17 2 15 3 16 4 14 5 6 6 7 7 11 8 8 9 10 10 12 11 9 12
REMARK SMILES IDX 91 13 13 14 86 15 5 16 3 17 4 18 2 20 1 21 87 22 88 23 89 24
REMARK SMILES IDX 90 25 19 26 20 27 21 28 22 29 23 30 24 31 85 32 25 33 84 34
REMARK SMILES IDX 26 35 27 36 28 37 78 38 29 39 83 40 77 41 79 42 30 43 82 44
REMARK SMILES IDX 76 45 75 46 31 48 63 49 43 50 62 51 44 52 47 53 61 54 80 55
REMARK SMILES IDX 45 56 46 57 60 59 81 60 48 61 32 62 33 63 41 64 34 65 35 66
REMARK SMILES IDX 39 67 42 68 36 69 37 70 40 71 38 72 64 73 65 74 73 75 66 76
REMARK SMILES IDX 67 77 71 78 74 79 68 80 69 81 72 82 70 83 49 84 50 85 58 86
REMARK SMILES IDX 51 87 52 88 56 89 59 90 53 91 54 92 57 93 55 94
REMARK H PARENT 3 19 79 47 47 58
REMARK Flexibility Score: inf
ROOT
ATOM      1  C   UNL     1       3.663   8.527  -4.927  1.00  0.00     0.275 C 
ENDROOT
BRANCH   1   2
ATOM      2  O   UNL     1       3.468   7.290  -4.210  1.00  0.00    -0.459 OA
BRANCH   2   3
ATOM      3  C   UNL     1       3.103   6.226  -4.960  1.00  0.00     0.338 C 
ATOM      4  O   UNL     1       2.866   6.220  -6.158  1.00  0.00    -0.246 OA
BRANCH   3   5
ATOM      5  C   UNL     1       3.079   5.010  -4.128  1.00  0.00     0.087 C 
ATOM      6  C   UNL     1       2.975   0.267  -2.526  1.00  0.00     0.029 A 
ATOM      7  C   UNL     1       2.676   1.512  -1.940  1.00  0.00     0.058 A 
ATOM      8  C   UNL     1       3.674   0.262  -3.744  1.00  0.00     0.050 A 
ATOM      9  C   UNL     1       2.894   2.702  -2.622  1.00  0.00     0.128 A 
ATOM     10  C   UNL     1       3.955   1.462  -4.401  1.00  0.00     0.033 A 
ATOM     11  Cl  UNL     1       4.197  -1.191  -4.520  1.00  0.00    -0.084 Cl
ATOM     12  C   UNL     1       3.514   2.674  -3.863  1.00  0.00     0.019 A 
ATOM     13  O   UNL     1       2.463   3.849  -2.016  1.00  0.00    -0.475 OA
ATOM     14  C   UNL     1       3.655   3.903  -4.611  1.00  0.00     0.027 C 
ATOM     15  C   UNL     1       2.293   5.030  -2.849  1.00  0.00     0.316 C 
BRANCH   6  16
ATOM     16  C   UNL     1       2.465  -1.000  -1.866  1.00  0.00     0.300 C 
BRANCH  16  17
ATOM     17  N   UNL     1       1.004  -1.222  -1.935  1.00  0.00    -0.334 N 
ATOM     18  C   UNL     1       0.519  -1.270  -3.318  1.00  0.00     0.333 C 
ATOM     19  H   UNL     1       0.899  -2.138  -1.499  1.00  0.00     0.348 HD
BRANCH  17  20
ATOM     20  C   UNL     1       0.164  -0.330  -1.129  1.00  0.00     0.258 C 
ATOM     21  C   UNL     1       0.505  -0.314   0.358  1.00  0.00     0.071 C 
ENDBRANCH  17  20
ENDBRANCH  16  17
ENDBRANCH   6  16
BRANCH  15  22
ATOM     22  C   UNL     1       0.799   5.256  -3.136  1.00  0.00     0.430 C 
ATOM     23  F   UNL     1       0.065   5.233  -1.999  1.00  0.00    -0.167 F 
ATOM     24  F   UNL     1       0.587   6.464  -3.712  1.00  0.00    -0.167 F 
ATOM     25  F   UNL     1       0.290   4.318  -3.968  1.00  0.00    -0.167 F 
ENDBRANCH  15  22
ENDBRANCH   3   5
ENDBRANCH   2   3
ENDBRANCH   1   2
BRANCH   1  26
ATOM     26  C   UNL     1       5.153   8.820  -5.099  1.00  0.00     0.275 C 
BRANCH  26  27
ATOM     27  O   UNL     1       5.740   7.878  -6.017  1.00  0.00    -0.458 OA
BRANCH  27  28
ATOM     28  C   UNL     1       6.526   6.931  -5.459  1.00  0.00     0.338 C 
ATOM     29  O   UNL     1       6.827   6.804  -4.286  1.00  0.00    -0.246 OA
BRANCH  28  30
ATOM     30  C   UNL     1       6.924   5.960  -6.490  1.00  0.00     0.060 A 
ATOM     31  C   UNL     1       8.256   5.794  -6.850  1.00  0.00     0.016 A 
ATOM     32  C   UNL     1       5.958   5.093  -6.985  1.00  0.00     0.016 A 
ATOM     33  C   UNL     1       8.602   4.753  -7.721  1.00  0.00     0.010 A 
ATOM     34  C   UNL     1       6.326   3.965  -7.708  1.00  0.00     0.010 A 
ATOM     35  C   UNL     1       7.649   3.795  -8.125  1.00  0.00    -0.014 A 
BRANCH  35  36
ATOM     36  C   UNL     1       8.008   2.628  -8.985  1.00  0.00     0.031 A 
ATOM     37  C   UNL     1       7.250   2.350 -10.265  1.00  0.00     0.074 A 
ATOM     38  C   UNL     1       8.975   1.775  -8.591  1.00  0.00     0.049 A 
ATOM     39  N   UNL     1       7.375   1.349 -11.103  1.00  0.00    -0.248 NA
ATOM     40  C   UNL     1       6.177   3.289 -10.629  1.00  0.00     0.031 C 
ATOM     41  C   UNL     1       9.724   1.864  -7.336  1.00  0.00     0.029 A 
ATOM     42  N   UNL     1       9.501   0.666  -9.209  1.00  0.00    -0.354 N 
ATOM     43  C   UNL     1       6.380   1.524 -12.058  1.00  0.00     0.074 A 
ATOM     44  C   UNL     1       5.611   2.679 -11.659  1.00  0.00     0.031 C 
ATOM     45  C   UNL     1      10.659   0.903  -7.311  1.00  0.00     0.029 A 
ATOM     46  C   UNL     1      10.546   0.096  -8.521  1.00  0.00     0.049 A 
ATOM     47  H   UNL     1       9.163   0.314 -10.063  1.00  0.00     0.167 HD
ATOM     48  C   UNL     1       6.151   0.817 -13.191  1.00  0.00     0.037 A 
ATOM     49  C   UNL     1      11.333  -0.951  -8.834  1.00  0.00     0.037 A 
ATOM     50  C   UNL     1       6.959  -0.291 -13.627  1.00  0.00     0.049 A 
ATOM     51  C   UNL     1      11.105  -1.680 -10.128  1.00  0.00     0.074 A 
ATOM     52  C   UNL     1       6.854  -1.031 -14.792  1.00  0.00     0.029 A 
ATOM     53  N   UNL     1       8.035  -0.807 -12.921  1.00  0.00    -0.354 N 
ATOM     54  N   UNL     1      10.194  -1.468 -11.046  1.00  0.00    -0.248 NA
ATOM     55  C   UNL     1      12.020  -2.788 -10.434  1.00  0.00     0.031 C 
ATOM     56  C   UNL     1       7.849  -2.013 -14.777  1.00  0.00     0.029 A 
ATOM     57  C   UNL     1       8.604  -1.854 -13.626  1.00  0.00     0.049 A 
ATOM     58  H   UNL     1       8.348  -0.477 -12.047  1.00  0.00     0.167 HD
ATOM     59  C   UNL     1      10.439  -2.397 -12.048  1.00  0.00     0.074 A 
ATOM     60  C   UNL     1      11.597  -3.163 -11.633  1.00  0.00     0.031 C 
ATOM     61  C   UNL     1       9.763  -2.599 -13.206  1.00  0.00     0.037 A 
BRANCH  48  62
ATOM     62  C   UNL     1       5.004   1.244 -14.066  1.00  0.00     0.064 A 
ATOM     63  C   UNL     1       5.030   2.459 -14.769  1.00  0.00     0.173 A 
ATOM     64  C   UNL     1       3.890   0.410 -14.247  1.00  0.00     0.173 A 
ATOM     65  F   UNL     1       6.066   3.300 -14.626  1.00  0.00    -0.203 F 
ATOM     66  C   UNL     1       3.974   2.836 -15.595  1.00  0.00     0.198 A 
ATOM     67  C   UNL     1       2.851   0.774 -15.101  1.00  0.00     0.198 A 
ATOM     68  F   UNL     1       3.814  -0.767 -13.608  1.00  0.00    -0.203 F 
ATOM     69  F   UNL     1       4.001   4.024 -16.214  1.00  0.00    -0.200 F 
ATOM     70  C   UNL     1       2.890   1.990 -15.768  1.00  0.00     0.200 A 
ATOM     71  F   UNL     1       1.812  -0.053 -15.282  1.00  0.00    -0.200 F 
ATOM     72  F   UNL     1       1.881   2.347 -16.575  1.00  0.00    -0.200 F 
ENDBRANCH  48  62
BRANCH  49  73
ATOM     73  C   UNL     1      12.458  -1.316  -7.933  1.00  0.00     0.064 A 
ATOM     74  C   UNL     1      13.784  -1.060  -8.309  1.00  0.00     0.173 A 
ATOM     75  C   UNL     1      12.236  -1.883  -6.670  1.00  0.00     0.173 A 
ATOM     76  F   UNL     1      14.049  -0.535  -9.514  1.00  0.00    -0.203 F 
ATOM     77  C   UNL     1      14.846  -1.362  -7.459  1.00  0.00     0.198 A 
ATOM     78  C   UNL     1      13.297  -2.159  -5.809  1.00  0.00     0.198 A 
ATOM     79  F   UNL     1      10.985  -2.140  -6.260  1.00  0.00    -0.203 F 
ATOM     80  F   UNL     1      16.105  -1.133  -7.855  1.00  0.00    -0.200 F 
ATOM     81  C   UNL     1      14.601  -1.903  -6.205  1.00  0.00     0.200 A 
ATOM     82  F   UNL     1      13.055  -2.664  -4.592  1.00  0.00    -0.200 F 
ATOM     83  F   UNL     1      15.621  -2.176  -5.380  1.00  0.00    -0.200 F 
ENDBRANCH  49  73
BRANCH  61  84
ATOM     84  C   UNL     1      10.278  -3.663 -14.130  1.00  0.00     0.064 A 
ATOM     85  C   UNL     1      10.144  -5.026 -13.830  1.00  0.00     0.173 A 
ATOM     86  C   UNL     1      10.867  -3.313 -15.354  1.00  0.00     0.173 A 
ATOM     87  F   UNL     1       9.597  -5.411 -12.667  1.00  0.00    -0.203 F 
ATOM     88  C   UNL     1      10.607  -6.000 -14.711  1.00  0.00     0.198 A 
ATOM     89  C   UNL     1      11.300  -4.289 -16.246  1.00  0.00     0.198 A 
ATOM     90  F   UNL     1      11.008  -2.022 -15.693  1.00  0.00    -0.203 F 
ATOM     91  F   UNL     1      10.511  -7.296 -14.383  1.00  0.00    -0.200 F 
ATOM     92  C   UNL     1      11.177  -5.631 -15.920  1.00  0.00     0.200 A 
ATOM     93  F   UNL     1      11.836  -3.932 -17.421  1.00  0.00    -0.200 F 
ATOM     94  F   UNL     1      11.613  -6.571 -16.770  1.00  0.00    -0.200 F 
ENDBRANCH  61  84
ENDBRANCH  35  36
ENDBRANCH  28  30
ENDBRANCH  27  28
ENDBRANCH  26  27
ENDBRANCH   1  26
TORSDOF 15
