REMARK SMILES Nc1cc(C(=O)OCCOC(=O)c2ccc(-c3c4nc(c(-c5c(F)c(F)c(F)c(F)c5F)c5ccc([nH]5)c(-c5c(F)c(F)c(F)c(F)c5F)c5nc(c(-c6c(F)c(F)c(F)c(F)c6F)c6ccc3[nH]6)C=C5)C=C4)cc2)c(-c2ccc(F)cc2O)cn1
REMARK SMILES IDX 8 1 7 2 5 3 6 4 4 5 2 6 3 7 86 8 85 9 76 10 1 11 77 14 78 15
REMARK SMILES IDX 83 16 79 17 82 18 80 19 81 20 84 21 9 23 10 24 11 25 12 26
REMARK SMILES IDX 13 27 14 28 75 29 15 30 74 31 16 32 17 33 18 34 68 35 19 36
REMARK SMILES IDX 73 37 67 38 69 39 20 40 72 41 66 42 65 43 21 45 53 46 33 47
REMARK SMILES IDX 52 48 34 49 37 50 51 51 70 52 35 53 36 54 50 56 71 57 38 58
REMARK SMILES IDX 22 59 23 60 31 61 24 62 25 63 29 64 32 65 26 66 27 67 30 68
REMARK SMILES IDX 28 69 54 70 55 71 63 72 56 73 57 74 61 75 64 76 58 77 59 78
REMARK SMILES IDX 62 79 60 80 39 81 40 82 48 83 41 84 42 85 46 86 49 87 43 88
REMARK SMILES IDX 44 89 47 90 45 91
REMARK H PARENT 1 12 1 13 84 22 69 44 37 55
REMARK Flexibility Score: inf
ROOT
ATOM      1  C   UNL     1      -1.634  -4.752  -0.184  1.00  0.00     0.275 C 
ENDROOT
BRANCH   1   2
ATOM      2  O   UNL     1      -1.157  -3.465   0.272  1.00  0.00    -0.458 OA
BRANCH   2   3
ATOM      3  C   UNL     1      -1.292  -2.438  -0.600  1.00  0.00     0.339 C 
ATOM      4  O   UNL     1      -1.710  -2.499  -1.743  1.00  0.00    -0.246 OA
BRANCH   3   5
ATOM      5  C   UNL     1      -0.734  -1.204  -0.009  1.00  0.00     0.073 A 
ATOM      6  C   UNL     1       1.303  -0.015   0.328  1.00  0.00     0.124 A 
ATOM      7  C   UNL     1       0.663  -1.193   0.025  1.00  0.00     0.062 A 
ATOM      8  N   UNL     1       0.625   1.105   0.633  1.00  0.00    -0.239 NA
ATOM      9  C   UNL     1      -0.738   1.069   0.612  1.00  0.00     0.123 A 
ATOM     10  C   UNL     1      -1.492  -0.047   0.285  1.00  0.00     0.018 A 
BRANCH   6  11
ATOM     11  N   UNL     1       2.672   0.077   0.187  1.00  0.00    -0.384 N 
ATOM     12  H   UNL     1       3.199  -0.724  -0.036  1.00  0.00     0.158 HD
ATOM     13  H   UNL     1       3.122   0.944   0.309  1.00  0.00     0.158 HD
ENDBRANCH   6  11
BRANCH  10  14
ATOM     14  C   UNL     1      -2.943   0.051   0.022  1.00  0.00     0.026 A 
ATOM     15  C   UNL     1      -3.367  -0.076  -1.694  1.00  0.00     0.015 A 
ATOM     16  C   UNL     1      -4.259  -0.248   1.245  1.00  0.00     0.126 A 
ATOM     17  C   UNL     1      -4.960  -0.553  -2.288  1.00  0.00     0.040 A 
ATOM     18  C   UNL     1      -6.071  -0.816   0.533  1.00  0.00     0.086 A 
ATOM     19  C   UNL     1      -6.292  -0.943  -1.238  1.00  0.00     0.126 A 
ATOM     20  F   UNL     1      -7.485  -1.271  -1.746  1.00  0.00    -0.207 F 
BRANCH  16  21
ATOM     21  O   UNL     1      -3.758  -0.072   2.534  1.00  0.00    -0.507 OA
ATOM     22  H   UNL     1      -2.870   0.202   2.658  1.00  0.00     0.293 HD
ENDBRANCH  16  21
ENDBRANCH  10  14
ENDBRANCH   3   5
ENDBRANCH   2   3
ENDBRANCH   1   2
BRANCH   1  23
ATOM     23  C   UNL     1      -2.735  -5.257   0.744  1.00  0.00     0.275 C 
BRANCH  23  24
ATOM     24  O   UNL     1      -3.855  -4.361   0.655  1.00  0.00    -0.458 OA
BRANCH  24  25
ATOM     25  C   UNL     1      -3.878  -3.429   1.625  1.00  0.00     0.338 C 
ATOM     26  O   UNL     1      -3.173  -3.348   2.618  1.00  0.00    -0.246 OA
BRANCH  25  27
ATOM     27  C   UNL     1      -4.790  -2.351   1.264  1.00  0.00     0.060 A 
ATOM     28  C   UNL     1      -4.463  -1.411  -0.234  1.00  0.00     0.016 A 
ATOM     29  C   UNL     1      -5.638  -1.557   2.580  1.00  0.00     0.016 A 
ATOM     30  C   UNL     1      -5.037   0.531  -0.284  1.00  0.00     0.010 A 
ATOM     31  C   UNL     1      -6.196   0.132   2.508  1.00  0.00     0.010 A 
ATOM     32  C   UNL     1      -5.935   1.220   1.131  1.00  0.00    -0.014 A 
BRANCH  32  33
ATOM     33  C   UNL     1      -6.718   2.529   1.071  1.00  0.00     0.031 A 
ATOM     34  C   UNL     1      -7.019   3.338   2.326  1.00  0.00     0.074 A 
ATOM     35  C   UNL     1      -7.332   2.935  -0.067  1.00  0.00     0.049 A 
ATOM     36  N   UNL     1      -7.906   4.293   2.513  1.00  0.00    -0.248 NA
ATOM     37  C   UNL     1      -6.265   3.003   3.540  1.00  0.00     0.031 C 
ATOM     38  C   UNL     1      -7.262   2.271  -1.357  1.00  0.00     0.029 A 
ATOM     39  N   UNL     1      -8.181   3.996  -0.332  1.00  0.00    -0.354 N 
ATOM     40  C   UNL     1      -7.864   4.611   3.869  1.00  0.00     0.074 A 
ATOM     41  C   UNL     1      -6.904   3.706   4.467  1.00  0.00     0.031 C 
ATOM     42  C   UNL     1      -7.964   2.927  -2.278  1.00  0.00     0.029 A 
ATOM     43  C   UNL     1      -8.642   4.027  -1.633  1.00  0.00     0.049 A 
ATOM     44  H   UNL     1      -8.432   4.666   0.344  1.00  0.00     0.167 HD
ATOM     45  C   UNL     1      -8.531   5.581   4.551  1.00  0.00     0.037 A 
ATOM     46  C   UNL     1      -9.537   4.797  -2.278  1.00  0.00     0.037 A 
ATOM     47  C   UNL     1      -9.414   6.552   3.943  1.00  0.00     0.049 A 
ATOM     48  C   UNL     1     -10.216   5.891  -1.533  1.00  0.00     0.074 A 
ATOM     49  C   UNL     1     -10.041   7.639   4.533  1.00  0.00     0.029 A 
ATOM     50  N   UNL     1      -9.782   6.566   2.605  1.00  0.00    -0.354 N 
ATOM     51  N   UNL     1     -10.135   6.182  -0.260  1.00  0.00    -0.248 NA
ATOM     52  C   UNL     1     -11.096   6.772  -2.307  1.00  0.00     0.031 C 
ATOM     53  C   UNL     1     -10.812   8.290   3.561  1.00  0.00     0.029 A 
ATOM     54  C   UNL     1     -10.630   7.638   2.354  1.00  0.00     0.049 A 
ATOM     55  H   UNL     1      -9.486   5.912   1.932  1.00  0.00     0.167 HD
ATOM     56  C   UNL     1     -10.934   7.295  -0.080  1.00  0.00     0.074 A 
ATOM     57  C   UNL     1     -11.480   7.636  -1.379  1.00  0.00     0.031 C 
ATOM     58  C   UNL     1     -11.182   7.972   1.065  1.00  0.00     0.037 A 
BRANCH  45  59
ATOM     59  C   UNL     1      -8.319   5.666   6.045  1.00  0.00     0.064 A 
ATOM     60  C   UNL     1      -7.079   6.019   6.602  1.00  0.00     0.173 A 
ATOM     61  C   UNL     1      -9.380   5.425   6.936  1.00  0.00     0.173 A 
ATOM     62  F   UNL     1      -6.030   6.276   5.806  1.00  0.00    -0.203 F 
ATOM     63  C   UNL     1      -6.893   6.065   7.983  1.00  0.00     0.198 A 
ATOM     64  C   UNL     1      -9.200   5.511   8.317  1.00  0.00     0.198 A 
ATOM     65  F   UNL     1     -10.599   5.114   6.470  1.00  0.00    -0.203 F 
ATOM     66  F   UNL     1      -5.679   6.334   8.485  1.00  0.00    -0.200 F 
ATOM     67  C   UNL     1      -7.953   5.814   8.839  1.00  0.00     0.200 A 
ATOM     68  F   UNL     1     -10.234   5.295   9.142  1.00  0.00    -0.200 F 
ATOM     69  F   UNL     1      -7.771   5.858  10.167  1.00  0.00    -0.200 F 
ENDBRANCH  45  59
BRANCH  46  70
ATOM     70  C   UNL     1      -9.797   4.555  -3.725  1.00  0.00     0.064 A 
ATOM     71  C   UNL     1      -9.283   5.423  -4.698  1.00  0.00     0.173 A 
ATOM     72  C   UNL     1     -10.468   3.403  -4.169  1.00  0.00     0.173 A 
ATOM     73  F   UNL     1      -8.643   6.541  -4.325  1.00  0.00    -0.203 F 
ATOM     74  C   UNL     1      -9.429   5.151  -6.057  1.00  0.00     0.198 A 
ATOM     75  C   UNL     1     -10.584   3.115  -5.528  1.00  0.00     0.198 A 
ATOM     76  F   UNL     1     -10.956   2.526  -3.280  1.00  0.00    -0.203 F 
ATOM     77  F   UNL     1      -8.944   6.008  -6.965  1.00  0.00    -0.200 F 
ATOM     78  C   UNL     1     -10.067   3.991  -6.470  1.00  0.00     0.200 A 
ATOM     79  F   UNL     1     -11.172   1.978  -5.923  1.00  0.00    -0.200 F 
ATOM     80  F   UNL     1     -10.178   3.714  -7.777  1.00  0.00    -0.200 F 
ENDBRANCH  46  70
BRANCH  58  81
ATOM     81  C   UNL     1     -12.059   9.180   0.947  1.00  0.00     0.064 A 
ATOM     82  C   UNL     1     -13.436   9.070   0.702  1.00  0.00     0.173 A 
ATOM     83  C   UNL     1     -11.509  10.465   1.056  1.00  0.00     0.173 A 
ATOM     84  F   UNL     1     -14.002   7.862   0.559  1.00  0.00    -0.203 F 
ATOM     85  C   UNL     1     -14.225  10.205   0.541  1.00  0.00     0.198 A 
ATOM     86  C   UNL     1     -12.306  11.598   0.924  1.00  0.00     0.198 A 
ATOM     87  F   UNL     1     -10.196  10.622   1.282  1.00  0.00    -0.203 F 
ATOM     88  F   UNL     1     -15.526  10.078   0.244  1.00  0.00    -0.200 F 
ATOM     89  C   UNL     1     -13.661  11.467   0.657  1.00  0.00     0.200 A 
ATOM     90  F   UNL     1     -11.761  12.816   1.042  1.00  0.00    -0.200 F 
ATOM     91  F   UNL     1     -14.421  12.559   0.497  1.00  0.00    -0.200 F 
ENDBRANCH  58  81
ENDBRANCH  32  33
ENDBRANCH  25  27
ENDBRANCH  24  25
ENDBRANCH  23  24
ENDBRANCH   1  23
TORSDOF 14
