REMARK SMILES C[N@@H+]1CC[N@H+](Cc2ccc(C#CC(C)(C)O)s2)C[C@H]1C(=O)OCCOC(=O)c1ccc(-c2c3nc(c(-c4c(F)c(F)c(F)c(F)c4F)c4ccc([nH]4)c(-c4c(F)c(F)c(F)c(F)c4F)c4nc(c(-c5c(F)c(F)c(F)c(F)c5F)c5ccc2[nH]5)C=C4)C=C3)cc1
REMARK SMILES IDX 22 1 20 2 21 3 19 4 1 5 2 6 3 7 4 9 18 10 5 11 6 13 7 14
REMARK SMILES IDX 8 15 17 16 9 17 10 18 11 19 12 20 13 21 14 22 15 23 16 24
REMARK SMILES IDX 23 26 24 27 25 28 26 29 27 30 28 31 29 32 90 33 30 34 89 35
REMARK SMILES IDX 31 36 32 37 33 38 83 39 34 40 88 41 82 42 84 43 35 44 87 45
REMARK SMILES IDX 81 46 80 47 36 49 68 50 48 51 67 52 49 53 52 54 66 55 85 56
REMARK SMILES IDX 50 57 51 58 65 60 86 61 53 62 37 63 38 64 46 65 39 66 40 67
REMARK SMILES IDX 44 68 47 69 41 70 42 71 45 72 43 73 69 74 70 75 78 76 71 77
REMARK SMILES IDX 72 78 76 79 79 80 73 81 74 82 77 83 75 84 54 85 55 86 63 87
REMARK SMILES IDX 56 88 57 89 61 90 64 91 58 92 59 93 62 94 60 95
REMARK H PARENT 2 8 5 12 16 25 84 48 52 59
REMARK Flexibility Score: inf
ROOT
ATOM      1  O   UNL     1       0.933  -2.455  -2.074  1.00  0.00    -0.457 OA
ENDROOT
BRANCH   1   2
ATOM      2  C   UNL     1       0.573  -2.338  -0.769  1.00  0.00     0.371 C 
ATOM      3  O   UNL     1       0.504  -3.295   0.004  1.00  0.00    -0.245 OA
BRANCH   2   4
ATOM      4  C   UNL     1       0.150  -0.941  -0.318  1.00  0.00     0.350 C 
ATOM      5  C   UNL     1       2.108   0.375  -1.006  1.00  0.00     0.333 C 
ATOM      6  N   UNL     1       0.651   0.232  -1.104  1.00  0.00    -0.316 N 
ATOM      7  C   UNL     1       0.036   1.464  -0.560  1.00  0.00     0.325 C 
ATOM      8  H   UNL     1       0.402   0.083  -2.082  1.00  0.00     0.348 HD
ATOM      9  C   UNL     1      -1.504   1.417  -0.469  1.00  0.00     0.324 C 
ATOM     10  C   UNL     1      -1.402  -0.993  -0.282  1.00  0.00     0.341 C 
ATOM     11  N   UNL     1      -2.081   0.231   0.168  1.00  0.00    -0.320 N 
ATOM     12  H   UNL     1      -3.041   0.178  -0.171  1.00  0.00     0.348 HD
BRANCH  11  13
ATOM     13  C   UNL     1      -2.329   0.320   1.611  1.00  0.00     0.310 C 
BRANCH  13  14
ATOM     14  C   UNL     1      -1.124   0.271   2.506  1.00  0.00     0.060 A 
ATOM     15  C   UNL     1      -0.301   1.304   2.912  1.00  0.00     0.022 A 
ATOM     16  S   UNL     1      -0.650  -1.211   3.239  1.00  0.00    -0.126 S 
ATOM     17  C   UNL     1       0.820   0.841   3.662  1.00  0.00     0.029 A 
ATOM     18  C   UNL     1       0.774  -0.518   3.870  1.00  0.00     0.077 A 
BRANCH  18  19
ATOM     19  C   UNL     1       1.729  -1.265   4.614  1.00  0.00    -0.053 C 
ATOM     20  C   UNL     1       2.456  -1.930   5.468  1.00  0.00    -0.063 C 
BRANCH  20  21
ATOM     21  C   UNL     1       3.304  -2.705   6.463  1.00  0.00     0.120 C 
ATOM     22  C   UNL     1       4.262  -1.755   7.173  1.00  0.00     0.056 C 
ATOM     23  C   UNL     1       2.397  -3.416   7.467  1.00  0.00     0.056 C 
BRANCH  21  24
ATOM     24  O   UNL     1       4.053  -3.692   5.764  1.00  0.00    -0.378 OA
ATOM     25  H   UNL     1       4.636  -3.260   5.121  1.00  0.00     0.212 HD
ENDBRANCH  21  24
ENDBRANCH  20  21
ENDBRANCH  18  19
ENDBRANCH  13  14
ENDBRANCH  11  13
ENDBRANCH   2   4
ENDBRANCH   1   2
BRANCH   1  26
ATOM     26  C   UNL     1       1.181  -3.804  -2.530  1.00  0.00     0.274 C 
BRANCH  26  27
ATOM     27  C   UNL     1       2.628  -4.273  -2.353  1.00  0.00     0.275 C 
BRANCH  27  28
ATOM     28  O   UNL     1       3.000  -4.392  -0.975  1.00  0.00    -0.458 OA
BRANCH  28  29
ATOM     29  C   UNL     1       3.478  -3.233  -0.477  1.00  0.00     0.338 C 
ATOM     30  O   UNL     1       3.604  -2.179  -1.076  1.00  0.00    -0.246 OA
BRANCH  29  31
ATOM     31  C   UNL     1       4.013  -3.366   0.874  1.00  0.00     0.060 A 
ATOM     32  C   UNL     1       3.993  -2.200   1.653  1.00  0.00     0.016 A 
ATOM     33  C   UNL     1       4.945  -4.384   1.075  1.00  0.00     0.016 A 
ATOM     34  C   UNL     1       5.067  -1.936   2.475  1.00  0.00     0.010 A 
ATOM     35  C   UNL     1       6.021  -4.114   1.892  1.00  0.00     0.010 A 
ATOM     36  C   UNL     1       6.116  -2.854   2.501  1.00  0.00    -0.014 A 
BRANCH  36  37
ATOM     37  C   UNL     1       7.381  -2.423   3.073  1.00  0.00     0.031 A 
ATOM     38  C   UNL     1       7.553  -2.597   4.538  1.00  0.00     0.074 A 
ATOM     39  C   UNL     1       8.411  -2.105   2.264  1.00  0.00     0.049 A 
ATOM     40  N   UNL     1       8.019  -1.765   5.415  1.00  0.00    -0.248 NA
ATOM     41  C   UNL     1       7.111  -3.880   5.100  1.00  0.00     0.031 C 
ATOM     42  C   UNL     1       8.500  -2.270   0.809  1.00  0.00     0.029 A 
ATOM     43  N   UNL     1       9.674  -1.744   2.612  1.00  0.00    -0.354 N 
ATOM     44  C   UNL     1       8.009  -2.447   6.632  1.00  0.00     0.074 A 
ATOM     45  C   UNL     1       7.348  -3.702   6.396  1.00  0.00     0.031 C 
ATOM     46  C   UNL     1       9.805  -2.286   0.455  1.00  0.00     0.029 A 
ATOM     47  C   UNL     1      10.612  -2.031   1.638  1.00  0.00     0.049 A 
ATOM     48  H   UNL     1       9.899  -1.320   3.472  1.00  0.00     0.167 HD
ATOM     49  C   UNL     1       8.651  -2.004   7.747  1.00  0.00     0.037 A 
ATOM     50  C   UNL     1      11.937  -2.215   1.850  1.00  0.00     0.037 A 
ATOM     51  C   UNL     1       8.991  -0.613   7.659  1.00  0.00     0.049 A 
ATOM     52  C   UNL     1      12.272  -1.651   3.187  1.00  0.00     0.074 A 
ATOM     53  C   UNL     1       8.260   0.555   7.537  1.00  0.00     0.029 A 
ATOM     54  N   UNL     1      10.288  -0.258   7.381  1.00  0.00    -0.354 N 
ATOM     55  N   UNL     1      12.249  -0.380   3.486  1.00  0.00    -0.248 NA
ATOM     56  C   UNL     1      12.213  -2.559   4.326  1.00  0.00     0.031 C 
ATOM     57  C   UNL     1       9.053   1.405   6.712  1.00  0.00     0.029 A 
ATOM     58  C   UNL     1      10.212   0.696   6.399  1.00  0.00     0.049 A 
ATOM     59  H   UNL     1      11.104  -0.615   7.801  1.00  0.00     0.167 HD
ATOM     60  C   UNL     1      11.787  -0.327   4.794  1.00  0.00     0.074 A 
ATOM     61  C   UNL     1      11.861  -1.700   5.284  1.00  0.00     0.031 C 
ATOM     62  C   UNL     1      11.120   0.760   5.281  1.00  0.00     0.037 A 
BRANCH  49  63
ATOM     63  C   UNL     1       9.161  -2.897   8.847  1.00  0.00     0.064 A 
ATOM     64  C   UNL     1       9.581  -2.336  10.069  1.00  0.00     0.173 A 
ATOM     65  C   UNL     1       9.477  -4.261   8.665  1.00  0.00     0.173 A 
ATOM     66  F   UNL     1       9.372  -1.038  10.335  1.00  0.00    -0.203 F 
ATOM     67  C   UNL     1      10.292  -3.076  11.017  1.00  0.00     0.198 A 
ATOM     68  C   UNL     1      10.126  -5.014   9.642  1.00  0.00     0.198 A 
ATOM     69  F   UNL     1       9.267  -4.888   7.501  1.00  0.00    -0.203 F 
ATOM     70  F   UNL     1      10.765  -2.470  12.114  1.00  0.00    -0.200 F 
ATOM     71  C   UNL     1      10.558  -4.416  10.806  1.00  0.00     0.200 A 
ATOM     72  F   UNL     1      10.390  -6.308   9.410  1.00  0.00    -0.200 F 
ATOM     73  F   UNL     1      11.271  -5.118  11.697  1.00  0.00    -0.200 F 
ENDBRANCH  49  63
BRANCH  50  74
ATOM     74  C   UNL     1      12.798  -3.197   1.148  1.00  0.00     0.064 A 
ATOM     75  C   UNL     1      14.193  -3.065   1.136  1.00  0.00     0.173 A 
ATOM     76  C   UNL     1      12.280  -4.411   0.649  1.00  0.00     0.173 A 
ATOM     77  F   UNL     1      14.770  -1.974   1.660  1.00  0.00    -0.203 F 
ATOM     78  C   UNL     1      15.018  -4.077   0.631  1.00  0.00     0.198 A 
ATOM     79  C   UNL     1      13.100  -5.409   0.127  1.00  0.00     0.198 A 
ATOM     80  F   UNL     1      10.972  -4.692   0.735  1.00  0.00    -0.203 F 
ATOM     81  F   UNL     1      16.350  -3.937   0.675  1.00  0.00    -0.200 F 
ATOM     82  C   UNL     1      14.471  -5.245   0.123  1.00  0.00     0.200 A 
ATOM     83  F   UNL     1      12.556  -6.548  -0.324  1.00  0.00    -0.200 F 
ATOM     84  F   UNL     1      15.262  -6.226  -0.332  1.00  0.00    -0.200 F 
ENDBRANCH  50  74
BRANCH  62  85
ATOM     85  C   UNL     1      11.070   2.002   4.443  1.00  0.00     0.064 A 
ATOM     86  C   UNL     1      10.437   2.054   3.190  1.00  0.00     0.173 A 
ATOM     87  C   UNL     1      11.508   3.213   4.995  1.00  0.00     0.173 A 
ATOM     88  F   UNL     1       9.883   0.959   2.655  1.00  0.00    -0.203 F 
ATOM     89  C   UNL     1      10.295   3.255   2.499  1.00  0.00     0.198 A 
ATOM     90  C   UNL     1      11.335   4.418   4.318  1.00  0.00     0.198 A 
ATOM     91  F   UNL     1      12.056   3.236   6.220  1.00  0.00    -0.203 F 
ATOM     92  F   UNL     1       9.689   3.274   1.303  1.00  0.00    -0.200 F 
ATOM     93  C   UNL     1      10.738   4.437   3.066  1.00  0.00     0.200 A 
ATOM     94  F   UNL     1      11.714   5.567   4.893  1.00  0.00    -0.200 F 
ATOM     95  F   UNL     1      10.559   5.599   2.423  1.00  0.00    -0.200 F 
ENDBRANCH  62  85
ENDBRANCH  36  37
ENDBRANCH  29  31
ENDBRANCH  28  29
ENDBRANCH  27  28
ENDBRANCH  26  27
ENDBRANCH   1  26
TORSDOF 16
