REMARK SMILES COC(=O)c1ccccc1-c1ccc(/C=C(\C#N)C(=O)OCCOC(=O)c2ccc(-c3c4nc(c(-c5c(F)c(F)c(F)c(F)c5F)c5ccc([nH]5)c(-c5c(F)c(F)c(F)c(F)c5F)c5nc(c(-c6c(F)c(F)c(F)c(F)c6F)c6ccc3[nH]6)C=C5)C=C4)cc2)o1
REMARK SMILES IDX 22 1 21 2 19 3 20 4 16 5 15 6 14 7 11 8 12 9 90 10 13 11
REMARK SMILES IDX 10 12 5 13 6 14 7 15 9 16 8 17 3 18 4 19 2 20 1 21 17 22
REMARK SMILES IDX 18 23 23 24 24 25 25 26 26 27 27 28 28 29 89 30 29 31 88 32
REMARK SMILES IDX 30 33 31 34 32 35 82 36 33 37 87 38 81 39 83 40 34 41 86 42
REMARK SMILES IDX 80 43 79 44 35 46 67 47 47 48 66 49 48 50 51 51 65 52 84 53
REMARK SMILES IDX 49 54 50 55 64 57 85 58 52 59 36 60 37 61 45 62 38 63 39 64
REMARK SMILES IDX 43 65 46 66 40 67 41 68 44 69 42 70 68 71 69 72 77 73 70 74
REMARK SMILES IDX 71 75 75 76 78 77 72 78 73 79 76 80 74 81 53 82 54 83 62 84
REMARK SMILES IDX 55 85 56 86 60 87 63 88 57 89 58 90 61 91 59 92
REMARK H PARENT 83 45 51 56
REMARK Flexibility Score: inf
ROOT
ATOM      1  C   UNL     1      -5.321   1.852   6.919  1.00  0.00     0.275 C 
ENDROOT
BRANCH   1   2
ATOM      2  O   UNL     1      -4.418   1.094   6.090  1.00  0.00    -0.458 OA
BRANCH   2   3
ATOM      3  C   UNL     1      -4.869   0.808   4.847  1.00  0.00     0.349 C 
ATOM      4  O   UNL     1      -5.974   1.081   4.399  1.00  0.00    -0.245 OA
BRANCH   3   5
ATOM      5  C   UNL     1      -3.831   0.123   4.059  1.00  0.00     0.141 C 
ATOM      6  C   UNL     1      -3.804   0.270   2.718  1.00  0.00     0.074 C 
BRANCH   6   7
ATOM      7  C   UNL     1      -3.070  -0.552   1.806  1.00  0.00     0.129 A 
ATOM      8  C   UNL     1      -1.802  -2.216   1.027  1.00  0.00     0.135 A 
ATOM      9  C   UNL     1      -2.163  -1.467  -0.069  1.00  0.00     0.051 A 
ATOM     10  O   UNL     1      -2.353  -1.677   2.148  1.00  0.00    -0.457 OA
ATOM     11  C   UNL     1      -2.963  -0.409   0.425  1.00  0.00     0.051 A 
BRANCH   8  12
ATOM     12  C   UNL     1      -0.971  -3.399   1.221  1.00  0.00     0.032 A 
ATOM     13  C   UNL     1       0.346  -3.497   0.734  1.00  0.00     0.071 A 
ATOM     14  C   UNL     1       1.064  -4.700   0.852  1.00  0.00     0.016 A 
ATOM     15  C   UNL     1       0.486  -5.805   1.474  1.00  0.00     0.001 A 
ATOM     16  C   UNL     1      -1.528  -4.521   1.861  1.00  0.00     0.013 A 
ATOM     17  C   UNL     1      -0.807  -5.714   1.982  1.00  0.00     0.001 A 
BRANCH  13  18
ATOM     18  C   UNL     1       1.039  -2.382   0.049  1.00  0.00     0.338 C 
ATOM     19  O   UNL     1       1.705  -2.526  -0.962  1.00  0.00    -0.246 OA
BRANCH  18  20
ATOM     20  O   UNL     1       0.852  -1.226   0.731  1.00  0.00    -0.465 OA
ATOM     21  C   UNL     1       1.356  -0.068   0.069  1.00  0.00     0.282 C 
ENDBRANCH  18  20
ENDBRANCH  13  18
ENDBRANCH   8  12
ENDBRANCH   6   7
BRANCH   5  22
ATOM     22  C   UNL     1      -3.229  -1.126   4.681  1.00  0.00     0.107 C 
ATOM     23  N   UNL     1      -2.730  -2.163   5.197  1.00  0.00    -0.192 NA
ENDBRANCH   5  22
ENDBRANCH   3   5
ENDBRANCH   2   3
ENDBRANCH   1   2
BRANCH   1  24
ATOM     24  C   UNL     1      -4.923   3.327   6.923  1.00  0.00     0.275 C 
BRANCH  24  25
ATOM     25  O   UNL     1      -5.041   3.877   5.596  1.00  0.00    -0.458 OA
BRANCH  25  26
ATOM     26  C   UNL     1      -3.873   4.182   4.982  1.00  0.00     0.338 C 
ATOM     27  O   UNL     1      -2.748   4.085   5.437  1.00  0.00    -0.246 OA
BRANCH  26  28
ATOM     28  C   UNL     1      -4.116   4.569   3.580  1.00  0.00     0.060 A 
ATOM     29  C   UNL     1      -4.684   3.639   2.721  1.00  0.00     0.016 A 
ATOM     30  C   UNL     1      -3.602   5.752   3.063  1.00  0.00     0.016 A 
ATOM     31  C   UNL     1      -4.592   3.796   1.343  1.00  0.00     0.010 A 
ATOM     32  C   UNL     1      -3.664   5.986   1.681  1.00  0.00     0.010 A 
ATOM     33  C   UNL     1      -4.112   4.988   0.793  1.00  0.00    -0.014 A 
BRANCH  33  34
ATOM     34  C   UNL     1      -4.044   5.165  -0.689  1.00  0.00     0.031 A 
ATOM     35  C   UNL     1      -2.759   5.616  -1.338  1.00  0.00     0.074 A 
ATOM     36  C   UNL     1      -5.112   4.907  -1.474  1.00  0.00     0.049 A 
ATOM     37  N   UNL     1      -2.557   6.080  -2.545  1.00  0.00    -0.248 NA
ATOM     38  C   UNL     1      -1.542   5.554  -0.512  1.00  0.00     0.031 C 
ATOM     39  C   UNL     1      -6.407   4.397  -1.017  1.00  0.00     0.029 A 
ATOM     40  N   UNL     1      -5.276   5.030  -2.835  1.00  0.00    -0.354 N 
ATOM     41  C   UNL     1      -1.218   6.450  -2.592  1.00  0.00     0.074 A 
ATOM     42  C   UNL     1      -0.649   6.139  -1.298  1.00  0.00     0.031 C 
ATOM     43  C   UNL     1      -7.206   4.197  -2.074  1.00  0.00     0.029 A 
ATOM     44  C   UNL     1      -6.535   4.687  -3.270  1.00  0.00     0.049 A 
ATOM     45  H   UNL     1      -4.561   5.334  -3.439  1.00  0.00     0.167 HD
ATOM     46  C   UNL     1      -0.533   7.008  -3.619  1.00  0.00     0.037 A 
ATOM     47  C   UNL     1      -7.118   4.814  -4.478  1.00  0.00     0.037 A 
ATOM     48  C   UNL     1      -1.082   7.235  -4.931  1.00  0.00     0.049 A 
ATOM     49  C   UNL     1      -6.347   5.453  -5.596  1.00  0.00     0.074 A 
ATOM     50  C   UNL     1      -0.466   7.782  -6.043  1.00  0.00     0.029 A 
ATOM     51  N   UNL     1      -2.373   6.901  -5.314  1.00  0.00    -0.354 N 
ATOM     52  N   UNL     1      -5.115   5.898  -5.601  1.00  0.00    -0.248 NA
ATOM     53  C   UNL     1      -7.060   5.640  -6.867  1.00  0.00     0.031 C 
ATOM     54  C   UNL     1      -1.393   7.806  -7.091  1.00  0.00     0.029 A 
ATOM     55  C   UNL     1      -2.573   7.235  -6.643  1.00  0.00     0.049 A 
ATOM     56  H   UNL     1      -3.046   6.486  -4.727  1.00  0.00     0.167 HD
ATOM     57  C   UNL     1      -4.901   6.411  -6.872  1.00  0.00     0.074 A 
ATOM     58  C   UNL     1      -6.123   6.200  -7.620  1.00  0.00     0.031 C 
ATOM     59  C   UNL     1      -3.795   7.012  -7.372  1.00  0.00     0.037 A 
BRANCH  46  60
ATOM     60  C   UNL     1       0.876   7.457  -3.357  1.00  0.00     0.064 A 
ATOM     61  C   UNL     1       1.935   6.551  -3.204  1.00  0.00     0.173 A 
ATOM     62  C   UNL     1       1.173   8.828  -3.298  1.00  0.00     0.173 A 
ATOM     63  F   UNL     1       1.703   5.230  -3.235  1.00  0.00    -0.203 F 
ATOM     64  C   UNL     1       3.234   7.001  -2.976  1.00  0.00     0.198 A 
ATOM     65  C   UNL     1       2.477   9.275  -3.100  1.00  0.00     0.198 A 
ATOM     66  F   UNL     1       0.198   9.738  -3.444  1.00  0.00    -0.203 F 
ATOM     67  F   UNL     1       4.224   6.117  -2.786  1.00  0.00    -0.200 F 
ATOM     68  C   UNL     1       3.505   8.361  -2.932  1.00  0.00     0.200 A 
ATOM     69  F   UNL     1       2.736  10.589  -3.070  1.00  0.00    -0.200 F 
ATOM     70  F   UNL     1       4.757   8.791  -2.721  1.00  0.00    -0.200 F 
ENDBRANCH  46  60
BRANCH  47  71
ATOM     71  C   UNL     1      -8.531   4.389  -4.668  1.00  0.00     0.064 A 
ATOM     72  C   UNL     1      -8.852   3.297  -5.485  1.00  0.00     0.173 A 
ATOM     73  C   UNL     1      -9.586   5.058  -4.028  1.00  0.00     0.173 A 
ATOM     74  F   UNL     1      -7.882   2.643  -6.140  1.00  0.00    -0.203 F 
ATOM     75  C   UNL     1     -10.175   2.894  -5.659  1.00  0.00     0.198 A 
ATOM     76  C   UNL     1     -10.904   4.632  -4.175  1.00  0.00     0.198 A 
ATOM     77  F   UNL     1      -9.334   6.110  -3.236  1.00  0.00    -0.203 F 
ATOM     78  F   UNL     1     -10.458   1.871  -6.476  1.00  0.00    -0.200 F 
ATOM     79  C   UNL     1     -11.198   3.554  -4.995  1.00  0.00     0.200 A 
ATOM     80  F   UNL     1     -11.887   5.262  -3.517  1.00  0.00    -0.200 F 
ATOM     81  F   UNL     1     -12.468   3.156  -5.151  1.00  0.00    -0.200 F 
ENDBRANCH  47  71
BRANCH  59  82
ATOM     82  C   UNL     1      -3.848   7.453  -8.804  1.00  0.00     0.064 A 
ATOM     83  C   UNL     1      -4.585   8.579  -9.197  1.00  0.00     0.173 A 
ATOM     84  C   UNL     1      -3.132   6.755  -9.788  1.00  0.00     0.173 A 
ATOM     85  F   UNL     1      -5.301   9.266  -8.295  1.00  0.00    -0.203 F 
ATOM     86  C   UNL     1      -4.623   8.976 -10.531  1.00  0.00     0.198 A 
ATOM     87  C   UNL     1      -3.151   7.171 -11.115  1.00  0.00     0.198 A 
ATOM     88  F   UNL     1      -2.410   5.674  -9.459  1.00  0.00    -0.203 F 
ATOM     89  F   UNL     1      -5.371  10.028 -10.894  1.00  0.00    -0.200 F 
ATOM     90  C   UNL     1      -3.902   8.277 -11.487  1.00  0.00     0.200 A 
ATOM     91  F   UNL     1      -2.447   6.499 -12.037  1.00  0.00    -0.200 F 
ATOM     92  F   UNL     1      -3.937   8.662 -12.770  1.00  0.00    -0.200 F 
ENDBRANCH  59  82
ENDBRANCH  33  34
ENDBRANCH  26  28
ENDBRANCH  25  26
ENDBRANCH  24  25
ENDBRANCH   1  24
TORSDOF 16
