REMARK SMILES O=C(N[C@]1(C(=O)OCCOC(=O)c2ccc(-c3c4nc(c(-c5c(F)c(F)c(F)c(F)c5F)c5ccc([nH]5)c(-c5c(F)c(F)c(F)c(F)c5F)c5nc(c(-c6c(F)c(F)c(F)c(F)c6F)c6ccc3[nH]6)C=C5)C=C4)cc2)CC[C@H](c2ccccc2)CC1)OCC1c2ccccc2-c2ccccc21
REMARK SMILES IDX 8 1 7 2 5 3 6 4 4 5 76 6 86 7 77 8 85 9 78 10 3 11 1 12 2 13
REMARK SMILES IDX 87 15 88 16 89 17 90 18 101 19 91 20 95 21 96 22 100 23
REMARK SMILES IDX 92 24 94 25 97 26 99 27 93 28 98 29 79 30 80 31 84 32 81 33
REMARK SMILES IDX 83 34 82 35 9 36 10 37 11 38 12 39 13 40 14 41 75 42 15 43
REMARK SMILES IDX 74 44 16 45 17 46 18 47 68 48 19 49 73 50 67 51 69 52 20 53
REMARK SMILES IDX 72 54 66 55 65 56 21 58 53 59 33 60 52 61 34 62 37 63 51 64
REMARK SMILES IDX 70 65 35 66 36 67 50 69 71 70 38 71 22 72 23 73 31 74 24 75
REMARK SMILES IDX 25 76 29 77 32 78 26 79 27 80 30 81 28 82 54 83 55 84 63 85
REMARK SMILES IDX 56 86 57 87 61 88 64 89 58 90 59 91 62 92 60 93 39 94 40 95
REMARK SMILES IDX 48 96 41 97 42 98 46 99 49 100 43 101 44 102 47 103 45 104
REMARK H PARENT 3 14 69 57 37 68
REMARK Flexibility Score: inf
ROOT
ATOM      1  C   UNL     1       6.545   1.018  -1.870  1.00  0.00     0.274 C 
ENDROOT
BRANCH   1   2
ATOM      2  O   UNL     1       6.203  -0.227  -1.190  1.00  0.00    -0.460 OA
BRANCH   2   3
ATOM      3  C   UNL     1       4.940  -0.256  -0.707  1.00  0.00     0.332 C 
ATOM      4  O   UNL     1       4.131   0.596  -1.073  1.00  0.00    -0.249 OA
BRANCH   3   5
ATOM      5  C   UNL     1       4.520  -1.452   0.275  1.00  0.00     0.141 C 
ATOM      6  C   UNL     1       5.066  -1.757   1.702  1.00  0.00     0.041 C 
ATOM      7  C   UNL     1       4.675  -2.749  -0.535  1.00  0.00     0.041 C 
ATOM      8  C   UNL     1       6.419  -2.411   1.882  1.00  0.00     0.011 C 
ATOM      9  C   UNL     1       6.139  -3.229  -0.512  1.00  0.00     0.011 C 
ATOM     10  C   UNL     1       6.712  -3.519   0.892  1.00  0.00     0.019 C 
BRANCH   5  11
ATOM     11  N   UNL     1       3.097  -1.057   0.535  1.00  0.00    -0.305 N 
ATOM     12  O   UNL     1       1.735   0.703   1.131  1.00  0.00    -0.225 OA
ATOM     13  C   UNL     1       2.825   0.167   1.146  1.00  0.00     0.408 C 
ATOM     14  H   UNL     1       2.361  -1.657   0.277  1.00  0.00     0.168 HD
BRANCH  13  15
ATOM     15  O   UNL     1       3.966   0.703   1.677  1.00  0.00    -0.449 OA
BRANCH  15  16
ATOM     16  C   UNL     1       4.273   2.076   1.429  1.00  0.00     0.248 C 
BRANCH  16  17
ATOM     17  C   UNL     1       5.605   2.501   2.110  1.00  0.00     0.088 C 
ATOM     18  C   UNL     1       6.997   2.031   1.631  1.00  0.00    -0.029 A 
ATOM     19  C   UNL     1       5.766   4.009   1.905  1.00  0.00    -0.029 A 
ATOM     20  C   UNL     1       7.518   0.785   1.395  1.00  0.00     0.005 A 
ATOM     21  C   UNL     1       7.868   3.118   1.487  1.00  0.00    -0.014 A 
ATOM     22  C   UNL     1       7.059   4.300   1.428  1.00  0.00    -0.014 A 
ATOM     23  C   UNL     1       4.763   4.961   1.896  1.00  0.00     0.005 A 
ATOM     24  C   UNL     1       8.901   0.588   1.235  1.00  0.00     0.000 A 
ATOM     25  C   UNL     1       9.249   2.960   1.381  1.00  0.00     0.009 A 
ATOM     26  C   UNL     1       7.300   5.468   0.733  1.00  0.00     0.009 A 
ATOM     27  C   UNL     1       5.006   6.141   1.203  1.00  0.00     0.000 A 
ATOM     28  C   UNL     1       9.774   1.673   1.302  1.00  0.00     0.001 A 
ATOM     29  C   UNL     1       6.247   6.371   0.588  1.00  0.00     0.001 A 
ENDBRANCH  16  17
ENDBRANCH  15  16
ENDBRANCH  13  15
ENDBRANCH   5  11
BRANCH  10  30
ATOM     30  C   UNL     1       6.371  -4.901   1.407  1.00  0.00    -0.045 A 
ATOM     31  C   UNL     1       5.666  -5.148   2.595  1.00  0.00     0.004 A 
ATOM     32  C   UNL     1       6.874  -5.994   0.689  1.00  0.00     0.004 A 
ATOM     33  C   UNL     1       5.477  -6.449   3.053  1.00  0.00     0.000 A 
ATOM     34  C   UNL     1       6.661  -7.294   1.132  1.00  0.00     0.000 A 
ATOM     35  C   UNL     1       5.968  -7.521   2.316  1.00  0.00     0.000 A 
ENDBRANCH  10  30
ENDBRANCH   3   5
ENDBRANCH   2   3
ENDBRANCH   1   2
BRANCH   1  36
ATOM     36  C   UNL     1       6.140   1.152  -3.356  1.00  0.00     0.275 C 
BRANCH  36  37
ATOM     37  O   UNL     1       4.726   1.348  -3.558  1.00  0.00    -0.458 OA
BRANCH  37  38
ATOM     38  C   UNL     1       4.020   0.224  -3.836  1.00  0.00     0.338 C 
ATOM     39  O   UNL     1       4.484  -0.878  -4.089  1.00  0.00    -0.246 OA
BRANCH  38  40
ATOM     40  C   UNL     1       2.582   0.435  -3.540  1.00  0.00     0.060 A 
ATOM     41  C   UNL     1       1.969  -0.528  -2.726  1.00  0.00     0.016 A 
ATOM     42  C   UNL     1       1.851   1.540  -3.983  1.00  0.00     0.016 A 
ATOM     43  C   UNL     1       0.653  -0.372  -2.305  1.00  0.00     0.010 A 
ATOM     44  C   UNL     1       0.502   1.663  -3.616  1.00  0.00     0.010 A 
ATOM     45  C   UNL     1      -0.100   0.706  -2.778  1.00  0.00    -0.014 A 
BRANCH  45  46
ATOM     46  C   UNL     1      -1.567   0.682  -2.570  1.00  0.00     0.031 A 
ATOM     47  C   UNL     1      -2.396  -0.098  -3.551  1.00  0.00     0.074 A 
ATOM     48  C   UNL     1      -2.148   1.270  -1.510  1.00  0.00     0.049 A 
ATOM     49  N   UNL     1      -3.693  -0.252  -3.615  1.00  0.00    -0.248 NA
ATOM     50  C   UNL     1      -1.651  -0.820  -4.596  1.00  0.00     0.031 C 
ATOM     51  C   UNL     1      -1.446   1.951  -0.426  1.00  0.00     0.029 A 
ATOM     52  N   UNL     1      -3.477   1.383  -1.176  1.00  0.00    -0.354 N 
ATOM     53  C   UNL     1      -3.916  -1.084  -4.703  1.00  0.00     0.074 A 
ATOM     54  C   UNL     1      -2.627  -1.398  -5.277  1.00  0.00     0.031 C 
ATOM     55  C   UNL     1      -2.353   2.436   0.442  1.00  0.00     0.029 A 
ATOM     56  C   UNL     1      -3.697   2.130  -0.044  1.00  0.00     0.049 A 
ATOM     57  H   UNL     1      -4.201   0.968  -1.697  1.00  0.00     0.167 HD
ATOM     58  C   UNL     1      -5.095  -1.540  -5.186  1.00  0.00     0.037 A 
ATOM     59  C   UNL     1      -4.857   2.539   0.509  1.00  0.00     0.037 A 
ATOM     60  C   UNL     1      -6.377  -1.197  -4.635  1.00  0.00     0.049 A 
ATOM     61  C   UNL     1      -6.163   2.131  -0.134  1.00  0.00     0.074 A 
ATOM     62  C   UNL     1      -7.633  -1.582  -5.069  1.00  0.00     0.029 A 
ATOM     63  N   UNL     1      -6.566  -0.371  -3.537  1.00  0.00    -0.354 N 
ATOM     64  N   UNL     1      -6.375   1.350  -1.165  1.00  0.00    -0.248 NA
ATOM     65  C   UNL     1      -7.394   2.669   0.466  1.00  0.00     0.031 C 
ATOM     66  C   UNL     1      -8.584  -0.932  -4.276  1.00  0.00     0.029 A 
ATOM     67  C   UNL     1      -7.921  -0.204  -3.300  1.00  0.00     0.049 A 
ATOM     68  H   UNL     1      -5.845   0.037  -3.005  1.00  0.00     0.167 HD
ATOM     69  C   UNL     1      -7.756   1.270  -1.312  1.00  0.00     0.074 A 
ATOM     70  C   UNL     1      -8.333   2.075  -0.257  1.00  0.00     0.031 C 
ATOM     71  C   UNL     1      -8.480   0.589  -2.235  1.00  0.00     0.037 A 
BRANCH  58  72
ATOM     72  C   UNL     1      -5.046  -2.396  -6.416  1.00  0.00     0.064 A 
ATOM     73  C   UNL     1      -4.549  -3.708  -6.389  1.00  0.00     0.173 A 
ATOM     74  C   UNL     1      -5.507  -1.893  -7.642  1.00  0.00     0.173 A 
ATOM     75  F   UNL     1      -4.073  -4.228  -5.248  1.00  0.00    -0.203 F 
ATOM     76  C   UNL     1      -4.490  -4.473  -7.551  1.00  0.00     0.198 A 
ATOM     77  C   UNL     1      -5.477  -2.672  -8.794  1.00  0.00     0.198 A 
ATOM     78  F   UNL     1      -5.987  -0.643  -7.722  1.00  0.00    -0.203 F 
ATOM     79  F   UNL     1      -3.960  -5.704  -7.515  1.00  0.00    -0.200 F 
ATOM     80  C   UNL     1      -4.961  -3.958  -8.750  1.00  0.00     0.200 A 
ATOM     81  F   UNL     1      -5.941  -2.175  -9.949  1.00  0.00    -0.200 F 
ATOM     82  F   UNL     1      -4.907  -4.697  -9.866  1.00  0.00    -0.200 F 
ENDBRANCH  58  72
BRANCH  59  83
ATOM     83  C   UNL     1      -4.854   3.415   1.714  1.00  0.00     0.064 A 
ATOM     84  C   UNL     1      -5.402   2.981   2.930  1.00  0.00     0.173 A 
ATOM     85  C   UNL     1      -4.364   4.729   1.656  1.00  0.00     0.173 A 
ATOM     86  F   UNL     1      -5.918   1.748   3.031  1.00  0.00    -0.203 F 
ATOM     87  C   UNL     1      -5.485   3.835   4.030  1.00  0.00     0.198 A 
ATOM     88  C   UNL     1      -4.417   5.570   2.766  1.00  0.00     0.198 A 
ATOM     89  F   UNL     1      -3.845   5.204   0.514  1.00  0.00    -0.203 F 
ATOM     90  F   UNL     1      -6.076   3.416   5.157  1.00  0.00    -0.200 F 
ATOM     91  C   UNL     1      -4.988   5.127   3.949  1.00  0.00     0.200 A 
ATOM     92  F   UNL     1      -3.933   6.817   2.683  1.00  0.00    -0.200 F 
ATOM     93  F   UNL     1      -5.077   5.950   5.002  1.00  0.00    -0.200 F 
ENDBRANCH  59  83
BRANCH  71  94
ATOM     94  C   UNL     1      -9.979   0.634  -2.119  1.00  0.00     0.064 A 
ATOM     95  C   UNL     1     -10.711   1.797  -2.397  1.00  0.00     0.173 A 
ATOM     96  C   UNL     1     -10.695  -0.526  -1.782  1.00  0.00     0.173 A 
ATOM     97  F   UNL     1     -10.076   2.936  -2.714  1.00  0.00    -0.203 F 
ATOM     98  C   UNL     1     -12.101   1.805  -2.314  1.00  0.00     0.198 A 
ATOM     99  C   UNL     1     -12.086  -0.524  -1.737  1.00  0.00     0.198 A 
ATOM    100  F   UNL     1     -10.046  -1.670  -1.517  1.00  0.00    -0.203 F 
ATOM    101  F   UNL     1     -12.777   2.941  -2.535  1.00  0.00    -0.200 F 
ATOM    102  C   UNL     1     -12.788   0.643  -1.994  1.00  0.00     0.200 A 
ATOM    103  F   UNL     1     -12.747  -1.654  -1.448  1.00  0.00    -0.200 F 
ATOM    104  F   UNL     1     -14.126   0.649  -1.930  1.00  0.00    -0.200 F 
ENDBRANCH  71  94
ENDBRANCH  45  46
ENDBRANCH  38  40
ENDBRANCH  37  38
ENDBRANCH  36  37
ENDBRANCH   1  36
TORSDOF 16
