REMARK SMILES CC1(C)CCCC[C@H]1NC(=O)Nc1ccccc1C(=O)OCCOC(=O)c1ccc(-c2c3nc(c(-c4c(F)c(F)c(F)c(F)c4F)c4ccc([nH]4)c(-c4c(F)c(F)c(F)c(F)c4F)c4nc(c(-c5c(F)c(F)c(F)c(F)c5F)c5ccc2[nH]5)C=C4)C=C3)cc1
REMARK SMILES IDX 22 1 21 2 19 3 20 4 18 5 13 6 14 7 15 8 17 9 16 10 12 11
REMARK SMILES IDX 9 12 10 13 11 15 8 17 1 18 2 19 3 20 4 21 5 22 7 23 6 24
REMARK SMILES IDX 23 25 24 26 25 27 26 28 27 29 28 30 89 31 29 32 88 33 30 34
REMARK SMILES IDX 31 35 32 36 82 37 33 38 87 39 81 40 83 41 34 42 86 43 80 44
REMARK SMILES IDX 79 45 35 47 67 48 47 49 66 50 48 51 51 52 65 53 84 54 49 55
REMARK SMILES IDX 50 56 64 58 85 59 52 60 36 61 37 62 45 63 38 64 39 65 43 66
REMARK SMILES IDX 46 67 40 68 41 69 44 70 42 71 68 72 69 73 77 74 70 75 71 76
REMARK SMILES IDX 75 77 78 78 72 79 73 80 76 81 74 82 53 83 54 84 62 85 55 86
REMARK SMILES IDX 56 87 60 88 63 89 57 90 58 91 61 92 59 93
REMARK H PARENT 9 14 12 16 83 46 51 57
REMARK Flexibility Score: inf
ROOT
ATOM      1  C   UNL     1       4.461  -2.243  -3.715  1.00  0.00     0.275 C 
ENDROOT
BRANCH   1   2
ATOM      2  O   UNL     1       3.340  -2.102  -4.618  1.00  0.00    -0.458 OA
BRANCH   2   3
ATOM      3  C   UNL     1       2.713  -0.917  -4.500  1.00  0.00     0.340 C 
ATOM      4  O   UNL     1       3.151   0.061  -3.914  1.00  0.00    -0.246 OA
BRANCH   3   5
ATOM      5  C   UNL     1       1.387  -0.820  -5.108  1.00  0.00     0.083 A 
ATOM      6  C   UNL     1       0.277  -1.539  -4.649  1.00  0.00     0.057 A 
ATOM      7  C   UNL     1      -0.968  -1.297  -5.258  1.00  0.00     0.027 A 
ATOM      8  C   UNL     1      -1.133  -0.262  -6.185  1.00  0.00     0.002 A 
ATOM      9  C   UNL     1       1.220   0.194  -6.072  1.00  0.00     0.018 A 
ATOM     10  C   UNL     1      -0.040   0.496  -6.582  1.00  0.00     0.001 A 
BRANCH   6  11
ATOM     11  N   UNL     1       0.271  -2.502  -3.625  1.00  0.00    -0.307 N 
ATOM     12  N   UNL     1       1.420  -1.661  -1.723  1.00  0.00    -0.335 N 
ATOM     13  C   UNL     1       0.992  -2.677  -2.498  1.00  0.00     0.319 C 
ATOM     14  H   UNL     1       2.039  -1.949  -1.014  1.00  0.00     0.165 HD
ATOM     15  O   UNL     1       1.159  -3.825  -2.078  1.00  0.00    -0.248 OA
ATOM     16  H   UNL     1      -0.408  -3.201  -3.759  1.00  0.00     0.171 HD
BRANCH  12  17
ATOM     17  C   UNL     1       1.160  -0.220  -1.709  1.00  0.00     0.089 C 
ATOM     18  C   UNL     1       0.047  -0.119   0.618  1.00  0.00     0.013 C 
ATOM     19  C   UNL     1      -0.086   0.223  -0.880  1.00  0.00    -0.015 C 
ATOM     20  C   UNL     1      -1.372  -0.452  -1.394  1.00  0.00     0.013 C 
ATOM     21  C   UNL     1      -0.245   1.761  -1.068  1.00  0.00     0.008 C 
ATOM     22  C   UNL     1       1.019   2.571  -0.761  1.00  0.00     0.001 C 
ATOM     23  C   UNL     1       2.415   0.535  -1.220  1.00  0.00     0.025 C 
ATOM     24  C   UNL     1       2.251   2.029  -1.475  1.00  0.00     0.002 C 
ENDBRANCH  12  17
ENDBRANCH   6  11
ENDBRANCH   3   5
ENDBRANCH   2   3
ENDBRANCH   1   2
BRANCH   1  25
ATOM     25  C   UNL     1       5.782  -1.608  -4.184  1.00  0.00     0.275 C 
BRANCH  25  26
ATOM     26  O   UNL     1       5.781  -0.163  -4.147  1.00  0.00    -0.458 OA
BRANCH  26  27
ATOM     27  C   UNL     1       5.657   0.451  -5.349  1.00  0.00     0.338 C 
ATOM     28  O   UNL     1       5.613  -0.077  -6.445  1.00  0.00    -0.246 OA
BRANCH  27  29
ATOM     29  C   UNL     1       5.516   1.915  -5.194  1.00  0.00     0.060 A 
ATOM     30  C   UNL     1       4.233   2.462  -5.133  1.00  0.00     0.016 A 
ATOM     31  C   UNL     1       6.617   2.757  -5.340  1.00  0.00     0.016 A 
ATOM     32  C   UNL     1       4.024   3.826  -5.245  1.00  0.00     0.010 A 
ATOM     33  C   UNL     1       6.414   4.142  -5.437  1.00  0.00     0.010 A 
ATOM     34  C   UNL     1       5.113   4.676  -5.420  1.00  0.00    -0.014 A 
BRANCH  34  35
ATOM     35  C   UNL     1       4.848   6.096  -5.736  1.00  0.00     0.031 A 
ATOM     36  C   UNL     1       5.065   6.577  -7.141  1.00  0.00     0.074 A 
ATOM     37  C   UNL     1       4.314   6.913  -4.810  1.00  0.00     0.049 A 
ATOM     38  N   UNL     1       5.050   7.795  -7.614  1.00  0.00    -0.248 NA
ATOM     39  C   UNL     1       5.323   5.539  -8.154  1.00  0.00     0.031 C 
ATOM     40  C   UNL     1       3.920   6.514  -3.458  1.00  0.00     0.029 A 
ATOM     41  N   UNL     1       4.005   8.247  -4.870  1.00  0.00    -0.354 N 
ATOM     42  C   UNL     1       5.343   7.675  -8.966  1.00  0.00     0.074 A 
ATOM     43  C   UNL     1       5.520   6.267  -9.243  1.00  0.00     0.031 C 
ATOM     44  C   UNL     1       3.425   7.583  -2.814  1.00  0.00     0.029 A 
ATOM     45  C   UNL     1       3.544   8.753  -3.679  1.00  0.00     0.049 A 
ATOM     46  H   UNL     1       4.103   8.789  -5.686  1.00  0.00     0.167 HD
ATOM     47  C   UNL     1       5.464   8.662  -9.884  1.00  0.00     0.037 A 
ATOM     48  C   UNL     1       3.304  10.027  -3.317  1.00  0.00     0.037 A 
ATOM     49  C   UNL     1       5.259  10.056  -9.588  1.00  0.00     0.049 A 
ATOM     50  C   UNL     1       3.548  11.118  -4.326  1.00  0.00     0.074 A 
ATOM     51  C   UNL     1       5.401  11.150 -10.421  1.00  0.00     0.029 A 
ATOM     52  N   UNL     1       4.855  10.541  -8.351  1.00  0.00    -0.354 N 
ATOM     53  N   UNL     1       3.921  11.020  -5.579  1.00  0.00    -0.248 NA
ATOM     54  C   UNL     1       3.357  12.500  -3.864  1.00  0.00     0.031 C 
ATOM     55  C   UNL     1       5.120  12.301  -9.678  1.00  0.00     0.029 A 
ATOM     56  C   UNL     1       4.755  11.921  -8.396  1.00  0.00     0.049 A 
ATOM     57  H   UNL     1       4.667   9.987  -7.560  1.00  0.00     0.167 HD
ATOM     58  C   UNL     1       3.991  12.319  -6.062  1.00  0.00     0.074 A 
ATOM     59  C   UNL     1       3.604  13.188  -4.970  1.00  0.00     0.031 C 
ATOM     60  C   UNL     1       4.349  12.757  -7.294  1.00  0.00     0.037 A 
BRANCH  47  61
ATOM     61  C   UNL     1       5.897   8.275 -11.266  1.00  0.00     0.064 A 
ATOM     62  C   UNL     1       5.042   7.612 -12.158  1.00  0.00     0.173 A 
ATOM     63  C   UNL     1       7.192   8.586 -11.708  1.00  0.00     0.173 A 
ATOM     64  F   UNL     1       3.801   7.273 -11.778  1.00  0.00    -0.203 F 
ATOM     65  C   UNL     1       5.475   7.257 -13.434  1.00  0.00     0.198 A 
ATOM     66  C   UNL     1       7.613   8.252 -12.992  1.00  0.00     0.198 A 
ATOM     67  F   UNL     1       8.051   9.217 -10.893  1.00  0.00    -0.203 F 
ATOM     68  F   UNL     1       4.656   6.584 -14.255  1.00  0.00    -0.200 F 
ATOM     69  C   UNL     1       6.757   7.582 -13.852  1.00  0.00     0.200 A 
ATOM     70  F   UNL     1       8.850   8.576 -13.396  1.00  0.00    -0.200 F 
ATOM     71  F   UNL     1       7.170   7.243 -15.081  1.00  0.00    -0.200 F 
ENDBRANCH  47  61
BRANCH  48  72
ATOM     72  C   UNL     1       2.885  10.345  -1.926  1.00  0.00     0.064 A 
ATOM     73  C   UNL     1       1.628  10.903  -1.655  1.00  0.00     0.173 A 
ATOM     74  C   UNL     1       3.745  10.122  -0.839  1.00  0.00     0.173 A 
ATOM     75  F   UNL     1       0.779  11.162  -2.661  1.00  0.00    -0.203 F 
ATOM     76  C   UNL     1       1.256  11.241  -0.355  1.00  0.00     0.198 A 
ATOM     77  C   UNL     1       3.358  10.429   0.464  1.00  0.00     0.198 A 
ATOM     78  F   UNL     1       4.962   9.596  -1.041  1.00  0.00    -0.203 F 
ATOM     79  F   UNL     1       0.069  11.821  -0.130  1.00  0.00    -0.200 F 
ATOM     80  C   UNL     1       2.118  10.998   0.704  1.00  0.00     0.200 A 
ATOM     81  F   UNL     1       4.191  10.179   1.484  1.00  0.00    -0.200 F 
ATOM     82  F   UNL     1       1.758  11.322   1.953  1.00  0.00    -0.200 F 
ENDBRANCH  48  72
BRANCH  60  83
ATOM     83  C   UNL     1       4.292  14.236  -7.535  1.00  0.00     0.064 A 
ATOM     84  C   UNL     1       5.241  15.108  -6.985  1.00  0.00     0.173 A 
ATOM     85  C   UNL     1       3.296  14.778  -8.361  1.00  0.00     0.173 A 
ATOM     86  F   UNL     1       6.202  14.637  -6.175  1.00  0.00    -0.203 F 
ATOM     87  C   UNL     1       5.182  16.476  -7.236  1.00  0.00     0.198 A 
ATOM     88  C   UNL     1       3.258  16.142  -8.633  1.00  0.00     0.198 A 
ATOM     89  F   UNL     1       2.369  13.982  -8.915  1.00  0.00    -0.203 F 
ATOM     90  F   UNL     1       6.072  17.299  -6.664  1.00  0.00    -0.200 F 
ATOM     91  C   UNL     1       4.196  16.990  -8.065  1.00  0.00     0.200 A 
ATOM     92  F   UNL     1       2.312  16.635  -9.445  1.00  0.00    -0.200 F 
ATOM     93  F   UNL     1       4.146  18.306  -8.312  1.00  0.00    -0.200 F 
ENDBRANCH  60  83
ENDBRANCH  34  35
ENDBRANCH  27  29
ENDBRANCH  26  27
ENDBRANCH  25  26
ENDBRANCH   1  25
TORSDOF 13
