REMARK SMILES O=C(C[NH2+]CC[NH+]1CCCCCC1)OCCOC(=O)c1ccc(-c2c3nc(c(-c4c(F)c(F)c(F)c(F)c4F)c4ccc([nH]4)c(-c4c(F)c(F)c(F)c(F)c4F)c4nc(c(-c5c(F)c(F)c(F)c(F)c5F)c5ccc2[nH]5)C=C4)C=C3)cc1
REMARK SMILES IDX 1 1 2 2 3 3 4 4 5 7 6 8 7 9 8 11 9 12 10 13 13 15 12 16
REMARK SMILES IDX 11 17 14 19 15 20 16 21 17 22 18 23 19 24 20 25 21 26 82 27
REMARK SMILES IDX 22 28 81 29 23 30 24 31 25 32 75 33 26 34 80 35 74 36 76 37
REMARK SMILES IDX 27 38 79 39 73 40 72 41 28 43 60 44 40 45 59 46 41 47 44 48
REMARK SMILES IDX 58 49 77 50 42 51 43 52 57 54 78 55 45 56 29 57 30 58 38 59
REMARK SMILES IDX 31 60 32 61 36 62 39 63 33 64 34 65 37 66 35 67 61 68 62 69
REMARK SMILES IDX 70 70 63 71 64 72 68 73 71 74 65 75 66 76 69 77 67 78 46 79
REMARK SMILES IDX 47 80 55 81 48 82 49 83 53 84 56 85 50 86 51 87 54 88 52 89
REMARK H PARENT 4 5 4 6 7 10 76 42 44 53
REMARK Flexibility Score: 90.00
ROOT
ATOM      1  O   UNL     1       2.349   0.327   1.770  1.00  0.00    -0.245 OA
ATOM      2  C   UNL     1       3.119   0.063   0.847  1.00  0.00     0.361 C 
ENDROOT
BRANCH   2   3
ATOM      3  C   UNL     1       3.638   1.159  -0.069  1.00  0.00     0.385 C 
BRANCH   3   4
ATOM      4  N   UNL     1       4.643   1.994   0.603  1.00  0.00    -0.332 N 
ATOM      5  H   UNL     1       5.460   1.421   0.816  1.00  0.00     0.346 HD
ATOM      6  H   UNL     1       4.227   2.368   1.456  1.00  0.00     0.346 HD
BRANCH   4   7
ATOM      7  C   UNL     1       5.061   3.127  -0.238  1.00  0.00     0.323 C 
BRANCH   7   8
ATOM      8  C   UNL     1       3.961   4.041  -0.852  1.00  0.00     0.324 C 
BRANCH   8   9
ATOM      9  N   UNL     1       3.196   4.955   0.023  1.00  0.00    -0.330 N 
ATOM     10  H   UNL     1       2.343   5.215  -0.472  1.00  0.00     0.348 HD
BRANCH   9  11
ATOM     11  C   UNL     1       2.643   4.332   1.221  1.00  0.00     0.262 C 
BRANCH  11  12
ATOM     12  C   UNL     1       1.275   4.881   1.623  1.00  0.00     0.061 C 
BRANCH  12  13
ATOM     13  C   UNL     1       1.289   6.263   2.249  1.00  0.00     0.006 CG0
ATOM     14  G   UNL     1       1.900   7.333   1.353  1.00  0.00     0.000 G0
ENDBRANCH  12  13
ENDBRANCH  11  12
ENDBRANCH   9  11
BRANCH   9  15
ATOM     15  C   UNL     1       3.941   6.196   0.238  1.00  0.00     0.262 C 
BRANCH  15  16
ATOM     16  C   UNL     1       3.416   7.200   1.267  1.00  0.00     0.061 C 
BRANCH  16  17
ATOM     17  C   UNL     1       1.900   7.333   1.353  1.00  0.00     0.006 CG0
ATOM     18  G   UNL     1       1.289   6.263   2.249  1.00  0.00     0.000 G0
ENDBRANCH  16  17
ENDBRANCH  15  16
ENDBRANCH   9  15
ENDBRANCH   8   9
ENDBRANCH   7   8
ENDBRANCH   4   7
ENDBRANCH   3   4
ENDBRANCH   2   3
BRANCH   2  19
ATOM     19  O   UNL     1       3.489  -1.213   0.593  1.00  0.00    -0.458 OA
BRANCH  19  20
ATOM     20  C   UNL     1       4.660  -1.545  -0.178  1.00  0.00     0.274 C 
BRANCH  20  21
ATOM     21  C   UNL     1       4.288  -2.063  -1.572  1.00  0.00     0.275 C 
BRANCH  21  22
ATOM     22  O   UNL     1       3.833  -0.998  -2.437  1.00  0.00    -0.458 OA
BRANCH  22  23
ATOM     23  C   UNL     1       2.486  -0.837  -2.539  1.00  0.00     0.338 C 
ATOM     24  O   UNL     1       1.639  -1.547  -2.042  1.00  0.00    -0.246 OA
BRANCH  23  25
ATOM     25  C   UNL     1       2.171   0.456  -3.218  1.00  0.00     0.060 A 
ATOM     26  C   UNL     1       0.977   1.106  -2.872  1.00  0.00     0.016 A 
ATOM     27  C   UNL     1       3.025   1.048  -4.153  1.00  0.00     0.016 A 
ATOM     28  C   UNL     1       0.630   2.329  -3.464  1.00  0.00     0.010 A 
ATOM     29  C   UNL     1       2.675   2.271  -4.747  1.00  0.00     0.010 A 
ATOM     30  C   UNL     1       1.469   2.917  -4.418  1.00  0.00    -0.014 A 
BRANCH  30  31
ATOM     31  C   UNL     1       1.074   4.163  -5.132  1.00  0.00     0.031 A 
ATOM     32  C   UNL     1       0.506   4.082  -6.520  1.00  0.00     0.074 A 
ATOM     33  C   UNL     1       1.242   5.377  -4.574  1.00  0.00     0.049 A 
ATOM     34  N   UNL     1       0.192   5.053  -7.342  1.00  0.00    -0.248 NA
ATOM     35  C   UNL     1       0.237   2.736  -7.044  1.00  0.00     0.031 C 
ATOM     36  C   UNL     1       1.697   5.621  -3.213  1.00  0.00     0.029 A 
ATOM     37  N   UNL     1       1.078   6.638  -5.102  1.00  0.00    -0.354 N 
ATOM     38  C   UNL     1      -0.335   4.439  -8.468  1.00  0.00     0.074 A 
ATOM     39  C   UNL     1      -0.258   3.009  -8.244  1.00  0.00     0.031 C 
ATOM     40  C   UNL     1       1.857   6.943  -3.033  1.00  0.00     0.029 A 
ATOM     41  C   UNL     1       1.526   7.638  -4.273  1.00  0.00     0.049 A 
ATOM     42  H   UNL     1       0.679   6.806  -5.986  1.00  0.00     0.167 HD
ATOM     43  C   UNL     1      -0.859   5.014  -9.575  1.00  0.00     0.037 A 
ATOM     44  C   UNL     1       1.690   8.957  -4.491  1.00  0.00     0.037 A 
ATOM     45  C   UNL     1      -0.949   6.431  -9.810  1.00  0.00     0.049 A 
ATOM     46  C   UNL     1       1.260   9.559  -5.801  1.00  0.00     0.074 A 
ATOM     47  C   UNL     1      -1.543   7.092 -10.872  1.00  0.00     0.029 A 
ATOM     48  N   UNL     1      -0.412   7.406  -8.985  1.00  0.00    -0.354 N 
ATOM     49  N   UNL     1       0.698   8.977  -6.830  1.00  0.00    -0.248 NA
ATOM     50  C   UNL     1       1.473  11.005  -5.976  1.00  0.00     0.031 C 
ATOM     51  C   UNL     1      -1.313   8.464 -10.721  1.00  0.00     0.029 A 
ATOM     52  C   UNL     1      -0.613   8.660  -9.543  1.00  0.00     0.049 A 
ATOM     53  H   UNL     1       0.045   7.234  -8.130  1.00  0.00     0.167 HD
ATOM     54  C   UNL     1       0.450   9.986  -7.751  1.00  0.00     0.074 A 
ATOM     55  C   UNL     1       0.928  11.219  -7.165  1.00  0.00     0.031 C 
ATOM     56  C   UNL     1      -0.138   9.891  -8.968  1.00  0.00     0.037 A 
BRANCH  43  57
ATOM     57  C   UNL     1      -1.387   4.106 -10.641  1.00  0.00     0.064 A 
ATOM     58  C   UNL     1      -2.625   3.463 -10.502  1.00  0.00     0.173 A 
ATOM     59  C   UNL     1      -0.684   3.942 -11.843  1.00  0.00     0.173 A 
ATOM     60  F   UNL     1      -3.327   3.586  -9.366  1.00  0.00    -0.203 F 
ATOM     61  C   UNL     1      -3.139   2.679 -11.531  1.00  0.00     0.198 A 
ATOM     62  C   UNL     1      -1.210   3.173 -12.876  1.00  0.00     0.198 A 
ATOM     63  F   UNL     1       0.502   4.542 -12.019  1.00  0.00    -0.203 F 
ATOM     64  F   UNL     1      -4.315   2.057 -11.374  1.00  0.00    -0.200 F 
ATOM     65  C   UNL     1      -2.436   2.542 -12.719  1.00  0.00     0.200 A 
ATOM     66  F   UNL     1      -0.534   3.047 -14.026  1.00  0.00    -0.200 F 
ATOM     67  F   UNL     1      -2.939   1.798 -13.714  1.00  0.00    -0.200 F 
ENDBRANCH  43  57
BRANCH  44  68
ATOM     68  C   UNL     1       2.341   9.805  -3.459  1.00  0.00     0.064 A 
ATOM     69  C   UNL     1       1.626  10.784  -2.759  1.00  0.00     0.173 A 
ATOM     70  C   UNL     1       3.714   9.682  -3.196  1.00  0.00     0.173 A 
ATOM     71  F   UNL     1       0.319  10.960  -3.001  1.00  0.00    -0.203 F 
ATOM     72  C   UNL     1       2.265  11.629  -1.853  1.00  0.00     0.198 A 
ATOM     73  C   UNL     1       4.346  10.510  -2.272  1.00  0.00     0.198 A 
ATOM     74  F   UNL     1       4.445   8.765  -3.847  1.00  0.00    -0.203 F 
ATOM     75  F   UNL     1       1.571  12.597  -1.239  1.00  0.00    -0.200 F 
ATOM     76  C   UNL     1       3.624  11.489  -1.608  1.00  0.00     0.200 A 
ATOM     77  F   UNL     1       5.658  10.369  -2.036  1.00  0.00    -0.200 F 
ATOM     78  F   UNL     1       4.240  12.310  -0.746  1.00  0.00    -0.200 F 
ENDBRANCH  44  68
BRANCH  56  79
ATOM     79  C   UNL     1      -0.331  11.159  -9.746  1.00  0.00     0.064 A 
ATOM     80  C   UNL     1       0.746  11.812 -10.363  1.00  0.00     0.173 A 
ATOM     81  C   UNL     1      -1.612  11.710  -9.907  1.00  0.00     0.173 A 
ATOM     82  F   UNL     1       1.993  11.337 -10.222  1.00  0.00    -0.203 F 
ATOM     83  C   UNL     1       0.550  12.979 -11.098  1.00  0.00     0.198 A 
ATOM     84  C   UNL     1      -1.808  12.862 -10.664  1.00  0.00     0.198 A 
ATOM     85  F   UNL     1      -2.676  11.123  -9.340  1.00  0.00    -0.203 F 
ATOM     86  F   UNL     1       1.599  13.608 -11.645  1.00  0.00    -0.200 F 
ATOM     87  C   UNL     1      -0.727  13.498 -11.254  1.00  0.00     0.200 A 
ATOM     88  F   UNL     1      -3.043  13.356 -10.822  1.00  0.00    -0.200 F 
ATOM     89  F   UNL     1      -0.914  14.617 -11.968  1.00  0.00    -0.200 F 
ENDBRANCH  56  79
ENDBRANCH  30  31
ENDBRANCH  23  25
ENDBRANCH  22  23
ENDBRANCH  21  22
ENDBRANCH  20  21
ENDBRANCH  19  20
ENDBRANCH   2  19
TORSDOF 15
