REMARK SMILES CCn1ccc2cc(S(=O)(=O)N3CCC[C@@H](C(=O)OCCOC(=O)c4ccc(-c5c6nc(c(-c7c(F)c(F)c(F)c(F)c7F)c7ccc([nH]7)c(-c7c(F)c(F)c(F)c(F)c7F)c7nc(c(-c8c(F)c(F)c(F)c(F)c8F)c8ccc5[nH]8)C=C7)C=C6)cc4)C3)ccc21
REMARK SMILES IDX 20 1 19 2 17 3 18 4 16 5 12 6 13 7 88 8 14 9 15 10 9 11
REMARK SMILES IDX 10 12 11 13 8 14 3 15 4 16 91 17 5 18 6 19 90 20 7 21 89 22
REMARK SMILES IDX 2 23 1 24 21 25 22 26 23 27 24 28 25 29 26 30 87 31 27 32
REMARK SMILES IDX 86 33 28 34 29 35 30 36 80 37 31 38 85 39 79 40 81 41 32 42
REMARK SMILES IDX 84 43 78 44 77 45 33 47 65 48 45 49 64 50 46 51 49 52 63 53
REMARK SMILES IDX 82 54 47 55 48 56 62 58 83 59 50 60 34 61 35 62 43 63 36 64
REMARK SMILES IDX 37 65 41 66 44 67 38 68 39 69 42 70 40 71 66 72 67 73 75 74
REMARK SMILES IDX 68 75 69 76 73 77 76 78 70 79 71 80 74 81 72 82 51 83 52 84
REMARK SMILES IDX 60 85 53 86 54 87 58 88 61 89 55 90 56 91 59 92 57 93
REMARK H PARENT 81 46 49 57
REMARK Flexibility Score: inf
ROOT
ATOM      1  C   UNL     1      -1.829  -7.568  -4.160  1.00  0.00     0.274 C 
ENDROOT
BRANCH   1   2
ATOM      2  O   UNL     1      -0.439  -7.148  -4.083  1.00  0.00    -0.462 OA
BRANCH   2   3
ATOM      3  C   UNL     1       0.121  -6.741  -5.263  1.00  0.00     0.310 C 
ATOM      4  O   UNL     1      -0.528  -6.589  -6.288  1.00  0.00    -0.252 OA
BRANCH   3   5
ATOM      5  C   UNL     1       1.653  -6.674  -5.245  1.00  0.00     0.114 C 
ATOM      6  N   UNL     1       3.182  -4.662  -4.888  1.00  0.00    -0.197 NA
ATOM      7  C   UNL     1       4.213  -5.484  -4.198  1.00  0.00     0.102 C 
ATOM      8  C   UNL     1       2.309  -5.408  -5.867  1.00  0.00     0.117 C 
ATOM      9  C   UNL     1       3.774  -6.929  -4.010  1.00  0.00     0.018 C 
ATOM     10  C   UNL     1       2.265  -7.043  -3.898  1.00  0.00     0.018 C 
BRANCH   6  11
ATOM     11  S   UNL     1       3.772  -3.095  -5.355  1.00  0.00     0.243 S 
ATOM     12  O   UNL     1       2.924  -2.591  -6.417  1.00  0.00    -0.207 OA
ATOM     13  O   UNL     1       5.206  -3.156  -5.490  1.00  0.00    -0.207 OA
BRANCH  11  14
ATOM     14  C   UNL     1       3.427  -2.047  -3.936  1.00  0.00     0.083 A 
ATOM     15  N   UNL     1       1.808   0.807  -1.404  1.00  0.00    -0.348 N 
ATOM     16  C   UNL     1       2.333   1.967  -1.926  1.00  0.00     0.087 A 
ATOM     17  C   UNL     1       2.338  -0.284  -2.072  1.00  0.00     0.048 A 
ATOM     18  C   UNL     1       3.203   1.631  -2.937  1.00  0.00     0.028 A 
ATOM     19  C   UNL     1       3.174   0.216  -3.082  1.00  0.00     0.001 A 
ATOM     20  C   UNL     1       2.135  -1.664  -1.919  1.00  0.00     0.028 A 
ATOM     21  C   UNL     1       3.723  -0.677  -4.034  1.00  0.00     0.032 A 
ATOM     22  C   UNL     1       2.706  -2.536  -2.852  1.00  0.00     0.024 A 
BRANCH  15  23
ATOM     23  C   UNL     1       0.735   0.809  -0.418  1.00  0.00     0.119 C 
ATOM     24  C   UNL     1       0.907  -0.135   0.760  1.00  0.00     0.027 C 
ENDBRANCH  15  23
ENDBRANCH  11  14
ENDBRANCH   6  11
ENDBRANCH   3   5
ENDBRANCH   2   3
ENDBRANCH   1   2
BRANCH   1  25
ATOM     25  C   UNL     1      -2.562  -7.357  -2.825  1.00  0.00     0.275 C 
BRANCH  25  26
ATOM     26  O   UNL     1      -3.033  -5.999  -2.761  1.00  0.00    -0.458 OA
BRANCH  26  27
ATOM     27  C   UNL     1      -2.155  -5.139  -2.195  1.00  0.00     0.338 C 
ATOM     28  O   UNL     1      -1.477  -5.333  -1.201  1.00  0.00    -0.246 OA
BRANCH  27  29
ATOM     29  C   UNL     1      -1.849  -4.138  -3.236  1.00  0.00     0.060 A 
ATOM     30  C   UNL     1      -2.814  -3.584  -4.089  1.00  0.00     0.016 A 
ATOM     31  C   UNL     1      -0.499  -3.960  -3.497  1.00  0.00     0.016 A 
ATOM     32  C   UNL     1      -2.415  -2.917  -5.258  1.00  0.00     0.010 A 
ATOM     33  C   UNL     1      -0.124  -3.324  -4.667  1.00  0.00     0.010 A 
ATOM     34  C   UNL     1      -1.059  -2.828  -5.578  1.00  0.00    -0.014 A 
BRANCH  34  35
ATOM     35  C   UNL     1      -0.546  -2.161  -6.789  1.00  0.00     0.031 A 
ATOM     36  C   UNL     1      -0.081  -0.733  -6.674  1.00  0.00     0.074 A 
ATOM     37  C   UNL     1      -0.148  -2.823  -7.904  1.00  0.00     0.049 A 
ATOM     38  N   UNL     1      -0.172   0.215  -7.562  1.00  0.00    -0.248 NA
ATOM     39  C   UNL     1       0.615  -0.311  -5.453  1.00  0.00     0.031 C 
ATOM     40  C   UNL     1      -0.205  -4.242  -8.242  1.00  0.00     0.029 A 
ATOM     41  N   UNL     1       0.501  -2.300  -8.987  1.00  0.00    -0.354 N 
ATOM     42  C   UNL     1       0.568   1.284  -7.068  1.00  0.00     0.074 A 
ATOM     43  C   UNL     1       1.069   0.896  -5.784  1.00  0.00     0.031 C 
ATOM     44  C   UNL     1       0.537  -4.496  -9.350  1.00  0.00     0.029 A 
ATOM     45  C   UNL     1       0.958  -3.227  -9.914  1.00  0.00     0.049 A 
ATOM     46  H   UNL     1       0.636  -1.331  -9.103  1.00  0.00     0.167 HD
ATOM     47  C   UNL     1       0.726   2.486  -7.680  1.00  0.00     0.037 A 
ATOM     48  C   UNL     1       1.574  -2.953 -11.088  1.00  0.00     0.037 A 
ATOM     49  C   UNL     1      -0.398   2.819  -8.502  1.00  0.00     0.049 A 
ATOM     50  C   UNL     1       1.220  -1.558 -11.428  1.00  0.00     0.074 A 
ATOM     51  C   UNL     1      -1.748   2.926  -8.211  1.00  0.00     0.029 A 
ATOM     52  N   UNL     1      -0.354   2.676  -9.864  1.00  0.00    -0.354 N 
ATOM     53  N   UNL     1       0.037  -1.169 -11.806  1.00  0.00    -0.248 NA
ATOM     54  C   UNL     1       2.151  -0.511 -11.046  1.00  0.00     0.031 C 
ATOM     55  C   UNL     1      -2.399   2.234  -9.275  1.00  0.00     0.029 A 
ATOM     56  C   UNL     1      -1.395   1.821 -10.150  1.00  0.00     0.049 A 
ATOM     57  H   UNL     1       0.277   3.092 -10.495  1.00  0.00     0.167 HD
ATOM     58  C   UNL     1      -0.065   0.125 -11.336  1.00  0.00     0.074 A 
ATOM     59  C   UNL     1       1.300   0.512 -10.982  1.00  0.00     0.031 C 
ATOM     60  C   UNL     1      -1.272   0.681 -11.026  1.00  0.00     0.037 A 
BRANCH  47  61
ATOM     61  C   UNL     1       1.926   3.350  -7.468  1.00  0.00     0.064 A 
ATOM     62  C   UNL     1       1.861   4.743  -7.614  1.00  0.00     0.173 A 
ATOM     63  C   UNL     1       3.215   2.798  -7.292  1.00  0.00     0.173 A 
ATOM     64  F   UNL     1       0.684   5.352  -7.823  1.00  0.00    -0.203 F 
ATOM     65  C   UNL     1       3.011   5.537  -7.581  1.00  0.00     0.198 A 
ATOM     66  C   UNL     1       4.358   3.594  -7.234  1.00  0.00     0.198 A 
ATOM     67  F   UNL     1       3.393   1.470  -7.228  1.00  0.00    -0.203 F 
ATOM     68  F   UNL     1       2.911   6.860  -7.765  1.00  0.00    -0.200 F 
ATOM     69  C   UNL     1       4.257   4.963  -7.388  1.00  0.00     0.200 A 
ATOM     70  F   UNL     1       5.560   3.025  -7.062  1.00  0.00    -0.200 F 
ATOM     71  F   UNL     1       5.359   5.725  -7.378  1.00  0.00    -0.200 F 
ENDBRANCH  47  61
BRANCH  48  72
ATOM     72  C   UNL     1       2.488  -3.697 -11.978  1.00  0.00     0.064 A 
ATOM     73  C   UNL     1       2.548  -3.390 -13.351  1.00  0.00     0.173 A 
ATOM     74  C   UNL     1       3.551  -4.445 -11.450  1.00  0.00     0.173 A 
ATOM     75  F   UNL     1       1.577  -2.666 -13.927  1.00  0.00    -0.203 F 
ATOM     76  C   UNL     1       3.643  -3.749 -14.137  1.00  0.00     0.198 A 
ATOM     77  C   UNL     1       4.647  -4.808 -12.241  1.00  0.00     0.198 A 
ATOM     78  F   UNL     1       3.590  -4.744 -10.143  1.00  0.00    -0.203 F 
ATOM     79  F   UNL     1       3.701  -3.363 -15.420  1.00  0.00    -0.200 F 
ATOM     80  C   UNL     1       4.702  -4.439 -13.576  1.00  0.00     0.200 A 
ATOM     81  F   UNL     1       5.684  -5.455 -11.690  1.00  0.00    -0.200 F 
ATOM     82  F   UNL     1       5.790  -4.716 -14.310  1.00  0.00    -0.200 F 
ENDBRANCH  48  72
BRANCH  60  83
ATOM     83  C   UNL     1      -2.534  -0.094 -11.327  1.00  0.00     0.064 A 
ATOM     84  C   UNL     1      -2.802  -1.380 -10.820  1.00  0.00     0.173 A 
ATOM     85  C   UNL     1      -3.588   0.551 -11.986  1.00  0.00     0.173 A 
ATOM     86  F   UNL     1      -1.902  -2.035 -10.086  1.00  0.00    -0.203 F 
ATOM     87  C   UNL     1      -4.039  -1.998 -10.992  1.00  0.00     0.198 A 
ATOM     88  C   UNL     1      -4.838  -0.053 -12.127  1.00  0.00     0.198 A 
ATOM     89  F   UNL     1      -3.429   1.802 -12.447  1.00  0.00    -0.203 F 
ATOM     90  F   UNL     1      -4.255  -3.224 -10.489  1.00  0.00    -0.200 F 
ATOM     91  C   UNL     1      -5.061  -1.329 -11.636  1.00  0.00     0.200 A 
ATOM     92  F   UNL     1      -5.843   0.620 -12.704  1.00  0.00    -0.200 F 
ATOM     93  F   UNL     1      -6.269  -1.899 -11.753  1.00  0.00    -0.200 F 
ENDBRANCH  60  83
ENDBRANCH  34  35
ENDBRANCH  27  29
ENDBRANCH  26  27
ENDBRANCH  25  26
ENDBRANCH   1  25
TORSDOF 14
