REMARK SMILES O=C(OCCOC(=O)[C@@H](Cc1cccs1)c1ccccc1)c1ccc(-c2c3nc(c(-c4c(F)c(F)c(F)c(F)c4F)c4ccc([nH]4)c(-c4c(F)c(F)c(F)c(F)c4F)c4nc(c(-c5c(F)c(F)c(F)c(F)c5F)c5ccc2[nH]5)C=C4)C=C3)cc1
REMARK SMILES IDX 4 1 3 2 2 3 1 4 22 5 23 6 84 7 24 8 83 9 25 10 26 11 27 12
REMARK SMILES IDX 77 13 28 14 82 15 76 16 78 17 29 18 81 19 75 20 74 21 30 23
REMARK SMILES IDX 62 24 42 25 61 26 43 27 46 28 60 29 79 30 44 31 45 32 59 34
REMARK SMILES IDX 80 35 47 36 31 37 32 38 40 39 33 40 34 41 38 42 41 43 35 44
REMARK SMILES IDX 36 45 39 46 37 47 63 48 64 49 72 50 65 51 66 52 70 53 73 54
REMARK SMILES IDX 67 55 68 56 71 57 69 58 48 59 49 60 57 61 50 62 51 63 55 64
REMARK SMILES IDX 58 65 52 66 53 67 56 68 54 69 5 70 6 71 7 72 8 73 9 74 10 75
REMARK SMILES IDX 11 76 12 77 15 78 13 79 14 80 16 81 17 82 21 83 18 84 20 85
REMARK SMILES IDX 19 86
REMARK H PARENT 78 22 46 33
REMARK Flexibility Score: inf
ROOT
ATOM      1  C   UNL     1       3.500   0.107  -2.046  1.00  0.00     0.275 C 
ENDROOT
BRANCH   1   2
ATOM      2  O   UNL     1       2.439  -0.498  -1.268  1.00  0.00    -0.458 OA
BRANCH   2   3
ATOM      3  C   UNL     1       2.522  -1.291  -0.163  1.00  0.00     0.338 C 
ATOM      4  O   UNL     1       1.607  -2.062   0.111  1.00  0.00    -0.246 OA
BRANCH   3   5
ATOM      5  C   UNL     1       3.525  -1.014   0.905  1.00  0.00     0.060 A 
ATOM      6  C   UNL     1       4.982  -0.332   0.517  1.00  0.00     0.016 A 
ATOM      7  C   UNL     1       2.890  -1.120   2.532  1.00  0.00     0.016 A 
ATOM      8  C   UNL     1       5.903   0.388   1.788  1.00  0.00     0.010 A 
ATOM      9  C   UNL     1       3.587  -0.368   3.917  1.00  0.00     0.010 A 
ATOM     10  C   UNL     1       5.161   0.436   3.712  1.00  0.00    -0.014 A 
BRANCH  10  11
ATOM     11  C   UNL     1       5.607   0.832   5.233  1.00  0.00     0.031 A 
ATOM     12  C   UNL     1       6.063  -0.281   6.157  1.00  0.00     0.074 A 
ATOM     13  C   UNL     1       5.612   2.082   5.756  1.00  0.00     0.049 A 
ATOM     14  N   UNL     1       6.916  -0.224   7.150  1.00  0.00    -0.248 NA
ATOM     15  C   UNL     1       5.524  -1.631   5.934  1.00  0.00     0.031 C 
ATOM     16  C   UNL     1       5.046   3.248   5.118  1.00  0.00     0.029 A 
ATOM     17  N   UNL     1       6.171   2.613   6.900  1.00  0.00    -0.354 N 
ATOM     18  C   UNL     1       7.110  -1.538   7.552  1.00  0.00     0.074 A 
ATOM     19  C   UNL     1       6.241  -2.369   6.761  1.00  0.00     0.031 C 
ATOM     20  C   UNL     1       5.419   4.368   5.740  1.00  0.00     0.029 A 
ATOM     21  C   UNL     1       6.143   3.996   6.935  1.00  0.00     0.049 A 
ATOM     22  H   UNL     1       6.552   2.062   7.621  1.00  0.00     0.167 HD
ATOM     23  C   UNL     1       7.932  -2.020   8.510  1.00  0.00     0.037 A 
ATOM     24  C   UNL     1       6.636   4.889   7.814  1.00  0.00     0.037 A 
ATOM     25  C   UNL     1       8.578  -1.178   9.474  1.00  0.00     0.049 A 
ATOM     26  C   UNL     1       7.441   4.348   8.952  1.00  0.00     0.074 A 
ATOM     27  C   UNL     1       9.351  -1.537  10.560  1.00  0.00     0.029 A 
ATOM     28  N   UNL     1       8.435   0.204   9.515  1.00  0.00    -0.354 N 
ATOM     29  N   UNL     1       7.769   3.102   9.197  1.00  0.00    -0.248 NA
ATOM     30  C   UNL     1       7.960   5.317   9.920  1.00  0.00     0.031 C 
ATOM     31  C   UNL     1       9.595  -0.382  11.310  1.00  0.00     0.029 A 
ATOM     32  C   UNL     1       9.057   0.709  10.642  1.00  0.00     0.049 A 
ATOM     33  H   UNL     1       7.961   0.743   8.841  1.00  0.00     0.167 HD
ATOM     34  C   UNL     1       8.553   3.133  10.334  1.00  0.00     0.074 A 
ATOM     35  C   UNL     1       8.672   4.529  10.715  1.00  0.00     0.031 C 
ATOM     36  C   UNL     1       9.127   2.103  11.002  1.00  0.00     0.037 A 
BRANCH  23  37
ATOM     37  C   UNL     1       8.071  -3.513   8.582  1.00  0.00     0.064 A 
ATOM     38  C   UNL     1       8.729  -4.227   7.564  1.00  0.00     0.173 A 
ATOM     39  C   UNL     1       7.488  -4.247   9.622  1.00  0.00     0.173 A 
ATOM     40  F   UNL     1       9.276  -3.575   6.525  1.00  0.00    -0.203 F 
ATOM     41  C   UNL     1       8.773  -5.619   7.575  1.00  0.00     0.198 A 
ATOM     42  C   UNL     1       7.554  -5.638   9.642  1.00  0.00     0.198 A 
ATOM     43  F   UNL     1       6.827  -3.618  10.605  1.00  0.00    -0.203 F 
ATOM     44  F   UNL     1       9.354  -6.279   6.563  1.00  0.00    -0.200 F 
ATOM     45  C   UNL     1       8.187  -6.323   8.615  1.00  0.00     0.200 A 
ATOM     46  F   UNL     1       6.981  -6.319  10.644  1.00  0.00    -0.200 F 
ATOM     47  F   UNL     1       8.215  -7.663   8.618  1.00  0.00    -0.200 F 
ENDBRANCH  23  37
BRANCH  24  48
ATOM     48  C   UNL     1       6.393   6.353   7.626  1.00  0.00     0.064 A 
ATOM     49  C   UNL     1       7.438   7.253   7.372  1.00  0.00     0.173 A 
ATOM     50  C   UNL     1       5.089   6.880   7.652  1.00  0.00     0.173 A 
ATOM     51  F   UNL     1       8.706   6.818   7.344  1.00  0.00    -0.203 F 
ATOM     52  C   UNL     1       7.192   8.613   7.163  1.00  0.00     0.198 A 
ATOM     53  C   UNL     1       4.840   8.230   7.406  1.00  0.00     0.198 A 
ATOM     54  F   UNL     1       4.042   6.071   7.875  1.00  0.00    -0.203 F 
ATOM     55  F   UNL     1       8.215   9.453   6.956  1.00  0.00    -0.200 F 
ATOM     56  C   UNL     1       5.893   9.098   7.170  1.00  0.00     0.200 A 
ATOM     57  F   UNL     1       3.580   8.684   7.384  1.00  0.00    -0.200 F 
ATOM     58  F   UNL     1       5.656  10.398   6.948  1.00  0.00    -0.200 F 
ENDBRANCH  24  48
BRANCH  36  59
ATOM     59  C   UNL     1       9.944   2.464  12.200  1.00  0.00     0.064 A 
ATOM     60  C   UNL     1       9.356   2.958  13.373  1.00  0.00     0.173 A 
ATOM     61  C   UNL     1      11.335   2.296  12.172  1.00  0.00     0.173 A 
ATOM     62  F   UNL     1       8.029   3.150  13.437  1.00  0.00    -0.203 F 
ATOM     63  C   UNL     1      10.141   3.312  14.464  1.00  0.00     0.198 A 
ATOM     64  C   UNL     1      12.111   2.612  13.279  1.00  0.00     0.198 A 
ATOM     65  F   UNL     1      11.938   1.821  11.072  1.00  0.00    -0.203 F 
ATOM     66  F   UNL     1       9.569   3.851  15.550  1.00  0.00    -0.200 F 
ATOM     67  C   UNL     1      11.516   3.131  14.419  1.00  0.00     0.200 A 
ATOM     68  F   UNL     1      13.437   2.420  13.240  1.00  0.00    -0.200 F 
ATOM     69  F   UNL     1      12.270   3.470  15.472  1.00  0.00    -0.200 F 
ENDBRANCH  36  59
ENDBRANCH  10  11
ENDBRANCH   3   5
ENDBRANCH   2   3
ENDBRANCH   1   2
BRANCH   1  70
ATOM     70  C   UNL     1       3.760   1.599  -1.760  1.00  0.00     0.274 C 
BRANCH  70  71
ATOM     71  O   UNL     1       3.548   1.963  -0.392  1.00  0.00    -0.462 OA
BRANCH  71  72
ATOM     72  C   UNL     1       2.320   2.452  -0.086  1.00  0.00     0.313 C 
ATOM     73  O   UNL     1       1.465   2.740  -0.914  1.00  0.00    -0.252 OA
BRANCH  72  74
ATOM     74  C   UNL     1       2.110   2.585   1.410  1.00  0.00     0.134 C 
BRANCH  74  75
ATOM     75  C   UNL     1       2.558   1.304   2.132  1.00  0.00     0.066 C 
BRANCH  75  76
ATOM     76  C   UNL     1       4.187   0.872   2.208  1.00  0.00     0.006 A 
ATOM     77  C   UNL     1       5.378   2.166   2.509  1.00  0.00     0.015 A 
ATOM     78  S   UNL     1       5.351  -1.326   2.683  1.00  0.00    -0.149 S 
ATOM     79  C   UNL     1       7.024   1.540   3.170  1.00  0.00     0.012 A 
ATOM     80  C   UNL     1       7.202  -0.127   3.312  1.00  0.00     0.065 A 
ENDBRANCH  75  76
ENDBRANCH  74  75
BRANCH  74  81
ATOM     81  C   UNL     1       2.370   3.936   2.055  1.00  0.00    -0.033 A 
ATOM     82  C   UNL     1       2.268   4.097   3.449  1.00  0.00     0.004 A 
ATOM     83  C   UNL     1       2.564   5.091   1.288  1.00  0.00     0.004 A 
ATOM     84  C   UNL     1       2.493   5.334   4.061  1.00  0.00     0.000 A 
ATOM     85  C   UNL     1       2.766   6.333   1.897  1.00  0.00     0.000 A 
ATOM     86  C   UNL     1       2.765   6.450   3.284  1.00  0.00     0.000 A 
ENDBRANCH  74  81
ENDBRANCH  72  74
ENDBRANCH  71  72
ENDBRANCH  70  71
ENDBRANCH   1  70
TORSDOF 14
