REMARK SMILES CC(C)(C)[NH2+]Cc1cc(C(=O)OCCOC(=O)c2ccc(-c3c4nc(c(-c5c(F)c(F)c(F)c(F)c5F)c5ccc([nH]5)c(-c5c(F)c(F)c(F)c(F)c5F)c5nc(c(-c6c(F)c(F)c(F)c(F)c6F)c6ccc3[nH]6)C=C5)C=C4)cc2)cs1
REMARK SMILES IDX 13 1 12 2 10 3 11 4 9 5 7 6 8 7 82 8 81 9 6 10 5 11 2 14
REMARK SMILES IDX 1 15 3 16 4 17 14 18 15 19 16 20 17 21 18 22 19 23 80 24
REMARK SMILES IDX 20 25 79 26 21 27 22 28 23 29 73 30 24 31 78 32 72 33 74 34
REMARK SMILES IDX 25 35 77 36 71 37 70 38 26 40 58 41 38 42 57 43 39 44 42 45
REMARK SMILES IDX 56 46 75 47 40 48 41 49 55 51 76 52 43 53 27 54 28 55 36 56
REMARK SMILES IDX 29 57 30 58 34 59 37 60 31 61 32 62 35 63 33 64 59 65 60 66
REMARK SMILES IDX 68 67 61 68 62 69 66 70 69 71 63 72 64 73 67 74 65 75 44 76
REMARK SMILES IDX 45 77 53 78 46 79 47 80 51 81 54 82 48 83 49 84 52 85 50 86
REMARK H PARENT 5 12 5 13 74 39 42 50
REMARK Flexibility Score: inf
ROOT
ATOM      1  C   UNL     1       2.129   8.290   0.845  1.00  0.00     0.275 C 
ENDROOT
BRANCH   1   2
ATOM      2  O   UNL     1       2.457   6.930   1.188  1.00  0.00    -0.458 OA
BRANCH   2   3
ATOM      3  C   UNL     1       2.445   6.050   0.149  1.00  0.00     0.339 C 
ATOM      4  O   UNL     1       2.048   6.312  -0.979  1.00  0.00    -0.246 OA
BRANCH   3   5
ATOM      5  C   UNL     1       2.960   4.738   0.512  1.00  0.00     0.071 A 
ATOM      6  C   UNL     1       2.899   2.649   1.515  1.00  0.00     0.060 A 
ATOM      7  C   UNL     1       2.561   3.982   1.659  1.00  0.00     0.037 A 
ATOM      8  S   UNL     1       4.141   2.443   0.360  1.00  0.00    -0.142 S 
ATOM      9  C   UNL     1       3.828   3.999  -0.271  1.00  0.00     0.081 A 
BRANCH   6  10
ATOM     10  C   UNL     1       2.264   1.464   2.160  1.00  0.00     0.308 C 
BRANCH  10  11
ATOM     11  N   UNL     1       0.817   1.440   1.914  1.00  0.00    -0.338 N 
ATOM     12  H   UNL     1       0.416   0.771   2.572  1.00  0.00     0.347 HD
ATOM     13  H   UNL     1       0.539   2.416   2.020  1.00  0.00     0.347 HD
BRANCH  11  14
ATOM     14  C   UNL     1       0.313   1.079   0.573  1.00  0.00     0.088 C 
ATOM     15  C   UNL     1       0.857  -0.275   0.094  1.00  0.00     0.078 C 
ATOM     16  C   UNL     1       0.548   2.137  -0.523  1.00  0.00     0.078 C 
ATOM     17  C   UNL     1      -1.216   0.965   0.749  1.00  0.00     0.078 C 
ENDBRANCH  11  14
ENDBRANCH  10  11
ENDBRANCH   6  10
ENDBRANCH   3   5
ENDBRANCH   2   3
ENDBRANCH   1   2
BRANCH   1  18
ATOM     18  C   UNL     1       3.396   9.090   0.535  1.00  0.00     0.275 C 
BRANCH  18  19
ATOM     19  O   UNL     1       3.962   8.687  -0.728  1.00  0.00    -0.458 OA
BRANCH  19  20
ATOM     20  C   UNL     1       5.074   7.921  -0.656  1.00  0.00     0.338 C 
ATOM     21  O   UNL     1       5.659   7.551   0.348  1.00  0.00    -0.246 OA
BRANCH  20  22
ATOM     22  C   UNL     1       5.484   7.505  -2.005  1.00  0.00     0.060 A 
ATOM     23  C   UNL     1       4.806   6.457  -2.620  1.00  0.00     0.016 A 
ATOM     24  C   UNL     1       6.624   8.037  -2.600  1.00  0.00     0.016 A 
ATOM     25  C   UNL     1       5.310   5.862  -3.766  1.00  0.00     0.010 A 
ATOM     26  C   UNL     1       7.062   7.520  -3.826  1.00  0.00     0.010 A 
ATOM     27  C   UNL     1       6.423   6.409  -4.410  1.00  0.00    -0.014 A 
BRANCH  27  28
ATOM     28  C   UNL     1       6.898   5.821  -5.689  1.00  0.00     0.031 A 
ATOM     29  C   UNL     1       8.302   5.301  -5.808  1.00  0.00     0.074 A 
ATOM     30  C   UNL     1       6.062   5.744  -6.744  1.00  0.00     0.049 A 
ATOM     31  N   UNL     1       8.963   4.938  -6.879  1.00  0.00    -0.248 NA
ATOM     32  C   UNL     1       9.071   5.182  -4.560  1.00  0.00     0.031 C 
ATOM     33  C   UNL     1       4.655   6.151  -6.744  1.00  0.00     0.029 A 
ATOM     34  N   UNL     1       6.272   5.294  -8.025  1.00  0.00    -0.354 N 
ATOM     35  C   UNL     1      10.237   4.602  -6.441  1.00  0.00     0.074 A 
ATOM     36  C   UNL     1      10.260   4.804  -5.008  1.00  0.00     0.031 C 
ATOM     37  C   UNL     1       4.122   5.908  -7.950  1.00  0.00     0.029 A 
ATOM     38  C   UNL     1       5.172   5.427  -8.838  1.00  0.00     0.049 A 
ATOM     39  H   UNL     1       7.127   4.915  -8.331  1.00  0.00     0.167 HD
ATOM     40  C   UNL     1      11.290   4.169  -7.176  1.00  0.00     0.037 A 
ATOM     41  C   UNL     1       5.034   5.241 -10.164  1.00  0.00     0.037 A 
ATOM     42  C   UNL     1      11.239   3.929  -8.595  1.00  0.00     0.049 A 
ATOM     43  C   UNL     1       6.233   4.822 -10.966  1.00  0.00     0.074 A 
ATOM     44  C   UNL     1      12.245   3.473  -9.431  1.00  0.00     0.029 A 
ATOM     45  N   UNL     1      10.116   4.116  -9.389  1.00  0.00    -0.354 N 
ATOM     46  N   UNL     1       7.449   4.557 -10.555  1.00  0.00    -0.248 NA
ATOM     47  C   UNL     1       6.047   4.700 -12.417  1.00  0.00     0.031 C 
ATOM     48  C   UNL     1      11.743   3.429 -10.736  1.00  0.00     0.029 A 
ATOM     49  C   UNL     1      10.410   3.808 -10.707  1.00  0.00     0.049 A 
ATOM     50  H   UNL     1       9.239   4.423  -9.062  1.00  0.00     0.167 HD
ATOM     51  C   UNL     1       8.170   4.224 -11.692  1.00  0.00     0.074 A 
ATOM     52  C   UNL     1       7.249   4.301 -12.808  1.00  0.00     0.031 C 
ATOM     53  C   UNL     1       9.478   3.888 -11.803  1.00  0.00     0.037 A 
BRANCH  40  54
ATOM     54  C   UNL     1      12.599   3.968  -6.469  1.00  0.00     0.064 A 
ATOM     55  C   UNL     1      12.813   2.901  -5.584  1.00  0.00     0.173 A 
ATOM     56  C   UNL     1      13.671   4.841  -6.713  1.00  0.00     0.173 A 
ATOM     57  F   UNL     1      11.818   2.045  -5.306  1.00  0.00    -0.203 F 
ATOM     58  C   UNL     1      14.042   2.732  -4.951  1.00  0.00     0.198 A 
ATOM     59  C   UNL     1      14.907   4.652  -6.101  1.00  0.00     0.198 A 
ATOM     60  F   UNL     1      13.522   5.875  -7.556  1.00  0.00    -0.203 F 
ATOM     61  F   UNL     1      14.210   1.732  -4.074  1.00  0.00    -0.200 F 
ATOM     62  C   UNL     1      15.089   3.602  -5.215  1.00  0.00     0.200 A 
ATOM     63  F   UNL     1      15.921   5.487  -6.369  1.00  0.00    -0.200 F 
ATOM     64  F   UNL     1      16.274   3.432  -4.611  1.00  0.00    -0.200 F 
ENDBRANCH  40  54
BRANCH  41  65
ATOM     65  C   UNL     1       3.725   5.507 -10.816  1.00  0.00     0.064 A 
ATOM     66  C   UNL     1       2.971   4.466 -11.372  1.00  0.00     0.173 A 
ATOM     67  C   UNL     1       3.197   6.806 -10.887  1.00  0.00     0.173 A 
ATOM     68  F   UNL     1       3.444   3.212 -11.352  1.00  0.00    -0.203 F 
ATOM     69  C   UNL     1       1.742   4.715 -11.981  1.00  0.00     0.198 A 
ATOM     70  C   UNL     1       1.954   7.048 -11.466  1.00  0.00     0.198 A 
ATOM     71  F   UNL     1       3.879   7.839 -10.371  1.00  0.00    -0.203 F 
ATOM     72  F   UNL     1       1.059   3.707 -12.541  1.00  0.00    -0.200 F 
ATOM     73  C   UNL     1       1.230   6.003 -12.019  1.00  0.00     0.200 A 
ATOM     74  F   UNL     1       1.457   8.292 -11.485  1.00  0.00    -0.200 F 
ATOM     75  F   UNL     1       0.044   6.239 -12.595  1.00  0.00    -0.200 F 
ENDBRANCH  41  65
BRANCH  53  76
ATOM     76  C   UNL     1       9.981   3.550 -13.174  1.00  0.00     0.064 A 
ATOM     77  C   UNL     1      10.185   4.540 -14.146  1.00  0.00     0.173 A 
ATOM     78  C   UNL     1      10.298   2.225 -13.506  1.00  0.00     0.173 A 
ATOM     79  F   UNL     1       9.878   5.819 -13.881  1.00  0.00    -0.203 F 
ATOM     80  C   UNL     1      10.669   4.212 -15.409  1.00  0.00     0.198 A 
ATOM     81  C   UNL     1      10.809   1.904 -14.760  1.00  0.00     0.198 A 
ATOM     82  F   UNL     1      10.124   1.242 -12.609  1.00  0.00    -0.203 F 
ATOM     83  F   UNL     1      10.815   5.167 -16.338  1.00  0.00    -0.200 F 
ATOM     84  C   UNL     1      10.988   2.897 -15.712  1.00  0.00     0.200 A 
ATOM     85  F   UNL     1      11.128   0.635 -15.048  1.00  0.00    -0.200 F 
ATOM     86  F   UNL     1      11.462   2.584 -16.926  1.00  0.00    -0.200 F 
ENDBRANCH  53  76
ENDBRANCH  27  28
ENDBRANCH  20  22
ENDBRANCH  19  20
ENDBRANCH  18  19
ENDBRANCH   1  18
TORSDOF 14
