REMARK SMILES COc1ccc(C(=O)N2CSC[C@H]2C(=O)OCCOC(=O)c2ccc(-c3c4nc(c(-c5c(F)c(F)c(F)c(F)c5F)c5ccc([nH]5)c(-c5c(F)c(F)c(F)c(F)c5F)c5nc(c(-c6c(F)c(F)c(F)c(F)c6F)c6ccc3[nH]6)C=C5)C=C4)cc2)cc1C#N
REMARK SMILES IDX 17 1 16 2 14 3 15 4 13 5 9 6 10 7 11 8 12 9 7 10 8 11 6 12
REMARK SMILES IDX 3 13 4 14 86 15 5 16 85 17 2 18 1 19 87 20 88 21 18 22 19 23
REMARK SMILES IDX 20 24 21 25 22 26 23 27 84 28 24 29 83 30 25 31 26 32 27 33
REMARK SMILES IDX 77 34 28 35 82 36 76 37 78 38 29 39 81 40 75 41 74 42 30 44
REMARK SMILES IDX 62 45 42 46 61 47 43 48 46 49 60 50 79 51 44 52 45 53 59 55
REMARK SMILES IDX 80 56 47 57 31 58 32 59 40 60 33 61 34 62 38 63 41 64 35 65
REMARK SMILES IDX 36 66 39 67 37 68 63 69 64 70 72 71 65 72 66 73 70 74 73 75
REMARK SMILES IDX 67 76 68 77 71 78 69 79 48 80 49 81 57 82 50 83 51 84 55 85
REMARK SMILES IDX 58 86 52 87 53 88 56 89 54 90
REMARK H PARENT 78 43 46 54
REMARK Flexibility Score: inf
ROOT
ATOM      1  C   UNL     1       3.796   7.517  -8.280  1.00  0.00     0.274 C 
ENDROOT
BRANCH   1   2
ATOM      2  O   UNL     1       3.825   6.526  -7.227  1.00  0.00    -0.461 OA
BRANCH   2   3
ATOM      3  C   UNL     1       4.133   7.014  -5.998  1.00  0.00     0.329 C 
ATOM      4  O   UNL     1       4.439   8.185  -5.775  1.00  0.00    -0.250 OA
BRANCH   3   5
ATOM      5  C   UNL     1       4.182   5.968  -4.882  1.00  0.00     0.206 C 
ATOM      6  N   UNL     1       3.584   4.640  -5.034  1.00  0.00    -0.315 N 
ATOM      7  C   UNL     1       4.510   3.630  -5.479  1.00  0.00     0.191 C 
ATOM      8  S   UNL     1       6.071   4.047  -4.678  1.00  0.00    -0.138 SA
ATOM      9  C   UNL     1       5.648   5.802  -4.469  1.00  0.00     0.108 C 
BRANCH   6  10
ATOM     10  C   UNL     1       2.290   4.439  -4.584  1.00  0.00     0.255 C 
ATOM     11  O   UNL     1       1.454   5.335  -4.561  1.00  0.00    -0.269 OA
BRANCH  10  12
ATOM     12  C   UNL     1       1.930   3.187  -3.876  1.00  0.00     0.041 A 
ATOM     13  C   UNL     1       1.102   1.107  -2.160  1.00  0.00     0.136 A 
ATOM     14  C   UNL     1       0.242   1.617  -3.147  1.00  0.00     0.048 A 
ATOM     15  C   UNL     1       2.394   1.635  -2.047  1.00  0.00     0.095 A 
ATOM     16  C   UNL     1       0.643   2.661  -3.990  1.00  0.00     0.018 A 
ATOM     17  C   UNL     1       2.791   2.683  -2.895  1.00  0.00     0.037 A 
BRANCH  13  18
ATOM     18  O   UNL     1       0.558   0.076  -1.441  1.00  0.00    -0.495 OA
ATOM     19  C   UNL     1       0.850   0.021  -0.047  1.00  0.00     0.278 C 
ENDBRANCH  13  18
BRANCH  15  20
ATOM     20  C   UNL     1       3.374   1.175  -1.106  1.00  0.00     0.103 C 
ATOM     21  N   UNL     1       4.188   0.849  -0.352  1.00  0.00    -0.192 NA
ENDBRANCH  15  20
ENDBRANCH  10  12
ENDBRANCH   6  10
ENDBRANCH   3   5
ENDBRANCH   2   3
ENDBRANCH   1   2
BRANCH   1  22
ATOM     22  C   UNL     1       2.368   7.975  -8.575  1.00  0.00     0.275 C 
BRANCH  22  23
ATOM     23  O   UNL     1       1.758   8.512  -7.386  1.00  0.00    -0.458 OA
BRANCH  23  24
ATOM     24  C   UNL     1       0.875   7.678  -6.787  1.00  0.00     0.338 C 
ATOM     25  O   UNL     1       0.501   6.591  -7.192  1.00  0.00    -0.246 OA
BRANCH  24  26
ATOM     26  C   UNL     1       0.382   8.280  -5.537  1.00  0.00     0.060 A 
ATOM     27  C   UNL     1       1.155   8.206  -4.380  1.00  0.00     0.016 A 
ATOM     28  C   UNL     1      -0.925   8.753  -5.471  1.00  0.00     0.016 A 
ATOM     29  C   UNL     1       0.591   8.479  -3.139  1.00  0.00     0.010 A 
ATOM     30  C   UNL     1      -1.456   9.138  -4.235  1.00  0.00     0.010 A 
ATOM     31  C   UNL     1      -0.718   8.967  -3.050  1.00  0.00    -0.014 A 
BRANCH  31  32
ATOM     32  C   UNL     1      -1.303   9.293  -1.721  1.00  0.00     0.031 A 
ATOM     33  C   UNL     1      -2.542   8.592  -1.232  1.00  0.00     0.074 A 
ATOM     34  C   UNL     1      -0.716  10.229  -0.949  1.00  0.00     0.049 A 
ATOM     35  N   UNL     1      -3.260   8.828  -0.162  1.00  0.00    -0.248 NA
ATOM     36  C   UNL     1      -3.049   7.488  -2.060  1.00  0.00     0.031 C 
ATOM     37  C   UNL     1       0.506  10.960  -1.290  1.00  0.00     0.029 A 
ATOM     38  N   UNL     1      -1.070  10.732   0.279  1.00  0.00    -0.354 N 
ATOM     39  C   UNL     1      -4.319   7.930  -0.206  1.00  0.00     0.074 A 
ATOM     40  C   UNL     1      -4.165   7.160  -1.423  1.00  0.00     0.031 C 
ATOM     41  C   UNL     1       0.811  11.800  -0.290  1.00  0.00     0.029 A 
ATOM     42  C   UNL     1      -0.234  11.727   0.723  1.00  0.00     0.049 A 
ATOM     43  H   UNL     1      -1.847  10.410   0.790  1.00  0.00     0.167 HD
ATOM     44  C   UNL     1      -5.323   7.761   0.690  1.00  0.00     0.037 A 
ATOM     45  C   UNL     1      -0.318  12.525   1.804  1.00  0.00     0.037 A 
ATOM     46  C   UNL     1      -5.460   8.519   1.909  1.00  0.00     0.049 A 
ATOM     47  C   UNL     1      -1.476  12.357   2.747  1.00  0.00     0.074 A 
ATOM     48  C   UNL     1      -6.427   8.404   2.894  1.00  0.00     0.029 A 
ATOM     49  N   UNL     1      -4.606   9.538   2.310  1.00  0.00    -0.354 N 
ATOM     50  N   UNL     1      -2.468  11.502   2.700  1.00  0.00    -0.248 NA
ATOM     51  C   UNL     1      -1.525  13.270   3.896  1.00  0.00     0.031 C 
ATOM     52  C   UNL     1      -6.199   9.396   3.853  1.00  0.00     0.029 A 
ATOM     53  C   UNL     1      -5.044  10.080   3.510  1.00  0.00     0.049 A 
ATOM     54  H   UNL     1      -3.808   9.833   1.815  1.00  0.00     0.167 HD
ATOM     55  C   UNL     1      -3.241  11.751   3.826  1.00  0.00     0.074 A 
ATOM     56  C   UNL     1      -2.589  12.824   4.548  1.00  0.00     0.031 C 
ATOM     57  C   UNL     1      -4.388  11.147   4.224  1.00  0.00     0.037 A 
BRANCH  44  58
ATOM     58  C   UNL     1      -6.380   6.738   0.372  1.00  0.00     0.064 A 
ATOM     59  C   UNL     1      -6.110   5.361   0.374  1.00  0.00     0.173 A 
ATOM     60  C   UNL     1      -7.698   7.143   0.104  1.00  0.00     0.173 A 
ATOM     61  F   UNL     1      -4.869   4.916   0.617  1.00  0.00    -0.203 F 
ATOM     62  C   UNL     1      -7.109   4.433   0.086  1.00  0.00     0.198 A 
ATOM     63  C   UNL     1      -8.702   6.211  -0.146  1.00  0.00     0.198 A 
ATOM     64  F   UNL     1      -8.018   8.446   0.100  1.00  0.00    -0.203 F 
ATOM     65  F   UNL     1      -6.814   3.126   0.041  1.00  0.00    -0.200 F 
ATOM     66  C   UNL     1      -8.405   4.858  -0.165  1.00  0.00     0.200 A 
ATOM     67  F   UNL     1      -9.957   6.624  -0.370  1.00  0.00    -0.200 F 
ATOM     68  F   UNL     1      -9.367   3.963  -0.431  1.00  0.00    -0.200 F 
ENDBRANCH  44  58
BRANCH  45  69
ATOM     69  C   UNL     1       0.713  13.571   2.037  1.00  0.00     0.064 A 
ATOM     70  C   UNL     1       1.574  13.503   3.140  1.00  0.00     0.173 A 
ATOM     71  C   UNL     1       0.851  14.666   1.169  1.00  0.00     0.173 A 
ATOM     72  F   UNL     1       1.469  12.488   4.010  1.00  0.00    -0.203 F 
ATOM     73  C   UNL     1       2.514  14.502   3.382  1.00  0.00     0.198 A 
ATOM     74  C   UNL     1       1.817  15.644   1.391  1.00  0.00     0.198 A 
ATOM     75  F   UNL     1       0.055  14.779   0.096  1.00  0.00    -0.203 F 
ATOM     76  F   UNL     1       3.284  14.443   4.477  1.00  0.00    -0.200 F 
ATOM     77  C   UNL     1       2.640  15.568   2.503  1.00  0.00     0.200 A 
ATOM     78  F   UNL     1       1.948  16.661   0.528  1.00  0.00    -0.200 F 
ATOM     79  F   UNL     1       3.547  16.526   2.735  1.00  0.00    -0.200 F 
ENDBRANCH  45  69
BRANCH  57  80
ATOM     80  C   UNL     1      -4.984  11.601   5.529  1.00  0.00     0.064 A 
ATOM     81  C   UNL     1      -5.542  12.879   5.687  1.00  0.00     0.173 A 
ATOM     82  C   UNL     1      -5.002  10.738   6.636  1.00  0.00     0.173 A 
ATOM     83  F   UNL     1      -5.537  13.749   4.666  1.00  0.00    -0.203 F 
ATOM     84  C   UNL     1      -6.055  13.290   6.915  1.00  0.00     0.198 A 
ATOM     85  C   UNL     1      -5.554  11.138   7.850  1.00  0.00     0.198 A 
ATOM     86  F   UNL     1      -4.490   9.502   6.541  1.00  0.00    -0.203 F 
ATOM     87  F   UNL     1      -6.516  14.540   7.061  1.00  0.00    -0.200 F 
ATOM     88  C   UNL     1      -6.067  12.418   7.993  1.00  0.00     0.200 A 
ATOM     89  F   UNL     1      -5.580  10.287   8.885  1.00  0.00    -0.200 F 
ATOM     90  F   UNL     1      -6.563  12.815   9.173  1.00  0.00    -0.200 F 
ENDBRANCH  57  80
ENDBRANCH  31  32
ENDBRANCH  24  26
ENDBRANCH  23  24
ENDBRANCH  22  23
ENDBRANCH   1  22
TORSDOF 15
