REMARK SMILES Cc1c(CC(=O)N[C@@H](C)C(=O)OCCOC(=O)c2ccc(-c3c4nc(c(-c5c(F)c(F)c(F)c(F)c5F)c5ccc([nH]5)c(-c5c(F)c(F)c(F)c(F)c5F)c5nc(c(-c6c(F)c(F)c(F)c(F)c6F)c6ccc3[nH]6)C=C5)C=C4)cc2)c(=O)oc2cc3oc4c(c3cc12)CCCC4
REMARK SMILES IDX 13 1 12 2 10 3 11 4 8 5 9 6 7 7 5 8 6 9 4 11 3 12 1 13 2 14
REMARK SMILES IDX 92 15 81 16 84 17 91 18 82 19 83 20 85 21 90 22 86 23 89 24
REMARK SMILES IDX 87 25 88 26 93 27 96 28 94 29 95 30 14 31 15 32 16 33 17 34
REMARK SMILES IDX 18 35 19 36 80 37 20 38 79 39 21 40 22 41 23 42 73 43 24 44
REMARK SMILES IDX 78 45 72 46 74 47 25 48 77 49 71 50 70 51 26 53 58 54 38 55
REMARK SMILES IDX 57 56 39 57 42 58 56 59 75 60 40 61 41 62 55 64 76 65 43 66
REMARK SMILES IDX 27 67 28 68 36 69 29 70 30 71 34 72 37 73 31 74 32 75 35 76
REMARK SMILES IDX 33 77 59 78 60 79 68 80 61 81 62 82 66 83 69 84 63 85 64 86
REMARK SMILES IDX 67 87 65 88 44 89 45 90 53 91 46 92 47 93 51 94 54 95 48 96
REMARK SMILES IDX 49 97 52 98 50 99
REMARK H PARENT 7 10 74 52 42 63
REMARK Flexibility Score: inf
ROOT
ATOM      1  C   UNL     1      -1.568   7.204   2.237  1.00  0.00     0.274 C 
ENDROOT
BRANCH   1   2
ATOM      2  O   UNL     1      -1.425   5.828   1.841  1.00  0.00    -0.461 OA
BRANCH   2   3
ATOM      3  C   UNL     1      -1.718   5.527   0.548  1.00  0.00     0.328 C 
ATOM      4  O   UNL     1      -2.256   6.289  -0.246  1.00  0.00    -0.250 OA
BRANCH   3   5
ATOM      5  C   UNL     1      -1.303   4.095   0.184  1.00  0.00     0.189 C 
ATOM      6  C   UNL     1      -2.548   3.288  -0.157  1.00  0.00     0.043 C 
BRANCH   5   7
ATOM      7  N   UNL     1      -0.521   3.426   1.225  1.00  0.00    -0.343 N 
ATOM      8  C   UNL     1       0.761   2.953   1.186  1.00  0.00     0.225 C 
ATOM      9  O   UNL     1       1.244   2.499   2.226  1.00  0.00    -0.275 OA
ATOM     10  H   UNL     1      -0.988   3.298   2.083  1.00  0.00     0.164 HD
BRANCH   8  11
ATOM     11  C   UNL     1       1.551   2.923  -0.127  1.00  0.00     0.143 C 
BRANCH  11  12
ATOM     12  C   UNL     1       0.836   2.111  -1.180  1.00  0.00     0.051 A 
ATOM     13  C   UNL     1       0.716   0.034   0.234  1.00  0.00     0.046 C 
ATOM     14  C   UNL     1       0.327   0.886  -0.952  1.00  0.00    -0.029 A 
ATOM     15  C   UNL     1      -0.607   0.322  -1.931  1.00  0.00     0.022 A 
ATOM     16  C   UNL     1       0.672   2.781  -2.497  1.00  0.00     0.340 A 
ATOM     17  C   UNL     1      -0.740   0.928  -3.182  1.00  0.00     0.142 A 
ATOM     18  C   UNL     1      -1.295  -0.865  -1.669  1.00  0.00     0.024 A 
ATOM     19  O   UNL     1       1.225   3.847  -2.746  1.00  0.00    -0.246 OA
ATOM     20  O   UNL     1      -0.120   2.161  -3.445  1.00  0.00    -0.422 OA
ATOM     21  C   UNL     1      -1.384   0.326  -4.267  1.00  0.00     0.095 A 
ATOM     22  C   UNL     1      -1.771  -1.582  -2.772  1.00  0.00     0.025 A 
ATOM     23  C   UNL     1      -1.745  -0.992  -4.032  1.00  0.00     0.138 A 
ATOM     24  C   UNL     1      -1.988  -2.965  -2.975  1.00  0.00     0.001 A 
ATOM     25  O   UNL     1      -1.898  -1.944  -4.998  1.00  0.00    -0.461 OA
ATOM     26  C   UNL     1      -1.825  -3.126  -4.336  1.00  0.00     0.108 A 
ATOM     27  C   UNL     1      -1.672  -4.092  -2.057  1.00  0.00     0.040 C 
ATOM     28  C   UNL     1      -0.967  -4.213  -4.889  1.00  0.00     0.076 C 
ATOM     29  C   UNL     1      -0.264  -4.630  -2.401  1.00  0.00     0.005 C 
ATOM     30  C   UNL     1       0.197  -4.375  -3.868  1.00  0.00     0.008 C 
ENDBRANCH  11  12
ENDBRANCH   8  11
ENDBRANCH   5   7
ENDBRANCH   3   5
ENDBRANCH   2   3
ENDBRANCH   1   2
BRANCH   1  31
ATOM     31  C   UNL     1      -0.192   7.781   2.574  1.00  0.00     0.275 C 
BRANCH  31  32
ATOM     32  O   UNL     1       0.530   8.086   1.369  1.00  0.00    -0.458 OA
BRANCH  32  33
ATOM     33  C   UNL     1       1.258   7.067   0.843  1.00  0.00     0.338 C 
ATOM     34  O   UNL     1       1.473   5.978   1.308  1.00  0.00    -0.246 OA
BRANCH  33  35
ATOM     35  C   UNL     1       1.571   7.457  -0.537  1.00  0.00     0.060 A 
ATOM     36  C   UNL     1       2.412   8.532  -0.804  1.00  0.00     0.016 A 
ATOM     37  C   UNL     1       0.939   6.761  -1.567  1.00  0.00     0.016 A 
ATOM     38  C   UNL     1       2.586   8.928  -2.125  1.00  0.00     0.010 A 
ATOM     39  C   UNL     1       1.111   7.153  -2.883  1.00  0.00     0.010 A 
ATOM     40  C   UNL     1       1.925   8.248  -3.163  1.00  0.00    -0.014 A 
BRANCH  40  41
ATOM     41  C   UNL     1       2.062   8.775  -4.528  1.00  0.00     0.031 A 
ATOM     42  C   UNL     1       2.292   7.742  -5.602  1.00  0.00     0.074 A 
ATOM     43  C   UNL     1       1.260   9.817  -4.826  1.00  0.00     0.049 A 
ATOM     44  N   UNL     1       1.381   7.076  -6.252  1.00  0.00    -0.248 NA
ATOM     45  C   UNL     1       3.656   7.265  -5.850  1.00  0.00     0.031 C 
ATOM     46  C   UNL     1      -0.153   9.948  -4.457  1.00  0.00     0.029 A 
ATOM     47  N   UNL     1       1.529  10.934  -5.582  1.00  0.00    -0.354 N 
ATOM     48  C   UNL     1       2.036   6.084  -6.972  1.00  0.00     0.074 A 
ATOM     49  C   UNL     1       3.445   6.247  -6.696  1.00  0.00     0.031 C 
ATOM     50  C   UNL     1      -0.677  10.989  -5.131  1.00  0.00     0.029 A 
ATOM     51  C   UNL     1       0.374  11.636  -5.914  1.00  0.00     0.049 A 
ATOM     52  H   UNL     1       2.435  11.207  -5.856  1.00  0.00     0.167 HD
ATOM     53  C   UNL     1       1.410   5.181  -7.775  1.00  0.00     0.037 A 
ATOM     54  C   UNL     1       0.187  12.242  -7.119  1.00  0.00     0.037 A 
ATOM     55  C   UNL     1      -0.012   5.288  -7.858  1.00  0.00     0.049 A 
ATOM     56  C   UNL     1      -0.214  11.050  -7.964  1.00  0.00     0.074 A 
ATOM     57  C   UNL     1      -1.112   4.667  -7.310  1.00  0.00     0.029 A 
ATOM     58  N   UNL     1      -0.532   6.248  -8.691  1.00  0.00    -0.354 N 
ATOM     59  N   UNL     1      -1.389  10.475  -8.000  1.00  0.00    -0.248 NA
ATOM     60  C   UNL     1       0.874  10.239  -8.518  1.00  0.00     0.031 C 
ATOM     61  C   UNL     1      -2.194   5.585  -7.490  1.00  0.00     0.029 A 
ATOM     62  C   UNL     1      -1.665   6.727  -8.090  1.00  0.00     0.049 A 
ATOM     63  H   UNL     1      -0.161   6.537  -9.556  1.00  0.00     0.167 HD
ATOM     64  C   UNL     1      -1.138   9.138  -8.328  1.00  0.00     0.074 A 
ATOM     65  C   UNL     1       0.267   9.070  -8.668  1.00  0.00     0.031 C 
ATOM     66  C   UNL     1      -2.029   8.124  -8.119  1.00  0.00     0.037 A 
BRANCH  53  67
ATOM     67  C   UNL     1       2.095   4.244  -8.691  1.00  0.00     0.064 A 
ATOM     68  C   UNL     1       2.106   4.559 -10.059  1.00  0.00     0.173 A 
ATOM     69  C   UNL     1       2.521   2.970  -8.304  1.00  0.00     0.173 A 
ATOM     70  F   UNL     1       1.700   5.773 -10.470  1.00  0.00    -0.203 F 
ATOM     71  C   UNL     1       2.477   3.620 -11.013  1.00  0.00     0.198 A 
ATOM     72  C   UNL     1       2.906   2.032  -9.264  1.00  0.00     0.198 A 
ATOM     73  F   UNL     1       2.519   2.617  -7.011  1.00  0.00    -0.203 F 
ATOM     74  F   UNL     1       2.420   3.934 -12.315  1.00  0.00    -0.200 F 
ATOM     75  C   UNL     1       2.866   2.352 -10.616  1.00  0.00     0.200 A 
ATOM     76  F   UNL     1       3.285   0.803  -8.886  1.00  0.00    -0.200 F 
ATOM     77  F   UNL     1       3.189   1.433 -11.537  1.00  0.00    -0.200 F 
ENDBRANCH  53  67
BRANCH  54  78
ATOM     78  C   UNL     1       1.247  13.230  -7.499  1.00  0.00     0.064 A 
ATOM     79  C   UNL     1       1.631  14.202  -6.547  1.00  0.00     0.173 A 
ATOM     80  C   UNL     1       1.929  13.266  -8.722  1.00  0.00     0.173 A 
ATOM     81  F   UNL     1       0.958  14.319  -5.391  1.00  0.00    -0.203 F 
ATOM     82  C   UNL     1       2.722  15.046  -6.748  1.00  0.00     0.198 A 
ATOM     83  C   UNL     1       3.037  14.097  -8.916  1.00  0.00     0.198 A 
ATOM     84  F   UNL     1       1.558  12.485  -9.744  1.00  0.00    -0.203 F 
ATOM     85  F   UNL     1       3.087  15.909  -5.790  1.00  0.00    -0.200 F 
ATOM     86  C   UNL     1       3.447  14.968  -7.922  1.00  0.00     0.200 A 
ATOM     87  F   UNL     1       3.727  14.024 -10.063  1.00  0.00    -0.200 F 
ATOM     88  F   UNL     1       4.537  15.728  -8.095  1.00  0.00    -0.200 F 
ENDBRANCH  54  78
BRANCH  66  89
ATOM     89  C   UNL     1      -3.384   8.532  -7.658  1.00  0.00     0.064 A 
ATOM     90  C   UNL     1      -4.268   9.168  -8.536  1.00  0.00     0.173 A 
ATOM     91  C   UNL     1      -3.836   8.234  -6.362  1.00  0.00     0.173 A 
ATOM     92  F   UNL     1      -3.887   9.457  -9.790  1.00  0.00    -0.203 F 
ATOM     93  C   UNL     1      -5.566   9.473  -8.140  1.00  0.00     0.198 A 
ATOM     94  C   UNL     1      -5.144   8.513  -5.981  1.00  0.00     0.198 A 
ATOM     95  F   UNL     1      -3.026   7.642  -5.471  1.00  0.00    -0.203 F 
ATOM     96  F   UNL     1      -6.403  10.073  -8.999  1.00  0.00    -0.200 F 
ATOM     97  C   UNL     1      -6.008   9.131  -6.870  1.00  0.00     0.200 A 
ATOM     98  F   UNL     1      -5.576   8.160  -4.762  1.00  0.00    -0.200 F 
ATOM     99  F   UNL     1      -7.273   9.385  -6.508  1.00  0.00    -0.200 F 
ENDBRANCH  66  89
ENDBRANCH  40  41
ENDBRANCH  33  35
ENDBRANCH  32  33
ENDBRANCH  31  32
ENDBRANCH   1  31
TORSDOF 14
