REMARK SMILES O=C(C[C@@H]1C(=O)NCCN1C(=O)OCC1c2ccccc2-c2ccccc21)OCCOC(=O)c1ccc(-c2c3nc(c(-c4c(F)c(F)c(F)c(F)c4F)c4ccc([nH]4)c(-c4c(F)c(F)c(F)c(F)c4F)c4nc(c(-c5c(F)c(F)c(F)c(F)c5F)c5ccc2[nH]5)C=C4)C=C3)cc1
REMARK SMILES IDX 28 1 2 2 1 3 3 4 4 5 5 6 10 7 6 8 7 9 9 10 8 11 11 13 12 14
REMARK SMILES IDX 13 15 14 16 15 17 16 18 27 19 17 20 21 21 22 22 26 23 18 24
REMARK SMILES IDX 20 25 23 26 25 27 19 28 24 29 29 30 30 31 31 32 32 33 33 34
REMARK SMILES IDX 34 35 35 36 96 37 36 38 95 39 37 40 38 41 39 42 89 43 40 44
REMARK SMILES IDX 94 45 88 46 90 47 41 48 93 49 87 50 86 51 42 53 74 54 54 55
REMARK SMILES IDX 73 56 55 57 58 58 72 59 91 60 56 61 57 62 71 64 92 65 59 66
REMARK SMILES IDX 43 67 44 68 52 69 45 70 46 71 50 72 53 73 47 74 48 75 51 76
REMARK SMILES IDX 49 77 75 78 76 79 84 80 77 81 78 82 82 83 85 84 79 85 80 86
REMARK SMILES IDX 83 87 81 88 60 89 61 90 69 91 62 92 63 93 67 94 70 95 64 96
REMARK SMILES IDX 65 97 68 98 66 99
REMARK H PARENT 7 12 90 52 58 63
REMARK Flexibility Score: inf
ROOT
ATOM      1  O   UNL     1       3.054  -0.210  -1.358  1.00  0.00    -0.462 OA
ENDROOT
BRANCH   1   2
ATOM      2  C   UNL     1       2.313  -0.593  -0.302  1.00  0.00     0.308 C 
ATOM      3  O   UNL     1       1.147  -0.957  -0.465  1.00  0.00    -0.252 OA
BRANCH   2   4
ATOM      4  C   UNL     1       2.835  -0.411   1.102  1.00  0.00     0.158 C 
BRANCH   4   5
ATOM      5  C   UNL     1       3.838  -1.368   1.764  1.00  0.00     0.189 C 
ATOM      6  C   UNL     1       3.905  -2.705   0.985  1.00  0.00     0.243 C 
ATOM      7  N   UNL     1       3.779  -1.524   3.274  1.00  0.00    -0.294 N 
ATOM      8  O   UNL     1       4.017  -2.757  -0.238  1.00  0.00    -0.273 OA
ATOM      9  N   UNL     1       3.927  -3.869   1.696  1.00  0.00    -0.353 N 
ATOM     10  C   UNL     1       4.410  -2.721   3.805  1.00  0.00     0.145 C 
ATOM     11  C   UNL     1       3.758  -3.923   3.131  1.00  0.00     0.137 C 
ATOM     12  H   UNL     1       4.064  -4.713   1.209  1.00  0.00     0.163 HD
BRANCH   7  13
ATOM     13  C   UNL     1       3.208  -0.646   4.185  1.00  0.00     0.410 C 
ATOM     14  O   UNL     1       3.423  -0.608   5.385  1.00  0.00    -0.224 OA
BRANCH  13  15
ATOM     15  O   UNL     1       2.341   0.118   3.543  1.00  0.00    -0.448 OA
BRANCH  15  16
ATOM     16  C   UNL     1       1.522   1.202   3.986  1.00  0.00     0.248 C 
BRANCH  16  17
ATOM     17  C   UNL     1       0.245   1.080   4.909  1.00  0.00     0.088 C 
ATOM     18  C   UNL     1      -0.009  -0.425   4.982  1.00  0.00    -0.029 A 
ATOM     19  C   UNL     1       0.257   1.631   6.494  1.00  0.00    -0.029 A 
ATOM     20  C   UNL     1      -0.133  -1.223   3.831  1.00  0.00     0.005 A 
ATOM     21  C   UNL     1       0.131  -0.968   6.273  1.00  0.00    -0.014 A 
ATOM     22  C   UNL     1       0.418   0.076   7.254  1.00  0.00    -0.014 A 
ATOM     23  C   UNL     1       0.780   3.342   7.588  1.00  0.00     0.005 A 
ATOM     24  C   UNL     1      -0.062  -2.598   3.962  1.00  0.00     0.000 A 
ATOM     25  C   UNL     1       0.057  -2.346   6.400  1.00  0.00     0.009 A 
ATOM     26  C   UNL     1       1.128   0.087   8.783  1.00  0.00     0.009 A 
ATOM     27  C   UNL     1       1.415   3.165   9.167  1.00  0.00     0.000 A 
ATOM     28  C   UNL     1      -0.006  -3.155   5.243  1.00  0.00     0.001 A 
ATOM     29  C   UNL     1       1.620   1.565   9.673  1.00  0.00     0.001 A 
ENDBRANCH  16  17
ENDBRANCH  15  16
ENDBRANCH  13  15
ENDBRANCH   7  13
ENDBRANCH   4   5
ENDBRANCH   2   4
ENDBRANCH   1   2
BRANCH   1  30
ATOM     30  C   UNL     1       4.453   0.101  -1.308  1.00  0.00     0.274 C 
BRANCH  30  31
ATOM     31  C   UNL     1       4.713   1.608  -1.318  1.00  0.00     0.275 C 
BRANCH  31  32
ATOM     32  O   UNL     1       4.127   2.283  -0.182  1.00  0.00    -0.458 OA
BRANCH  32  33
ATOM     33  C   UNL     1       2.865   2.755  -0.377  1.00  0.00     0.338 C 
ATOM     34  O   UNL     1       2.220   2.667  -1.408  1.00  0.00    -0.246 OA
BRANCH  33  35
ATOM     35  C   UNL     1       2.279   3.281   0.887  1.00  0.00     0.060 A 
ATOM     36  C   UNL     1       0.907   3.091   1.093  1.00  0.00     0.016 A 
ATOM     37  C   UNL     1       3.032   3.934   1.873  1.00  0.00     0.016 A 
ATOM     38  C   UNL     1       0.300   3.528   2.281  1.00  0.00     0.010 A 
ATOM     39  C   UNL     1       2.423   4.358   3.076  1.00  0.00     0.010 A 
ATOM     40  C   UNL     1       1.058   4.115   3.317  1.00  0.00    -0.014 A 
BRANCH  40  41
ATOM     41  C   UNL     1       0.333   4.406   4.599  1.00  0.00     0.031 A 
ATOM     42  C   UNL     1      -0.141   5.776   4.837  1.00  0.00     0.074 A 
ATOM     43  C   UNL     1       0.276   3.509   5.616  1.00  0.00     0.049 A 
ATOM     44  N   UNL     1      -0.693   6.265   5.908  1.00  0.00    -0.248 NA
ATOM     45  C   UNL     1       0.211   6.753   3.796  1.00  0.00     0.031 C 
ATOM     46  C   UNL     1       1.958   2.720   6.125  1.00  0.00     0.029 A 
ATOM     47  N   UNL     1      -0.990   3.081   6.899  1.00  0.00    -0.354 N 
ATOM     48  C   UNL     1      -0.817   7.608   5.645  1.00  0.00     0.074 A 
ATOM     49  C   UNL     1      -0.146   7.877   4.389  1.00  0.00     0.031 C 
ATOM     50  C   UNL     1       1.760   1.800   7.504  1.00  0.00     0.029 A 
ATOM     51  C   UNL     1      -0.236   1.979   8.248  1.00  0.00     0.049 A 
ATOM     52  H   UNL     1      -1.926   3.384   6.883  1.00  0.00     0.167 HD
ATOM     53  C   UNL     1      -1.484   8.533   6.361  1.00  0.00     0.037 A 
ATOM     54  C   UNL     1      -0.986   1.696   9.481  1.00  0.00     0.037 A 
ATOM     55  C   UNL     1      -2.046   8.313   7.661  1.00  0.00     0.049 A 
ATOM     56  C   UNL     1      -1.714   2.985  10.051  1.00  0.00     0.074 A 
ATOM     57  C   UNL     1      -2.725   9.233   8.432  1.00  0.00     0.029 A 
ATOM     58  N   UNL     1      -1.965   7.132   8.401  1.00  0.00    -0.354 N 
ATOM     59  N   UNL     1      -1.858   4.213   9.575  1.00  0.00    -0.248 NA
ATOM     60  C   UNL     1      -2.191   2.870  11.444  1.00  0.00     0.031 C 
ATOM     61  C   UNL     1      -2.986   8.645   9.668  1.00  0.00     0.029 A 
ATOM     62  C   UNL     1      -2.576   7.316   9.635  1.00  0.00     0.049 A 
ATOM     63  H   UNL     1      -1.540   6.298   8.096  1.00  0.00     0.167 HD
ATOM     64  C   UNL     1      -2.415   4.995  10.604  1.00  0.00     0.074 A 
ATOM     65  C   UNL     1      -2.589   4.100  11.728  1.00  0.00     0.031 C 
ATOM     66  C   UNL     1      -2.742   6.320  10.674  1.00  0.00     0.037 A 
BRANCH  53  67
ATOM     67  C   UNL     1      -1.647   9.852   5.677  1.00  0.00     0.064 A 
ATOM     68  C   UNL     1      -2.395   9.944   4.488  1.00  0.00     0.173 A 
ATOM     69  C   UNL     1      -1.004  11.001   6.148  1.00  0.00     0.173 A 
ATOM     70  F   UNL     1      -2.996   8.856   3.981  1.00  0.00    -0.203 F 
ATOM     71  C   UNL     1      -2.446  11.129   3.768  1.00  0.00     0.198 A 
ATOM     72  C   UNL     1      -1.102  12.199   5.450  1.00  0.00     0.198 A 
ATOM     73  F   UNL     1      -0.263  10.954   7.265  1.00  0.00    -0.203 F 
ATOM     74  F   UNL     1      -3.074  11.165   2.586  1.00  0.00    -0.200 F 
ATOM     75  C   UNL     1      -1.806  12.258   4.255  1.00  0.00     0.200 A 
ATOM     76  F   UNL     1      -0.490  13.294   5.920  1.00  0.00    -0.200 F 
ATOM     77  F   UNL     1      -1.851  13.402   3.559  1.00  0.00    -0.200 F 
ENDBRANCH  53  67
BRANCH  54  78
ATOM     78  C   UNL     1      -0.949   0.423  10.597  1.00  0.00     0.064 A 
ATOM     79  C   UNL     1      -2.134  -0.308  10.847  1.00  0.00     0.173 A 
ATOM     80  C   UNL     1       0.113  -0.092  11.413  1.00  0.00     0.173 A 
ATOM     81  F   UNL     1      -3.309   0.173  10.417  1.00  0.00    -0.203 F 
ATOM     82  C   UNL     1      -2.175  -1.495  11.641  1.00  0.00     0.198 A 
ATOM     83  C   UNL     1       0.133  -1.364  12.018  1.00  0.00     0.198 A 
ATOM     84  F   UNL     1       1.159   0.636  11.803  1.00  0.00    -0.203 F 
ATOM     85  F   UNL     1      -3.350  -2.067  11.939  1.00  0.00    -0.200 F 
ATOM     86  C   UNL     1      -1.024  -2.073  12.141  1.00  0.00     0.200 A 
ATOM     87  F   UNL     1       1.282  -1.847  12.520  1.00  0.00    -0.200 F 
ATOM     88  F   UNL     1      -1.037  -3.237  12.806  1.00  0.00    -0.200 F 
ENDBRANCH  54  78
BRANCH  66  89
ATOM     89  C   UNL     1      -3.453   6.797  11.937  1.00  0.00     0.064 A 
ATOM     90  C   UNL     1      -2.822   6.900  13.188  1.00  0.00     0.173 A 
ATOM     91  C   UNL     1      -4.808   7.176  11.871  1.00  0.00     0.173 A 
ATOM     92  F   UNL     1      -1.526   6.581  13.320  1.00  0.00    -0.203 F 
ATOM     93  C   UNL     1      -3.539   7.271  14.330  1.00  0.00     0.198 A 
ATOM     94  C   UNL     1      -5.504   7.602  13.001  1.00  0.00     0.198 A 
ATOM     95  F   UNL     1      -5.458   7.156  10.698  1.00  0.00    -0.203 F 
ATOM     96  F   UNL     1      -2.940   7.259  15.529  1.00  0.00    -0.200 F 
ATOM     97  C   UNL     1      -4.878   7.620  14.235  1.00  0.00     0.200 A 
ATOM     98  F   UNL     1      -6.785   7.983  12.893  1.00  0.00    -0.200 F 
ATOM     99  F   UNL     1      -5.567   7.959  15.333  1.00  0.00    -0.200 F 
ENDBRANCH  66  89
ENDBRANCH  40  41
ENDBRANCH  33  35
ENDBRANCH  32  33
ENDBRANCH  31  32
ENDBRANCH  30  31
ENDBRANCH   1  30
TORSDOF 16
