REMARK SMILES C[C@H]1C[C@](C(=O)OCCOC(=O)c2ccc(-c3c4nc(c(-c5c(F)c(F)c(F)c(F)c5F)c5ccc([nH]5)c(-c5c(F)c(F)c(F)c(F)c5F)c5nc(c(-c6c(F)c(F)c(F)c(F)c6F)c6ccc3[nH]6)C=C5)C=C4)cc2)(N(C=O)C2CC2)CS1
REMARK SMILES IDX 8 1 7 2 5 3 6 4 4 5 1 6 2 7 3 8 83 9 82 10 76 11 77 12 78 13
REMARK SMILES IDX 79 14 80 15 81 16 9 17 10 18 11 19 12 20 13 21 14 22 75 23
REMARK SMILES IDX 15 24 74 25 16 26 17 27 18 28 68 29 19 30 73 31 67 32 69 33
REMARK SMILES IDX 20 34 72 35 66 36 65 37 21 39 53 40 33 41 52 42 34 43 37 44
REMARK SMILES IDX 51 45 70 46 35 47 36 48 50 50 71 51 38 52 22 53 23 54 31 55
REMARK SMILES IDX 24 56 25 57 29 58 32 59 26 60 27 61 30 62 28 63 54 64 55 65
REMARK SMILES IDX 63 66 56 67 57 68 61 69 64 70 58 71 59 72 62 73 60 74 39 75
REMARK SMILES IDX 40 76 48 77 41 78 42 79 46 80 49 81 43 82 44 83 47 84 45 85
REMARK H PARENT 69 38 37 49
REMARK Flexibility Score: inf
ROOT
ATOM      1  C   UNL     1      -1.312   6.457   0.112  1.00  0.00     0.274 C 
ENDROOT
BRANCH   1   2
ATOM      2  O   UNL     1      -0.079   5.704   0.114  1.00  0.00    -0.460 OA
BRANCH   2   3
ATOM      3  C   UNL     1      -0.052   4.508   0.768  1.00  0.00     0.333 C 
ATOM      4  O   UNL     1      -1.009   4.042   1.376  1.00  0.00    -0.249 OA
BRANCH   3   5
ATOM      5  C   UNL     1       1.339   3.808   0.697  1.00  0.00     0.150 C 
ATOM      6  C   UNL     1      -0.163   1.105   1.989  1.00  0.00     0.019 C 
ATOM      7  C   UNL     1       1.162   1.301   1.265  1.00  0.00     0.046 C 
ATOM      8  C   UNL     1       1.167   2.351   0.154  1.00  0.00     0.055 C 
ATOM      9  S   UNL     1       2.418   1.951   2.379  1.00  0.00    -0.156 SA
ATOM     10  C   UNL     1       1.860   3.664   2.158  1.00  0.00     0.110 C 
BRANCH   5  11
ATOM     11  N   UNL     1       2.260   4.623  -0.171  1.00  0.00    -0.325 N 
BRANCH  11  12
ATOM     12  C   UNL     1       2.869   5.784   0.300  1.00  0.00     0.341 C 
ATOM     13  O   UNL     1       3.680   6.471  -0.307  1.00  0.00    -0.279 OA
ENDBRANCH  11  12
BRANCH  11  14
ATOM     14  C   UNL     1       2.452   4.303  -1.573  1.00  0.00     0.086 C 
ATOM     15  C   UNL     1       1.371   3.876  -2.536  1.00  0.00     0.027 C 
ATOM     16  C   UNL     1       1.933   5.255  -2.630  1.00  0.00     0.027 C 
ENDBRANCH  11  14
ENDBRANCH   5  11
ENDBRANCH   3   5
ENDBRANCH   2   3
ENDBRANCH   1   2
BRANCH   1  17
ATOM     17  C   UNL     1      -2.075   6.230  -1.193  1.00  0.00     0.275 C 
BRANCH  17  18
ATOM     18  O   UNL     1      -2.509   4.864  -1.215  1.00  0.00    -0.458 OA
BRANCH  18  19
ATOM     19  C   UNL     1      -2.866   4.362  -2.419  1.00  0.00     0.338 C 
ATOM     20  O   UNL     1      -2.958   4.971  -3.468  1.00  0.00    -0.246 OA
BRANCH  19  21
ATOM     21  C   UNL     1      -3.107   2.904  -2.267  1.00  0.00     0.060 A 
ATOM     22  C   UNL     1      -2.449   2.184  -1.268  1.00  0.00     0.016 A 
ATOM     23  C   UNL     1      -3.951   2.232  -3.151  1.00  0.00     0.016 A 
ATOM     24  C   UNL     1      -2.587   0.803  -1.176  1.00  0.00     0.010 A 
ATOM     25  C   UNL     1      -4.159   0.853  -3.002  1.00  0.00     0.010 A 
ATOM     26  C   UNL     1      -3.469   0.123  -2.018  1.00  0.00    -0.014 A 
BRANCH  26  27
ATOM     27  C   UNL     1      -3.634  -1.347  -1.877  1.00  0.00     0.031 A 
ATOM     28  C   UNL     1      -3.261  -2.251  -3.016  1.00  0.00     0.074 A 
ATOM     29  C   UNL     1      -4.083  -1.882  -0.723  1.00  0.00     0.049 A 
ATOM     30  N   UNL     1      -3.513  -3.524  -3.180  1.00  0.00    -0.248 NA
ATOM     31  C   UNL     1      -2.503  -1.640  -4.120  1.00  0.00     0.031 C 
ATOM     32  C   UNL     1      -4.403  -1.133   0.495  1.00  0.00     0.029 A 
ATOM     33  N   UNL     1      -4.346  -3.188  -0.384  1.00  0.00    -0.354 N 
ATOM     34  C   UNL     1      -3.004  -3.850  -4.429  1.00  0.00     0.074 A 
ATOM     35  C   UNL     1      -2.407  -2.650  -4.974  1.00  0.00     0.031 C 
ATOM     36  C   UNL     1      -4.799  -1.990   1.449  1.00  0.00     0.029 A 
ATOM     37  C   UNL     1      -4.849  -3.335   0.886  1.00  0.00     0.049 A 
ATOM     38  H   UNL     1      -4.189  -3.945  -0.993  1.00  0.00     0.167 HD
ATOM     39  C   UNL     1      -3.047  -5.044  -5.065  1.00  0.00     0.037 A 
ATOM     40  C   UNL     1      -5.351  -4.420   1.510  1.00  0.00     0.037 A 
ATOM     41  C   UNL     1      -3.591  -6.249  -4.498  1.00  0.00     0.049 A 
ATOM     42  C   UNL     1      -5.423  -5.724   0.765  1.00  0.00     0.074 A 
ATOM     43  C   UNL     1      -3.682  -7.507  -5.067  1.00  0.00     0.029 A 
ATOM     44  N   UNL     1      -4.119  -6.348  -3.220  1.00  0.00    -0.354 N 
ATOM     45  N   UNL     1      -5.015  -6.007  -0.448  1.00  0.00    -0.248 NA
ATOM     46  C   UNL     1      -6.052  -6.853   1.465  1.00  0.00     0.031 C 
ATOM     47  C   UNL     1      -4.290  -8.362  -4.143  1.00  0.00     0.029 A 
ATOM     48  C   UNL     1      -4.548  -7.644  -2.987  1.00  0.00     0.049 A 
ATOM     49  H   UNL     1      -4.180  -5.607  -2.575  1.00  0.00     0.167 HD
ATOM     50  C   UNL     1      -5.332  -7.342  -0.654  1.00  0.00     0.074 A 
ATOM     51  C   UNL     1      -5.944  -7.822   0.567  1.00  0.00     0.031 C 
ATOM     52  C   UNL     1      -5.146  -8.101  -1.761  1.00  0.00     0.037 A 
BRANCH  39  53
ATOM     53  C   UNL     1      -2.533  -5.101  -6.470  1.00  0.00     0.064 A 
ATOM     54  C   UNL     1      -1.163  -5.137  -6.759  1.00  0.00     0.173 A 
ATOM     55  C   UNL     1      -3.438  -5.179  -7.541  1.00  0.00     0.173 A 
ATOM     56  F   UNL     1      -0.262  -5.047  -5.770  1.00  0.00    -0.203 F 
ATOM     57  C   UNL     1      -0.715  -5.242  -8.074  1.00  0.00     0.198 A 
ATOM     58  C   UNL     1      -2.986  -5.303  -8.851  1.00  0.00     0.198 A 
ATOM     59  F   UNL     1      -4.759  -5.147  -7.313  1.00  0.00    -0.203 F 
ATOM     60  F   UNL     1       0.600  -5.249  -8.333  1.00  0.00    -0.200 F 
ATOM     61  C   UNL     1      -1.626  -5.333  -9.117  1.00  0.00     0.200 A 
ATOM     62  F   UNL     1      -3.868  -5.398  -9.856  1.00  0.00    -0.200 F 
ATOM     63  F   UNL     1      -1.192  -5.446 -10.380  1.00  0.00    -0.200 F 
ENDBRANCH  39  53
BRANCH  40  64
ATOM     64  C   UNL     1      -5.897  -4.304   2.888  1.00  0.00     0.064 A 
ATOM     65  C   UNL     1      -5.279  -4.947   3.969  1.00  0.00     0.173 A 
ATOM     66  C   UNL     1      -7.064  -3.570   3.147  1.00  0.00     0.173 A 
ATOM     67  F   UNL     1      -4.179  -5.688   3.767  1.00  0.00    -0.203 F 
ATOM     68  C   UNL     1      -5.816  -4.872   5.253  1.00  0.00     0.198 A 
ATOM     69  C   UNL     1      -7.582  -3.469   4.436  1.00  0.00     0.198 A 
ATOM     70  F   UNL     1      -7.698  -2.940   2.146  1.00  0.00    -0.203 F 
ATOM     71  F   UNL     1      -5.234  -5.538   6.260  1.00  0.00    -0.200 F 
ATOM     72  C   UNL     1      -6.963  -4.128   5.486  1.00  0.00     0.200 A 
ATOM     73  F   UNL     1      -8.684  -2.740   4.657  1.00  0.00    -0.200 F 
ATOM     74  F   UNL     1      -7.478  -4.055   6.721  1.00  0.00    -0.200 F 
ENDBRANCH  40  64
BRANCH  52  75
ATOM     75  C   UNL     1      -5.586  -9.531  -1.690  1.00  0.00     0.064 A 
ATOM     76  C   UNL     1      -6.942  -9.880  -1.765  1.00  0.00     0.173 A 
ATOM     77  C   UNL     1      -4.642 -10.562  -1.583  1.00  0.00     0.173 A 
ATOM     78  F   UNL     1      -7.881  -8.926  -1.851  1.00  0.00    -0.203 F 
ATOM     79  C   UNL     1      -7.338 -11.213  -1.716  1.00  0.00     0.198 A 
ATOM     80  C   UNL     1      -5.041 -11.895  -1.556  1.00  0.00     0.198 A 
ATOM     81  F   UNL     1      -3.333 -10.275  -1.513  1.00  0.00    -0.203 F 
ATOM     82  F   UNL     1      -8.642 -11.525  -1.750  1.00  0.00    -0.200 F 
ATOM     83  C   UNL     1      -6.388 -12.219  -1.617  1.00  0.00     0.200 A 
ATOM     84  F   UNL     1      -4.121 -12.866  -1.469  1.00  0.00    -0.200 F 
ATOM     85  F   UNL     1      -6.771 -13.502  -1.573  1.00  0.00    -0.200 F 
ENDBRANCH  52  75
ENDBRANCH  26  27
ENDBRANCH  19  21
ENDBRANCH  18  19
ENDBRANCH  17  18
ENDBRANCH   1  17
TORSDOF 14
