REMARK SMILES O=C(N[C@H](CCBr)C(=O)OCCOC(=O)c1ccc(-c2c3nc(c(-c4c(F)c(F)c(F)c(F)c4F)c4ccc([nH]4)c(-c4c(F)c(F)c(F)c(F)c4F)c4nc(c(-c5c(F)c(F)c(F)c(F)c5F)c5ccc2[nH]5)C=C4)C=C3)cc1)OCc1ccccc1
REMARK SMILES IDX 11 1 10 2 8 3 9 4 4 5 3 6 1 7 2 8 79 10 80 11 81 12 82 13
REMARK SMILES IDX 86 14 83 15 85 16 84 17 5 18 6 19 7 20 12 21 13 22 14 23
REMARK SMILES IDX 15 24 16 25 17 26 78 27 18 28 77 29 19 30 20 31 21 32 71 33
REMARK SMILES IDX 22 34 76 35 70 36 72 37 23 38 75 39 69 40 68 41 24 43 56 44
REMARK SMILES IDX 36 45 55 46 37 47 40 48 54 49 73 50 38 51 39 52 53 54 74 55
REMARK SMILES IDX 41 56 25 57 26 58 34 59 27 60 28 61 32 62 35 63 29 64 30 65
REMARK SMILES IDX 33 66 31 67 57 68 58 69 66 70 59 71 60 72 64 73 67 74 61 75
REMARK SMILES IDX 62 76 65 77 63 78 42 79 43 80 51 81 44 82 45 83 49 84 52 85
REMARK SMILES IDX 46 86 47 87 50 88 48 89
REMARK H PARENT 3 9 72 42 40 53
REMARK Flexibility Score: inf
ROOT
ATOM      1  C   UNL     1       5.598  -0.659  -5.046  1.00  0.00     0.274 C 
ENDROOT
BRANCH   1   2
ATOM      2  O   UNL     1       4.614  -1.036  -4.064  1.00  0.00    -0.461 OA
BRANCH   2   3
ATOM      3  C   UNL     1       5.050  -1.188  -2.799  1.00  0.00     0.328 C 
ATOM      4  O   UNL     1       6.231  -1.109  -2.460  1.00  0.00    -0.250 OA
BRANCH   3   5
ATOM      5  C   UNL     1       3.943  -1.464  -1.775  1.00  0.00     0.196 C 
BRANCH   5   6
ATOM      6  N   UNL     1       4.469  -2.627  -1.011  1.00  0.00    -0.308 N 
ATOM      7  O   UNL     1       4.467  -4.039   0.766  1.00  0.00    -0.225 OA
ATOM      8  C   UNL     1       3.873  -3.272   0.031  1.00  0.00     0.408 C 
ATOM      9  H   UNL     1       5.348  -2.971  -1.291  1.00  0.00     0.168 HD
BRANCH   8  10
ATOM     10  O   UNL     1       2.588  -2.902   0.171  1.00  0.00    -0.445 OA
BRANCH  10  11
ATOM     11  C   UNL     1       2.154  -2.472   1.459  1.00  0.00     0.270 C 
BRANCH  11  12
ATOM     12  C   UNL     1       2.817  -1.176   1.881  1.00  0.00    -0.011 A 
ATOM     13  C   UNL     1       4.163  -1.159   2.279  1.00  0.00     0.007 A 
ATOM     14  C   UNL     1       2.097   0.027   1.913  1.00  0.00     0.007 A 
ATOM     15  C   UNL     1       4.767   0.017   2.721  1.00  0.00     0.000 A 
ATOM     16  C   UNL     1       2.696   1.200   2.382  1.00  0.00     0.000 A 
ATOM     17  C   UNL     1       4.026   1.191   2.796  1.00  0.00     0.000 A 
ENDBRANCH  11  12
ENDBRANCH  10  11
ENDBRANCH   8  10
ENDBRANCH   5   6
BRANCH   5  18
ATOM     18  C   UNL     1       2.473  -1.645  -2.208  1.00  0.00     0.048 C 
BRANCH  18  19
ATOM     19  C   UNL     1       1.788  -0.651  -3.123  1.00  0.00     0.083 C 
ATOM     20  Br  UNL     1       1.613  -1.329  -4.933  1.00  0.00    -0.093 Br
ENDBRANCH  18  19
ENDBRANCH   5  18
ENDBRANCH   3   5
ENDBRANCH   2   3
ENDBRANCH   1   2
BRANCH   1  21
ATOM     21  C   UNL     1       5.511   0.839  -5.350  1.00  0.00     0.275 C 
BRANCH  21  22
ATOM     22  O   UNL     1       6.031   1.646  -4.270  1.00  0.00    -0.458 OA
BRANCH  22  23
ATOM     23  C   UNL     1       5.112   1.985  -3.343  1.00  0.00     0.338 C 
ATOM     24  O   UNL     1       3.934   1.672  -3.322  1.00  0.00    -0.246 OA
BRANCH  23  25
ATOM     25  C   UNL     1       5.660   2.793  -2.257  1.00  0.00     0.060 A 
ATOM     26  C   UNL     1       5.732   2.221  -0.986  1.00  0.00     0.016 A 
ATOM     27  C   UNL     1       5.805   4.169  -2.437  1.00  0.00     0.016 A 
ATOM     28  C   UNL     1       5.902   3.043   0.123  1.00  0.00     0.010 A 
ATOM     29  C   UNL     1       6.010   4.986  -1.322  1.00  0.00     0.010 A 
ATOM     30  C   UNL     1       6.027   4.433  -0.031  1.00  0.00    -0.014 A 
BRANCH  30  31
ATOM     31  C   UNL     1       6.171   5.299   1.166  1.00  0.00     0.031 A 
ATOM     32  C   UNL     1       5.091   6.273   1.551  1.00  0.00     0.074 A 
ATOM     33  C   UNL     1       7.284   5.196   1.915  1.00  0.00     0.049 A 
ATOM     34  N   UNL     1       5.083   7.164   2.511  1.00  0.00    -0.248 NA
ATOM     35  C   UNL     1       3.859   6.247   0.748  1.00  0.00     0.031 C 
ATOM     36  C   UNL     1       8.389   4.273   1.655  1.00  0.00     0.029 A 
ATOM     37  N   UNL     1       7.670   5.872   3.045  1.00  0.00    -0.354 N 
ATOM     38  C   UNL     1       3.864   7.824   2.411  1.00  0.00     0.074 A 
ATOM     39  C   UNL     1       3.163   7.240   1.287  1.00  0.00     0.031 C 
ATOM     40  C   UNL     1       9.320   4.426   2.608  1.00  0.00     0.029 A 
ATOM     41  C   UNL     1       8.907   5.498   3.506  1.00  0.00     0.049 A 
ATOM     42  H   UNL     1       7.114   6.557   3.481  1.00  0.00     0.167 HD
ATOM     43  C   UNL     1       3.379   8.824   3.188  1.00  0.00     0.037 A 
ATOM     44  C   UNL     1       9.642   5.986   4.522  1.00  0.00     0.037 A 
ATOM     45  C   UNL     1       4.076   9.387   4.319  1.00  0.00     0.049 A 
ATOM     46  C   UNL     1       9.091   7.114   5.347  1.00  0.00     0.074 A 
ATOM     47  C   UNL     1       3.660  10.387   5.182  1.00  0.00     0.029 A 
ATOM     48  N   UNL     1       5.338   8.995   4.746  1.00  0.00    -0.354 N 
ATOM     49  N   UNL     1       7.941   7.733   5.242  1.00  0.00    -0.248 NA
ATOM     50  C   UNL     1       9.946   7.612   6.433  1.00  0.00     0.031 C 
ATOM     51  C   UNL     1       4.687  10.630   6.103  1.00  0.00     0.029 A 
ATOM     52  C   UNL     1       5.722   9.745   5.847  1.00  0.00     0.049 A 
ATOM     53  H   UNL     1       5.880   8.287   4.328  1.00  0.00     0.167 HD
ATOM     54  C   UNL     1       7.925   8.681   6.254  1.00  0.00     0.074 A 
ATOM     55  C   UNL     1       9.171   8.537   6.979  1.00  0.00     0.031 C 
ATOM     56  C   UNL     1       6.968   9.593   6.554  1.00  0.00     0.037 A 
BRANCH  43  57
ATOM     57  C   UNL     1       2.037   9.400   2.830  1.00  0.00     0.064 A 
ATOM     58  C   UNL     1       0.847   8.685   3.030  1.00  0.00     0.173 A 
ATOM     59  C   UNL     1       1.939  10.705   2.323  1.00  0.00     0.173 A 
ATOM     60  F   UNL     1       0.884   7.431   3.503  1.00  0.00    -0.203 F 
ATOM     61  C   UNL     1      -0.389   9.246   2.712  1.00  0.00     0.198 A 
ATOM     62  C   UNL     1       0.700  11.273   2.033  1.00  0.00     0.198 A 
ATOM     63  F   UNL     1       3.045  11.437   2.120  1.00  0.00    -0.203 F 
ATOM     64  F   UNL     1      -1.509   8.528   2.871  1.00  0.00    -0.200 F 
ATOM     65  C   UNL     1      -0.462  10.541   2.221  1.00  0.00     0.200 A 
ATOM     66  F   UNL     1       0.632  12.530   1.571  1.00  0.00    -0.200 F 
ATOM     67  F   UNL     1      -1.651  11.081   1.923  1.00  0.00    -0.200 F 
ENDBRANCH  43  57
BRANCH  44  68
ATOM     68  C   UNL     1      10.984   5.415   4.800  1.00  0.00     0.064 A 
ATOM     69  C   UNL     1      11.224   4.673   5.964  1.00  0.00     0.173 A 
ATOM     70  C   UNL     1      12.049   5.591   3.905  1.00  0.00     0.173 A 
ATOM     71  F   UNL     1      10.241   4.495   6.859  1.00  0.00    -0.203 F 
ATOM     72  C   UNL     1      12.484   4.143   6.230  1.00  0.00     0.198 A 
ATOM     73  C   UNL     1      13.300   5.034   4.157  1.00  0.00     0.198 A 
ATOM     74  F   UNL     1      11.869   6.290   2.774  1.00  0.00    -0.203 F 
ATOM     75  F   UNL     1      12.699   3.475   7.372  1.00  0.00    -0.200 F 
ATOM     76  C   UNL     1      13.519   4.317   5.323  1.00  0.00     0.200 A 
ATOM     77  F   UNL     1      14.292   5.190   3.269  1.00  0.00    -0.200 F 
ATOM     78  F   UNL     1      14.728   3.800   5.577  1.00  0.00    -0.200 F 
ENDBRANCH  44  68
BRANCH  56  79
ATOM     79  C   UNL     1       7.228  10.484   7.735  1.00  0.00     0.064 A 
ATOM     80  C   UNL     1       8.201  11.494   7.694  1.00  0.00     0.173 A 
ATOM     81  C   UNL     1       6.499  10.322   8.922  1.00  0.00     0.173 A 
ATOM     82  F   UNL     1       8.938  11.677   6.588  1.00  0.00    -0.203 F 
ATOM     83  C   UNL     1       8.460  12.284   8.812  1.00  0.00     0.198 A 
ATOM     84  C   UNL     1       6.739  11.134  10.027  1.00  0.00     0.198 A 
ATOM     85  F   UNL     1       5.553   9.374   9.012  1.00  0.00    -0.203 F 
ATOM     86  F   UNL     1       9.438  13.199   8.770  1.00  0.00    -0.200 F 
ATOM     87  C   UNL     1       7.727  12.106   9.975  1.00  0.00     0.200 A 
ATOM     88  F   UNL     1       6.021  10.969  11.147  1.00  0.00    -0.200 F 
ATOM     89  F   UNL     1       7.981  12.863  11.051  1.00  0.00    -0.200 F 
ENDBRANCH  56  79
ENDBRANCH  30  31
ENDBRANCH  23  25
ENDBRANCH  22  23
ENDBRANCH  21  22
ENDBRANCH   1  21
TORSDOF 17
