REMARK SMILES O=C(OCCOC(=O)[C@@H]1CCCC[C@H]1C(=O)Nc1ccccc1C(=O)N1CCOCC1)c1ccc(-c2c3nc(c(-c4c(F)c(F)c(F)c(F)c4F)c4ccc([nH]4)c(-c4c(F)c(F)c(F)c(F)c4F)c4nc(c(-c5c(F)c(F)c(F)c(F)c5F)c5ccc2[nH]5)C=C4)C=C3)cc1
REMARK SMILES IDX 5 1 4 2 3 3 2 4 1 5 32 6 33 7 94 8 34 9 93 10 35 11 36 12
REMARK SMILES IDX 37 13 87 14 38 15 92 16 86 17 88 18 39 19 91 20 85 21 84 22
REMARK SMILES IDX 40 24 72 25 52 26 71 27 53 28 56 29 70 30 89 31 54 32 55 33
REMARK SMILES IDX 69 35 90 36 57 37 41 38 42 39 50 40 43 41 44 42 48 43 51 44
REMARK SMILES IDX 45 45 46 46 49 47 47 48 73 49 74 50 82 51 75 52 76 53 80 54
REMARK SMILES IDX 83 55 77 56 78 57 81 58 79 59 58 60 59 61 67 62 60 63 61 64
REMARK SMILES IDX 65 65 68 66 62 67 63 68 66 69 64 70 6 71 7 72 8 73 9 74
REMARK SMILES IDX 10 75 14 76 11 77 13 78 12 79 15 80 16 81 17 82 18 84 19 85
REMARK SMILES IDX 23 86 20 87 22 88 21 89 24 90 25 91 26 92 27 93 31 94 28 95
REMARK SMILES IDX 30 96 29 97
REMARK H PARENT 88 23 56 34 17 83
REMARK Flexibility Score: inf
ROOT
ATOM      1  C   UNL     1       2.727   0.106   2.168  1.00  0.00     0.274 C 
ENDROOT
BRANCH   1   2
ATOM      2  C   UNL     1       2.609   1.321   1.176  1.00  0.00     0.275 C 
BRANCH   2   3
ATOM      3  O   UNL     1       2.211   1.208  -0.222  1.00  0.00    -0.458 OA
BRANCH   3   4
ATOM      4  C   UNL     1       2.981   1.231  -1.354  1.00  0.00     0.338 C 
ATOM      5  O   UNL     1       2.674   1.871  -2.353  1.00  0.00    -0.246 OA
BRANCH   4   6
ATOM      6  C   UNL     1       4.057   0.221  -1.480  1.00  0.00     0.060 A 
ATOM      7  C   UNL     1       5.207   0.188  -0.252  1.00  0.00     0.016 A 
ATOM      8  C   UNL     1       3.887  -1.074  -2.668  1.00  0.00     0.016 A 
ATOM      9  C   UNL     1       6.237  -1.216  -0.132  1.00  0.00     0.010 A 
ATOM     10  C   UNL     1       4.761  -2.625  -2.553  1.00  0.00     0.010 A 
ATOM     11  C   UNL     1       6.005  -2.813  -1.268  1.00  0.00    -0.014 A 
BRANCH  11  12
ATOM     12  C   UNL     1       6.587  -4.382  -1.423  1.00  0.00     0.031 A 
ATOM     13  C   UNL     1       7.132  -4.813  -2.826  1.00  0.00     0.074 A 
ATOM     14  C   UNL     1       6.452  -5.473  -0.586  1.00  0.00     0.049 A 
ATOM     15  N   UNL     1       7.541  -5.997  -3.256  1.00  0.00    -0.248 NA
ATOM     16  C   UNL     1       7.163  -3.802  -3.888  1.00  0.00     0.031 C 
ATOM     17  C   UNL     1       5.892  -5.553   0.759  1.00  0.00     0.029 A 
ATOM     18  N   UNL     1       6.798  -6.823  -0.778  1.00  0.00    -0.354 N 
ATOM     19  C   UNL     1       7.819  -5.862  -4.617  1.00  0.00     0.074 A 
ATOM     20  C   UNL     1       7.505  -4.496  -4.959  1.00  0.00     0.031 C 
ATOM     21  C   UNL     1       5.882  -6.792   1.242  1.00  0.00     0.029 A 
ATOM     22  C   UNL     1       6.475  -7.669   0.272  1.00  0.00     0.049 A 
ATOM     23  H   UNL     1       7.236  -7.144  -1.599  1.00  0.00     0.167 HD
ATOM     24  C   UNL     1       8.309  -6.745  -5.528  1.00  0.00     0.037 A 
ATOM     25  C   UNL     1       6.625  -8.981   0.551  1.00  0.00     0.037 A 
ATOM     26  C   UNL     1       8.730  -8.097  -5.283  1.00  0.00     0.049 A 
ATOM     27  C   UNL     1       7.330  -9.902  -0.376  1.00  0.00     0.074 A 
ATOM     28  C   UNL     1       9.406  -8.957  -6.138  1.00  0.00     0.029 A 
ATOM     29  N   UNL     1       8.512  -8.797  -4.115  1.00  0.00    -0.354 N 
ATOM     30  N   UNL     1       7.734  -9.670  -1.591  1.00  0.00    -0.248 NA
ATOM     31  C   UNL     1       7.627 -11.257   0.118  1.00  0.00     0.031 C 
ATOM     32  C   UNL     1       9.587 -10.185  -5.489  1.00  0.00     0.029 A 
ATOM     33  C   UNL     1       9.039 -10.078  -4.227  1.00  0.00     0.049 A 
ATOM     34  H   UNL     1       8.053  -8.442  -3.320  1.00  0.00     0.167 HD
ATOM     35  C   UNL     1       8.370 -10.831  -1.996  1.00  0.00     0.074 A 
ATOM     36  C   UNL     1       8.280 -11.779  -0.910  1.00  0.00     0.031 C 
ATOM     37  C   UNL     1       8.991 -11.052  -3.175  1.00  0.00     0.037 A 
BRANCH  24  38
ATOM     38  C   UNL     1       8.465  -6.244  -6.938  1.00  0.00     0.064 A 
ATOM     39  C   UNL     1       9.521  -5.391  -7.291  1.00  0.00     0.173 A 
ATOM     40  C   UNL     1       7.568  -6.639  -7.941  1.00  0.00     0.173 A 
ATOM     41  F   UNL     1      10.395  -4.980  -6.360  1.00  0.00    -0.203 F 
ATOM     42  C   UNL     1       9.652  -4.919  -8.593  1.00  0.00     0.198 A 
ATOM     43  C   UNL     1       7.716  -6.182  -9.248  1.00  0.00     0.198 A 
ATOM     44  F   UNL     1       6.548  -7.461  -7.653  1.00  0.00    -0.203 F 
ATOM     45  F   UNL     1      10.637  -4.063  -8.896  1.00  0.00    -0.200 F 
ATOM     46  C   UNL     1       8.751  -5.316  -9.570  1.00  0.00     0.200 A 
ATOM     47  F   UNL     1       6.848  -6.568 -10.194  1.00  0.00    -0.200 F 
ATOM     48  F   UNL     1       8.874  -4.852 -10.822  1.00  0.00    -0.200 F 
ENDBRANCH  24  38
BRANCH  25  49
ATOM     49  C   UNL     1       6.118  -9.505   1.854  1.00  0.00     0.064 A 
ATOM     50  C   UNL     1       6.976  -9.683   2.949  1.00  0.00     0.173 A 
ATOM     51  C   UNL     1       4.754  -9.774   2.035  1.00  0.00     0.173 A 
ATOM     52  F   UNL     1       8.288  -9.441   2.817  1.00  0.00    -0.203 F 
ATOM     53  C   UNL     1       6.488 -10.125   4.177  1.00  0.00     0.198 A 
ATOM     54  C   UNL     1       4.266 -10.201   3.268  1.00  0.00     0.198 A 
ATOM     55  F   UNL     1       3.895  -9.589   1.022  1.00  0.00    -0.203 F 
ATOM     56  F   UNL     1       7.329 -10.306   5.204  1.00  0.00    -0.200 F 
ATOM     57  C   UNL     1       5.133 -10.379   4.336  1.00  0.00     0.200 A 
ATOM     58  F   UNL     1       2.955 -10.430   3.423  1.00  0.00    -0.200 F 
ATOM     59  F   UNL     1       4.663 -10.796   5.520  1.00  0.00    -0.200 F 
ENDBRANCH  25  49
BRANCH  37  60
ATOM     60  C   UNL     1       9.699 -12.355  -3.341  1.00  0.00     0.064 A 
ATOM     61  C   UNL     1       9.011 -13.539  -3.633  1.00  0.00     0.173 A 
ATOM     62  C   UNL     1      11.091 -12.418  -3.183  1.00  0.00     0.173 A 
ATOM     63  F   UNL     1       7.675 -13.530  -3.762  1.00  0.00    -0.203 F 
ATOM     64  C   UNL     1       9.693 -14.748  -3.752  1.00  0.00     0.198 A 
ATOM     65  C   UNL     1      11.770 -13.625  -3.313  1.00  0.00     0.198 A 
ATOM     66  F   UNL     1      11.787 -11.310  -2.885  1.00  0.00    -0.203 F 
ATOM     67  F   UNL     1       9.014 -15.877  -3.998  1.00  0.00    -0.200 F 
ATOM     68  C   UNL     1      11.071 -14.789  -3.594  1.00  0.00     0.200 A 
ATOM     69  F   UNL     1      13.100 -13.664  -3.153  1.00  0.00    -0.200 F 
ATOM     70  F   UNL     1      11.724 -15.954  -3.699  1.00  0.00    -0.200 F 
ENDBRANCH  37  60
ENDBRANCH  11  12
ENDBRANCH   4   6
ENDBRANCH   3   4
ENDBRANCH   2   3
ENDBRANCH   1   2
BRANCH   1  71
ATOM     71  O   UNL     1       2.116  -1.160   1.837  1.00  0.00    -0.462 OA
BRANCH  71  72
ATOM     72  C   UNL     1       1.024  -1.623   2.489  1.00  0.00     0.309 C 
ATOM     73  O   UNL     1       0.568  -1.095   3.496  1.00  0.00    -0.252 OA
BRANCH  72  74
ATOM     74  C   UNL     1       0.391  -2.859   1.782  1.00  0.00     0.111 C 
ATOM     75  C   UNL     1      -1.110  -2.895   2.210  1.00  0.00     0.016 C 
ATOM     76  C   UNL     1       1.056  -4.207   2.126  1.00  0.00     0.093 C 
ATOM     77  C   UNL     1      -1.885  -4.144   1.789  1.00  0.00     0.001 C 
ATOM     78  C   UNL     1       0.221  -5.436   1.693  1.00  0.00     0.014 C 
ATOM     79  C   UNL     1      -1.185  -5.408   2.255  1.00  0.00     0.001 C 
BRANCH  76  80
ATOM     80  C   UNL     1       2.500  -4.510   1.707  1.00  0.00     0.228 C 
ATOM     81  O   UNL     1       3.371  -4.585   2.584  1.00  0.00    -0.274 OA
ATOM     82  N   UNL     1       2.792  -4.997   0.450  1.00  0.00    -0.325 N 
ATOM     83  H   UNL     1       3.425  -5.751   0.436  1.00  0.00     0.169 HD
BRANCH  82  84
ATOM     84  C   UNL     1       2.333  -4.593  -0.811  1.00  0.00     0.054 A 
ATOM     85  C   UNL     1       1.874  -5.606  -1.678  1.00  0.00     0.027 A 
ATOM     86  C   UNL     1       2.286  -3.277  -1.251  1.00  0.00     0.063 A 
ATOM     87  C   UNL     1       1.176  -5.299  -2.855  1.00  0.00     0.002 A 
ATOM     88  C   UNL     1       1.466  -2.985  -2.376  1.00  0.00     0.016 A 
ATOM     89  C   UNL     1       0.920  -3.979  -3.179  1.00  0.00     0.001 A 
BRANCH  86  90
ATOM     90  C   UNL     1       2.965  -2.080  -0.654  1.00  0.00     0.256 C 
ATOM     91  O   UNL     1       2.113  -1.208  -0.477  1.00  0.00    -0.269 OA
ATOM     92  N   UNL     1       4.494  -1.794  -0.663  1.00  0.00    -0.334 N 
ATOM     93  C   UNL     1       5.948  -0.984  -1.971  1.00  0.00     0.148 C 
ATOM     94  C   UNL     1       5.103  -2.652   0.822  1.00  0.00     0.148 C 
ATOM     95  C   UNL     1       7.791  -1.465  -1.524  1.00  0.00     0.181 C 
ATOM     96  C   UNL     1       6.986  -2.881   1.017  1.00  0.00     0.181 C 
ATOM     97  O   UNL     1       8.079  -2.536  -0.238  1.00  0.00    -0.378 OA
ENDBRANCH  86  90
ENDBRANCH  82  84
ENDBRANCH  76  80
ENDBRANCH  72  74
ENDBRANCH  71  72
ENDBRANCH   1  71
TORSDOF 14
