REMARK SMILES Cc1c(C[NH2+]C[C@@H]2CCCO2)c(C(=O)OCCOC(=O)c2ccc(-c3c4nc(c(-c5c(F)c(F)c(F)c(F)c5F)c5ccc([nH]5)c(-c5c(F)c(F)c(F)c(F)c5F)c5nc(c(-c6c(F)c(F)c(F)c(F)c6F)c6ccc3[nH]6)C=C5)C=C4)cc2)c(C)n1Cc1ccc(F)cc1
REMARK SMILES IDX 16 1 15 2 13 3 14 4 12 5 1 6 2 7 3 8 86 9 84 10 85 11 4 12
REMARK SMILES IDX 5 13 6 16 7 17 8 18 11 19 9 20 10 21 87 22 88 23 89 24 94 25
REMARK SMILES IDX 90 26 93 27 91 28 92 29 17 30 18 31 19 32 20 33 21 34 22 35
REMARK SMILES IDX 83 36 23 37 82 38 24 39 25 40 26 41 76 42 27 43 81 44 75 45
REMARK SMILES IDX 77 46 28 47 80 48 74 49 73 50 29 52 61 53 41 54 60 55 42 56
REMARK SMILES IDX 45 57 59 58 78 59 43 60 44 61 58 63 79 64 46 65 30 66 31 67
REMARK SMILES IDX 39 68 32 69 33 70 37 71 40 72 34 73 35 74 38 75 36 76 62 77
REMARK SMILES IDX 63 78 71 79 64 80 65 81 69 82 72 83 66 84 67 85 70 86 68 87
REMARK SMILES IDX 47 88 48 89 56 90 49 91 50 92 54 93 57 94 51 95 52 96 55 97
REMARK SMILES IDX 53 98
REMARK H PARENT 5 14 5 15 77 51 45 62
REMARK Flexibility Score: inf
ROOT
ATOM      1  C   UNL     1      -0.322   0.317  -7.060  1.00  0.00     0.275 C 
ENDROOT
BRANCH   1   2
ATOM      2  O   UNL     1      -0.040   0.858  -5.763  1.00  0.00    -0.458 OA
BRANCH   2   3
ATOM      3  C   UNL     1      -1.000   0.744  -4.824  1.00  0.00     0.340 C 
ATOM      4  O   UNL     1      -2.183   0.394  -5.060  1.00  0.00    -0.246 OA
BRANCH   3   5
ATOM      5  C   UNL     1      -0.467   0.981  -3.502  1.00  0.00     0.089 A 
ATOM      6  C   UNL     1       0.995   0.013  -0.210  1.00  0.00     0.065 C 
ATOM      7  C   UNL     1       0.475   0.612  -1.474  1.00  0.00     0.025 A 
ATOM      8  C   UNL     1      -0.138  -0.026  -2.546  1.00  0.00     0.042 A 
ATOM      9  N   UNL     1       0.568   1.970  -1.776  1.00  0.00    -0.343 N 
ATOM     10  C   UNL     1      -0.170   2.214  -2.927  1.00  0.00     0.030 A 
ATOM     11  C   UNL     1      -0.557   3.559  -3.436  1.00  0.00     0.065 C 
BRANCH   8  12
ATOM     12  C   UNL     1      -0.389  -1.494  -2.735  1.00  0.00     0.300 C 
BRANCH  12  13
ATOM     13  N   UNL     1      -1.806  -1.694  -2.986  1.00  0.00    -0.340 N 
ATOM     14  H   UNL     1      -2.087  -1.054  -3.729  1.00  0.00     0.346 HD
ATOM     15  H   UNL     1      -2.274  -1.523  -2.096  1.00  0.00     0.346 HD
BRANCH  13  16
ATOM     16  C   UNL     1      -2.191  -3.043  -3.387  1.00  0.00     0.293 C 
BRANCH  16  17
ATOM     17  C   UNL     1      -1.960  -4.136  -2.333  1.00  0.00     0.173 C 
ATOM     18  C   UNL     1      -0.573  -4.758  -2.363  1.00  0.00     0.040 C 
ATOM     19  O   UNL     1      -2.865  -5.239  -2.544  1.00  0.00    -0.372 OA
ATOM     20  C   UNL     1      -0.821  -6.074  -1.673  1.00  0.00     0.031 C 
ATOM     21  C   UNL     1      -2.189  -6.455  -2.197  1.00  0.00     0.161 C 
ENDBRANCH  16  17
ENDBRANCH  13  16
ENDBRANCH  12  13
ENDBRANCH   8  12
BRANCH   9  22
ATOM     22  C   UNL     1       1.183   2.983  -0.901  1.00  0.00     0.157 C 
BRANCH  22  23
ATOM     23  C   UNL     1       2.511   3.564  -1.367  1.00  0.00    -0.028 A 
ATOM     24  C   UNL     1       3.647   3.482  -0.538  1.00  0.00     0.008 A 
ATOM     25  C   UNL     1       2.627   4.315  -2.547  1.00  0.00     0.008 A 
ATOM     26  C   UNL     1       4.840   4.133  -0.880  1.00  0.00     0.039 A 
ATOM     27  C   UNL     1       3.817   4.962  -2.894  1.00  0.00     0.039 A 
ATOM     28  C   UNL     1       4.913   4.870  -2.054  1.00  0.00     0.123 A 
ATOM     29  F   UNL     1       6.044   5.512  -2.371  1.00  0.00    -0.207 F 
ENDBRANCH  22  23
ENDBRANCH   9  22
ENDBRANCH   3   5
ENDBRANCH   2   3
ENDBRANCH   1   2
BRANCH   1  30
ATOM     30  C   UNL     1       0.752  -0.761  -7.455  1.00  0.00     0.275 C 
BRANCH  30  31
ATOM     31  O   UNL     1       0.703  -2.220  -7.006  1.00  0.00    -0.458 OA
BRANCH  31  32
ATOM     32  C   UNL     1       1.573  -2.732  -6.026  1.00  0.00     0.338 C 
ATOM     33  O   UNL     1       2.147  -1.984  -5.246  1.00  0.00    -0.246 OA
BRANCH  32  34
ATOM     34  C   UNL     1       1.905  -4.318  -5.971  1.00  0.00     0.060 A 
ATOM     35  C   UNL     1       2.283  -5.179  -4.872  1.00  0.00     0.016 A 
ATOM     36  C   UNL     1       2.006  -5.053  -7.100  1.00  0.00     0.016 A 
ATOM     37  C   UNL     1       2.717  -6.765  -4.880  1.00  0.00     0.010 A 
ATOM     38  C   UNL     1       2.400  -6.510  -7.045  1.00  0.00     0.010 A 
ATOM     39  C   UNL     1       2.849  -7.604  -6.022  1.00  0.00    -0.014 A 
BRANCH  39  40
ATOM     40  C   UNL     1       2.881  -9.516  -6.240  1.00  0.00     0.031 A 
ATOM     41  C   UNL     1       1.413  -9.936  -6.281  1.00  0.00     0.074 A 
ATOM     42  C   UNL     1       3.539 -10.815  -6.885  1.00  0.00     0.049 A 
ATOM     43  N   UNL     1       0.921 -10.170  -7.477  1.00  0.00    -0.248 NA
ATOM     44  C   UNL     1       0.527  -8.989  -5.619  1.00  0.00     0.031 C 
ATOM     45  C   UNL     1       4.916 -11.108  -7.442  1.00  0.00     0.029 A 
ATOM     46  N   UNL     1       2.983 -12.277  -7.338  1.00  0.00    -0.354 N 
ATOM     47  C   UNL     1       0.989  -8.831  -7.921  1.00  0.00     0.074 A 
ATOM     48  C   UNL     1       0.314  -8.245  -6.723  1.00  0.00     0.031 C 
ATOM     49  C   UNL     1       5.065 -12.297  -8.126  1.00  0.00     0.029 A 
ATOM     50  C   UNL     1       3.851 -13.175  -8.221  1.00  0.00     0.049 A 
ATOM     51  H   UNL     1       2.093 -12.581  -7.046  1.00  0.00     0.167 HD
ATOM     52  C   UNL     1       2.124  -8.636  -8.756  1.00  0.00     0.037 A 
ATOM     53  C   UNL     1       3.911 -14.430  -9.051  1.00  0.00     0.037 A 
ATOM     54  C   UNL     1       1.753  -9.357  -9.884  1.00  0.00     0.049 A 
ATOM     55  C   UNL     1       3.454 -13.670 -10.247  1.00  0.00     0.074 A 
ATOM     56  C   UNL     1       0.572  -9.782 -10.439  1.00  0.00     0.029 A 
ATOM     57  N   UNL     1       2.693 -10.214 -10.262  1.00  0.00    -0.354 N 
ATOM     58  N   UNL     1       4.250 -13.261 -11.191  1.00  0.00    -0.248 NA
ATOM     59  C   UNL     1       1.997 -13.701 -10.556  1.00  0.00     0.031 C 
ATOM     60  C   UNL     1       0.976 -10.800 -11.306  1.00  0.00     0.029 A 
ATOM     61  C   UNL     1       2.367 -10.675 -11.484  1.00  0.00     0.049 A 
ATOM     62  H   UNL     1       3.488 -10.468  -9.740  1.00  0.00     0.167 HD
ATOM     63  C   UNL     1       3.358 -12.656 -12.054  1.00  0.00     0.074 A 
ATOM     64  C   UNL     1       2.059 -13.277 -11.821  1.00  0.00     0.031 C 
ATOM     65  C   UNL     1       3.489 -11.310 -12.108  1.00  0.00     0.037 A 
BRANCH  52  66
ATOM     66  C   UNL     1       3.697  -7.873  -8.851  1.00  0.00     0.064 A 
ATOM     67  C   UNL     1       4.794  -7.812  -7.892  1.00  0.00     0.173 A 
ATOM     68  C   UNL     1       3.969  -7.041  -9.954  1.00  0.00     0.173 A 
ATOM     69  F   UNL     1       4.930  -8.608  -6.832  1.00  0.00    -0.203 F 
ATOM     70  C   UNL     1       5.813  -6.848  -7.878  1.00  0.00     0.198 A 
ATOM     71  C   UNL     1       5.063  -6.129  -9.984  1.00  0.00     0.198 A 
ATOM     72  F   UNL     1       3.159  -7.056 -11.017  1.00  0.00    -0.203 F 
ATOM     73  F   UNL     1       6.630  -6.758  -6.814  1.00  0.00    -0.200 F 
ATOM     74  C   UNL     1       5.930  -5.978  -8.916  1.00  0.00     0.200 A 
ATOM     75  F   UNL     1       5.252  -5.359 -11.063  1.00  0.00    -0.200 F 
ATOM     76  F   UNL     1       6.869  -5.022  -8.891  1.00  0.00    -0.200 F 
ENDBRANCH  52  66
BRANCH  53  77
ATOM     77  C   UNL     1       3.657 -15.996  -9.904  1.00  0.00     0.064 A 
ATOM     78  C   UNL     1       4.265 -17.233  -9.579  1.00  0.00     0.173 A 
ATOM     79  C   UNL     1       3.064 -16.217 -11.249  1.00  0.00     0.173 A 
ATOM     80  F   UNL     1       5.173 -17.289  -8.597  1.00  0.00    -0.203 F 
ATOM     81  C   UNL     1       4.085 -18.478 -10.348  1.00  0.00     0.198 A 
ATOM     82  C   UNL     1       2.727 -17.426 -11.909  1.00  0.00     0.198 A 
ATOM     83  F   UNL     1       3.109 -15.287 -12.203  1.00  0.00    -0.203 F 
ATOM     84  F   UNL     1       4.798 -19.572 -10.035  1.00  0.00    -0.200 F 
ATOM     85  C   UNL     1       3.252 -18.584 -11.454  1.00  0.00     0.200 A 
ATOM     86  F   UNL     1       2.080 -17.392 -13.091  1.00  0.00    -0.200 F 
ATOM     87  F   UNL     1       3.091 -19.721 -12.152  1.00  0.00    -0.200 F 
ENDBRANCH  53  77
BRANCH  65  88
ATOM     88  C   UNL     1       4.960 -10.876 -12.038  1.00  0.00     0.064 A 
ATOM     89  C   UNL     1       5.797 -11.273 -13.085  1.00  0.00     0.173 A 
ATOM     90  C   UNL     1       5.627 -10.315 -10.928  1.00  0.00     0.173 A 
ATOM     91  F   UNL     1       5.264 -11.820 -14.186  1.00  0.00    -0.203 F 
ATOM     92  C   UNL     1       7.189 -11.163 -12.999  1.00  0.00     0.198 A 
ATOM     93  C   UNL     1       7.011 -10.194 -10.837  1.00  0.00     0.198 A 
ATOM     94  F   UNL     1       4.976  -9.915  -9.841  1.00  0.00    -0.203 F 
ATOM     95  F   UNL     1       7.948 -11.593 -14.014  1.00  0.00    -0.200 F 
ATOM     96  C   UNL     1       7.797 -10.636 -11.870  1.00  0.00     0.200 A 
ATOM     97  F   UNL     1       7.560  -9.678  -9.725  1.00  0.00    -0.200 F 
ATOM     98  F   UNL     1       9.131 -10.562 -11.776  1.00  0.00    -0.200 F 
ENDBRANCH  65  88
ENDBRANCH  39  40
ENDBRANCH  32  34
ENDBRANCH  31  32
ENDBRANCH  30  31
ENDBRANCH   1  30
TORSDOF 17
