REMARK SMILES C=CCN(CC(=O)OCCOC(=O)c1ccc(-c2c3nc(c(-c4c(F)c(F)c(F)c(F)c4F)c4ccc([nH]4)c(-c4c(F)c(F)c(F)c(F)c4F)c4nc(c(-c5c(F)c(F)c(F)c(F)c5F)c5ccc2[nH]5)C=C4)C=C3)cc1)C(=O)NCC(C)C
REMARK SMILES IDX 9 1 8 2 6 3 7 4 5 5 4 6 3 7 2 8 1 9 77 10 78 11 79 12 80 14
REMARK SMILES IDX 81 15 82 16 83 17 10 18 11 19 12 20 13 21 14 22 15 23 76 24
REMARK SMILES IDX 16 25 75 26 17 27 18 28 19 29 69 30 20 31 74 32 68 33 70 34
REMARK SMILES IDX 21 35 73 36 67 37 66 38 22 40 54 41 34 42 53 43 35 44 38 45
REMARK SMILES IDX 52 46 71 47 36 48 37 49 51 51 72 52 39 53 23 54 24 55 32 56
REMARK SMILES IDX 25 57 26 58 30 59 33 60 27 61 28 62 31 63 29 64 55 65 56 66
REMARK SMILES IDX 64 67 57 68 58 69 62 70 65 71 59 72 60 73 63 74 61 75 40 76
REMARK SMILES IDX 41 77 49 78 42 79 43 80 47 81 50 82 44 83 45 84 48 85 46 86
REMARK H PARENT 79 13 70 39 38 50
REMARK Flexibility Score: inf
ROOT
ATOM      1  C   UNL     1      -5.888   0.449  -2.445  1.00  0.00     0.274 C 
ENDROOT
BRANCH   1   2
ATOM      2  O   UNL     1      -4.531   0.715  -2.000  1.00  0.00    -0.461 OA
BRANCH   2   3
ATOM      3  C   UNL     1      -3.545   0.397  -2.885  1.00  0.00     0.325 C 
ATOM      4  O   UNL     1      -3.747  -0.228  -3.927  1.00  0.00    -0.250 OA
BRANCH   3   5
ATOM      5  C   UNL     1      -2.185   1.073  -2.612  1.00  0.00     0.244 C 
BRANCH   5   6
ATOM      6  N   UNL     1      -1.777   1.359  -1.240  1.00  0.00    -0.310 N 
BRANCH   6   7
ATOM      7  C   UNL     1      -1.385   0.163  -0.487  1.00  0.00     0.149 C 
BRANCH   7   8
ATOM      8  C   UNL     1       0.059  -0.158  -0.787  1.00  0.00    -0.013 C 
ATOM      9  C   UNL     1       1.058  -0.058   0.101  1.00  0.00     0.006 C 
ENDBRANCH   7   8
ENDBRANCH   6   7
BRANCH   6  10
ATOM     10  C   UNL     1      -1.597   2.549  -0.605  1.00  0.00     0.318 C 
ATOM     11  O   UNL     1      -1.185   2.584   0.565  1.00  0.00    -0.249 OA
ATOM     12  N   UNL     1      -1.784   3.775  -1.103  1.00  0.00    -0.338 N 
ATOM     13  H   UNL     1      -1.457   4.425  -0.440  1.00  0.00     0.165 HD
BRANCH  12  14
ATOM     14  C   UNL     1      -2.289   4.522  -2.260  1.00  0.00     0.120 C 
BRANCH  14  15
ATOM     15  C   UNL     1      -3.418   5.495  -1.803  1.00  0.00     0.002 C 
ATOM     16  C   UNL     1      -2.818   6.866  -1.472  1.00  0.00     0.009 C 
ATOM     17  C   UNL     1      -4.560   5.752  -2.791  1.00  0.00     0.009 C 
ENDBRANCH  14  15
ENDBRANCH  12  14
ENDBRANCH   6  10
ENDBRANCH   5   6
ENDBRANCH   3   5
ENDBRANCH   2   3
ENDBRANCH   1   2
BRANCH   1  18
ATOM     18  C   UNL     1      -6.552   1.609  -3.230  1.00  0.00     0.275 C 
BRANCH  18  19
ATOM     19  O   UNL     1      -5.966   1.878  -4.532  1.00  0.00    -0.458 OA
BRANCH  19  20
ATOM     20  C   UNL     1      -4.847   2.608  -4.404  1.00  0.00     0.338 C 
ATOM     21  O   UNL     1      -4.368   2.919  -3.321  1.00  0.00    -0.246 OA
BRANCH  20  22
ATOM     22  C   UNL     1      -4.150   3.096  -5.593  1.00  0.00     0.060 A 
ATOM     23  C   UNL     1      -2.956   2.474  -5.985  1.00  0.00     0.016 A 
ATOM     24  C   UNL     1      -4.419   4.407  -5.989  1.00  0.00     0.016 A 
ATOM     25  C   UNL     1      -2.029   3.166  -6.772  1.00  0.00     0.010 A 
ATOM     26  C   UNL     1      -3.492   5.101  -6.767  1.00  0.00     0.010 A 
ATOM     27  C   UNL     1      -2.294   4.485  -7.173  1.00  0.00    -0.014 A 
BRANCH  27  28
ATOM     28  C   UNL     1      -1.521   5.129  -8.261  1.00  0.00     0.031 A 
ATOM     29  C   UNL     1      -0.485   6.188  -8.038  1.00  0.00     0.074 A 
ATOM     30  C   UNL     1      -1.947   4.838  -9.503  1.00  0.00     0.049 A 
ATOM     31  N   UNL     1       0.117   6.939  -8.928  1.00  0.00    -0.248 NA
ATOM     32  C   UNL     1      -0.067   6.446  -6.654  1.00  0.00     0.031 C 
ATOM     33  C   UNL     1      -2.987   3.851  -9.812  1.00  0.00     0.029 A 
ATOM     34  N   UNL     1      -1.635   5.390 -10.715  1.00  0.00    -0.354 N 
ATOM     35  C   UNL     1       0.987   7.757  -8.220  1.00  0.00     0.074 A 
ATOM     36  C   UNL     1       0.822   7.423  -6.819  1.00  0.00     0.031 C 
ATOM     37  C   UNL     1      -3.293   3.933 -11.110  1.00  0.00     0.029 A 
ATOM     38  C   UNL     1      -2.475   4.975 -11.717  1.00  0.00     0.049 A 
ATOM     39  H   UNL     1      -0.889   6.017 -10.854  1.00  0.00     0.167 HD
ATOM     40  C   UNL     1       1.841   8.691  -8.711  1.00  0.00     0.037 A 
ATOM     41  C   UNL     1      -2.610   5.408 -12.981  1.00  0.00     0.037 A 
ATOM     42  C   UNL     1       1.986   9.002 -10.115  1.00  0.00     0.049 A 
ATOM     43  C   UNL     1      -1.672   6.448 -13.495  1.00  0.00     0.074 A 
ATOM     44  C   UNL     1       2.911   9.834 -10.726  1.00  0.00     0.029 A 
ATOM     45  N   UNL     1       1.166   8.517 -11.124  1.00  0.00    -0.354 N 
ATOM     46  N   UNL     1      -0.768   7.130 -12.838  1.00  0.00    -0.248 NA
ATOM     47  C   UNL     1      -1.744   6.751 -14.927  1.00  0.00     0.031 C 
ATOM     48  C   UNL     1       2.616   9.894 -12.094  1.00  0.00     0.029 A 
ATOM     49  C   UNL     1       1.539   9.061 -12.345  1.00  0.00     0.049 A 
ATOM     50  H   UNL     1       0.428   7.879 -10.993  1.00  0.00     0.167 HD
ATOM     51  C   UNL     1      -0.133   7.920 -13.781  1.00  0.00     0.074 A 
ATOM     52  C   UNL     1      -0.765   7.637 -15.056  1.00  0.00     0.031 C 
ATOM     53  C   UNL     1       0.894   8.785 -13.604  1.00  0.00     0.037 A 
BRANCH  40  54
ATOM     54  C   UNL     1       2.703   9.459  -7.746  1.00  0.00     0.064 A 
ATOM     55  C   UNL     1       3.802   8.865  -7.107  1.00  0.00     0.173 A 
ATOM     56  C   UNL     1       2.505  10.837  -7.558  1.00  0.00     0.173 A 
ATOM     57  F   UNL     1       4.043   7.555  -7.259  1.00  0.00    -0.203 F 
ATOM     58  C   UNL     1       4.662   9.618  -6.309  1.00  0.00     0.198 A 
ATOM     59  C   UNL     1       3.379  11.591  -6.777  1.00  0.00     0.198 A 
ATOM     60  F   UNL     1       1.481  11.460  -8.159  1.00  0.00    -0.203 F 
ATOM     61  F   UNL     1       5.698   9.026  -5.698  1.00  0.00    -0.200 F 
ATOM     62  C   UNL     1       4.455  10.981  -6.152  1.00  0.00     0.200 A 
ATOM     63  F   UNL     1       3.188  12.911  -6.641  1.00  0.00    -0.200 F 
ATOM     64  F   UNL     1       5.296  11.707  -5.402  1.00  0.00    -0.200 F 
ENDBRANCH  40  54
BRANCH  41  65
ATOM     65  C   UNL     1      -3.666   4.798 -13.818  1.00  0.00     0.064 A 
ATOM     66  C   UNL     1      -3.355   3.778 -14.723  1.00  0.00     0.173 A 
ATOM     67  C   UNL     1      -5.017   5.120 -13.618  1.00  0.00     0.173 A 
ATOM     68  F   UNL     1      -2.075   3.439 -14.934  1.00  0.00    -0.203 F 
ATOM     69  C   UNL     1      -4.361   3.093 -15.398  1.00  0.00     0.198 A 
ATOM     70  C   UNL     1      -6.022   4.423 -14.281  1.00  0.00     0.198 A 
ATOM     71  F   UNL     1      -5.358   6.072 -12.736  1.00  0.00    -0.203 F 
ATOM     72  F   UNL     1      -4.041   2.115 -16.255  1.00  0.00    -0.200 F 
ATOM     73  C   UNL     1      -5.693   3.408 -15.169  1.00  0.00     0.200 A 
ATOM     74  F   UNL     1      -7.308   4.711 -14.038  1.00  0.00    -0.200 F 
ATOM     75  F   UNL     1      -6.661   2.725 -15.794  1.00  0.00    -0.200 F 
ENDBRANCH  41  65
BRANCH  53  76
ATOM     76  C   UNL     1       1.414   9.470 -14.830  1.00  0.00     0.064 A 
ATOM     77  C   UNL     1       0.710  10.519 -15.437  1.00  0.00     0.173 A 
ATOM     78  C   UNL     1       2.636   9.078 -15.397  1.00  0.00     0.173 A 
ATOM     79  F   UNL     1      -0.474  10.912 -14.943  1.00  0.00    -0.203 F 
ATOM     80  C   UNL     1       1.201  11.139 -16.583  1.00  0.00     0.198 A 
ATOM     81  C   UNL     1       3.135   9.715 -16.529  1.00  0.00     0.198 A 
ATOM     82  F   UNL     1       3.344   8.078 -14.852  1.00  0.00    -0.203 F 
ATOM     83  F   UNL     1       0.491  12.110 -17.174  1.00  0.00    -0.200 F 
ATOM     84  C   UNL     1       2.415  10.740 -17.125  1.00  0.00     0.200 A 
ATOM     85  F   UNL     1       4.309   9.332 -17.049  1.00  0.00    -0.200 F 
ATOM     86  F   UNL     1       2.885  11.337 -18.228  1.00  0.00    -0.200 F 
ENDBRANCH  53  76
ENDBRANCH  27  28
ENDBRANCH  20  22
ENDBRANCH  19  20
ENDBRANCH  18  19
ENDBRANCH   1  18
TORSDOF 17
