REMARK SMILES O=C(OCCOC(=O)[C@H]1CC2(CC[NH+](C(=O)c3cccc(O)c3)CC2)CN1C(=O)C1CC1)c1ccc(-c2c3nc(c(-c4c(F)c(F)c(F)c(F)c4F)c4ccc([nH]4)c(-c4c(F)c(F)c(F)c(F)c4F)c4nc(c(-c5c(F)c(F)c(F)c(F)c5F)c5ccc2[nH]5)C=C4)C=C3)cc1
REMARK SMILES IDX 5 1 4 2 3 3 2 4 1 5 33 6 34 7 95 8 35 9 94 10 36 11 37 12
REMARK SMILES IDX 38 13 88 14 39 15 93 16 87 17 89 18 40 19 92 20 86 21 85 22
REMARK SMILES IDX 41 24 73 25 53 26 72 27 54 28 57 29 71 30 90 31 55 32 56 33
REMARK SMILES IDX 70 35 91 36 58 37 42 38 43 39 51 40 44 41 45 42 49 43 52 44
REMARK SMILES IDX 46 45 47 46 50 47 48 48 74 49 75 50 83 51 76 52 77 53 81 54
REMARK SMILES IDX 84 55 78 56 79 57 82 58 80 59 59 60 60 61 68 62 61 63 62 64
REMARK SMILES IDX 66 65 69 66 63 67 64 68 67 69 65 70 6 71 7 72 8 73 9 74
REMARK SMILES IDX 10 75 27 76 11 77 26 78 12 79 25 80 13 81 24 82 14 83 28 85
REMARK SMILES IDX 29 86 30 87 31 88 32 89 15 90 16 91 17 92 18 93 23 94 19 95
REMARK SMILES IDX 21 96 20 97 22 98
REMARK H PARENT 89 23 57 34 14 84 22 99
REMARK Flexibility Score: inf
ROOT
ATOM      1  C   UNL     1      -0.289   1.814  -4.244  1.00  0.00     0.274 C 
ENDROOT
BRANCH   1   2
ATOM      2  C   UNL     1      -1.262   0.632  -3.994  1.00  0.00     0.275 C 
BRANCH   2   3
ATOM      3  O   UNL     1      -1.184  -0.091  -2.766  1.00  0.00    -0.458 OA
BRANCH   3   4
ATOM      4  C   UNL     1      -0.916   0.603  -1.655  1.00  0.00     0.338 C 
ATOM      5  O   UNL     1      -1.397   1.694  -1.358  1.00  0.00    -0.246 OA
BRANCH   4   6
ATOM      6  C   UNL     1       0.289  -0.013  -1.042  1.00  0.00     0.060 A 
ATOM      7  C   UNL     1       0.862  -1.175  -1.568  1.00  0.00     0.016 A 
ATOM      8  C   UNL     1       0.984   0.697  -0.068  1.00  0.00     0.016 A 
ATOM      9  C   UNL     1       2.103  -1.607  -1.114  1.00  0.00     0.010 A 
ATOM     10  C   UNL     1       2.250   0.319   0.343  1.00  0.00     0.010 A 
ATOM     11  C   UNL     1       2.793  -0.859  -0.154  1.00  0.00    -0.014 A 
BRANCH  11  12
ATOM     12  C   UNL     1       4.058  -1.347   0.401  1.00  0.00     0.031 A 
ATOM     13  C   UNL     1       4.058  -1.902   1.790  1.00  0.00     0.074 A 
ATOM     14  C   UNL     1       5.177  -1.251  -0.334  1.00  0.00     0.049 A 
ATOM     15  N   UNL     1       4.981  -2.596   2.396  1.00  0.00    -0.248 NA
ATOM     16  C   UNL     1       2.872  -1.625   2.620  1.00  0.00     0.031 C 
ATOM     17  C   UNL     1       5.285  -0.582  -1.633  1.00  0.00     0.029 A 
ATOM     18  N   UNL     1       6.437  -1.718  -0.090  1.00  0.00    -0.354 N 
ATOM     19  C   UNL     1       4.469  -2.867   3.656  1.00  0.00     0.074 A 
ATOM     20  C   UNL     1       3.208  -2.177   3.773  1.00  0.00     0.031 C 
ATOM     21  C   UNL     1       6.545  -0.701  -2.082  1.00  0.00     0.029 A 
ATOM     22  C   UNL     1       7.313  -1.485  -1.119  1.00  0.00     0.049 A 
ATOM     23  H   UNL     1       6.692  -2.177   0.743  1.00  0.00     0.167 HD
ATOM     24  C   UNL     1       4.991  -3.671   4.608  1.00  0.00     0.037 A 
ATOM     25  C   UNL     1       8.578  -1.917  -1.273  1.00  0.00     0.037 A 
ATOM     26  C   UNL     1       6.264  -4.317   4.459  1.00  0.00     0.049 A 
ATOM     27  C   UNL     1       9.128  -2.856  -0.232  1.00  0.00     0.074 A 
ATOM     28  C   UNL     1       6.896  -5.207   5.303  1.00  0.00     0.029 A 
ATOM     29  N   UNL     1       7.112  -4.110   3.376  1.00  0.00    -0.354 N 
ATOM     30  N   UNL     1       8.568  -3.279   0.879  1.00  0.00    -0.248 NA
ATOM     31  C   UNL     1      10.459  -3.417  -0.486  1.00  0.00     0.031 C 
ATOM     32  C   UNL     1       8.146  -5.509   4.748  1.00  0.00     0.029 A 
ATOM     33  C   UNL     1       8.272  -4.842   3.537  1.00  0.00     0.049 A 
ATOM     34  H   UNL     1       6.913  -3.528   2.607  1.00  0.00     0.167 HD
ATOM     35  C   UNL     1       9.463  -4.176   1.443  1.00  0.00     0.074 A 
ATOM     36  C   UNL     1      10.595  -4.249   0.538  1.00  0.00     0.031 C 
ATOM     37  C   UNL     1       9.367  -4.879   2.600  1.00  0.00     0.037 A 
BRANCH  24  38
ATOM     38  C   UNL     1       4.170  -3.898   5.843  1.00  0.00     0.064 A 
ATOM     39  C   UNL     1       2.948  -4.592   5.787  1.00  0.00     0.173 A 
ATOM     40  C   UNL     1       4.587  -3.412   7.089  1.00  0.00     0.173 A 
ATOM     41  F   UNL     1       2.491  -5.063   4.616  1.00  0.00    -0.203 F 
ATOM     42  C   UNL     1       2.160  -4.756   6.923  1.00  0.00     0.198 A 
ATOM     43  C   UNL     1       3.810  -3.604   8.230  1.00  0.00     0.198 A 
ATOM     44  F   UNL     1       5.742  -2.739   7.201  1.00  0.00    -0.203 F 
ATOM     45  F   UNL     1       0.971  -5.368   6.829  1.00  0.00    -0.200 F 
ATOM     46  C   UNL     1       2.594  -4.267   8.144  1.00  0.00     0.200 A 
ATOM     47  F   UNL     1       4.232  -3.137   9.413  1.00  0.00    -0.200 F 
ATOM     48  F   UNL     1       1.835  -4.424   9.238  1.00  0.00    -0.200 F 
ENDBRANCH  24  38
BRANCH  25  49
ATOM     49  C   UNL     1       9.332  -1.570  -2.504  1.00  0.00     0.064 A 
ATOM     50  C   UNL     1       9.572  -2.531  -3.496  1.00  0.00     0.173 A 
ATOM     51  C   UNL     1       9.792  -0.266  -2.737  1.00  0.00     0.173 A 
ATOM     52  F   UNL     1       9.152  -3.793  -3.320  1.00  0.00    -0.203 F 
ATOM     53  C   UNL     1      10.263  -2.208  -4.662  1.00  0.00     0.198 A 
ATOM     54  C   UNL     1      10.466   0.061  -3.913  1.00  0.00     0.198 A 
ATOM     55  F   UNL     1       9.567   0.695  -1.829  1.00  0.00    -0.203 F 
ATOM     56  F   UNL     1      10.505  -3.156  -5.579  1.00  0.00    -0.200 F 
ATOM     57  C   UNL     1      10.706  -0.911  -4.872  1.00  0.00     0.200 A 
ATOM     58  F   UNL     1      10.880   1.318  -4.120  1.00  0.00    -0.200 F 
ATOM     59  F   UNL     1      11.364  -0.601  -5.997  1.00  0.00    -0.200 F 
ENDBRANCH  25  49
BRANCH  37  60
ATOM     60  C   UNL     1      10.510  -5.787   2.934  1.00  0.00     0.064 A 
ATOM     61  C   UNL     1      11.741  -5.279   3.370  1.00  0.00     0.173 A 
ATOM     62  C   UNL     1      10.349  -7.179   2.872  1.00  0.00     0.173 A 
ATOM     63  F   UNL     1      11.940  -3.953   3.433  1.00  0.00    -0.203 F 
ATOM     64  C   UNL     1      12.782  -6.134   3.711  1.00  0.00     0.198 A 
ATOM     65  C   UNL     1      11.383  -8.031   3.242  1.00  0.00     0.198 A 
ATOM     66  F   UNL     1       9.184  -7.709   2.470  1.00  0.00    -0.203 F 
ATOM     67  F   UNL     1      13.966  -5.629   4.085  1.00  0.00    -0.200 F 
ATOM     68  C   UNL     1      12.600  -7.509   3.655  1.00  0.00     0.200 A 
ATOM     69  F   UNL     1      11.202  -9.358   3.202  1.00  0.00    -0.200 F 
ATOM     70  F   UNL     1      13.602  -8.331   3.994  1.00  0.00    -0.200 F 
ENDBRANCH  37  60
ENDBRANCH  11  12
ENDBRANCH   4   6
ENDBRANCH   3   4
ENDBRANCH   2   3
ENDBRANCH   1   2
BRANCH   1  71
ATOM     71  O   UNL     1       0.698   2.067  -3.224  1.00  0.00    -0.461 OA
BRANCH  71  72
ATOM     72  C   UNL     1       0.701   3.304  -2.605  1.00  0.00     0.328 C 
ATOM     73  O   UNL     1      -0.047   4.230  -2.881  1.00  0.00    -0.250 OA
BRANCH  72  74
ATOM     74  C   UNL     1       1.937   3.394  -1.681  1.00  0.00     0.195 C 
ATOM     75  C   UNL     1       3.058   3.980  -2.571  1.00  0.00     0.046 C 
ATOM     76  N   UNL     1       2.060   4.158  -0.418  1.00  0.00    -0.328 N 
ATOM     77  C   UNL     1       4.122   4.569  -1.625  1.00  0.00     0.001 C 
ATOM     78  C   UNL     1       3.467   4.500  -0.247  1.00  0.00     0.128 C 
ATOM     79  C   UNL     1       4.432   6.036  -1.980  1.00  0.00     0.071 C 
ATOM     80  C   UNL     1       5.444   3.758  -1.633  1.00  0.00     0.071 C 
ATOM     81  C   UNL     1       5.184   6.135  -3.299  1.00  0.00     0.271 C 
ATOM     82  C   UNL     1       6.292   3.966  -2.891  1.00  0.00     0.271 C 
ATOM     83  N   UNL     1       6.433   5.381  -3.217  1.00  0.00    -0.267 N 
ATOM     84  H   UNL     1       5.849   5.847  -2.576  1.00  0.00     0.357 HD
BRANCH  76  85
ATOM     85  C   UNL     1       1.436   3.905   0.819  1.00  0.00     0.226 C 
ATOM     86  O   UNL     1       2.130   3.732   1.824  1.00  0.00    -0.275 OA
BRANCH  85  87
ATOM     87  C   UNL     1      -0.041   4.082   1.047  1.00  0.00     0.079 C 
ATOM     88  C   UNL     1      -1.201   3.118   1.218  1.00  0.00     0.014 C 
ATOM     89  C   UNL     1      -0.452   3.495   2.430  1.00  0.00     0.014 C 
ENDBRANCH  85  87
ENDBRANCH  76  85
BRANCH  83  90
ATOM     90  C   UNL     1       7.681   5.871  -3.600  1.00  0.00     0.344 C 
ATOM     91  O   UNL     1       8.675   5.169  -3.754  1.00  0.00    -0.226 OA
BRANCH  90  92
ATOM     92  C   UNL     1       7.810   7.324  -3.845  1.00  0.00     0.083 A 
ATOM     93  C   UNL     1       7.568   8.238  -2.811  1.00  0.00     0.018 A 
ATOM     94  C   UNL     1       8.134   7.766  -5.127  1.00  0.00     0.064 A 
ATOM     95  C   UNL     1       7.588   9.606  -3.083  1.00  0.00     0.005 A 
ATOM     96  C   UNL     1       8.156   9.132  -5.380  1.00  0.00     0.116 A 
ATOM     97  C   UNL     1       7.874  10.056  -4.374  1.00  0.00     0.046 A 
BRANCH  96  98
ATOM     98  O   UNL     1       8.444   9.537  -6.650  1.00  0.00    -0.508 OA
ATOM     99  H   UNL     1       8.467  10.451  -6.856  1.00  0.00     0.293 HD
ENDBRANCH  96  98
ENDBRANCH  90  92
ENDBRANCH  83  90
ENDBRANCH  72  74
ENDBRANCH  71  72
ENDBRANCH   1  71
TORSDOF 16
