REMARK SMILES Cc1ccc(Cl)c(Nc2ccccc2C(=O)N[C@@H](C)C(=O)OCCOC(=O)c2ccc(-c3c4nc(c(-c5c(F)c(F)c(F)c(F)c5F)c5ccc([nH]5)c(-c5c(F)c(F)c(F)c(F)c5F)c5nc(c(-c6c(F)c(F)c(F)c(F)c6F)c6ccc3[nH]6)C=C5)C=C4)cc2)c1Cl
REMARK SMILES IDX 23 1 22 2 20 3 21 4 18 5 19 6 17 7 15 8 16 9 14 11 9 12
REMARK SMILES IDX 10 13 11 14 13 15 12 16 8 17 7 19 1 20 2 21 3 22 91 23 4 24
REMARK SMILES IDX 92 25 5 26 6 27 24 28 25 29 26 30 27 31 28 32 29 33 90 34
REMARK SMILES IDX 30 35 89 36 31 37 32 38 33 39 83 40 34 41 88 42 82 43 84 44
REMARK SMILES IDX 35 45 87 46 81 47 80 48 36 50 68 51 48 52 67 53 49 54 52 55
REMARK SMILES IDX 66 56 85 57 50 58 51 59 65 61 86 62 53 63 37 64 38 65 46 66
REMARK SMILES IDX 39 67 40 68 44 69 47 70 41 71 42 72 45 73 43 74 69 75 70 76
REMARK SMILES IDX 78 77 71 78 72 79 76 80 79 81 73 82 74 83 77 84 75 85 54 86
REMARK SMILES IDX 55 87 63 88 56 89 57 90 61 91 64 92 58 93 59 94 62 95 60 96
REMARK H PARENT 17 10 8 18 84 49 52 60
REMARK Flexibility Score: inf
ROOT
ATOM      1  C   UNL     1      -1.131   3.013   0.154  1.00  0.00     0.274 C 
ENDROOT
BRANCH   1   2
ATOM      2  O   UNL     1      -1.307   1.637   0.683  1.00  0.00    -0.461 OA
BRANCH   2   3
ATOM      3  C   UNL     1      -0.742   1.158   1.854  1.00  0.00     0.328 C 
ATOM      4  O   UNL     1      -0.116   1.857   2.621  1.00  0.00    -0.250 OA
BRANCH   3   5
ATOM      5  C   UNL     1      -0.985  -0.433   2.080  1.00  0.00     0.189 C 
ATOM      6  C   UNL     1      -2.239  -0.653   2.923  1.00  0.00     0.043 C 
BRANCH   5   7
ATOM      7  N   UNL     1       0.202  -1.080   2.724  1.00  0.00    -0.339 N 
ATOM      8  C   UNL     1       0.978  -2.222   2.801  1.00  0.00     0.254 C 
ATOM      9  O   UNL     1       1.816  -2.083   3.713  1.00  0.00    -0.269 OA
ATOM     10  H   UNL     1       0.588  -0.423   3.348  1.00  0.00     0.164 HD
BRANCH   8  11
ATOM     11  C   UNL     1       1.061  -3.573   2.058  1.00  0.00     0.063 A 
ATOM     12  C   UNL     1       0.394  -4.098   0.925  1.00  0.00     0.051 A 
ATOM     13  C   UNL     1       0.707  -5.383   0.389  1.00  0.00     0.027 A 
ATOM     14  C   UNL     1       1.788  -6.111   0.845  1.00  0.00     0.002 A 
ATOM     15  C   UNL     1       2.130  -4.396   2.517  1.00  0.00     0.016 A 
ATOM     16  C   UNL     1       2.514  -5.606   1.905  1.00  0.00     0.001 A 
BRANCH  12  17
ATOM     17  N   UNL     1      -0.281  -3.326  -0.018  1.00  0.00    -0.352 N 
ATOM     18  H   UNL     1      -1.208  -3.571  -0.241  1.00  0.00     0.167 HD
BRANCH  17  19
ATOM     19  C   UNL     1       0.289  -2.214  -0.670  1.00  0.00     0.077 A 
ATOM     20  C   UNL     1       3.297   0.053   0.138  1.00  0.00     0.046 C 
ATOM     21  C   UNL     1       1.966  -0.474  -0.307  1.00  0.00    -0.030 A 
ATOM     22  C   UNL     1       0.943   0.412  -0.526  1.00  0.00     0.006 A 
ATOM     23  C   UNL     1       1.648  -1.808  -0.485  1.00  0.00     0.069 A 
ATOM     24  C   UNL     1      -0.308   0.006  -1.033  1.00  0.00     0.023 A 
ATOM     25  Cl  UNL     1       2.956  -2.939  -0.549  1.00  0.00    -0.082 Cl
ATOM     26  C   UNL     1      -0.643  -1.309  -1.133  1.00  0.00     0.066 A 
ATOM     27  Cl  UNL     1      -2.266  -1.740  -1.542  1.00  0.00    -0.082 Cl
ENDBRANCH  17  19
ENDBRANCH  12  17
ENDBRANCH   8  11
ENDBRANCH   5   7
ENDBRANCH   3   5
ENDBRANCH   2   3
ENDBRANCH   1   2
BRANCH   1  28
ATOM     28  C   UNL     1      -0.124   3.347  -1.072  1.00  0.00     0.275 C 
BRANCH  28  29
ATOM     29  O   UNL     1      -0.053   2.432  -2.237  1.00  0.00    -0.458 OA
BRANCH  29  30
ATOM     30  C   UNL     1       1.169   2.289  -2.896  1.00  0.00     0.338 C 
ATOM     31  O   UNL     1       2.094   3.077  -2.770  1.00  0.00    -0.246 OA
BRANCH  30  32
ATOM     32  C   UNL     1       1.367   0.942  -3.619  1.00  0.00     0.060 A 
ATOM     33  C   UNL     1       0.323   0.052  -3.810  1.00  0.00     0.016 A 
ATOM     34  C   UNL     1       2.648   0.445  -3.943  1.00  0.00     0.016 A 
ATOM     35  C   UNL     1       0.576  -1.313  -4.096  1.00  0.00     0.010 A 
ATOM     36  C   UNL     1       2.859  -0.892  -4.439  1.00  0.00     0.010 A 
ATOM     37  C   UNL     1       1.814  -1.822  -4.533  1.00  0.00    -0.014 A 
BRANCH  37  38
ATOM     38  C   UNL     1       1.908  -3.228  -5.159  1.00  0.00     0.031 A 
ATOM     39  C   UNL     1       3.091  -4.192  -4.997  1.00  0.00     0.074 A 
ATOM     40  C   UNL     1       0.897  -3.705  -5.937  1.00  0.00     0.049 A 
ATOM     41  N   UNL     1       3.385  -5.275  -5.697  1.00  0.00    -0.248 NA
ATOM     42  C   UNL     1       4.039  -3.944  -3.907  1.00  0.00     0.031 C 
ATOM     43  C   UNL     1      -0.370  -3.026  -6.216  1.00  0.00     0.029 A 
ATOM     44  N   UNL     1       0.769  -4.886  -6.654  1.00  0.00    -0.354 N 
ATOM     45  C   UNL     1       4.563  -5.801  -5.163  1.00  0.00     0.074 A 
ATOM     46  C   UNL     1       4.912  -4.940  -4.050  1.00  0.00     0.031 C 
ATOM     47  C   UNL     1      -1.166  -3.814  -6.939  1.00  0.00     0.029 A 
ATOM     48  C   UNL     1      -0.395  -4.960  -7.387  1.00  0.00     0.049 A 
ATOM     49  H   UNL     1       1.444  -5.603  -6.639  1.00  0.00     0.167 HD
ATOM     50  C   UNL     1       5.296  -6.878  -5.563  1.00  0.00     0.037 A 
ATOM     51  C   UNL     1      -0.801  -5.742  -8.408  1.00  0.00     0.037 A 
ATOM     52  C   UNL     1       4.963  -7.783  -6.646  1.00  0.00     0.049 A 
ATOM     53  C   UNL     1       0.093  -6.801  -8.962  1.00  0.00     0.074 A 
ATOM     54  C   UNL     1       5.668  -8.893  -7.096  1.00  0.00     0.029 A 
ATOM     55  N   UNL     1       3.840  -7.690  -7.447  1.00  0.00    -0.354 N 
ATOM     56  N   UNL     1       1.262  -7.193  -8.534  1.00  0.00    -0.248 NA
ATOM     57  C   UNL     1      -0.374  -7.495 -10.172  1.00  0.00     0.031 C 
ATOM     58  C   UNL     1       5.003  -9.433  -8.204  1.00  0.00     0.029 A 
ATOM     59  C   UNL     1       3.855  -8.694  -8.412  1.00  0.00     0.049 A 
ATOM     60  H   UNL     1       3.132  -7.013  -7.350  1.00  0.00     0.167 HD
ATOM     61  C   UNL     1       1.677  -8.174  -9.422  1.00  0.00     0.074 A 
ATOM     62  C   UNL     1       0.623  -8.338 -10.399  1.00  0.00     0.031 C 
ATOM     63  C   UNL     1       2.840  -8.864  -9.415  1.00  0.00     0.037 A 
BRANCH  50  64
ATOM     64  C   UNL     1       6.615  -7.149  -4.878  1.00  0.00     0.064 A 
ATOM     65  C   UNL     1       6.696  -7.784  -3.631  1.00  0.00     0.173 A 
ATOM     66  C   UNL     1       7.817  -6.905  -5.565  1.00  0.00     0.173 A 
ATOM     67  F   UNL     1       5.581  -8.060  -2.940  1.00  0.00    -0.203 F 
ATOM     68  C   UNL     1       7.931  -8.151  -3.092  1.00  0.00     0.198 A 
ATOM     69  C   UNL     1       9.047  -7.295  -5.035  1.00  0.00     0.198 A 
ATOM     70  F   UNL     1       7.797  -6.335  -6.779  1.00  0.00    -0.203 F 
ATOM     71  F   UNL     1       7.988  -8.750  -1.894  1.00  0.00    -0.200 F 
ATOM     72  C   UNL     1       9.103  -7.915  -3.798  1.00  0.00     0.200 A 
ATOM     73  F   UNL     1      10.172  -7.091  -5.734  1.00  0.00    -0.200 F 
ATOM     74  F   UNL     1      10.284  -8.292  -3.289  1.00  0.00    -0.200 F 
ENDBRANCH  50  64
BRANCH  51  75
ATOM     75  C   UNL     1      -2.089  -5.423  -9.085  1.00  0.00     0.064 A 
ATOM     76  C   UNL     1      -3.196  -6.272  -8.980  1.00  0.00     0.173 A 
ATOM     77  C   UNL     1      -2.243  -4.228  -9.811  1.00  0.00     0.173 A 
ATOM     78  F   UNL     1      -3.085  -7.439  -8.331  1.00  0.00    -0.203 F 
ATOM     79  C   UNL     1      -4.415  -5.929  -9.560  1.00  0.00     0.198 A 
ATOM     80  C   UNL     1      -3.472  -3.868 -10.352  1.00  0.00     0.198 A 
ATOM     81  F   UNL     1      -1.208  -3.385  -9.944  1.00  0.00    -0.203 F 
ATOM     82  F   UNL     1      -5.456  -6.767  -9.469  1.00  0.00    -0.200 F 
ATOM     83  C   UNL     1      -4.557  -4.720 -10.229  1.00  0.00     0.200 A 
ATOM     84  F   UNL     1      -3.608  -2.688 -10.972  1.00  0.00    -0.200 F 
ATOM     85  F   UNL     1      -5.741  -4.377 -10.754  1.00  0.00    -0.200 F 
ENDBRANCH  51  75
BRANCH  63  86
ATOM     86  C   UNL     1       3.037  -9.880 -10.501  1.00  0.00     0.064 A 
ATOM     87  C   UNL     1       3.309  -9.491 -11.822  1.00  0.00     0.173 A 
ATOM     88  C   UNL     1       2.930 -11.252 -10.230  1.00  0.00     0.173 A 
ATOM     89  F   UNL     1       3.392  -8.190 -12.138  1.00  0.00    -0.203 F 
ATOM     90  C   UNL     1       3.445 -10.438 -12.835  1.00  0.00     0.198 A 
ATOM     91  C   UNL     1       3.088 -12.197 -11.242  1.00  0.00     0.198 A 
ATOM     92  F   UNL     1       2.661 -11.676  -8.987  1.00  0.00    -0.203 F 
ATOM     93  F   UNL     1       3.655 -10.041 -14.098  1.00  0.00    -0.200 F 
ATOM     94  C   UNL     1       3.338 -11.789 -12.543  1.00  0.00     0.200 A 
ATOM     95  F   UNL     1       2.984 -13.503 -10.959  1.00  0.00    -0.200 F 
ATOM     96  F   UNL     1       3.461 -12.699 -13.520  1.00  0.00    -0.200 F 
ENDBRANCH  63  86
ENDBRANCH  37  38
ENDBRANCH  30  32
ENDBRANCH  29  30
ENDBRANCH  28  29
ENDBRANCH   1  28
TORSDOF 15
