REMARK SMILES COCC[C@H]([NH3+])C(=O)N1CC(n2cc(C(=O)OCCOC(=O)c3ccc(-c4c5nc(c(-c6c(F)c(F)c(F)c(F)c6F)c6ccc([nH]6)c(-c6c(F)c(F)c(F)c(F)c6F)c6nc(c(-c7c(F)c(F)c(F)c(F)c7F)c7ccc4[nH]7)C=C6)C=C5)cc3)nn2)C1
REMARK SMILES IDX 17 1 15 2 16 3 14 4 12 5 13 6 87 7 86 8 11 9 7 10 8 11 9 12
REMARK SMILES IDX 10 13 88 14 5 15 4 16 3 17 2 18 1 19 6 20 18 24 19 25 20 26
REMARK SMILES IDX 21 27 22 28 23 29 24 30 85 31 25 32 84 33 26 34 27 35 28 36
REMARK SMILES IDX 78 37 29 38 83 39 77 40 79 41 30 42 82 43 76 44 75 45 31 47
REMARK SMILES IDX 63 48 43 49 62 50 44 51 47 52 61 53 80 54 45 55 46 56 60 58
REMARK SMILES IDX 81 59 48 60 32 61 33 62 41 63 34 64 35 65 39 66 42 67 36 68
REMARK SMILES IDX 37 69 40 70 38 71 64 72 65 73 73 74 66 75 67 76 71 77 74 78
REMARK SMILES IDX 68 79 69 80 72 81 70 82 49 83 50 84 58 85 51 86 52 87 56 88
REMARK SMILES IDX 59 89 53 90 54 91 57 92 55 93
REMARK H PARENT 6 21 6 22 6 23 79 46 47 57
REMARK Flexibility Score: inf
ROOT
ATOM      1  O   UNL     1       1.151  10.707  -2.033  1.00  0.00    -0.457 OA
ENDROOT
BRANCH   1   2
ATOM      2  C   UNL     1       2.318  10.542  -1.330  1.00  0.00     0.360 C 
ATOM      3  O   UNL     1       3.362  11.134  -1.594  1.00  0.00    -0.244 OA
BRANCH   2   4
ATOM      4  C   UNL     1       2.171   9.644  -0.195  1.00  0.00     0.190 A 
ATOM      5  N   UNL     1       1.478   8.200   1.265  1.00  0.00    -0.245 N 
ATOM      6  C   UNL     1       1.038   8.979   0.230  1.00  0.00     0.147 A 
ATOM      7  N   UNL     1       2.765   8.452   1.547  1.00  0.00    -0.066 NA
ATOM      8  N   UNL     1       3.200   9.345   0.667  1.00  0.00    -0.123 NA
BRANCH   5   9
ATOM      9  C   UNL     1       0.741   7.067   1.746  1.00  0.00     0.148 C 
ATOM     10  C   UNL     1       0.505   3.865   1.786  1.00  0.00     0.280 C 
ATOM     11  O   UNL     1      -0.619   3.884   2.295  1.00  0.00    -0.268 OA
ATOM     12  N   UNL     1       1.217   5.022   1.563  1.00  0.00    -0.333 N 
ATOM     13  C   UNL     1       1.483   6.049   2.599  1.00  0.00     0.149 C 
ATOM     14  C   UNL     1       0.680   6.029   0.636  1.00  0.00     0.149 C 
BRANCH  10  15
ATOM     15  C   UNL     1       1.155   2.539   1.302  1.00  0.00     0.273 C 
BRANCH  15  16
ATOM     16  C   UNL     1       2.572   2.599   0.713  1.00  0.00     0.104 C 
BRANCH  16  17
ATOM     17  C   UNL     1       2.765   2.981  -0.759  1.00  0.00     0.166 C 
BRANCH  17  18
ATOM     18  O   UNL     1       2.176   4.217  -1.127  1.00  0.00    -0.384 OA
ATOM     19  C   UNL     1       1.043   4.104  -1.976  1.00  0.00     0.194 C 
ENDBRANCH  17  18
ENDBRANCH  16  17
ENDBRANCH  15  16
BRANCH  15  20
ATOM     20  N   UNL     1       0.208   1.755   0.478  1.00  0.00    -0.347 N 
ATOM     21  H   UNL     1       0.020   2.253  -0.392  1.00  0.00     0.345 HD
ATOM     22  H   UNL     1      -0.663   1.626   0.992  1.00  0.00     0.345 HD
ATOM     23  H   UNL     1       0.616   0.844   0.266  1.00  0.00     0.345 HD
ENDBRANCH  15  20
ENDBRANCH  10  15
ENDBRANCH   5   9
ENDBRANCH   2   4
ENDBRANCH   1   2
BRANCH   1  24
ATOM     24  C   UNL     1       1.117  11.824  -2.938  1.00  0.00     0.275 C 
BRANCH  24  25
ATOM     25  C   UNL     1       0.621  13.082  -2.237  1.00  0.00     0.275 C 
BRANCH  25  26
ATOM     26  O   UNL     1       1.535  13.507  -1.228  1.00  0.00    -0.458 OA
BRANCH  26  27
ATOM     27  C   UNL     1       1.266  13.037   0.010  1.00  0.00     0.338 C 
ATOM     28  O   UNL     1       0.515  12.124   0.310  1.00  0.00    -0.246 OA
BRANCH  27  29
ATOM     29  C   UNL     1       1.840  13.941   1.003  1.00  0.00     0.060 A 
ATOM     30  C   UNL     1       1.854  13.516   2.337  1.00  0.00     0.016 A 
ATOM     31  C   UNL     1       2.025  15.280   0.640  1.00  0.00     0.016 A 
ATOM     32  C   UNL     1       1.887  14.470   3.331  1.00  0.00     0.010 A 
ATOM     33  C   UNL     1       2.025  16.229   1.627  1.00  0.00     0.010 A 
ATOM     34  C   UNL     1       1.889  15.813   2.954  1.00  0.00    -0.014 A 
BRANCH  34  35
ATOM     35  C   UNL     1       1.830  16.835   3.976  1.00  0.00     0.031 A 
ATOM     36  C   UNL     1       3.133  17.085   4.641  1.00  0.00     0.074 A 
ATOM     37  C   UNL     1       0.731  17.607   4.082  1.00  0.00     0.049 A 
ATOM     38  N   UNL     1       3.385  17.124   5.907  1.00  0.00    -0.248 NA
ATOM     39  C   UNL     1       4.337  17.183   3.791  1.00  0.00     0.031 C 
ATOM     40  C   UNL     1      -0.470  17.575   3.239  1.00  0.00     0.029 A 
ATOM     41  N   UNL     1       0.521  18.700   4.859  1.00  0.00    -0.354 N 
ATOM     42  C   UNL     1       4.739  17.431   6.011  1.00  0.00     0.074 A 
ATOM     43  C   UNL     1       5.304  17.284   4.700  1.00  0.00     0.031 C 
ATOM     44  C   UNL     1      -1.143  18.737   3.382  1.00  0.00     0.029 A 
ATOM     45  C   UNL     1      -0.471  19.547   4.382  1.00  0.00     0.049 A 
ATOM     46  H   UNL     1       1.026  18.876   5.686  1.00  0.00     0.167 HD
ATOM     47  C   UNL     1       5.237  18.038   7.120  1.00  0.00     0.037 A 
ATOM     48  C   UNL     1      -0.600  20.861   4.696  1.00  0.00     0.037 A 
ATOM     49  C   UNL     1       4.372  17.849   8.254  1.00  0.00     0.049 A 
ATOM     50  C   UNL     1       0.178  21.089   5.949  1.00  0.00     0.074 A 
ATOM     51  C   UNL     1       3.871  16.730   8.894  1.00  0.00     0.029 A 
ATOM     52  N   UNL     1       3.575  18.894   8.654  1.00  0.00    -0.354 N 
ATOM     53  N   UNL     1      -0.151  20.587   7.109  1.00  0.00    -0.248 NA
ATOM     54  C   UNL     1       1.582  21.462   5.809  1.00  0.00     0.031 C 
ATOM     55  C   UNL     1       2.523  17.065   9.215  1.00  0.00     0.029 A 
ATOM     56  C   UNL     1       2.311  18.387   8.822  1.00  0.00     0.049 A 
ATOM     57  H   UNL     1       3.856  19.827   8.794  1.00  0.00     0.167 HD
ATOM     58  C   UNL     1       1.051  20.184   7.674  1.00  0.00     0.074 A 
ATOM     59  C   UNL     1       2.089  20.810   6.858  1.00  0.00     0.031 C 
ATOM     60  C   UNL     1       1.112  19.142   8.555  1.00  0.00     0.037 A 
BRANCH  47  61
ATOM     61  C   UNL     1       6.299  19.106   7.070  1.00  0.00     0.064 A 
ATOM     62  C   UNL     1       6.858  19.569   8.276  1.00  0.00     0.173 A 
ATOM     63  C   UNL     1       6.566  19.897   5.930  1.00  0.00     0.173 A 
ATOM     64  F   UNL     1       6.649  18.907   9.423  1.00  0.00    -0.203 F 
ATOM     65  C   UNL     1       7.558  20.776   8.346  1.00  0.00     0.198 A 
ATOM     66  C   UNL     1       7.314  21.069   5.994  1.00  0.00     0.198 A 
ATOM     67  F   UNL     1       6.020  19.640   4.735  1.00  0.00    -0.203 F 
ATOM     68  F   UNL     1       7.954  21.244   9.536  1.00  0.00    -0.200 F 
ATOM     69  C   UNL     1       7.780  21.527   7.206  1.00  0.00     0.200 A 
ATOM     70  F   UNL     1       7.501  21.792   4.880  1.00  0.00    -0.200 F 
ATOM     71  F   UNL     1       8.394  22.715   7.282  1.00  0.00    -0.200 F 
ENDBRANCH  47  61
BRANCH  48  72
ATOM     72  C   UNL     1      -1.010  21.963   3.783  1.00  0.00     0.064 A 
ATOM     73  C   UNL     1      -1.307  23.243   4.280  1.00  0.00     0.173 A 
ATOM     74  C   UNL     1      -0.891  21.860   2.380  1.00  0.00     0.173 A 
ATOM     75  F   UNL     1      -1.386  23.450   5.602  1.00  0.00    -0.203 F 
ATOM     76  C   UNL     1      -1.463  24.346   3.430  1.00  0.00     0.198 A 
ATOM     77  C   UNL     1      -1.065  22.956   1.533  1.00  0.00     0.198 A 
ATOM     78  F   UNL     1      -0.514  20.716   1.794  1.00  0.00    -0.203 F 
ATOM     79  F   UNL     1      -1.686  25.563   3.947  1.00  0.00    -0.200 F 
ATOM     80  C   UNL     1      -1.337  24.202   2.058  1.00  0.00     0.200 A 
ATOM     81  F   UNL     1      -0.906  22.803   0.211  1.00  0.00    -0.200 F 
ATOM     82  F   UNL     1      -1.437  25.265   1.248  1.00  0.00    -0.200 F 
ENDBRANCH  48  72
BRANCH  60  83
ATOM     83  C   UNL     1      -0.173  18.569   9.085  1.00  0.00     0.064 A 
ATOM     84  C   UNL     1      -1.168  17.992   8.277  1.00  0.00     0.173 A 
ATOM     85  C   UNL     1      -0.318  18.437  10.473  1.00  0.00     0.173 A 
ATOM     86  F   UNL     1      -1.049  17.970   6.945  1.00  0.00    -0.203 F 
ATOM     87  C   UNL     1      -2.276  17.356   8.835  1.00  0.00     0.198 A 
ATOM     88  C   UNL     1      -1.403  17.765  11.027  1.00  0.00     0.198 A 
ATOM     89  F   UNL     1       0.631  18.912  11.296  1.00  0.00    -0.203 F 
ATOM     90  F   UNL     1      -3.214  16.822   8.039  1.00  0.00    -0.200 F 
ATOM     91  C   UNL     1      -2.388  17.235  10.209  1.00  0.00     0.200 A 
ATOM     92  F   UNL     1      -1.478  17.602  12.355  1.00  0.00    -0.200 F 
ATOM     93  F   UNL     1      -3.428  16.581  10.744  1.00  0.00    -0.200 F 
ENDBRANCH  60  83
ENDBRANCH  34  35
ENDBRANCH  27  29
ENDBRANCH  26  27
ENDBRANCH  25  26
ENDBRANCH  24  25
ENDBRANCH   1  24
TORSDOF 17
