REMARK SMILES O=C(OCCOC(=O)c1ccc(-c2c3nc(c(-c4c(F)c(F)c(F)c(F)c4F)c4ccc([nH]4)c(-c4c(F)c(F)c(F)c(F)c4F)c4nc(c(-c5c(F)c(F)c(F)c(F)c5F)c5ccc2[nH]5)C=C4)C=C3)cc1)C1=Cc2ccc(Cl)c(Cl)c2O[C@@H]1C(F)(F)F
REMARK SMILES IDX 5 1 4 2 3 3 2 4 1 5 72 6 73 7 83 8 74 9 82 10 75 11 81 12
REMARK SMILES IDX 76 13 79 14 77 15 80 16 78 17 84 18 85 19 86 20 87 21 6 22
REMARK SMILES IDX 7 23 8 24 9 25 10 26 71 27 11 28 70 29 12 30 13 31 14 32
REMARK SMILES IDX 64 33 15 34 69 35 63 36 65 37 16 38 68 39 62 40 61 41 17 43
REMARK SMILES IDX 49 44 29 45 48 46 30 47 33 48 47 49 66 50 31 51 32 52 46 54
REMARK SMILES IDX 67 55 34 56 18 57 19 58 27 59 20 60 21 61 25 62 28 63 22 64
REMARK SMILES IDX 23 65 26 66 24 67 50 68 51 69 59 70 52 71 53 72 57 73 60 74
REMARK SMILES IDX 54 75 55 76 58 77 56 78 35 79 36 80 44 81 37 82 38 83 42 84
REMARK SMILES IDX 45 85 39 86 40 87 43 88 41 89
REMARK H PARENT 65 42 33 53
REMARK Flexibility Score: inf
ROOT
ATOM      1  C   UNL     1       2.947   1.261  -2.151  1.00  0.00     0.275 C 
ENDROOT
BRANCH   1   2
ATOM      2  C   UNL     1       2.812  -0.133  -1.501  1.00  0.00     0.275 C 
BRANCH   2   3
ATOM      3  O   UNL     1       2.026  -0.124  -0.278  1.00  0.00    -0.459 OA
BRANCH   3   4
ATOM      4  C   UNL     1       2.425  -0.901   0.768  1.00  0.00     0.338 C 
ATOM      5  O   UNL     1       1.772  -1.849   1.178  1.00  0.00    -0.246 OA
BRANCH   4   6
ATOM      6  C   UNL     1       3.716  -0.499   1.365  1.00  0.00     0.087 C 
ATOM      7  C   UNL     1       4.585  -1.488   1.621  1.00  0.00     0.027 C 
ATOM      8  C   UNL     1       4.201   0.907   1.256  1.00  0.00     0.316 C 
ATOM      9  C   UNL     1       5.885  -1.270   0.962  1.00  0.00     0.019 A 
ATOM     10  O   UNL     1       5.301   1.014   0.334  1.00  0.00    -0.474 OA
ATOM     11  C   UNL     1       6.731  -2.367   0.787  1.00  0.00     0.013 A 
ATOM     12  C   UNL     1       6.108  -0.095   0.212  1.00  0.00     0.148 A 
ATOM     13  C   UNL     1       7.725  -2.331  -0.193  1.00  0.00     0.023 A 
ATOM     14  C   UNL     1       7.087  -0.071  -0.794  1.00  0.00     0.102 A 
ATOM     15  C   UNL     1       7.881  -1.203  -1.005  1.00  0.00     0.063 A 
ATOM     16  Cl  UNL     1       7.198   1.314  -1.836  1.00  0.00    -0.079 Cl
ATOM     17  Cl  UNL     1       9.034  -1.300  -2.289  1.00  0.00    -0.083 Cl
BRANCH   8  18
ATOM     18  C   UNL     1       4.496   1.552   2.619  1.00  0.00     0.430 C 
ATOM     19  F   UNL     1       3.356   1.679   3.343  1.00  0.00    -0.167 F 
ATOM     20  F   UNL     1       5.370   0.840   3.362  1.00  0.00    -0.167 F 
ATOM     21  F   UNL     1       5.007   2.798   2.471  1.00  0.00    -0.167 F 
ENDBRANCH   8  18
ENDBRANCH   4   6
ENDBRANCH   3   4
ENDBRANCH   2   3
ENDBRANCH   1   2
BRANCH   1  22
ATOM     22  O   UNL     1       2.780   2.315  -1.193  1.00  0.00    -0.458 OA
BRANCH  22  23
ATOM     23  C   UNL     1       1.491   2.698  -1.022  1.00  0.00     0.338 C 
ATOM     24  O   UNL     1       0.557   2.455  -1.769  1.00  0.00    -0.246 OA
BRANCH  23  25
ATOM     25  C   UNL     1       1.319   3.256   0.340  1.00  0.00     0.060 A 
ATOM     26  C   UNL     1       0.138   2.926   1.011  1.00  0.00     0.016 A 
ATOM     27  C   UNL     1       2.292   4.035   0.980  1.00  0.00     0.016 A 
ATOM     28  C   UNL     1      -0.101   3.419   2.291  1.00  0.00     0.010 A 
ATOM     29  C   UNL     1       2.063   4.503   2.282  1.00  0.00     0.010 A 
ATOM     30  C   UNL     1       0.844   4.237   2.927  1.00  0.00    -0.014 A 
BRANCH  30  31
ATOM     31  C   UNL     1       0.438   4.927   4.180  1.00  0.00     0.031 A 
ATOM     32  C   UNL     1       0.024   6.372   4.112  1.00  0.00     0.074 A 
ATOM     33  C   UNL     1       0.302   4.249   5.336  1.00  0.00     0.049 A 
ATOM     34  N   UNL     1      -0.610   7.098   4.999  1.00  0.00    -0.248 NA
ATOM     35  C   UNL     1       0.364   7.096   2.877  1.00  0.00     0.031 C 
ATOM     36  C   UNL     1       0.687   2.856   5.553  1.00  0.00     0.029 A 
ATOM     37  N   UNL     1      -0.225   4.644   6.543  1.00  0.00    -0.354 N 
ATOM     38  C   UNL     1      -0.789   8.341   4.407  1.00  0.00     0.074 A 
ATOM     39  C   UNL     1      -0.118   8.303   3.127  1.00  0.00     0.031 C 
ATOM     40  C   UNL     1       0.367   2.505   6.811  1.00  0.00     0.029 A 
ATOM     41  C   UNL     1      -0.255   3.644   7.485  1.00  0.00     0.049 A 
ATOM     42  H   UNL     1      -0.550   5.557   6.715  1.00  0.00     0.167 HD
ATOM     43  C   UNL     1      -1.486   9.408   4.864  1.00  0.00     0.037 A 
ATOM     44  C   UNL     1      -0.750   3.645   8.739  1.00  0.00     0.037 A 
ATOM     45  C   UNL     1      -2.123   9.471   6.151  1.00  0.00     0.049 A 
ATOM     46  C   UNL     1      -1.470   4.868   9.253  1.00  0.00     0.074 A 
ATOM     47  C   UNL     1      -2.839  10.512   6.713  1.00  0.00     0.029 A 
ATOM     48  N   UNL     1      -2.103   8.447   7.086  1.00  0.00    -0.354 N 
ATOM     49  N   UNL     1      -1.723   6.002   8.646  1.00  0.00    -0.248 NA
ATOM     50  C   UNL     1      -2.003   4.796  10.622  1.00  0.00     0.031 C 
ATOM     51  C   UNL     1      -3.217  10.135   8.006  1.00  0.00     0.029 A 
ATOM     52  C   UNL     1      -2.779   8.840   8.230  1.00  0.00     0.049 A 
ATOM     53  H   UNL     1      -1.672   7.572   6.957  1.00  0.00     0.167 HD
ATOM     54  C   UNL     1      -2.468   6.760   9.541  1.00  0.00     0.074 A 
ATOM     55  C   UNL     1      -2.647   5.949  10.726  1.00  0.00     0.031 C 
ATOM     56  C   UNL     1      -2.959   8.016   9.398  1.00  0.00     0.037 A 
BRANCH  43  57
ATOM     57  C   UNL     1      -1.597  10.587   3.944  1.00  0.00     0.064 A 
ATOM     58  C   UNL     1      -2.383  10.526   2.781  1.00  0.00     0.173 A 
ATOM     59  C   UNL     1      -0.916  11.781   4.215  1.00  0.00     0.173 A 
ATOM     60  F   UNL     1      -3.041   9.399   2.469  1.00  0.00    -0.203 F 
ATOM     61  C   UNL     1      -2.452  11.605   1.906  1.00  0.00     0.198 A 
ATOM     62  C   UNL     1      -1.010  12.869   3.351  1.00  0.00     0.198 A 
ATOM     63  F   UNL     1      -0.154  11.891   5.314  1.00  0.00    -0.203 F 
ATOM     64  F   UNL     1      -3.161  11.504   0.773  1.00  0.00    -0.200 F 
ATOM     65  C   UNL     1      -1.769  12.777   2.194  1.00  0.00     0.200 A 
ATOM     66  F   UNL     1      -0.356  14.004   3.633  1.00  0.00    -0.200 F 
ATOM     67  F   UNL     1      -1.833  13.815   1.348  1.00  0.00    -0.200 F 
ENDBRANCH  43  57
BRANCH  44  68
ATOM     68  C   UNL     1      -0.615   2.439   9.601  1.00  0.00     0.064 A 
ATOM     69  C   UNL     1      -1.734   1.690   9.992  1.00  0.00     0.173 A 
ATOM     70  C   UNL     1       0.635   2.054  10.107  1.00  0.00     0.173 A 
ATOM     71  F   UNL     1      -2.955   2.034   9.556  1.00  0.00    -0.203 F 
ATOM     72  C   UNL     1      -1.614   0.626  10.884  1.00  0.00     0.198 A 
ATOM     73  C   UNL     1       0.758   0.971  10.977  1.00  0.00     0.198 A 
ATOM     74  F   UNL     1       1.737   2.738   9.768  1.00  0.00    -0.203 F 
ATOM     75  F   UNL     1      -2.708  -0.029  11.294  1.00  0.00    -0.200 F 
ATOM     76  C   UNL     1      -0.367   0.267  11.375  1.00  0.00     0.200 A 
ATOM     77  F   UNL     1       1.965   0.624  11.444  1.00  0.00    -0.200 F 
ATOM     78  F   UNL     1      -0.254  -0.747  12.244  1.00  0.00    -0.200 F 
ENDBRANCH  44  68
BRANCH  56  79
ATOM     79  C   UNL     1      -3.765   8.580  10.535  1.00  0.00     0.064 A 
ATOM     80  C   UNL     1      -3.171   8.933  11.756  1.00  0.00     0.173 A 
ATOM     81  C   UNL     1      -5.143   8.803  10.387  1.00  0.00     0.173 A 
ATOM     82  F   UNL     1      -1.860   8.730  11.953  1.00  0.00    -0.203 F 
ATOM     83  C   UNL     1      -3.933   9.457  12.798  1.00  0.00     0.198 A 
ATOM     84  C   UNL     1      -5.895   9.357  11.419  1.00  0.00     0.198 A 
ATOM     85  F   UNL     1      -5.760   8.492   9.237  1.00  0.00    -0.203 F 
ATOM     86  F   UNL     1      -3.353   9.737  13.974  1.00  0.00    -0.200 F 
ATOM     87  C   UNL     1      -5.292   9.675  12.627  1.00  0.00     0.200 A 
ATOM     88  F   UNL     1      -7.205   9.582  11.247  1.00  0.00    -0.200 F 
ATOM     89  F   UNL     1      -6.021  10.185  13.628  1.00  0.00    -0.200 F 
ENDBRANCH  56  79
ENDBRANCH  30  31
ENDBRANCH  23  25
ENDBRANCH  22  23
ENDBRANCH   1  22
TORSDOF 12
