REMARK SMILES CC[NH+]1CCN(c2ccc(NS(=O)(=O)c3cccc(F)c3)cc2C(=O)OCCOC(=O)c2ccc(-c3c4nc(c(-c5c(F)c(F)c(F)c(F)c5F)c5ccc([nH]5)c(-c5c(F)c(F)c(F)c(F)c5F)c5nc(c(-c6c(F)c(F)c(F)c(F)c6F)c6ccc3[nH]6)C=C5)C=C4)cc2)CC1
REMARK SMILES IDX 27 1 26 2 24 3 25 4 23 5 7 6 8 7 9 8 22 9 10 10 6 11 3 12
REMARK SMILES IDX 4 13 96 14 5 16 95 17 2 18 1 19 11 20 12 22 13 23 14 24
REMARK SMILES IDX 15 25 16 26 21 27 17 28 19 29 18 30 20 31 28 32 29 33 30 34
REMARK SMILES IDX 31 35 32 36 33 37 94 38 34 39 93 40 35 41 36 42 37 43 87 44
REMARK SMILES IDX 38 45 92 46 86 47 88 48 39 49 91 50 85 51 84 52 40 54 72 55
REMARK SMILES IDX 52 56 71 57 53 58 56 59 70 60 89 61 54 62 55 63 69 65 90 66
REMARK SMILES IDX 57 67 41 68 42 69 50 70 43 71 44 72 48 73 51 74 45 75 46 76
REMARK SMILES IDX 49 77 47 78 73 79 74 80 82 81 75 82 76 83 80 84 83 85 77 86
REMARK SMILES IDX 78 87 81 88 79 89 58 90 59 91 67 92 60 93 61 94 65 95 68 96
REMARK SMILES IDX 62 97 63 98 66 99 64 100
REMARK H PARENT 3 15 11 21 88 53 56 64
REMARK Flexibility Score: inf
ROOT
ATOM      1  C   UNL     1       2.155  -5.024   4.060  1.00  0.00     0.275 C 
ENDROOT
BRANCH   1   2
ATOM      2  O   UNL     1       0.841  -4.432   4.148  1.00  0.00    -0.458 OA
BRANCH   2   3
ATOM      3  C   UNL     1      -0.196  -5.270   4.362  1.00  0.00     0.340 C 
ATOM      4  O   UNL     1      -0.108  -6.467   4.593  1.00  0.00    -0.246 OA
BRANCH   3   5
ATOM      5  C   UNL     1      -1.501  -4.560   4.409  1.00  0.00     0.085 A 
ATOM      6  C   UNL     1      -1.902  -3.521   3.545  1.00  0.00     0.052 A 
ATOM      7  C   UNL     1      -3.225  -3.077   3.692  1.00  0.00     0.029 A 
ATOM      8  C   UNL     1      -4.034  -3.468   4.758  1.00  0.00     0.029 A 
ATOM      9  C   UNL     1      -2.341  -4.962   5.481  1.00  0.00     0.044 A 
ATOM     10  C   UNL     1      -3.571  -4.358   5.709  1.00  0.00     0.050 A 
BRANCH   6  11
ATOM     11  N   UNL     1      -1.096  -2.836   2.656  1.00  0.00    -0.360 N 
ATOM     12  N   UNL     1       0.977  -1.277   1.246  1.00  0.00    -0.332 N 
ATOM     13  C   UNL     1       0.182  -0.719   2.365  1.00  0.00     0.283 C 
ATOM     14  C   UNL     1       1.021  -2.751   1.390  1.00  0.00     0.283 C 
ATOM     15  H   UNL     1       1.923  -0.900   1.297  1.00  0.00     0.348 HD
ATOM     16  C   UNL     1      -1.205  -1.366   2.580  1.00  0.00     0.178 C 
ATOM     17  C   UNL     1      -0.342  -3.466   1.573  1.00  0.00     0.178 C 
BRANCH  12  18
ATOM     18  C   UNL     1       0.478  -0.868  -0.068  1.00  0.00     0.258 C 
ATOM     19  C   UNL     1       0.971   0.534  -0.412  1.00  0.00     0.071 C 
ENDBRANCH  12  18
ENDBRANCH   6  11
BRANCH  10  20
ATOM     20  N   UNL     1      -4.131  -4.446   7.016  1.00  0.00    -0.280 N 
ATOM     21  H   UNL     1      -3.507  -4.323   7.767  1.00  0.00     0.180 HD
BRANCH  20  22
ATOM     22  S   UNL     1      -5.731  -4.735   7.415  1.00  0.00     0.261 S 
ATOM     23  O   UNL     1      -6.080  -6.039   6.892  1.00  0.00    -0.201 OA
ATOM     24  O   UNL     1      -5.850  -4.434   8.818  1.00  0.00    -0.201 OA
BRANCH  22  25
ATOM     25  C   UNL     1      -6.677  -3.516   6.541  1.00  0.00     0.090 A 
ATOM     26  C   UNL     1      -6.452  -2.147   6.769  1.00  0.00     0.022 A 
ATOM     27  C   UNL     1      -7.533  -3.942   5.522  1.00  0.00     0.061 A 
ATOM     28  C   UNL     1      -7.020  -1.212   5.897  1.00  0.00     0.004 A 
ATOM     29  C   UNL     1      -8.088  -2.998   4.675  1.00  0.00     0.124 A 
ATOM     30  C   UNL     1      -7.823  -1.641   4.837  1.00  0.00     0.039 A 
ATOM     31  F   UNL     1      -8.847  -3.403   3.648  1.00  0.00    -0.207 F 
ENDBRANCH  22  25
ENDBRANCH  20  22
ENDBRANCH  10  20
ENDBRANCH   3   5
ENDBRANCH   2   3
ENDBRANCH   1   2
BRANCH   1  32
ATOM     32  C   UNL     1       3.158  -4.162   4.827  1.00  0.00     0.275 C 
BRANCH  32  33
ATOM     33  O   UNL     1       2.984  -4.392   6.237  1.00  0.00    -0.458 OA
BRANCH  33  34
ATOM     34  C   UNL     1       2.126  -3.544   6.844  1.00  0.00     0.338 C 
ATOM     35  O   UNL     1       1.655  -2.506   6.415  1.00  0.00    -0.246 OA
BRANCH  34  36
ATOM     36  C   UNL     1       1.634  -4.192   8.064  1.00  0.00     0.060 A 
ATOM     37  C   UNL     1       0.342  -4.712   8.018  1.00  0.00     0.016 A 
ATOM     38  C   UNL     1       2.370  -4.217   9.245  1.00  0.00     0.016 A 
ATOM     39  C   UNL     1      -0.257  -5.210   9.166  1.00  0.00     0.010 A 
ATOM     40  C   UNL     1       1.779  -4.749  10.396  1.00  0.00     0.010 A 
ATOM     41  C   UNL     1       0.449  -5.216  10.374  1.00  0.00    -0.014 A 
BRANCH  41  42
ATOM     42  C   UNL     1      -0.252  -5.598  11.629  1.00  0.00     0.031 A 
ATOM     43  C   UNL     1      -0.459  -4.565  12.701  1.00  0.00     0.074 A 
ATOM     44  C   UNL     1      -0.749  -6.839  11.791  1.00  0.00     0.049 A 
ATOM     45  N   UNL     1      -0.906  -4.708  13.923  1.00  0.00    -0.248 NA
ATOM     46  C   UNL     1      -0.099  -3.182  12.353  1.00  0.00     0.031 C 
ATOM     47  C   UNL     1      -0.673  -7.915  10.804  1.00  0.00     0.029 A 
ATOM     48  N   UNL     1      -1.425  -7.400  12.846  1.00  0.00    -0.354 N 
ATOM     49  C   UNL     1      -0.824  -3.450  14.505  1.00  0.00     0.074 A 
ATOM     50  C   UNL     1      -0.277  -2.557  13.507  1.00  0.00     0.031 C 
ATOM     51  C   UNL     1      -1.298  -8.999  11.289  1.00  0.00     0.029 A 
ATOM     52  C   UNL     1      -1.750  -8.719  12.649  1.00  0.00     0.049 A 
ATOM     53  H   UNL     1      -1.655  -6.904  13.665  1.00  0.00     0.167 HD
ATOM     54  C   UNL     1      -1.175  -3.076  15.760  1.00  0.00     0.037 A 
ATOM     55  C   UNL     1      -2.312  -9.614  13.485  1.00  0.00     0.037 A 
ATOM     56  C   UNL     1      -1.771  -3.961  16.727  1.00  0.00     0.049 A 
ATOM     57  C   UNL     1      -2.684  -9.181  14.876  1.00  0.00     0.074 A 
ATOM     58  C   UNL     1      -2.168  -3.685  18.024  1.00  0.00     0.029 A 
ATOM     59  N   UNL     1      -2.073  -5.295  16.493  1.00  0.00    -0.354 N 
ATOM     60  N   UNL     1      -2.543  -8.008  15.444  1.00  0.00    -0.248 NA
ATOM     61  C   UNL     1      -3.283 -10.200  15.748  1.00  0.00     0.031 C 
ATOM     62  C   UNL     1      -2.676  -4.862  18.586  1.00  0.00     0.029 A 
ATOM     63  C   UNL     1      -2.642  -5.859  17.624  1.00  0.00     0.049 A 
ATOM     64  H   UNL     1      -1.907  -5.771  15.647  1.00  0.00     0.167 HD
ATOM     65  C   UNL     1      -3.042  -8.142  16.732  1.00  0.00     0.074 A 
ATOM     66  C   UNL     1      -3.512  -9.507  16.855  1.00  0.00     0.031 C 
ATOM     67  C   UNL     1      -3.100  -7.221  17.726  1.00  0.00     0.037 A 
BRANCH  54  68
ATOM     68  C   UNL     1      -0.875  -1.661  16.167  1.00  0.00     0.064 A 
ATOM     69  C   UNL     1      -1.571  -0.566  15.634  1.00  0.00     0.173 A 
ATOM     70  C   UNL     1       0.135  -1.399  17.106  1.00  0.00     0.173 A 
ATOM     71  F   UNL     1      -2.534  -0.757  14.719  1.00  0.00    -0.203 F 
ATOM     72  C   UNL     1      -1.240   0.739  15.995  1.00  0.00     0.198 A 
ATOM     73  C   UNL     1       0.441  -0.096  17.490  1.00  0.00     0.198 A 
ATOM     74  F   UNL     1       0.831  -2.409  17.651  1.00  0.00    -0.203 F 
ATOM     75  F   UNL     1      -1.874   1.772  15.423  1.00  0.00    -0.200 F 
ATOM     76  C   UNL     1      -0.239   0.972  16.925  1.00  0.00     0.200 A 
ATOM     77  F   UNL     1       1.401   0.126  18.397  1.00  0.00    -0.200 F 
ATOM     78  F   UNL     1       0.080   2.228  17.269  1.00  0.00    -0.200 F 
ENDBRANCH  54  68
BRANCH  55  79
ATOM     79  C   UNL     1      -2.510 -11.016  13.033  1.00  0.00     0.064 A 
ATOM     80  C   UNL     1      -3.793 -11.540  12.823  1.00  0.00     0.173 A 
ATOM     81  C   UNL     1      -1.415 -11.857  12.781  1.00  0.00     0.173 A 
ATOM     82  F   UNL     1      -4.873 -10.787  13.079  1.00  0.00    -0.203 F 
ATOM     83  C   UNL     1      -3.973 -12.850  12.384  1.00  0.00     0.198 A 
ATOM     84  C   UNL     1      -1.594 -13.156  12.312  1.00  0.00     0.198 A 
ATOM     85  F   UNL     1      -0.165 -11.407  12.970  1.00  0.00    -0.203 F 
ATOM     86  F   UNL     1      -5.210 -13.339  12.228  1.00  0.00    -0.200 F 
ATOM     87  C   UNL     1      -2.873 -13.653  12.118  1.00  0.00     0.200 A 
ATOM     88  F   UNL     1      -0.528 -13.922  12.043  1.00  0.00    -0.200 F 
ATOM     89  F   UNL     1      -3.046 -14.909  11.682  1.00  0.00    -0.200 F 
ENDBRANCH  55  79
BRANCH  67  90
ATOM     90  C   UNL     1      -3.716  -7.658  19.023  1.00  0.00     0.064 A 
ATOM     91  C   UNL     1      -3.053  -8.536  19.893  1.00  0.00     0.173 A 
ATOM     92  C   UNL     1      -4.973  -7.171  19.411  1.00  0.00     0.173 A 
ATOM     93  F   UNL     1      -1.855  -9.040  19.561  1.00  0.00    -0.203 F 
ATOM     94  C   UNL     1      -3.641  -8.935  21.091  1.00  0.00     0.198 A 
ATOM     95  C   UNL     1      -5.545  -7.550  20.622  1.00  0.00     0.198 A 
ATOM     96  F   UNL     1      -5.645  -6.323  18.618  1.00  0.00    -0.203 F 
ATOM     97  F   UNL     1      -3.012  -9.814  21.883  1.00  0.00    -0.200 F 
ATOM     98  C   UNL     1      -4.883  -8.437  21.457  1.00  0.00     0.200 A 
ATOM     99  F   UNL     1      -6.739  -7.058  20.980  1.00  0.00    -0.200 F 
ATOM    100  F   UNL     1      -5.446  -8.821  22.611  1.00  0.00    -0.200 F 
ENDBRANCH  67  90
ENDBRANCH  41  42
ENDBRANCH  34  36
ENDBRANCH  33  34
ENDBRANCH  32  33
ENDBRANCH   1  32
TORSDOF 16
