REMARK SMILES CCC[C@]1(C(=O)OCCOC(=O)c2ccc(-c3c4nc(c(-c5c(F)c(F)c(F)c(F)c5F)c5ccc([nH]5)c(-c5c(F)c(F)c(F)c(F)c5F)c5nc(c(-c6c(F)c(F)c(F)c(F)c6F)c6ccc3[nH]6)C=C5)C=C4)cc2)CCN(C(=O)Nc2cccnc2C)C1
REMARK SMILES IDX 8 1 7 2 5 3 6 4 4 5 76 6 89 7 77 8 78 9 3 10 2 11 1 12 79 13
REMARK SMILES IDX 80 14 81 15 82 17 83 18 87 19 84 20 86 21 88 22 85 23 9 24
REMARK SMILES IDX 10 25 11 26 12 27 13 28 14 29 75 30 15 31 74 32 16 33 17 34
REMARK SMILES IDX 18 35 68 36 19 37 73 38 67 39 69 40 20 41 72 42 66 43 65 44
REMARK SMILES IDX 21 46 53 47 33 48 52 49 34 50 37 51 51 52 70 53 35 54 36 55
REMARK SMILES IDX 50 57 71 58 38 59 22 60 23 61 31 62 24 63 25 64 29 65 32 66
REMARK SMILES IDX 26 67 27 68 30 69 28 70 54 71 55 72 63 73 56 74 57 75 61 76
REMARK SMILES IDX 64 77 58 78 59 79 62 80 60 81 39 82 40 83 48 84 41 85 42 86
REMARK SMILES IDX 46 87 49 88 43 89 44 90 47 91 45 92
REMARK H PARENT 81 16 69 45 37 56
REMARK Flexibility Score: inf
ROOT
ATOM      1  C   UNL     1       1.065   1.845   5.921  1.00  0.00     0.274 C 
ENDROOT
BRANCH   1   2
ATOM      2  O   UNL     1       0.548   1.481   4.622  1.00  0.00    -0.462 OA
BRANCH   2   3
ATOM      3  C   UNL     1       1.450   1.068   3.689  1.00  0.00     0.314 C 
ATOM      4  O   UNL     1       2.661   1.032   3.872  1.00  0.00    -0.252 OA
BRANCH   3   5
ATOM      5  C   UNL     1       0.790   0.690   2.353  1.00  0.00     0.087 C 
ATOM      6  C   UNL     1      -0.610   0.076   2.514  1.00  0.00     0.042 C 
ATOM      7  C   UNL     1       0.523   2.016   1.638  1.00  0.00     0.140 C 
ATOM      8  C   UNL     1      -1.420   0.653   1.361  1.00  0.00     0.122 C 
ATOM      9  N   UNL     1      -0.810   1.933   1.059  1.00  0.00    -0.323 N 
BRANCH   5  10
ATOM     10  C   UNL     1       1.758  -0.265   1.591  1.00  0.00     0.020 C 
BRANCH  10  11
ATOM     11  C   UNL     1       1.319  -0.959   0.298  1.00  0.00    -0.002 C 
ATOM     12  C   UNL     1       1.495  -0.110  -0.947  1.00  0.00     0.004 C 
ENDBRANCH  10  11
ENDBRANCH   5  10
BRANCH   9  13
ATOM     13  C   UNL     1      -1.239   2.980   0.297  1.00  0.00     0.321 C 
ATOM     14  O   UNL     1      -0.559   4.008   0.199  1.00  0.00    -0.248 OA
ATOM     15  N   UNL     1      -2.360   2.938  -0.461  1.00  0.00    -0.306 N 
ATOM     16  H   UNL     1      -2.559   3.780  -0.932  1.00  0.00     0.171 HD
BRANCH  15  17
ATOM     17  C   UNL     1      -3.283   1.919  -0.697  1.00  0.00     0.064 A 
ATOM     18  C   UNL     1      -3.267   1.325  -1.960  1.00  0.00     0.030 A 
ATOM     19  C   UNL     1      -4.280   1.537   0.208  1.00  0.00     0.061 A 
ATOM     20  C   UNL     1      -4.159   0.300  -2.250  1.00  0.00     0.022 A 
ATOM     21  N   UNL     1      -5.149   0.526  -0.064  1.00  0.00    -0.259 NA
ATOM     22  C   UNL     1      -4.527   2.251   1.507  1.00  0.00     0.069 C 
ATOM     23  C   UNL     1      -5.061  -0.073  -1.272  1.00  0.00     0.111 A 
ENDBRANCH  15  17
ENDBRANCH   9  13
ENDBRANCH   3   5
ENDBRANCH   2   3
ENDBRANCH   1   2
BRANCH   1  24
ATOM     24  C   UNL     1       0.695   0.775   6.947  1.00  0.00     0.275 C 
BRANCH  24  25
ATOM     25  O   UNL     1       1.317  -0.459   6.555  1.00  0.00    -0.458 OA
BRANCH  25  26
ATOM     26  C   UNL     1       0.564  -1.579   6.657  1.00  0.00     0.338 C 
ATOM     27  O   UNL     1      -0.530  -1.695   7.177  1.00  0.00    -0.246 OA
BRANCH  26  28
ATOM     28  C   UNL     1       1.272  -2.682   5.973  1.00  0.00     0.060 A 
ATOM     29  C   UNL     1       1.862  -2.449   4.733  1.00  0.00     0.016 A 
ATOM     30  C   UNL     1       1.290  -3.965   6.515  1.00  0.00     0.016 A 
ATOM     31  C   UNL     1       2.423  -3.493   4.004  1.00  0.00     0.010 A 
ATOM     32  C   UNL     1       1.945  -4.996   5.826  1.00  0.00     0.010 A 
ATOM     33  C   UNL     1       2.506  -4.778   4.552  1.00  0.00    -0.014 A 
BRANCH  33  34
ATOM     34  C   UNL     1       3.154  -5.886   3.791  1.00  0.00     0.031 A 
ATOM     35  C   UNL     1       2.391  -7.152   3.504  1.00  0.00     0.074 A 
ATOM     36  C   UNL     1       4.420  -5.770   3.338  1.00  0.00     0.049 A 
ATOM     37  N   UNL     1       2.833  -8.308   3.076  1.00  0.00    -0.248 NA
ATOM     38  C   UNL     1       0.940  -7.115   3.741  1.00  0.00     0.031 C 
ATOM     39  C   UNL     1       5.270  -4.587   3.478  1.00  0.00     0.029 A 
ATOM     40  N   UNL     1       5.214  -6.664   2.658  1.00  0.00    -0.354 N 
ATOM     41  C   UNL     1       1.732  -9.154   3.065  1.00  0.00     0.074 A 
ATOM     42  C   UNL     1       0.596  -8.375   3.513  1.00  0.00     0.031 C 
ATOM     43  C   UNL     1       6.442  -4.808   2.865  1.00  0.00     0.029 A 
ATOM     44  C   UNL     1       6.472  -6.184   2.382  1.00  0.00     0.049 A 
ATOM     45  H   UNL     1       4.910  -7.562   2.393  1.00  0.00     0.167 HD
ATOM     46  C   UNL     1       1.678 -10.463   2.722  1.00  0.00     0.037 A 
ATOM     47  C   UNL     1       7.551  -6.793   1.855  1.00  0.00     0.037 A 
ATOM     48  C   UNL     1       2.791 -11.217   2.207  1.00  0.00     0.049 A 
ATOM     49  C   UNL     1       7.478  -8.253   1.510  1.00  0.00     0.074 A 
ATOM     50  C   UNL     1       2.829 -12.544   1.813  1.00  0.00     0.029 A 
ATOM     51  N   UNL     1       4.061 -10.702   1.992  1.00  0.00    -0.354 N 
ATOM     52  N   UNL     1       6.458  -9.071   1.595  1.00  0.00    -0.248 NA
ATOM     53  C   UNL     1       8.717  -8.883   1.032  1.00  0.00     0.031 C 
ATOM     54  C   UNL     1       4.128 -12.839   1.386  1.00  0.00     0.029 A 
ATOM     55  C   UNL     1       4.891 -11.687   1.482  1.00  0.00     0.049 A 
ATOM     56  H   UNL     1       4.332  -9.773   2.175  1.00  0.00     0.167 HD
ATOM     57  C   UNL     1       6.932 -10.311   1.193  1.00  0.00     0.074 A 
ATOM     58  C   UNL     1       8.323 -10.133   0.832  1.00  0.00     0.031 C 
ATOM     59  C   UNL     1       6.276 -11.495   1.141  1.00  0.00     0.037 A 
BRANCH  46  60
ATOM     60  C   UNL     1       0.379 -11.183   2.930  1.00  0.00     0.064 A 
ATOM     61  C   UNL     1      -0.720 -10.998   2.081  1.00  0.00     0.173 A 
ATOM     62  C   UNL     1       0.253 -12.109   3.978  1.00  0.00     0.173 A 
ATOM     63  F   UNL     1      -0.653 -10.113   1.075  1.00  0.00    -0.203 F 
ATOM     64  C   UNL     1      -1.906 -11.700   2.284  1.00  0.00     0.198 A 
ATOM     65  C   UNL     1      -0.925 -12.826   4.164  1.00  0.00     0.198 A 
ATOM     66  F   UNL     1       1.278 -12.325   4.816  1.00  0.00    -0.203 F 
ATOM     67  F   UNL     1      -2.957 -11.481   1.483  1.00  0.00    -0.200 F 
ATOM     68  C   UNL     1      -2.005 -12.618   3.320  1.00  0.00     0.200 A 
ATOM     69  F   UNL     1      -1.015 -13.720   5.159  1.00  0.00    -0.200 F 
ATOM     70  F   UNL     1      -3.144 -13.298   3.508  1.00  0.00    -0.200 F 
ENDBRANCH  46  60
BRANCH  47  71
ATOM     71  C   UNL     1       8.819  -6.035   1.689  1.00  0.00     0.064 A 
ATOM     72  C   UNL     1       9.305  -5.713   0.415  1.00  0.00     0.173 A 
ATOM     73  C   UNL     1       9.563  -5.607   2.799  1.00  0.00     0.173 A 
ATOM     74  F   UNL     1       8.646  -6.128  -0.677  1.00  0.00    -0.203 F 
ATOM     75  C   UNL     1      10.486  -4.991   0.258  1.00  0.00     0.198 A 
ATOM     76  C   UNL     1      10.727  -4.860   2.642  1.00  0.00     0.198 A 
ATOM     77  F   UNL     1       9.144  -5.896   4.040  1.00  0.00    -0.203 F 
ATOM     78  F   UNL     1      10.948  -4.725  -0.972  1.00  0.00    -0.200 F 
ATOM     79  C   UNL     1      11.191  -4.556   1.371  1.00  0.00     0.200 A 
ATOM     80  F   UNL     1      11.396  -4.431   3.720  1.00  0.00    -0.200 F 
ATOM     81  F   UNL     1      12.319  -3.850   1.219  1.00  0.00    -0.200 F 
ENDBRANCH  47  71
BRANCH  59  82
ATOM     82  C   UNL     1       7.059 -12.686   0.678  1.00  0.00     0.064 A 
ATOM     83  C   UNL     1       7.992 -13.312   1.517  1.00  0.00     0.173 A 
ATOM     84  C   UNL     1       6.858 -13.219  -0.603  1.00  0.00     0.173 A 
ATOM     85  F   UNL     1       8.230 -12.826   2.744  1.00  0.00    -0.203 F 
ATOM     86  C   UNL     1       8.713 -14.421   1.080  1.00  0.00     0.198 A 
ATOM     87  C   UNL     1       7.565 -14.341  -1.028  1.00  0.00     0.198 A 
ATOM     88  F   UNL     1       5.974 -12.655  -1.439  1.00  0.00    -0.203 F 
ATOM     89  F   UNL     1       9.629 -14.980   1.882  1.00  0.00    -0.200 F 
ATOM     90  C   UNL     1       8.495 -14.936  -0.189  1.00  0.00     0.200 A 
ATOM     91  F   UNL     1       7.350 -14.842  -2.252  1.00  0.00    -0.200 F 
ATOM     92  F   UNL     1       9.190 -16.003  -0.608  1.00  0.00    -0.200 F 
ENDBRANCH  59  82
ENDBRANCH  33  34
ENDBRANCH  26  28
ENDBRANCH  25  26
ENDBRANCH  24  25
ENDBRANCH   1  24
TORSDOF 15
