REMARK SMILES CCN(c1cccc(C)c1)c1nc(OCC(=O)OCCOC(=O)c2ccc(-c3c4nc(c(-c5c(F)c(F)c(F)c(F)c5F)c5ccc([nH]5)c(-c5c(F)c(F)c(F)c(F)c5F)c5nc(c(-c6c(F)c(F)c(F)c(F)c6F)c6ccc3[nH]6)C=C5)C=C4)cc2)cc(-c2ccc(C)cc2)n1
REMARK SMILES IDX 19 1 18 2 16 3 17 4 15 5 14 6 13 7 11 8 12 9 96 10 88 11
REMARK SMILES IDX 87 12 3 13 2 14 1 15 4 16 5 17 10 18 6 19 8 20 7 21 9 22
REMARK SMILES IDX 89 23 90 24 95 25 91 26 94 27 92 28 93 29 20 30 21 31 22 32
REMARK SMILES IDX 23 33 24 34 25 35 86 36 26 37 85 38 27 39 28 40 29 41 79 42
REMARK SMILES IDX 30 43 84 44 78 45 80 46 31 47 83 48 77 49 76 50 32 52 64 53
REMARK SMILES IDX 44 54 63 55 45 56 48 57 62 58 81 59 46 60 47 61 61 63 82 64
REMARK SMILES IDX 49 65 33 66 34 67 42 68 35 69 36 70 40 71 43 72 37 73 38 74
REMARK SMILES IDX 41 75 39 76 65 77 66 78 74 79 67 80 68 81 72 82 75 83 69 84
REMARK SMILES IDX 70 85 73 86 71 87 50 88 51 89 59 90 52 91 53 92 57 93 60 94
REMARK SMILES IDX 54 95 55 96 58 97 56 98
REMARK H PARENT 80 51 48 62
REMARK Flexibility Score: inf
ROOT
ATOM      1  C   UNL     1       5.426  -1.400   4.507  1.00  0.00     0.274 C 
ENDROOT
BRANCH   1   2
ATOM      2  O   UNL     1       4.974  -0.051   4.397  1.00  0.00    -0.460 OA
BRANCH   2   3
ATOM      3  C   UNL     1       4.870   0.614   5.578  1.00  0.00     0.344 C 
ATOM      4  O   UNL     1       5.089   0.106   6.676  1.00  0.00    -0.248 OA
BRANCH   3   5
ATOM      5  C   UNL     1       4.608   2.122   5.402  1.00  0.00     0.353 C 
BRANCH   5   6
ATOM      6  O   UNL     1       4.110   2.841   4.295  1.00  0.00    -0.466 OA
BRANCH   6   7
ATOM      7  C   UNL     1       3.700   2.087   3.233  1.00  0.00     0.219 A 
ATOM      8  C   UNL     1       1.957   1.135   2.100  1.00  0.00     0.233 A 
ATOM      9  N   UNL     1       2.433   1.681   3.239  1.00  0.00    -0.177 NA
ATOM     10  N   UNL     1       2.736   0.859   1.043  1.00  0.00    -0.212 NA
ATOM     11  C   UNL     1       3.991   1.330   1.055  1.00  0.00     0.080 A 
ATOM     12  C   UNL     1       4.512   2.000   2.138  1.00  0.00     0.097 A 
BRANCH   8  13
ATOM     13  N   UNL     1       0.566   1.029   1.957  1.00  0.00    -0.311 N 
BRANCH  13  14
ATOM     14  C   UNL     1       0.048  -0.177   1.304  1.00  0.00     0.122 C 
ATOM     15  C   UNL     1       0.384  -0.288  -0.181  1.00  0.00     0.028 C 
ENDBRANCH  13  14
BRANCH  13  16
ATOM     16  C   UNL     1      -0.313   1.957   2.544  1.00  0.00     0.044 A 
ATOM     17  C   UNL     1      -1.423   1.575   3.303  1.00  0.00     0.026 A 
ATOM     18  C   UNL     1      -0.028   3.337   2.454  1.00  0.00     0.029 A 
ATOM     19  C   UNL     1      -2.192   2.530   3.976  1.00  0.00     0.002 A 
ATOM     20  C   UNL     1      -0.792   4.305   3.120  1.00  0.00    -0.049 A 
ATOM     21  C   UNL     1      -1.875   3.887   3.891  1.00  0.00     0.003 A 
ATOM     22  C   UNL     1      -0.406   5.751   3.024  1.00  0.00     0.044 C 
ENDBRANCH  13  16
ENDBRANCH   8  13
BRANCH  11  23
ATOM     23  C   UNL     1       4.760   1.174  -0.182  1.00  0.00     0.000 A 
ATOM     24  C   UNL     1       5.394  -0.035  -0.492  1.00  0.00     0.010 A 
ATOM     25  C   UNL     1       4.974   2.265  -1.033  1.00  0.00     0.010 A 
ATOM     26  C   UNL     1       6.363  -0.102  -1.496  1.00  0.00     0.004 A 
ATOM     27  C   UNL     1       5.892   2.182  -2.085  1.00  0.00     0.004 A 
ATOM     28  C   UNL     1       6.646   1.020  -2.276  1.00  0.00    -0.051 A 
ATOM     29  C   UNL     1       7.726   0.972  -3.313  1.00  0.00     0.044 C 
ENDBRANCH  11  23
ENDBRANCH   6   7
ENDBRANCH   5   6
ENDBRANCH   3   5
ENDBRANCH   2   3
ENDBRANCH   1   2
BRANCH   1  30
ATOM     30  C   UNL     1       5.881  -1.959   3.150  1.00  0.00     0.275 C 
BRANCH  30  31
ATOM     31  O   UNL     1       6.440  -1.084   2.117  1.00  0.00    -0.458 OA
BRANCH  31  32
ATOM     32  C   UNL     1       7.297  -0.038   2.145  1.00  0.00     0.338 C 
ATOM     33  O   UNL     1       7.684   0.593   1.185  1.00  0.00    -0.246 OA
BRANCH  32  34
ATOM     34  C   UNL     1       7.798   0.349   3.434  1.00  0.00     0.060 A 
ATOM     35  C   UNL     1       7.768   1.704   3.816  1.00  0.00     0.016 A 
ATOM     36  C   UNL     1       8.328  -0.667   4.209  1.00  0.00     0.016 A 
ATOM     37  C   UNL     1       8.294   2.054   5.034  1.00  0.00     0.010 A 
ATOM     38  C   UNL     1       8.669  -0.358   5.480  1.00  0.00     0.010 A 
ATOM     39  C   UNL     1       8.773   1.007   5.805  1.00  0.00    -0.014 A 
BRANCH  39  40
ATOM     40  C   UNL     1       9.807   1.206   6.785  1.00  0.00     0.031 A 
ATOM     41  C   UNL     1       9.389   1.292   8.177  1.00  0.00     0.074 A 
ATOM     42  C   UNL     1      10.983   0.847   6.215  1.00  0.00     0.049 A 
ATOM     43  N   UNL     1      10.151   1.633   9.147  1.00  0.00    -0.248 NA
ATOM     44  C   UNL     1       8.005   1.059   8.602  1.00  0.00     0.031 C 
ATOM     45  C   UNL     1      12.171   0.205   6.739  1.00  0.00     0.029 A 
ATOM     46  N   UNL     1      11.292   1.028   4.846  1.00  0.00    -0.354 N 
ATOM     47  C   UNL     1       9.528   1.159  10.283  1.00  0.00     0.074 A 
ATOM     48  C   UNL     1       8.136   1.061   9.932  1.00  0.00     0.031 C 
ATOM     49  C   UNL     1      13.171   0.366   5.845  1.00  0.00     0.029 A 
ATOM     50  C   UNL     1      12.671   1.239   4.785  1.00  0.00     0.049 A 
ATOM     51  H   UNL     1      10.662   1.010   4.090  1.00  0.00     0.167 HD
ATOM     52  C   UNL     1      10.321   0.626  11.259  1.00  0.00     0.037 A 
ATOM     53  C   UNL     1      13.074   2.526   4.560  1.00  0.00     0.037 A 
ATOM     54  C   UNL     1      11.726   0.718  10.830  1.00  0.00     0.049 A 
ATOM     55  C   UNL     1      13.671   3.088   5.829  1.00  0.00     0.074 A 
ATOM     56  C   UNL     1      12.595  -0.215  10.284  1.00  0.00     0.029 A 
ATOM     57  N   UNL     1      12.266   1.968  10.534  1.00  0.00    -0.354 N 
ATOM     58  N   UNL     1      13.251   2.812   7.038  1.00  0.00    -0.248 NA
ATOM     59  C   UNL     1      14.892   3.879   5.812  1.00  0.00     0.031 C 
ATOM     60  C   UNL     1      13.633   0.492   9.614  1.00  0.00     0.029 A 
ATOM     61  C   UNL     1      13.375   1.850   9.717  1.00  0.00     0.049 A 
ATOM     62  H   UNL     1      11.905   2.822  10.864  1.00  0.00     0.167 HD
ATOM     63  C   UNL     1      14.171   3.274   7.944  1.00  0.00     0.074 A 
ATOM     64  C   UNL     1      15.164   3.954   7.125  1.00  0.00     0.031 C 
ATOM     65  C   UNL     1      14.105   3.036   9.290  1.00  0.00     0.037 A 
BRANCH  52  66
ATOM     66  C   UNL     1       9.862  -0.261  12.403  1.00  0.00     0.064 A 
ATOM     67  C   UNL     1      10.795  -1.075  13.088  1.00  0.00     0.173 A 
ATOM     68  C   UNL     1       8.542  -0.369  12.884  1.00  0.00     0.173 A 
ATOM     69  F   UNL     1      12.103  -1.034  12.804  1.00  0.00    -0.203 F 
ATOM     70  C   UNL     1      10.429  -1.958  14.109  1.00  0.00     0.198 A 
ATOM     71  C   UNL     1       8.170  -1.273  13.888  1.00  0.00     0.198 A 
ATOM     72  F   UNL     1       7.564   0.431  12.451  1.00  0.00    -0.203 F 
ATOM     73  F   UNL     1      11.368  -2.699  14.713  1.00  0.00    -0.200 F 
ATOM     74  C   UNL     1       9.113  -2.069  14.500  1.00  0.00     0.200 A 
ATOM     75  F   UNL     1       6.886  -1.352  14.267  1.00  0.00    -0.200 F 
ATOM     76  F   UNL     1       8.761  -2.914  15.477  1.00  0.00    -0.200 F 
ENDBRANCH  52  66
BRANCH  53  77
ATOM     77  C   UNL     1      12.173   3.249   3.596  1.00  0.00     0.064 A 
ATOM     78  C   UNL     1      12.011   2.705   2.298  1.00  0.00     0.173 A 
ATOM     79  C   UNL     1      11.224   4.198   3.998  1.00  0.00     0.173 A 
ATOM     80  F   UNL     1      12.883   1.787   1.847  1.00  0.00    -0.203 F 
ATOM     81  C   UNL     1      10.904   3.003   1.500  1.00  0.00     0.198 A 
ATOM     82  C   UNL     1      10.121   4.506   3.188  1.00  0.00     0.198 A 
ATOM     83  F   UNL     1      11.295   4.759   5.213  1.00  0.00    -0.203 F 
ATOM     84  F   UNL     1      10.739   2.382   0.323  1.00  0.00    -0.200 F 
ATOM     85  C   UNL     1       9.946   3.888   1.957  1.00  0.00     0.200 A 
ATOM     86  F   UNL     1       9.171   5.338   3.641  1.00  0.00    -0.200 F 
ATOM     87  F   UNL     1       8.833   4.112   1.243  1.00  0.00    -0.200 F 
ENDBRANCH  53  77
BRANCH  65  88
ATOM     88  C   UNL     1      14.806   3.854  10.353  1.00  0.00     0.064 A 
ATOM     89  C   UNL     1      15.301   5.150  10.139  1.00  0.00     0.173 A 
ATOM     90  C   UNL     1      14.839   3.414  11.703  1.00  0.00     0.173 A 
ATOM     91  F   UNL     1      15.196   5.760   8.952  1.00  0.00    -0.203 F 
ATOM     92  C   UNL     1      15.867   5.906  11.166  1.00  0.00     0.198 A 
ATOM     93  C   UNL     1      15.316   4.210  12.739  1.00  0.00     0.198 A 
ATOM     94  F   UNL     1      14.377   2.212  12.076  1.00  0.00    -0.203 F 
ATOM     95  F   UNL     1      16.391   7.106  10.886  1.00  0.00    -0.200 F 
ATOM     96  C   UNL     1      15.857   5.446  12.467  1.00  0.00     0.200 A 
ATOM     97  F   UNL     1      15.222   3.778  14.005  1.00  0.00    -0.200 F 
ATOM     98  F   UNL     1      16.346   6.202  13.458  1.00  0.00    -0.200 F 
ENDBRANCH  65  88
ENDBRANCH  39  40
ENDBRANCH  32  34
ENDBRANCH  31  32
ENDBRANCH  30  31
ENDBRANCH   1  30
TORSDOF 17
