REMARK SMILES O=C(Cn1ncc2ccccc2c1=O)N[C@@H]1C[NH2+][C@H](C(=O)OCCOC(=O)c2ccc(-c3c4nc(c(-c5c(F)c(F)c(F)c(F)c5F)c5ccc([nH]5)c(-c5c(F)c(F)c(F)c(F)c5F)c5nc(c(-c6c(F)c(F)c(F)c(F)c6F)c6ccc3[nH]6)C=C5)C=C4)cc2)C1
REMARK SMILES IDX 23 1 22 2 20 3 21 4 19 5 16 6 17 7 91 8 18 9 15 12 1 13 2 14
REMARK SMILES IDX 3 16 4 17 5 18 13 19 6 20 12 21 14 22 7 23 11 24 8 25 10 26
REMARK SMILES IDX 9 27 24 28 25 29 26 30 27 31 28 32 29 33 90 34 30 35 89 36
REMARK SMILES IDX 31 37 32 38 33 39 83 40 34 41 88 42 82 43 84 44 35 45 87 46
REMARK SMILES IDX 81 47 80 48 36 50 68 51 48 52 67 53 49 54 52 55 66 56 85 57
REMARK SMILES IDX 50 58 51 59 65 61 86 62 53 63 37 64 38 65 46 66 39 67 40 68
REMARK SMILES IDX 44 69 47 70 41 71 42 72 45 73 43 74 69 75 70 76 78 77 71 78
REMARK SMILES IDX 72 79 76 80 79 81 73 82 74 83 77 84 75 85 54 86 55 87 63 88
REMARK SMILES IDX 56 89 57 90 61 91 64 92 58 93 59 94 62 95 60 96
REMARK H PARENT 18 10 18 11 15 15 84 49 52 60
REMARK Flexibility Score: inf
ROOT
ATOM      1  C   UNL     1      -3.186   0.067   2.393  1.00  0.00     0.274 C 
ENDROOT
BRANCH   1   2
ATOM      2  O   UNL     1      -1.785   0.320   2.627  1.00  0.00    -0.458 OA
BRANCH   2   3
ATOM      3  C   UNL     1      -1.133  -0.578   3.420  1.00  0.00     0.365 C 
ATOM      4  O   UNL     1      -1.685  -1.514   3.990  1.00  0.00    -0.245 OA
BRANCH   3   5
ATOM      5  C   UNL     1       0.354  -0.208   3.611  1.00  0.00     0.295 C 
ATOM      6  C   UNL     1       2.380  -0.084   2.311  1.00  0.00     0.143 C 
ATOM      7  C   UNL     1       2.091  -1.533   2.672  1.00  0.00     0.286 C 
ATOM      8  C   UNL     1       1.007   0.558   2.457  1.00  0.00     0.108 C 
ATOM      9  N   UNL     1       1.185  -1.435   3.832  1.00  0.00    -0.333 N 
ATOM     10  H   UNL     1       1.724  -1.346   4.694  1.00  0.00     0.347 HD
ATOM     11  H   UNL     1       0.603  -2.267   3.920  1.00  0.00     0.347 HD
BRANCH   6  12
ATOM     12  N   UNL     1       3.030   0.189   1.047  1.00  0.00    -0.346 N 
ATOM     13  O   UNL     1       1.951  -1.324  -0.304  1.00  0.00    -0.273 OA
ATOM     14  C   UNL     1       2.691  -0.354  -0.173  1.00  0.00     0.242 C 
ATOM     15  H   UNL     1       3.784   0.822   1.060  1.00  0.00     0.164 HD
BRANCH  14  16
ATOM     16  C   UNL     1       3.402   0.260  -1.380  1.00  0.00     0.248 C 
BRANCH  16  17
ATOM     17  N   UNL     1       4.117   1.502  -1.074  1.00  0.00    -0.220 N 
ATOM     18  N   UNL     1       5.430   1.366  -0.675  1.00  0.00    -0.177 NA
ATOM     19  C   UNL     1       3.455   2.724  -1.202  1.00  0.00     0.275 A 
ATOM     20  C   UNL     1       6.126   2.440  -0.479  1.00  0.00     0.142 A 
ATOM     21  C   UNL     1       4.265   3.933  -0.966  1.00  0.00     0.050 A 
ATOM     22  O   UNL     1       2.269   2.841  -1.494  1.00  0.00    -0.267 OA
ATOM     23  C   UNL     1       5.602   3.791  -0.628  1.00  0.00     0.007 A 
ATOM     24  C   UNL     1       3.716   5.213  -1.092  1.00  0.00     0.014 A 
ATOM     25  C   UNL     1       6.420   4.904  -0.424  1.00  0.00     0.010 A 
ATOM     26  C   UNL     1       4.524   6.335  -0.888  1.00  0.00     0.001 A 
ATOM     27  C   UNL     1       5.873   6.181  -0.560  1.00  0.00     0.001 A 
ENDBRANCH  16  17
ENDBRANCH  14  16
ENDBRANCH   6  12
ENDBRANCH   3   5
ENDBRANCH   2   3
ENDBRANCH   1   2
BRANCH   1  28
ATOM     28  C   UNL     1      -3.425  -0.612   1.043  1.00  0.00     0.275 C 
BRANCH  28  29
ATOM     29  O   UNL     1      -2.929  -1.962   1.046  1.00  0.00    -0.458 OA
BRANCH  29  30
ATOM     30  C   UNL     1      -1.697  -2.105   0.502  1.00  0.00     0.338 C 
ATOM     31  O   UNL     1      -1.024  -1.233  -0.014  1.00  0.00    -0.246 OA
BRANCH  30  32
ATOM     32  C   UNL     1      -1.246  -3.496   0.662  1.00  0.00     0.060 A 
ATOM     33  C   UNL     1      -1.466  -4.433  -0.345  1.00  0.00     0.016 A 
ATOM     34  C   UNL     1      -0.503  -3.838   1.790  1.00  0.00     0.016 A 
ATOM     35  C   UNL     1      -0.947  -5.725  -0.204  1.00  0.00     0.010 A 
ATOM     36  C   UNL     1       0.082  -5.097   1.892  1.00  0.00     0.010 A 
ATOM     37  C   UNL     1      -0.159  -6.066   0.912  1.00  0.00    -0.014 A 
BRANCH  37  38
ATOM     38  C   UNL     1       0.392  -7.436   1.079  1.00  0.00     0.031 A 
ATOM     39  C   UNL     1      -0.071  -8.304   2.219  1.00  0.00     0.074 A 
ATOM     40  C   UNL     1       1.333  -7.892   0.230  1.00  0.00     0.049 A 
ATOM     41  N   UNL     1       0.261  -9.538   2.508  1.00  0.00    -0.248 NA
ATOM     42  C   UNL     1      -1.011  -7.700   3.177  1.00  0.00     0.031 C 
ATOM     43  C   UNL     1       1.929  -7.123  -0.862  1.00  0.00     0.029 A 
ATOM     44  N   UNL     1       1.948  -9.118   0.150  1.00  0.00    -0.354 N 
ATOM     45  C   UNL     1      -0.423  -9.849   3.676  1.00  0.00     0.074 A 
ATOM     46  C   UNL     1      -1.136  -8.659   4.081  1.00  0.00     0.031 C 
ATOM     47  C   UNL     1       2.787  -7.909  -1.534  1.00  0.00     0.029 A 
ATOM     48  C   UNL     1       2.813  -9.230  -0.910  1.00  0.00     0.049 A 
ATOM     49  H   UNL     1       1.784  -9.846   0.792  1.00  0.00     0.167 HD
ATOM     50  C   UNL     1      -0.482 -11.031   4.334  1.00  0.00     0.037 A 
ATOM     51  C   UNL     1       3.528 -10.287  -1.343  1.00  0.00     0.037 A 
ATOM     52  C   UNL     1       0.199 -12.226   3.916  1.00  0.00     0.049 A 
ATOM     53  C   UNL     1       3.419 -11.601  -0.619  1.00  0.00     0.074 A 
ATOM     54  C   UNL     1       0.149 -13.490   4.477  1.00  0.00     0.029 A 
ATOM     55  N   UNL     1       1.050 -12.304   2.824  1.00  0.00    -0.354 N 
ATOM     56  N   UNL     1       2.703 -11.907   0.435  1.00  0.00    -0.248 NA
ATOM     57  C   UNL     1       4.210 -12.720  -1.151  1.00  0.00     0.031 C 
ATOM     58  C   UNL     1       0.993 -14.327   3.741  1.00  0.00     0.029 A 
ATOM     59  C   UNL     1       1.541 -13.593   2.701  1.00  0.00     0.049 A 
ATOM     60  H   UNL     1       1.273 -11.554   2.226  1.00  0.00     0.167 HD
ATOM     61  C   UNL     1       2.940 -13.252   0.682  1.00  0.00     0.074 A 
ATOM     62  C   UNL     1       3.855 -13.710  -0.342  1.00  0.00     0.031 C 
ATOM     63  C   UNL     1       2.446 -14.034   1.672  1.00  0.00     0.037 A 
BRANCH  50  64
ATOM     64  C   UNL     1      -1.344 -11.099   5.560  1.00  0.00     0.064 A 
ATOM     65  C   UNL     1      -2.744 -11.075   5.465  1.00  0.00     0.173 A 
ATOM     66  C   UNL     1      -0.774 -11.238   6.834  1.00  0.00     0.173 A 
ATOM     67  F   UNL     1      -3.337 -10.937   4.269  1.00  0.00    -0.203 F 
ATOM     68  C   UNL     1      -3.541 -11.161   6.603  1.00  0.00     0.198 A 
ATOM     69  C   UNL     1      -1.575 -11.351   7.967  1.00  0.00     0.198 A 
ATOM     70  F   UNL     1       0.559 -11.277   6.979  1.00  0.00    -0.203 F 
ATOM     71  F   UNL     1      -4.875 -11.096   6.491  1.00  0.00    -0.200 F 
ATOM     72  C   UNL     1      -2.957 -11.306   7.851  1.00  0.00     0.200 A 
ATOM     73  F   UNL     1      -1.010 -11.505   9.173  1.00  0.00    -0.200 F 
ATOM     74  F   UNL     1      -3.726 -11.401   8.945  1.00  0.00    -0.200 F 
ENDBRANCH  50  64
BRANCH  51  75
ATOM     75  C   UNL     1       4.351 -10.162  -2.573  1.00  0.00     0.064 A 
ATOM     76  C   UNL     1       3.937 -10.764  -3.770  1.00  0.00     0.173 A 
ATOM     77  C   UNL     1       5.546  -9.430  -2.587  1.00  0.00     0.173 A 
ATOM     78  F   UNL     1       2.812 -11.493  -3.798  1.00  0.00    -0.203 F 
ATOM     79  C   UNL     1       4.694 -10.645  -4.933  1.00  0.00     0.198 A 
ATOM     80  C   UNL     1       6.291  -9.295  -3.756  1.00  0.00     0.198 A 
ATOM     81  F   UNL     1       5.983  -8.837  -1.466  1.00  0.00    -0.203 F 
ATOM     82  F   UNL     1       4.293 -11.257  -6.056  1.00  0.00    -0.200 F 
ATOM     83  C   UNL     1       5.866  -9.905  -4.928  1.00  0.00     0.200 A 
ATOM     84  F   UNL     1       7.420  -8.573  -3.750  1.00  0.00    -0.200 F 
ATOM     85  F   UNL     1       6.591  -9.787  -6.049  1.00  0.00    -0.200 F 
ENDBRANCH  51  75
BRANCH  63  86
ATOM     86  C   UNL     1       2.870 -15.471   1.698  1.00  0.00     0.064 A 
ATOM     87  C   UNL     1       4.147 -15.845   2.138  1.00  0.00     0.173 A 
ATOM     88  C   UNL     1       1.964 -16.487   1.358  1.00  0.00     0.173 A 
ATOM     89  F   UNL     1       5.051 -14.908   2.463  1.00  0.00    -0.203 F 
ATOM     90  C   UNL     1       4.506 -17.187   2.228  1.00  0.00     0.198 A 
ATOM     91  C   UNL     1       2.319 -17.828   1.472  1.00  0.00     0.198 A 
ATOM     92  F   UNL     1       0.728 -16.178   0.939  1.00  0.00    -0.203 F 
ATOM     93  F   UNL     1       5.740 -17.523   2.628  1.00  0.00    -0.200 F 
ATOM     94  C   UNL     1       3.589 -18.177   1.905  1.00  0.00     0.200 A 
ATOM     95  F   UNL     1       1.428 -18.783   1.171  1.00  0.00    -0.200 F 
ATOM     96  F   UNL     1       3.932 -19.468   2.008  1.00  0.00    -0.200 F 
ENDBRANCH  63  86
ENDBRANCH  37  38
ENDBRANCH  30  32
ENDBRANCH  29  30
ENDBRANCH  28  29
ENDBRANCH   1  28
TORSDOF 14
