REMARK SMILES CCOc1ccc(-c2cnc(N)cc2C(=O)OCCOC(=O)c2ccc(-c3c4nc(c(-c5c(F)c(F)c(F)c(F)c5F)c5ccc([nH]5)c(-c5c(F)c(F)c(F)c(F)c5F)c5nc(c(-c6c(F)c(F)c(F)c(F)c6F)c6ccc3[nH]6)C=C5)C=C4)cc2)c(Cl)c1
REMARK SMILES IDX 18 1 17 2 15 3 16 4 14 5 8 6 9 7 10 8 13 9 11 10 7 11 4 12
REMARK SMILES IDX 5 13 88 14 6 15 86 16 87 17 3 18 2 19 1 20 12 21 19 24 20 25
REMARK SMILES IDX 21 26 22 27 23 28 24 29 85 30 25 31 84 32 26 33 27 34 28 35
REMARK SMILES IDX 78 36 29 37 83 38 77 39 79 40 30 41 82 42 76 43 75 44 31 46
REMARK SMILES IDX 63 47 43 48 62 49 44 50 47 51 61 52 80 53 45 54 46 55 60 57
REMARK SMILES IDX 81 58 48 59 32 60 33 61 41 62 34 63 35 64 39 65 42 66 36 67
REMARK SMILES IDX 37 68 40 69 38 70 64 71 65 72 73 73 66 74 67 75 71 76 74 77
REMARK SMILES IDX 68 78 69 79 72 80 70 81 49 82 50 83 58 84 51 85 52 86 56 87
REMARK SMILES IDX 59 88 53 89 54 90 57 91 55 92
REMARK H PARENT 12 22 12 23 79 45 47 56
REMARK Flexibility Score: inf
ROOT
ATOM      1  C   UNL     1       7.378  -5.177   3.173  1.00  0.00     0.275 C 
ENDROOT
BRANCH   1   2
ATOM      2  O   UNL     1       7.669  -3.866   3.704  1.00  0.00    -0.458 OA
BRANCH   2   3
ATOM      3  C   UNL     1       7.492  -2.836   2.842  1.00  0.00     0.339 C 
ATOM      4  O   UNL     1       7.158  -2.909   1.671  1.00  0.00    -0.246 OA
BRANCH   3   5
ATOM      5  C   UNL     1       7.861  -1.564   3.489  1.00  0.00     0.073 A 
ATOM      6  C   UNL     1       6.944  -0.516   3.693  1.00  0.00     0.016 A 
ATOM      7  C   UNL     1       7.504   0.679   4.118  1.00  0.00     0.123 A 
ATOM      8  N   UNL     1       8.837   0.887   4.296  1.00  0.00    -0.239 NA
ATOM      9  C   UNL     1       9.231  -1.383   3.693  1.00  0.00     0.062 A 
ATOM     10  C   UNL     1       9.677  -0.138   4.076  1.00  0.00     0.124 A 
BRANCH   6  11
ATOM     11  C   UNL     1       5.529  -0.611   3.305  1.00  0.00     0.003 A 
ATOM     12  C   UNL     1       2.291  -1.645   1.790  1.00  0.00     0.120 A 
ATOM     13  C   UNL     1       3.675  -1.192   0.847  1.00  0.00     0.047 A 
ATOM     14  C   UNL     1       2.421  -1.619   3.571  1.00  0.00     0.067 A 
ATOM     15  C   UNL     1       5.223  -0.702   1.556  1.00  0.00     0.014 A 
ATOM     16  C   UNL     1       4.153  -1.010   4.438  1.00  0.00     0.052 A 
ATOM     17  Cl  UNL     1       4.783  -0.701   6.120  1.00  0.00    -0.084 Cl
BRANCH  12  18
ATOM     18  O   UNL     1       1.001  -1.717   1.354  1.00  0.00    -0.494 OA
BRANCH  18  19
ATOM     19  C   UNL     1       0.761  -2.194   0.042  1.00  0.00     0.226 C 
ATOM     20  C   UNL     1       0.673  -1.080  -0.985  1.00  0.00     0.049 C 
ENDBRANCH  18  19
ENDBRANCH  12  18
ENDBRANCH   6  11
BRANCH  10  21
ATOM     21  N   UNL     1      11.029   0.132   4.115  1.00  0.00    -0.384 N 
ATOM     22  H   UNL     1      11.346   1.022   4.389  1.00  0.00     0.158 HD
ATOM     23  H   UNL     1      11.678  -0.567   3.868  1.00  0.00     0.158 HD
ENDBRANCH  10  21
ENDBRANCH   3   5
ENDBRANCH   2   3
ENDBRANCH   1   2
BRANCH   1  24
ATOM     24  C   UNL     1       6.162  -5.769   3.877  1.00  0.00     0.275 C 
BRANCH  24  25
ATOM     25  O   UNL     1       5.030  -4.914   3.632  1.00  0.00    -0.458 OA
BRANCH  25  26
ATOM     26  C   UNL     1       4.590  -4.247   4.717  1.00  0.00     0.338 C 
ATOM     27  O   UNL     1       4.924  -4.414   5.879  1.00  0.00    -0.246 OA
BRANCH  26  28
ATOM     28  C   UNL     1       3.712  -3.139   4.327  1.00  0.00     0.060 A 
ATOM     29  C   UNL     1       4.101  -2.128   2.898  1.00  0.00     0.016 A 
ATOM     30  C   UNL     1       2.721  -2.432   5.593  1.00  0.00     0.016 A 
ATOM     31  C   UNL     1       3.457  -0.206   2.880  1.00  0.00     0.010 A 
ATOM     32  C   UNL     1       2.087  -0.762   5.532  1.00  0.00     0.010 A 
ATOM     33  C   UNL     1       2.408   0.397   4.215  1.00  0.00    -0.014 A 
BRANCH  33  34
ATOM     34  C   UNL     1       1.473   1.603   4.024  1.00  0.00     0.031 A 
ATOM     35  C   UNL     1       0.760   2.213   5.224  1.00  0.00     0.074 A 
ATOM     36  C   UNL     1       1.069   2.055   2.804  1.00  0.00     0.049 A 
ATOM     37  N   UNL     1      -0.331   2.947   5.274  1.00  0.00    -0.248 NA
ATOM     38  C   UNL     1       1.345   1.955   6.546  1.00  0.00     0.031 C 
ATOM     39  C   UNL     1       1.639   1.755   1.498  1.00  0.00     0.029 A 
ATOM     40  N   UNL     1      -0.017   2.852   2.457  1.00  0.00    -0.354 N 
ATOM     41  C   UNL     1      -0.569   3.195   6.622  1.00  0.00     0.074 A 
ATOM     42  C   UNL     1       0.410   2.425   7.359  1.00  0.00     0.031 C 
ATOM     43  C   UNL     1       0.867   2.217   0.514  1.00  0.00     0.029 A 
ATOM     44  C   UNL     1      -0.271   2.877   1.099  1.00  0.00     0.049 A 
ATOM     45  H   UNL     1      -0.553   3.351   3.115  1.00  0.00     0.167 HD
ATOM     46  C   UNL     1      -1.452   4.049   7.203  1.00  0.00     0.037 A 
ATOM     47  C   UNL     1      -1.276   3.358   0.345  1.00  0.00     0.037 A 
ATOM     48  C   UNL     1      -2.354   4.913   6.482  1.00  0.00     0.049 A 
ATOM     49  C   UNL     1      -2.304   4.215   0.986  1.00  0.00     0.074 A 
ATOM     50  C   UNL     1      -3.179   5.910   6.978  1.00  0.00     0.029 A 
ATOM     51  N   UNL     1      -2.541   4.895   5.108  1.00  0.00    -0.354 N 
ATOM     52  N   UNL     1      -2.467   4.479   2.254  1.00  0.00    -0.248 NA
ATOM     53  C   UNL     1      -3.223   4.921   0.085  1.00  0.00     0.031 C 
ATOM     54  C   UNL     1      -3.895   6.465   5.911  1.00  0.00     0.029 A 
ATOM     55  C   UNL     1      -3.486   5.846   4.744  1.00  0.00     0.049 A 
ATOM     56  H   UNL     1      -2.073   4.296   4.482  1.00  0.00     0.167 HD
ATOM     57  C   UNL     1      -3.450   5.449   2.304  1.00  0.00     0.074 A 
ATOM     58  C   UNL     1      -3.869   5.699   0.940  1.00  0.00     0.031 C 
ATOM     59  C   UNL     1      -3.919   6.100   3.394  1.00  0.00     0.037 A 
BRANCH  46  60
ATOM     60  C   UNL     1      -1.439   4.142   8.709  1.00  0.00     0.064 A 
ATOM     61  C   UNL     1      -0.331   4.654   9.407  1.00  0.00     0.173 A 
ATOM     62  C   UNL     1      -2.550   3.736   9.466  1.00  0.00     0.173 A 
ATOM     63  F   UNL     1       0.756   5.067   8.738  1.00  0.00    -0.203 F 
ATOM     64  C   UNL     1      -0.309   4.692  10.799  1.00  0.00     0.198 A 
ATOM     65  C   UNL     1      -2.540   3.814  10.858  1.00  0.00     0.198 A 
ATOM     66  F   UNL     1      -3.649   3.266   8.858  1.00  0.00    -0.203 F 
ATOM     67  F   UNL     1       0.792   5.110  11.438  1.00  0.00    -0.200 F 
ATOM     68  C   UNL     1      -1.414   4.275  11.523  1.00  0.00     0.200 A 
ATOM     69  F   UNL     1      -3.618   3.434  11.557  1.00  0.00    -0.200 F 
ATOM     70  F   UNL     1      -1.390   4.310  12.863  1.00  0.00    -0.200 F 
ENDBRANCH  46  60
BRANCH  47  71
ATOM     71  C   UNL     1      -1.281   3.117  -1.124  1.00  0.00     0.064 A 
ATOM     72  C   UNL     1      -0.795   4.080  -2.018  1.00  0.00     0.173 A 
ATOM     73  C   UNL     1      -1.717   1.893  -1.653  1.00  0.00     0.173 A 
ATOM     74  F   UNL     1      -0.375   5.267  -1.556  1.00  0.00    -0.203 F 
ATOM     75  C   UNL     1      -0.752   3.833  -3.388  1.00  0.00     0.198 A 
ATOM     76  C   UNL     1      -1.653   1.639  -3.023  1.00  0.00     0.198 A 
ATOM     77  F   UNL     1      -2.186   0.938  -0.839  1.00  0.00    -0.203 F 
ATOM     78  F   UNL     1      -0.301   4.778  -4.223  1.00  0.00    -0.200 F 
ATOM     79  C   UNL     1      -1.173   2.610  -3.889  1.00  0.00     0.200 A 
ATOM     80  F   UNL     1      -2.045   0.450  -3.502  1.00  0.00    -0.200 F 
ATOM     81  F   UNL     1      -1.118   2.368  -5.206  1.00  0.00    -0.200 F 
ENDBRANCH  47  71
BRANCH  59  82
ATOM     82  C   UNL     1      -4.904   7.197   3.145  1.00  0.00     0.064 A 
ATOM     83  C   UNL     1      -6.211   6.933   2.713  1.00  0.00     0.173 A 
ATOM     84  C   UNL     1      -4.525   8.536   3.324  1.00  0.00     0.173 A 
ATOM     85  F   UNL     1      -6.608   5.670   2.495  1.00  0.00    -0.203 F 
ATOM     86  C   UNL     1      -7.096   7.972   2.442  1.00  0.00     0.198 A 
ATOM     87  C   UNL     1      -5.423   9.571   3.084  1.00  0.00     0.198 A 
ATOM     88  F   UNL     1      -3.281   8.841   3.724  1.00  0.00    -0.203 F 
ATOM     89  F   UNL     1      -8.319   7.700   1.968  1.00  0.00    -0.200 F 
ATOM     90  C   UNL     1      -6.704   9.289   2.635  1.00  0.00     0.200 A 
ATOM     91  F   UNL     1      -5.045  10.842   3.277  1.00  0.00    -0.200 F 
ATOM     92  F   UNL     1      -7.558  10.287   2.374  1.00  0.00    -0.200 F 
ENDBRANCH  59  82
ENDBRANCH  33  34
ENDBRANCH  26  28
ENDBRANCH  25  26
ENDBRANCH  24  25
ENDBRANCH   1  24
TORSDOF 15
