REMARK SMILES Cc1cc(=O)n(CC(=O)OCCOC(=O)c2ccc(-c3c4nc(c(-c5c(F)c(F)c(F)c(F)c5F)c5ccc([nH]5)c(-c5c(F)c(F)c(F)c(F)c5F)c5nc(c(-c6c(F)c(F)c(F)c(F)c6F)c6ccc3[nH]6)C=C5)C=C4)cc2)c(N2CCC(C)CC2)n1
REMARK SMILES IDX 11 1 10 2 8 3 9 4 7 5 6 6 1 7 2 8 3 9 87 10 4 11 79 12 5 13
REMARK SMILES IDX 80 14 81 15 86 16 82 17 85 18 83 19 84 20 12 21 13 22 14 23
REMARK SMILES IDX 15 24 16 25 17 26 78 27 18 28 77 29 19 30 20 31 21 32 71 33
REMARK SMILES IDX 22 34 76 35 70 36 72 37 23 38 75 39 69 40 68 41 24 43 56 44
REMARK SMILES IDX 36 45 55 46 37 47 40 48 54 49 73 50 38 51 39 52 53 54 74 55
REMARK SMILES IDX 41 56 25 57 26 58 34 59 27 60 28 61 32 62 35 63 29 64 30 65
REMARK SMILES IDX 33 66 31 67 57 68 58 69 66 70 59 71 60 72 64 73 67 74 61 75
REMARK SMILES IDX 62 76 65 77 63 78 42 79 43 80 51 81 44 82 45 83 49 84 52 85
REMARK SMILES IDX 46 86 47 87 50 88 48 89
REMARK H PARENT 72 42 40 53
REMARK Flexibility Score: inf
ROOT
ATOM      1  C   UNL     1       2.806  -2.811  -6.177  1.00  0.00     0.274 C 
ENDROOT
BRANCH   1   2
ATOM      2  O   UNL     1       1.670  -2.318  -5.435  1.00  0.00    -0.461 OA
BRANCH   2   3
ATOM      3  C   UNL     1       0.454  -2.655  -5.938  1.00  0.00     0.326 C 
ATOM      4  O   UNL     1       0.284  -3.313  -6.963  1.00  0.00    -0.250 OA
BRANCH   3   5
ATOM      5  C   UNL     1      -0.727  -2.071  -5.177  1.00  0.00     0.251 C 
BRANCH   5   6
ATOM      6  N   UNL     1      -0.448  -1.464  -3.881  1.00  0.00    -0.267 N 
ATOM      7  C   UNL     1       0.970   0.246  -0.324  1.00  0.00     0.067 C 
ATOM      8  C   UNL     1       0.427  -0.412  -1.559  1.00  0.00     0.047 A 
ATOM      9  C   UNL     1       0.265  -1.737  -1.597  1.00  0.00     0.095 A 
ATOM     10  N   UNL     1       0.046   0.426  -2.577  1.00  0.00    -0.220 NA
ATOM     11  C   UNL     1      -0.301  -2.319  -2.812  1.00  0.00     0.255 A 
ATOM     12  C   UNL     1      -0.407  -0.095  -3.683  1.00  0.00     0.209 A 
ATOM     13  O   UNL     1      -0.655  -3.494  -2.809  1.00  0.00    -0.269 OA
BRANCH  12  14
ATOM     14  N   UNL     1      -0.905   0.731  -4.671  1.00  0.00    -0.342 N 
ATOM     15  C   UNL     1      -0.146   1.884  -5.145  1.00  0.00     0.120 C 
ATOM     16  C   UNL     1      -2.299   0.621  -5.114  1.00  0.00     0.120 C 
ATOM     17  C   UNL     1      -0.927   3.185  -4.969  1.00  0.00     0.025 C 
ATOM     18  C   UNL     1      -3.066   1.912  -4.884  1.00  0.00     0.025 C 
ATOM     19  C   UNL     1      -2.337   3.073  -5.562  1.00  0.00    -0.011 C 
ATOM     20  C   UNL     1      -3.123   4.368  -5.406  1.00  0.00     0.008 C 
ENDBRANCH  12  14
ENDBRANCH   5   6
ENDBRANCH   3   5
ENDBRANCH   2   3
ENDBRANCH   1   2
BRANCH   1  21
ATOM     21  C   UNL     1       3.398  -4.062  -5.530  1.00  0.00     0.275 C 
BRANCH  21  22
ATOM     22  O   UNL     1       2.413  -5.107  -5.456  1.00  0.00    -0.458 OA
BRANCH  22  23
ATOM     23  C   UNL     1       1.869  -5.298  -4.230  1.00  0.00     0.338 C 
ATOM     24  O   UNL     1       2.169  -4.742  -3.189  1.00  0.00    -0.246 OA
BRANCH  23  25
ATOM     25  C   UNL     1       0.795  -6.293  -4.355  1.00  0.00     0.060 A 
ATOM     26  C   UNL     1       1.060  -7.644  -4.158  1.00  0.00     0.016 A 
ATOM     27  C   UNL     1      -0.508  -5.860  -4.600  1.00  0.00     0.016 A 
ATOM     28  C   UNL     1       0.006  -8.559  -4.225  1.00  0.00     0.010 A 
ATOM     29  C   UNL     1      -1.567  -6.758  -4.604  1.00  0.00     0.010 A 
ATOM     30  C   UNL     1      -1.315  -8.120  -4.439  1.00  0.00    -0.014 A 
BRANCH  30  31
ATOM     31  C   UNL     1      -2.439  -9.082  -4.462  1.00  0.00     0.031 A 
ATOM     32  C   UNL     1      -3.185  -9.361  -5.733  1.00  0.00     0.074 A 
ATOM     33  C   UNL     1      -2.801  -9.686  -3.315  1.00  0.00     0.049 A 
ATOM     34  N   UNL     1      -4.105 -10.262  -5.966  1.00  0.00    -0.248 NA
ATOM     35  C   UNL     1      -2.877  -8.505  -6.891  1.00  0.00     0.031 C 
ATOM     36  C   UNL     1      -2.215  -9.414  -2.003  1.00  0.00     0.029 A 
ATOM     37  N   UNL     1      -3.733 -10.662  -3.073  1.00  0.00    -0.354 N 
ATOM     38  C   UNL     1      -4.467 -10.097  -7.295  1.00  0.00     0.074 A 
ATOM     39  C   UNL     1      -3.726  -8.962  -7.800  1.00  0.00     0.031 C 
ATOM     40  C   UNL     1      -2.760 -10.245  -1.101  1.00  0.00     0.029 A 
ATOM     41  C   UNL     1      -3.740 -11.096  -1.771  1.00  0.00     0.049 A 
ATOM     42  H   UNL     1      -4.338 -11.016  -3.765  1.00  0.00     0.167 HD
ATOM     43  C   UNL     1      -5.315 -10.850  -8.035  1.00  0.00     0.037 A 
ATOM     44  C   UNL     1      -4.438 -12.091  -1.193  1.00  0.00     0.037 A 
ATOM     45  C   UNL     1      -6.045 -11.979  -7.523  1.00  0.00     0.049 A 
ATOM     46  C   UNL     1      -5.364 -12.922  -2.035  1.00  0.00     0.074 A 
ATOM     47  C   UNL     1      -6.876 -12.851  -8.204  1.00  0.00     0.029 A 
ATOM     48  N   UNL     1      -6.037 -12.385  -6.196  1.00  0.00    -0.354 N 
ATOM     49  N   UNL     1      -5.615 -12.835  -3.319  1.00  0.00    -0.248 NA
ATOM     50  C   UNL     1      -6.094 -13.998  -1.352  1.00  0.00     0.031 C 
ATOM     51  C   UNL     1      -7.405 -13.758  -7.281  1.00  0.00     0.029 A 
ATOM     52  C   UNL     1      -6.869 -13.481  -6.033  1.00  0.00     0.049 A 
ATOM     53  H   UNL     1      -5.517 -11.959  -5.478  1.00  0.00     0.167 HD
ATOM     54  C   UNL     1      -6.520 -13.847  -3.602  1.00  0.00     0.074 A 
ATOM     55  C   UNL     1      -6.759 -14.552  -2.358  1.00  0.00     0.031 C 
ATOM     56  C   UNL     1      -7.102 -14.163  -4.785  1.00  0.00     0.037 A 
BRANCH  43  57
ATOM     57  C   UNL     1      -5.476 -10.496  -9.485  1.00  0.00     0.064 A 
ATOM     58  C   UNL     1      -4.439 -10.716 -10.405  1.00  0.00     0.173 A 
ATOM     59  C   UNL     1      -6.688  -9.986  -9.971  1.00  0.00     0.173 A 
ATOM     60  F   UNL     1      -3.257 -11.195  -9.990  1.00  0.00    -0.203 F 
ATOM     61  C   UNL     1      -4.603 -10.417 -11.755  1.00  0.00     0.198 A 
ATOM     62  C   UNL     1      -6.857  -9.714 -11.327  1.00  0.00     0.198 A 
ATOM     63  F   UNL     1      -7.713  -9.764  -9.135  1.00  0.00    -0.203 F 
ATOM     64  F   UNL     1      -3.586 -10.600 -12.609  1.00  0.00    -0.200 F 
ATOM     65  C   UNL     1      -5.814  -9.924 -12.216  1.00  0.00     0.200 A 
ATOM     66  F   UNL     1      -8.033  -9.250 -11.774  1.00  0.00    -0.200 F 
ATOM     67  F   UNL     1      -5.974  -9.648 -13.518  1.00  0.00    -0.200 F 
ENDBRANCH  43  57
BRANCH  44  68
ATOM     68  C   UNL     1      -4.213 -12.395   0.242  1.00  0.00     0.064 A 
ATOM     69  C   UNL     1      -3.492 -13.534   0.626  1.00  0.00     0.173 A 
ATOM     70  C   UNL     1      -4.661 -11.532   1.252  1.00  0.00     0.173 A 
ATOM     71  F   UNL     1      -3.057 -14.396  -0.305  1.00  0.00    -0.203 F 
ATOM     72  C   UNL     1      -3.230 -13.800   1.967  1.00  0.00     0.198 A 
ATOM     73  C   UNL     1      -4.379 -11.787   2.592  1.00  0.00     0.198 A 
ATOM     74  F   UNL     1      -5.349 -10.426   0.933  1.00  0.00    -0.203 F 
ATOM     75  F   UNL     1      -2.557 -14.907   2.310  1.00  0.00    -0.200 F 
ATOM     76  C   UNL     1      -3.666 -12.922   2.949  1.00  0.00     0.200 A 
ATOM     77  F   UNL     1      -4.790 -10.930   3.536  1.00  0.00    -0.200 F 
ATOM     78  F   UNL     1      -3.400 -13.170   4.238  1.00  0.00    -0.200 F 
ENDBRANCH  44  68
BRANCH  56  79
ATOM     79  C   UNL     1      -8.060 -15.316  -4.797  1.00  0.00     0.064 A 
ATOM     80  C   UNL     1      -9.341 -15.204  -4.240  1.00  0.00     0.173 A 
ATOM     81  C   UNL     1      -7.721 -16.518  -5.437  1.00  0.00     0.173 A 
ATOM     82  F   UNL     1      -9.706 -14.079  -3.607  1.00  0.00    -0.203 F 
ATOM     83  C   UNL     1     -10.247 -16.259  -4.313  1.00  0.00     0.198 A 
ATOM     84  C   UNL     1      -8.639 -17.560  -5.532  1.00  0.00     0.198 A 
ATOM     85  F   UNL     1      -6.510 -16.671  -5.993  1.00  0.00    -0.203 F 
ATOM     86  F   UNL     1     -11.456 -16.141  -3.748  1.00  0.00    -0.200 F 
ATOM     87  C   UNL     1      -9.899 -17.431  -4.967  1.00  0.00     0.200 A 
ATOM     88  F   UNL     1      -8.306 -18.687  -6.176  1.00  0.00    -0.200 F 
ATOM     89  F   UNL     1     -10.778 -18.439  -5.051  1.00  0.00    -0.200 F 
ENDBRANCH  56  79
ENDBRANCH  30  31
ENDBRANCH  23  25
ENDBRANCH  22  23
ENDBRANCH  21  22
ENDBRANCH   1  21
TORSDOF 13
