REMARK SMILES Cc1[nH]c(=O)sc1S(=O)(=O)NC1(CC(=O)OCCOC(=O)c2ccc(-c3c4nc(c(-c5c(F)c(F)c(F)c(F)c5F)c5ccc([nH]5)c(-c5c(F)c(F)c(F)c(F)c5F)c5nc(c(-c6c(F)c(F)c(F)c(F)c6F)c6ccc3[nH]6)C=C5)C=C4)cc2)CCC1
REMARK SMILES IDX 17 1 16 2 14 3 15 4 13 5 12 6 85 7 87 8 86 9 11 10 8 12 9 13
REMARK SMILES IDX 10 14 7 15 1 16 2 17 3 18 4 19 6 21 5 22 18 23 19 24 20 25
REMARK SMILES IDX 21 26 22 27 23 28 84 29 24 30 83 31 25 32 26 33 27 34 77 35
REMARK SMILES IDX 28 36 82 37 76 38 78 39 29 40 81 41 75 42 74 43 30 45 62 46
REMARK SMILES IDX 42 47 61 48 43 49 46 50 60 51 79 52 44 53 45 54 59 56 80 57
REMARK SMILES IDX 47 58 31 59 32 60 40 61 33 62 34 63 38 64 41 65 35 66 36 67
REMARK SMILES IDX 39 68 37 69 63 70 64 71 72 72 65 73 66 74 70 75 73 76 67 77
REMARK SMILES IDX 68 78 71 79 69 80 48 81 49 82 57 83 50 84 51 85 55 86 58 87
REMARK SMILES IDX 52 88 53 89 56 90 54 91
REMARK H PARENT 11 11 3 20 78 44 46 55
REMARK Flexibility Score: inf
ROOT
ATOM      1  C   UNL     1       2.369   4.498  -2.321  1.00  0.00     0.274 C 
ENDROOT
BRANCH   1   2
ATOM      2  O   UNL     1       2.629   3.115  -2.019  1.00  0.00    -0.462 OA
BRANCH   2   3
ATOM      3  C   UNL     1       3.456   2.463  -2.873  1.00  0.00     0.307 C 
ATOM      4  O   UNL     1       3.855   2.911  -3.941  1.00  0.00    -0.252 OA
BRANCH   3   5
ATOM      5  C   UNL     1       3.877   1.113  -2.357  1.00  0.00     0.146 C 
BRANCH   5   6
ATOM      6  C   UNL     1       2.913   0.340  -1.442  1.00  0.00     0.044 C 
ATOM      7  C   UNL     1       3.227  -1.196  -1.545  1.00  0.00     0.024 C 
ATOM      8  C   UNL     1       1.545   0.048  -2.102  1.00  0.00     0.024 C 
ATOM      9  C   UNL     1       1.925  -1.423  -2.304  1.00  0.00     0.004 C 
BRANCH   6  10
ATOM     10  N   UNL     1       3.012   0.726   0.013  1.00  0.00    -0.204 NA
ATOM     11  H   UNL     1       2.900  -0.172   0.485  1.00  0.00     0.142 HD
BRANCH  10  12
ATOM     12  S   UNL     1       2.217   1.780   1.052  1.00  0.00     0.252 S 
ATOM     13  O   UNL     1       2.776   3.076   0.765  1.00  0.00    -0.206 OA
ATOM     14  O   UNL     1       2.438   1.212   2.368  1.00  0.00    -0.206 OA
BRANCH  12  15
ATOM     15  C   UNL     1       0.528   1.886   0.759  1.00  0.00     0.158 A 
ATOM     16  C   UNL     1       0.006  -0.610   1.031  1.00  0.00     0.067 C 
ATOM     17  C   UNL     1      -0.301   0.832   0.802  1.00  0.00     0.046 A 
ATOM     18  N   UNL     1      -1.608   1.190   0.550  1.00  0.00    -0.315 N 
ATOM     19  C   UNL     1      -1.860   2.525   0.344  1.00  0.00     0.305 A 
ATOM     20  H   UNL     1      -2.328   0.520   0.519  1.00  0.00     0.170 HD
ATOM     21  S   UNL     1      -0.342   3.387   0.487  1.00  0.00    -0.061 S 
ATOM     22  O   UNL     1      -2.932   3.038   0.091  1.00  0.00    -0.257 OA
ENDBRANCH  12  15
ENDBRANCH  10  12
ENDBRANCH   6  10
ENDBRANCH   5   6
ENDBRANCH   3   5
ENDBRANCH   2   3
ENDBRANCH   1   2
BRANCH   1  23
ATOM     23  C   UNL     1       2.950   5.414  -1.240  1.00  0.00     0.275 C 
BRANCH  23  24
ATOM     24  O   UNL     1       4.394   5.431  -1.206  1.00  0.00    -0.458 OA
BRANCH  24  25
ATOM     25  C   UNL     1       5.031   4.373  -0.647  1.00  0.00     0.338 C 
ATOM     26  O   UNL     1       5.642   3.542  -1.307  1.00  0.00    -0.246 OA
BRANCH  25  27
ATOM     27  C   UNL     1       5.118   4.375   0.839  1.00  0.00     0.060 A 
ATOM     28  C   UNL     1       5.735   3.268   1.450  1.00  0.00     0.016 A 
ATOM     29  C   UNL     1       4.577   5.397   1.631  1.00  0.00     0.016 A 
ATOM     30  C   UNL     1       5.841   3.201   2.833  1.00  0.00     0.010 A 
ATOM     31  C   UNL     1       4.679   5.332   3.019  1.00  0.00     0.010 A 
ATOM     32  C   UNL     1       5.360   4.261   3.612  1.00  0.00    -0.014 A 
BRANCH  32  33
ATOM     33  C   UNL     1       6.010   4.465   4.919  1.00  0.00     0.031 A 
ATOM     34  C   UNL     1       7.483   4.732   4.765  1.00  0.00     0.074 A 
ATOM     35  C   UNL     1       5.352   4.649   6.083  1.00  0.00     0.049 A 
ATOM     36  N   UNL     1       8.477   4.189   5.390  1.00  0.00    -0.248 NA
ATOM     37  C   UNL     1       7.909   5.634   3.670  1.00  0.00     0.031 C 
ATOM     38  C   UNL     1       3.899   4.711   6.251  1.00  0.00     0.029 A 
ATOM     39  N   UNL     1       5.820   4.958   7.335  1.00  0.00    -0.354 N 
ATOM     40  C   UNL     1       9.628   4.806   4.887  1.00  0.00     0.074 A 
ATOM     41  C   UNL     1       9.234   5.537   3.722  1.00  0.00     0.031 C 
ATOM     42  C   UNL     1       3.614   5.273   7.446  1.00  0.00     0.029 A 
ATOM     43  C   UNL     1       4.853   5.520   8.166  1.00  0.00     0.049 A 
ATOM     44  H   UNL     1       6.749   4.800   7.618  1.00  0.00     0.167 HD
ATOM     45  C   UNL     1      10.748   4.918   5.650  1.00  0.00     0.037 A 
ATOM     46  C   UNL     1       5.053   6.214   9.316  1.00  0.00     0.037 A 
ATOM     47  C   UNL     1      10.739   3.930   6.694  1.00  0.00     0.049 A 
ATOM     48  C   UNL     1       6.417   5.917   9.809  1.00  0.00     0.074 A 
ATOM     49  C   UNL     1      10.944   2.574   6.796  1.00  0.00     0.029 A 
ATOM     50  N   UNL     1      10.085   4.334   7.822  1.00  0.00    -0.354 N 
ATOM     51  N   UNL     1       6.785   4.763  10.289  1.00  0.00    -0.248 NA
ATOM     52  C   UNL     1       7.505   6.839   9.499  1.00  0.00     0.031 C 
ATOM     53  C   UNL     1      10.239   2.154   7.965  1.00  0.00     0.029 A 
ATOM     54  C   UNL     1       9.658   3.271   8.563  1.00  0.00     0.049 A 
ATOM     55  H   UNL     1       9.940   5.276   8.071  1.00  0.00     0.167 HD
ATOM     56  C   UNL     1       8.109   4.651   9.917  1.00  0.00     0.074 A 
ATOM     57  C   UNL     1       8.543   6.008   9.623  1.00  0.00     0.031 C 
ATOM     58  C   UNL     1       8.621   3.440   9.553  1.00  0.00     0.037 A 
BRANCH  45  59
ATOM     59  C   UNL     1      11.516   6.228   5.827  1.00  0.00     0.064 A 
ATOM     60  C   UNL     1      12.589   6.257   6.747  1.00  0.00     0.173 A 
ATOM     61  C   UNL     1      11.050   7.499   5.419  1.00  0.00     0.173 A 
ATOM     62  F   UNL     1      13.126   5.118   7.210  1.00  0.00    -0.203 F 
ATOM     63  C   UNL     1      13.069   7.452   7.295  1.00  0.00     0.198 A 
ATOM     64  C   UNL     1      11.561   8.690   5.938  1.00  0.00     0.198 A 
ATOM     65  F   UNL     1      10.019   7.660   4.586  1.00  0.00    -0.203 F 
ATOM     66  F   UNL     1      13.994   7.416   8.264  1.00  0.00    -0.200 F 
ATOM     67  C   UNL     1      12.544   8.667   6.901  1.00  0.00     0.200 A 
ATOM     68  F   UNL     1      11.025   9.857   5.552  1.00  0.00    -0.200 F 
ATOM     69  F   UNL     1      12.949   9.807   7.474  1.00  0.00    -0.200 F 
ENDBRANCH  45  59
BRANCH  46  70
ATOM     70  C   UNL     1       4.242   7.312   9.910  1.00  0.00     0.064 A 
ATOM     71  C   UNL     1       4.425   7.713  11.246  1.00  0.00     0.173 A 
ATOM     72  C   UNL     1       3.467   8.171   9.108  1.00  0.00     0.173 A 
ATOM     73  F   UNL     1       5.182   6.979  12.076  1.00  0.00    -0.203 F 
ATOM     74  C   UNL     1       3.897   8.914  11.736  1.00  0.00     0.198 A 
ATOM     75  C   UNL     1       2.929   9.361   9.601  1.00  0.00     0.198 A 
ATOM     76  F   UNL     1       3.295   7.926   7.801  1.00  0.00    -0.203 F 
ATOM     77  F   UNL     1       4.155   9.295  12.995  1.00  0.00    -0.200 F 
ATOM     78  C   UNL     1       3.158   9.742  10.909  1.00  0.00     0.200 A 
ATOM     79  F   UNL     1       2.244  10.169   8.779  1.00  0.00    -0.200 F 
ATOM     80  F   UNL     1       2.706  10.921  11.356  1.00  0.00    -0.200 F 
ENDBRANCH  46  70
BRANCH  58  81
ATOM     81  C   UNL     1       7.954   2.219  10.099  1.00  0.00     0.064 A 
ATOM     82  C   UNL     1       6.628   1.843   9.832  1.00  0.00     0.173 A 
ATOM     83  C   UNL     1       8.727   1.361  10.893  1.00  0.00     0.173 A 
ATOM     84  F   UNL     1       5.855   2.565   9.010  1.00  0.00    -0.203 F 
ATOM     85  C   UNL     1       6.089   0.684  10.386  1.00  0.00     0.198 A 
ATOM     86  C   UNL     1       8.201   0.182  11.405  1.00  0.00     0.198 A 
ATOM     87  F   UNL     1      10.013   1.653  11.146  1.00  0.00    -0.203 F 
ATOM     88  F   UNL     1       4.810   0.359  10.150  1.00  0.00    -0.200 F 
ATOM     89  C   UNL     1       6.878  -0.148  11.166  1.00  0.00     0.200 A 
ATOM     90  F   UNL     1       8.982  -0.640  12.119  1.00  0.00    -0.200 F 
ATOM     91  F   UNL     1       6.368  -1.279  11.672  1.00  0.00    -0.200 F 
ENDBRANCH  58  81
ENDBRANCH  32  33
ENDBRANCH  25  27
ENDBRANCH  24  25
ENDBRANCH  23  24
ENDBRANCH   1  23
TORSDOF 15
