REMARK SMILES Cc1nc2cc(C(=O)OCCOC(=O)c3ccc(-c4c5nc(c(-c6c(F)c(F)c(F)c(F)c6F)c6ccc([nH]6)c(-c6c(F)c(F)c(F)c(F)c6F)c6nc(c(-c7c(F)c(F)c(F)c(F)c7F)c7ccc4[nH]7)C=C6)C=C5)cc3)ccc2n1CCC[NH+]1CCOCC1
REMARK SMILES IDX 10 1 9 2 7 3 8 4 6 5 1 6 2 7 3 8 81 9 4 10 80 11 5 12 79 13
REMARK SMILES IDX 78 14 82 15 83 16 84 17 85 18 86 19 90 20 87 22 89 23 88 24
REMARK SMILES IDX 11 25 12 26 13 27 14 28 15 29 16 30 77 31 17 32 76 33 18 34
REMARK SMILES IDX 19 35 20 36 70 37 21 38 75 39 69 40 71 41 22 42 74 43 68 44
REMARK SMILES IDX 67 45 23 47 55 48 35 49 54 50 36 51 39 52 53 53 72 54 37 55
REMARK SMILES IDX 38 56 52 58 73 59 40 60 24 61 25 62 33 63 26 64 27 65 31 66
REMARK SMILES IDX 34 67 28 68 29 69 32 70 30 71 56 72 57 73 65 74 58 75 59 76
REMARK SMILES IDX 63 77 66 78 60 79 61 80 64 81 62 82 41 83 42 84 50 85 43 86
REMARK SMILES IDX 44 87 48 88 51 89 45 90 46 91 49 92 47 93
REMARK H PARENT 85 21 71 46 39 57
REMARK Flexibility Score: inf
ROOT
ATOM      1  C   UNL     1      -0.634  -7.782   5.605  1.00  0.00     0.275 C 
ENDROOT
BRANCH   1   2
ATOM      2  O   UNL     1      -0.869  -6.370   5.353  1.00  0.00    -0.458 OA
BRANCH   2   3
ATOM      3  C   UNL     1       0.246  -5.611   5.221  1.00  0.00     0.338 C 
ATOM      4  O   UNL     1       1.397  -6.015   5.315  1.00  0.00    -0.246 OA
BRANCH   3   5
ATOM      5  C   UNL     1      -0.057  -4.238   4.727  1.00  0.00     0.062 A 
ATOM      6  C   UNL     1       0.383  -0.767  -0.028  1.00  0.00     0.088 C 
ATOM      7  C   UNL     1       0.368  -1.283   1.363  1.00  0.00     0.106 A 
ATOM      8  N   UNL     1       1.092  -2.294   1.772  1.00  0.00    -0.233 NA
ATOM      9  N   UNL     1      -0.340  -0.787   2.440  1.00  0.00    -0.328 N 
ATOM     10  C   UNL     1       0.528  -2.689   2.951  1.00  0.00     0.090 A 
ATOM     11  C   UNL     1      -0.450  -1.808   3.370  1.00  0.00     0.068 A 
ATOM     12  C   UNL     1       0.774  -3.835   3.700  1.00  0.00     0.046 A 
ATOM     13  C   UNL     1      -1.210  -2.080   4.526  1.00  0.00     0.029 A 
ATOM     14  C   UNL     1      -1.039  -3.350   5.155  1.00  0.00     0.018 A 
BRANCH   9  15
ATOM     15  C   UNL     1      -0.669   0.610   2.642  1.00  0.00     0.130 C 
BRANCH  15  16
ATOM     16  C   UNL     1       0.583   1.481   2.875  1.00  0.00     0.083 C 
BRANCH  16  17
ATOM     17  C   UNL     1       1.331   1.938   1.606  1.00  0.00     0.264 C 
BRANCH  17  18
ATOM     18  N   UNL     1       0.422   2.522   0.607  1.00  0.00    -0.331 N 
ATOM     19  C   UNL     1       1.003   2.582  -0.754  1.00  0.00     0.291 C 
ATOM     20  C   UNL     1      -0.006   3.891   0.969  1.00  0.00     0.291 C 
ATOM     21  H   UNL     1      -0.378   1.889   0.603  1.00  0.00     0.348 HD
ATOM     22  C   UNL     1       2.080   3.657  -0.937  1.00  0.00     0.221 C 
ATOM     23  C   UNL     1       1.093   4.949   0.774  1.00  0.00     0.221 C 
ATOM     24  O   UNL     1       1.589   4.950  -0.570  1.00  0.00    -0.370 OA
ENDBRANCH  17  18
ENDBRANCH  16  17
ENDBRANCH  15  16
ENDBRANCH   9  15
ENDBRANCH   3   5
ENDBRANCH   2   3
ENDBRANCH   1   2
BRANCH   1  25
ATOM     25  C   UNL     1      -1.044  -8.647   4.404  1.00  0.00     0.275 C 
BRANCH  25  26
ATOM     26  O   UNL     1      -0.031  -8.544   3.387  1.00  0.00    -0.458 OA
BRANCH  26  27
ATOM     27  C   UNL     1      -0.407  -7.945   2.227  1.00  0.00     0.338 C 
ATOM     28  O   UNL     1      -1.538  -7.768   1.832  1.00  0.00    -0.246 OA
BRANCH  27  29
ATOM     29  C   UNL     1       0.785  -7.230   1.706  1.00  0.00     0.060 A 
ATOM     30  C   UNL     1       2.106  -7.652   1.895  1.00  0.00     0.016 A 
ATOM     31  C   UNL     1       0.553  -5.970   1.191  1.00  0.00     0.016 A 
ATOM     32  C   UNL     1       3.151  -6.705   1.892  1.00  0.00     0.010 A 
ATOM     33  C   UNL     1       1.619  -5.085   1.099  1.00  0.00     0.010 A 
ATOM     34  C   UNL     1       2.872  -5.353   1.678  1.00  0.00    -0.014 A 
BRANCH  34  35
ATOM     35  C   UNL     1       3.900  -4.255   1.733  1.00  0.00     0.031 A 
ATOM     36  C   UNL     1       4.400  -4.132   0.351  1.00  0.00     0.074 A 
ATOM     37  C   UNL     1       4.353  -3.360   2.678  1.00  0.00     0.049 A 
ATOM     38  N   UNL     1       5.299  -4.917  -0.144  1.00  0.00    -0.248 NA
ATOM     39  C   UNL     1       3.643  -3.381  -0.663  1.00  0.00     0.031 C 
ATOM     40  C   UNL     1       3.886  -3.086   4.046  1.00  0.00     0.029 A 
ATOM     41  N   UNL     1       5.396  -2.427   2.581  1.00  0.00    -0.354 N 
ATOM     42  C   UNL     1       5.435  -4.507  -1.455  1.00  0.00     0.074 A 
ATOM     43  C   UNL     1       4.202  -3.851  -1.783  1.00  0.00     0.031 C 
ATOM     44  C   UNL     1       4.427  -1.936   4.535  1.00  0.00     0.029 A 
ATOM     45  C   UNL     1       5.448  -1.460   3.620  1.00  0.00     0.049 A 
ATOM     46  H   UNL     1       6.048  -2.442   1.843  1.00  0.00     0.167 HD
ATOM     47  C   UNL     1       6.691  -4.341  -1.952  1.00  0.00     0.037 A 
ATOM     48  C   UNL     1       6.346  -0.434   3.795  1.00  0.00     0.037 A 
ATOM     49  C   UNL     1       7.655  -4.864  -1.007  1.00  0.00     0.049 A 
ATOM     50  C   UNL     1       7.572  -0.828   3.077  1.00  0.00     0.074 A 
ATOM     51  C   UNL     1       8.062  -6.099  -0.550  1.00  0.00     0.029 A 
ATOM     52  N   UNL     1       7.967  -3.954  -0.033  1.00  0.00    -0.354 N 
ATOM     53  N   UNL     1       8.348  -1.798   3.465  1.00  0.00    -0.248 NA
ATOM     54  C   UNL     1       7.729  -0.385   1.700  1.00  0.00     0.031 C 
ATOM     55  C   UNL     1       8.596  -5.890   0.758  1.00  0.00     0.029 A 
ATOM     56  C   UNL     1       8.585  -4.527   1.036  1.00  0.00     0.049 A 
ATOM     57  H   UNL     1       7.767  -2.992  -0.098  1.00  0.00     0.167 HD
ATOM     58  C   UNL     1       8.716  -2.397   2.281  1.00  0.00     0.074 A 
ATOM     59  C   UNL     1       8.440  -1.413   1.235  1.00  0.00     0.031 C 
ATOM     60  C   UNL     1       8.850  -3.750   2.220  1.00  0.00     0.037 A 
BRANCH  47  61
ATOM     61  C   UNL     1       7.113  -3.249  -2.914  1.00  0.00     0.064 A 
ATOM     62  C   UNL     1       8.451  -3.248  -3.362  1.00  0.00     0.173 A 
ATOM     63  C   UNL     1       6.391  -2.063  -3.173  1.00  0.00     0.173 A 
ATOM     64  F   UNL     1       9.242  -4.311  -3.151  1.00  0.00    -0.203 F 
ATOM     65  C   UNL     1       9.033  -2.127  -3.957  1.00  0.00     0.198 A 
ATOM     66  C   UNL     1       6.963  -0.964  -3.809  1.00  0.00     0.198 A 
ATOM     67  F   UNL     1       5.146  -1.857  -2.738  1.00  0.00    -0.203 F 
ATOM     68  F   UNL     1      10.338  -2.137  -4.260  1.00  0.00    -0.200 F 
ATOM     69  C   UNL     1       8.289  -0.984  -4.177  1.00  0.00     0.200 A 
ATOM     70  F   UNL     1       6.230   0.146  -3.983  1.00  0.00    -0.200 F 
ATOM     71  F   UNL     1       8.855   0.110  -4.701  1.00  0.00    -0.200 F 
ENDBRANCH  47  61
BRANCH  48  72
ATOM     72  C   UNL     1       6.221   0.991   4.270  1.00  0.00     0.064 A 
ATOM     73  C   UNL     1       7.356   1.819   4.487  1.00  0.00     0.173 A 
ATOM     74  C   UNL     1       5.001   1.673   4.147  1.00  0.00     0.173 A 
ATOM     75  F   UNL     1       8.582   1.281   4.584  1.00  0.00    -0.203 F 
ATOM     76  C   UNL     1       7.273   3.223   4.514  1.00  0.00     0.198 A 
ATOM     77  C   UNL     1       4.921   3.075   4.167  1.00  0.00     0.198 A 
ATOM     78  F   UNL     1       3.874   0.996   3.892  1.00  0.00    -0.203 F 
ATOM     79  F   UNL     1       8.384   3.967   4.640  1.00  0.00    -0.200 F 
ATOM     80  C   UNL     1       6.056   3.850   4.331  1.00  0.00     0.200 A 
ATOM     81  F   UNL     1       3.740   3.672   3.945  1.00  0.00    -0.200 F 
ATOM     82  F   UNL     1       5.979   5.188   4.266  1.00  0.00    -0.200 F 
ENDBRANCH  48  72
BRANCH  60  83
ATOM     83  C   UNL     1       9.181  -4.498   3.468  1.00  0.00     0.064 A 
ATOM     84  C   UNL     1       8.296  -4.725   4.531  1.00  0.00     0.173 A 
ATOM     85  C   UNL     1      10.413  -5.166   3.480  1.00  0.00     0.173 A 
ATOM     86  F   UNL     1       7.086  -4.149   4.560  1.00  0.00    -0.203 F 
ATOM     87  C   UNL     1       8.633  -5.614   5.554  1.00  0.00     0.198 A 
ATOM     88  C   UNL     1      10.728  -6.076   4.478  1.00  0.00     0.198 A 
ATOM     89  F   UNL     1      11.280  -4.988   2.471  1.00  0.00    -0.203 F 
ATOM     90  F   UNL     1       7.773  -5.843   6.558  1.00  0.00    -0.200 F 
ATOM     91  C   UNL     1       9.837  -6.303   5.513  1.00  0.00     0.200 A 
ATOM     92  F   UNL     1      11.874  -6.767   4.407  1.00  0.00    -0.200 F 
ATOM     93  F   UNL     1      10.130  -7.208   6.457  1.00  0.00    -0.200 F 
ENDBRANCH  60  83
ENDBRANCH  34  35
ENDBRANCH  27  29
ENDBRANCH  26  27
ENDBRANCH  25  26
ENDBRANCH   1  25
TORSDOF 15
