REMARK SMILES O=C(N[C@H]1c2ccccc2C[C@H]1C(=O)OCCOC(=O)c1ccc(-c2c3nc(c(-c4c(F)c(F)c(F)c(F)c4F)c4ccc([nH]4)c(-c4c(F)c(F)c(F)c(F)c4F)c4nc(c(-c5c(F)c(F)c(F)c(F)c5F)c5ccc2[nH]5)C=C4)C=C3)cc1)OCC1c2ccccc2-c2ccccc21
REMARK SMILES IDX 16 1 15 2 13 3 14 4 12 5 4 6 5 7 6 8 10 9 11 10 7 11 9 12
REMARK SMILES IDX 8 13 3 14 1 15 2 16 84 18 85 19 86 20 87 21 98 22 88 23
REMARK SMILES IDX 92 24 93 25 97 26 89 27 91 28 94 29 96 30 90 31 95 32 17 33
REMARK SMILES IDX 18 34 19 35 20 36 21 37 22 38 83 39 23 40 82 41 24 42 25 43
REMARK SMILES IDX 26 44 76 45 27 46 81 47 75 48 77 49 28 50 80 51 74 52 73 53
REMARK SMILES IDX 29 55 61 56 41 57 60 58 42 59 45 60 59 61 78 62 43 63 44 64
REMARK SMILES IDX 58 66 79 67 46 68 30 69 31 70 39 71 32 72 33 73 37 74 40 75
REMARK SMILES IDX 34 76 35 77 38 78 36 79 62 80 63 81 71 82 64 83 65 84 69 85
REMARK SMILES IDX 72 86 66 87 67 88 70 89 68 90 47 91 48 92 56 93 49 94 50 95
REMARK SMILES IDX 54 96 57 97 51 98 52 99 55 100 53 101
REMARK H PARENT 3 17 77 54 45 65
REMARK Flexibility Score: inf
ROOT
ATOM      1  C   UNL     1       2.386  -0.025  -2.881  1.00  0.00     0.274 C 
ENDROOT
BRANCH   1   2
ATOM      2  O   UNL     1       3.126  -0.335  -1.681  1.00  0.00    -0.462 OA
BRANCH   2   3
ATOM      3  C   UNL     1       3.423  -1.634  -1.429  1.00  0.00     0.311 C 
ATOM      4  O   UNL     1       3.063  -2.571  -2.132  1.00  0.00    -0.252 OA
BRANCH   3   5
ATOM      5  C   UNL     1       4.400  -1.777  -0.276  1.00  0.00     0.130 C 
ATOM      6  C   UNL     1       4.105  -1.081   1.069  1.00  0.00     0.130 C 
ATOM      7  C   UNL     1       4.612  -2.074   2.079  1.00  0.00    -0.021 A 
ATOM      8  C   UNL     1       4.866  -1.849   3.424  1.00  0.00     0.006 A 
ATOM      9  C   UNL     1       5.036  -3.252   1.462  1.00  0.00    -0.042 A 
ATOM     10  C   UNL     1       4.660  -3.269   0.020  1.00  0.00     0.053 C 
ATOM     11  C   UNL     1       5.571  -2.820   4.140  1.00  0.00     0.000 A 
ATOM     12  C   UNL     1       5.727  -4.225   2.164  1.00  0.00     0.004 A 
ATOM     13  C   UNL     1       6.006  -3.997   3.511  1.00  0.00     0.000 A 
BRANCH   6  14
ATOM     14  N   UNL     1       2.777  -0.606   1.264  1.00  0.00    -0.314 N 
ATOM     15  O   UNL     1       1.099   0.853   1.378  1.00  0.00    -0.225 OA
ATOM     16  C   UNL     1       2.293   0.670   1.148  1.00  0.00     0.407 C 
ATOM     17  H   UNL     1       2.115  -1.289   1.516  1.00  0.00     0.167 HD
BRANCH  16  18
ATOM     18  O   UNL     1       3.102   1.729   0.880  1.00  0.00    -0.449 OA
BRANCH  18  19
ATOM     19  C   UNL     1       4.315   1.835   0.074  1.00  0.00     0.248 C 
BRANCH  19  20
ATOM     20  C   UNL     1       5.423   2.505   0.905  1.00  0.00     0.088 C 
ATOM     21  C   UNL     1       6.838   1.973   0.653  1.00  0.00    -0.029 A 
ATOM     22  C   UNL     1       5.569   3.961   0.467  1.00  0.00    -0.029 A 
ATOM     23  C   UNL     1       7.389   0.742   0.986  1.00  0.00     0.005 A 
ATOM     24  C   UNL     1       7.641   2.980   0.075  1.00  0.00    -0.014 A 
ATOM     25  C   UNL     1       6.854   4.186  -0.067  1.00  0.00    -0.014 A 
ATOM     26  C   UNL     1       4.608   4.960   0.495  1.00  0.00     0.005 A 
ATOM     27  C   UNL     1       8.736   0.506   0.698  1.00  0.00     0.000 A 
ATOM     28  C   UNL     1       8.980   2.750  -0.203  1.00  0.00     0.009 A 
ATOM     29  C   UNL     1       7.179   5.415  -0.613  1.00  0.00     0.009 A 
ATOM     30  C   UNL     1       4.939   6.200  -0.051  1.00  0.00     0.000 A 
ATOM     31  C   UNL     1       9.525   1.501   0.106  1.00  0.00     0.001 A 
ATOM     32  C   UNL     1       6.209   6.423  -0.609  1.00  0.00     0.001 A 
ENDBRANCH  19  20
ENDBRANCH  18  19
ENDBRANCH  16  18
ENDBRANCH   6  14
ENDBRANCH   3   5
ENDBRANCH   2   3
ENDBRANCH   1   2
BRANCH   1  33
ATOM     33  C   UNL     1       3.256   0.787  -3.847  1.00  0.00     0.275 C 
BRANCH  33  34
ATOM     34  O   UNL     1       4.321  -0.021  -4.386  1.00  0.00    -0.458 OA
BRANCH  34  35
ATOM     35  C   UNL     1       5.475  -0.000  -3.676  1.00  0.00     0.338 C 
ATOM     36  O   UNL     1       5.725   0.676  -2.695  1.00  0.00    -0.246 OA
BRANCH  35  37
ATOM     37  C   UNL     1       6.337  -1.108  -4.125  1.00  0.00     0.060 A 
ATOM     38  C   UNL     1       6.750  -2.022  -3.154  1.00  0.00     0.016 A 
ATOM     39  C   UNL     1       6.743  -1.260  -5.450  1.00  0.00     0.016 A 
ATOM     40  C   UNL     1       7.525  -3.119  -3.493  1.00  0.00     0.010 A 
ATOM     41  C   UNL     1       7.544  -2.354  -5.794  1.00  0.00     0.010 A 
ATOM     42  C   UNL     1       7.925  -3.293  -4.819  1.00  0.00    -0.014 A 
BRANCH  42  43
ATOM     43  C   UNL     1       8.786  -4.445  -5.153  1.00  0.00     0.031 A 
ATOM     44  C   UNL     1      10.251  -4.231  -5.366  1.00  0.00     0.074 A 
ATOM     45  C   UNL     1       8.254  -5.679  -5.208  1.00  0.00     0.049 A 
ATOM     46  N   UNL     1      11.162  -5.077  -5.769  1.00  0.00    -0.248 NA
ATOM     47  C   UNL     1      10.762  -2.881  -5.081  1.00  0.00     0.031 C 
ATOM     48  C   UNL     1       6.854  -6.005  -4.930  1.00  0.00     0.029 A 
ATOM     49  N   UNL     1       8.825  -6.885  -5.518  1.00  0.00    -0.354 N 
ATOM     50  C   UNL     1      12.348  -4.360  -5.810  1.00  0.00     0.074 A 
ATOM     51  C   UNL     1      12.043  -3.006  -5.398  1.00  0.00     0.031 C 
ATOM     52  C   UNL     1       6.672  -7.325  -5.099  1.00  0.00     0.029 A 
ATOM     53  C   UNL     1       7.926  -7.922  -5.549  1.00  0.00     0.049 A 
ATOM     54  H   UNL     1       9.786  -6.997  -5.701  1.00  0.00     0.167 HD
ATOM     55  C   UNL     1      13.578  -4.800  -6.163  1.00  0.00     0.037 A 
ATOM     56  C   UNL     1       8.090  -9.198  -5.945  1.00  0.00     0.037 A 
ATOM     57  C   UNL     1      13.862  -6.152  -6.567  1.00  0.00     0.049 A 
ATOM     58  C   UNL     1       9.449  -9.640  -6.418  1.00  0.00     0.074 A 
ATOM     59  C   UNL     1      15.069  -6.703  -6.959  1.00  0.00     0.029 A 
ATOM     60  N   UNL     1      12.918  -7.169  -6.629  1.00  0.00    -0.354 N 
ATOM     61  N   UNL     1      10.564  -8.953  -6.488  1.00  0.00    -0.248 NA
ATOM     62  C   UNL     1       9.572 -11.030  -6.877  1.00  0.00     0.031 C 
ATOM     63  C   UNL     1      14.846  -8.041  -7.302  1.00  0.00     0.029 A 
ATOM     64  C   UNL     1      13.511  -8.339  -7.074  1.00  0.00     0.049 A 
ATOM     65  H   UNL     1      11.968  -7.072  -6.391  1.00  0.00     0.167 HD
ATOM     66  C   UNL     1      11.522  -9.826  -6.983  1.00  0.00     0.074 A 
ATOM     67  C   UNL     1      10.861 -11.101  -7.177  1.00  0.00     0.031 C 
ATOM     68  C   UNL     1      12.830  -9.595  -7.256  1.00  0.00     0.037 A 
BRANCH  55  69
ATOM     69  C   UNL     1      14.694  -3.797  -6.173  1.00  0.00     0.064 A 
ATOM     70  C   UNL     1      15.238  -3.283  -4.988  1.00  0.00     0.173 A 
ATOM     71  C   UNL     1      15.236  -3.357  -7.390  1.00  0.00     0.173 A 
ATOM     72  F   UNL     1      14.742  -3.657  -3.799  1.00  0.00    -0.203 F 
ATOM     73  C   UNL     1      16.268  -2.346  -5.021  1.00  0.00     0.198 A 
ATOM     74  C   UNL     1      16.284  -2.440  -7.419  1.00  0.00     0.198 A 
ATOM     75  F   UNL     1      14.751  -3.817  -8.553  1.00  0.00    -0.203 F 
ATOM     76  F   UNL     1      16.740  -1.831  -3.877  1.00  0.00    -0.200 F 
ATOM     77  C   UNL     1      16.794  -1.930  -6.235  1.00  0.00     0.200 A 
ATOM     78  F   UNL     1      16.796  -2.047  -8.593  1.00  0.00    -0.200 F 
ATOM     79  F   UNL     1      17.786  -1.030  -6.264  1.00  0.00    -0.200 F 
ENDBRANCH  55  69
BRANCH  56  80
ATOM     80  C   UNL     1       6.930 -10.127  -5.960  1.00  0.00     0.064 A 
ATOM     81  C   UNL     1       6.864 -11.223  -5.091  1.00  0.00     0.173 A 
ATOM     82  C   UNL     1       5.862  -9.937  -6.851  1.00  0.00     0.173 A 
ATOM     83  F   UNL     1       7.872 -11.463  -4.238  1.00  0.00    -0.203 F 
ATOM     84  C   UNL     1       5.783 -12.102  -5.121  1.00  0.00     0.198 A 
ATOM     85  C   UNL     1       4.767 -10.798  -6.860  1.00  0.00     0.198 A 
ATOM     86  F   UNL     1       5.876  -8.904  -7.707  1.00  0.00    -0.203 F 
ATOM     87  F   UNL     1       5.766 -13.168  -4.310  1.00  0.00    -0.200 F 
ATOM     88  C   UNL     1       4.732 -11.885  -6.000  1.00  0.00     0.200 A 
ATOM     89  F   UNL     1       3.749 -10.576  -7.702  1.00  0.00    -0.200 F 
ATOM     90  F   UNL     1       3.690 -12.727  -6.025  1.00  0.00    -0.200 F 
ENDBRANCH  56  80
BRANCH  68  91
ATOM     91  C   UNL     1      13.635 -10.752  -7.768  1.00  0.00     0.064 A 
ATOM     92  C   UNL     1      13.480 -11.232  -9.077  1.00  0.00     0.173 A 
ATOM     93  C   UNL     1      14.605 -11.357  -6.955  1.00  0.00     0.173 A 
ATOM     94  F   UNL     1      12.553 -10.697  -9.886  1.00  0.00    -0.203 F 
ATOM     95  C   UNL     1      14.255 -12.289  -9.547  1.00  0.00     0.198 A 
ATOM     96  C   UNL     1      15.398 -12.394  -7.437  1.00  0.00     0.198 A 
ATOM     97  F   UNL     1      14.795 -10.930  -5.698  1.00  0.00    -0.203 F 
ATOM     98  F   UNL     1      14.062 -12.759 -10.787  1.00  0.00    -0.200 F 
ATOM     99  C   UNL     1      15.218 -12.863  -8.730  1.00  0.00     0.200 A 
ATOM    100  F   UNL     1      16.337 -12.939  -6.652  1.00  0.00    -0.200 F 
ATOM    101  F   UNL     1      15.970 -13.873  -9.187  1.00  0.00    -0.200 F 
ENDBRANCH  68  91
ENDBRANCH  42  43
ENDBRANCH  35  37
ENDBRANCH  34  35
ENDBRANCH  33  34
ENDBRANCH   1  33
TORSDOF 15
