REMARK SMILES CCCCCCCNC(=O)Oc1cccc(-c2ccc([C@@H](C)C(=O)OCCOC(=O)c3ccc(-c4c5nc(c(-c6c(F)c(F)c(F)c(F)c6F)c6ccc([nH]6)c(-c6c(F)c(F)c(F)c(F)c6F)c6nc(c(-c7c(F)c(F)c(F)c(F)c7F)c7ccc4[nH]7)C=C6)C=C5)cc3)cc2F)c1
REMARK SMILES IDX 17 1 18 2 19 3 20 4 94 5 95 6 96 7 16 8 12 9 13 10 97 11
REMARK SMILES IDX 14 12 15 13 11 14 9 15 8 16 10 18 7 19 6 20 5 21 4 22 3 23
REMARK SMILES IDX 2 24 1 25 21 26 22 27 23 28 24 29 25 30 26 31 27 32 28 33
REMARK SMILES IDX 29 34 30 35 31 36 32 37 93 38 33 39 92 40 34 41 35 42 36 43
REMARK SMILES IDX 86 44 37 45 91 46 85 47 87 48 38 49 90 50 84 51 83 52 39 54
REMARK SMILES IDX 71 55 51 56 70 57 52 58 55 59 69 60 88 61 53 62 54 63 68 65
REMARK SMILES IDX 89 66 56 67 40 68 41 69 49 70 42 71 43 72 47 73 50 74 44 75
REMARK SMILES IDX 45 76 48 77 46 78 72 79 73 80 81 81 74 82 75 83 79 84 82 85
REMARK SMILES IDX 76 86 77 87 80 88 78 89 57 90 58 91 66 92 59 93 60 94 64 95
REMARK SMILES IDX 67 96 61 97 62 98 65 99 63 100
REMARK H PARENT 8 17 87 53 55 64
REMARK Flexibility Score: inf
ROOT
ATOM      1  C   UNL     1      -6.948  -2.804   9.484  1.00  0.00     0.018 A 
ATOM      2  C   UNL     1      -7.259  -2.533  10.827  1.00  0.00     0.012 A 
ATOM      3  C   UNL     1      -8.480  -1.950  11.190  1.00  0.00     0.005 A 
ATOM      4  C   UNL     1      -9.431  -1.609  10.219  1.00  0.00    -0.031 A 
ATOM      5  C   UNL     1      -9.119  -1.863   8.875  1.00  0.00     0.044 A 
ATOM      6  C   UNL     1      -7.900  -2.444   8.522  1.00  0.00     0.131 A 
ATOM      7  F   UNL     1      -7.675  -2.684   7.220  1.00  0.00    -0.206 F 
ENDROOT
BRANCH   1   8
ATOM      8  C   UNL     1      -5.685  -3.471   9.124  1.00  0.00    -0.012 A 
ATOM      9  C   UNL     1      -3.654  -3.623   7.804  1.00  0.00     0.133 A 
ATOM     10  C   UNL     1      -3.291  -4.806   8.444  1.00  0.00     0.047 A 
ATOM     11  C   UNL     1      -4.842  -2.962   8.123  1.00  0.00     0.056 A 
ATOM     12  C   UNL     1      -4.115  -5.323   9.437  1.00  0.00     0.004 A 
ATOM     13  C   UNL     1      -5.299  -4.662   9.772  1.00  0.00     0.009 A 
BRANCH   9  14
ATOM     14  O   UNL     1      -2.836  -3.201   6.745  1.00  0.00    -0.410 OA
BRANCH  14  15
ATOM     15  C   UNL     1      -2.323  -1.915   6.794  1.00  0.00     0.412 C 
ATOM     16  N   UNL     1      -1.532  -1.614   5.719  1.00  0.00    -0.321 N 
ATOM     17  H   UNL     1      -1.154  -0.705   5.692  1.00  0.00     0.167 HD
ATOM     18  O   UNL     1      -2.506  -1.095   7.686  1.00  0.00    -0.224 OA
BRANCH  16  19
ATOM     19  C   UNL     1      -1.191  -2.490   4.615  1.00  0.00     0.119 C 
BRANCH  19  20
ATOM     20  C   UNL     1      -1.692  -1.951   3.275  1.00  0.00     0.021 C 
BRANCH  20  21
ATOM     21  C   UNL     1      -1.093  -0.602   2.857  1.00  0.00     0.002 C 
BRANCH  21  22
ATOM     22  C   UNL     1       0.434  -0.567   2.735  1.00  0.00     0.000 C 
BRANCH  22  23
ATOM     23  C   UNL     1       1.033  -1.536   1.709  1.00  0.00    -0.000 C 
BRANCH  23  24
ATOM     24  C   UNL     1       0.577  -1.324   0.263  1.00  0.00    -0.003 C 
ATOM     25  C   UNL     1       0.940   0.045  -0.291  1.00  0.00     0.004 C 
ENDBRANCH  23  24
ENDBRANCH  22  23
ENDBRANCH  21  22
ENDBRANCH  20  21
ENDBRANCH  19  20
ENDBRANCH  16  19
ENDBRANCH  14  15
ENDBRANCH   9  14
ENDBRANCH   1   8
BRANCH   4  26
ATOM     26  C   UNL     1     -10.770  -0.988  10.585  1.00  0.00     0.126 C 
ATOM     27  C   UNL     1     -11.566  -1.844  11.566  1.00  0.00     0.025 C 
BRANCH  26  28
ATOM     28  C   UNL     1     -10.722   0.456  11.070  1.00  0.00     0.313 C 
ATOM     29  O   UNL     1     -11.653   1.235  10.886  1.00  0.00    -0.252 OA
BRANCH  28  30
ATOM     30  O   UNL     1      -9.586   0.768  11.745  1.00  0.00    -0.462 OA
BRANCH  30  31
ATOM     31  C   UNL     1      -9.437   2.133  12.180  1.00  0.00     0.274 C 
BRANCH  31  32
ATOM     32  C   UNL     1      -8.534   2.925  11.232  1.00  0.00     0.275 C 
BRANCH  32  33
ATOM     33  O   UNL     1      -9.179   3.155   9.965  1.00  0.00    -0.458 OA
BRANCH  33  34
ATOM     34  C   UNL     1      -8.866   2.267   8.994  1.00  0.00     0.338 C 
ATOM     35  O   UNL     1      -8.081   1.339   9.057  1.00  0.00    -0.246 OA
BRANCH  34  36
ATOM     36  C   UNL     1      -9.729   2.496   7.828  1.00  0.00     0.060 A 
ATOM     37  C   UNL     1     -10.675   1.520   7.508  1.00  0.00     0.016 A 
ATOM     38  C   UNL     1      -9.555   3.612   7.010  1.00  0.00     0.016 A 
ATOM     39  C   UNL     1     -11.449   1.645   6.360  1.00  0.00     0.010 A 
ATOM     40  C   UNL     1     -10.339   3.744   5.860  1.00  0.00     0.010 A 
ATOM     41  C   UNL     1     -11.282   2.755   5.523  1.00  0.00    -0.014 A 
BRANCH  41  42
ATOM     42  C   UNL     1     -12.069   2.858   4.273  1.00  0.00     0.031 A 
ATOM     43  C   UNL     1     -11.408   2.603   2.951  1.00  0.00     0.074 A 
ATOM     44  C   UNL     1     -13.378   3.161   4.331  1.00  0.00     0.049 A 
ATOM     45  N   UNL     1     -11.893   2.732   1.743  1.00  0.00    -0.248 NA
ATOM     46  C   UNL     1     -10.012   2.139   2.995  1.00  0.00     0.031 C 
ATOM     47  C   UNL     1     -14.139   3.380   5.561  1.00  0.00     0.029 A 
ATOM     48  N   UNL     1     -14.298   3.342   3.329  1.00  0.00    -0.354 N 
ATOM     49  C   UNL     1     -10.860   2.387   0.883  1.00  0.00     0.074 A 
ATOM     50  C   UNL     1      -9.716   2.055   1.705  1.00  0.00     0.031 C 
ATOM     51  C   UNL     1     -15.411   3.668   5.241  1.00  0.00     0.029 A 
ATOM     52  C   UNL     1     -15.541   3.701   3.787  1.00  0.00     0.049 A 
ATOM     53  H   UNL     1     -14.087   3.225   2.375  1.00  0.00     0.167 HD
ATOM     54  C   UNL     1     -10.871   2.351  -0.471  1.00  0.00     0.037 A 
ATOM     55  C   UNL     1     -16.651   4.047   3.107  1.00  0.00     0.037 A 
ATOM     56  C   UNL     1     -12.017   2.667  -1.283  1.00  0.00     0.049 A 
ATOM     57  C   UNL     1     -16.617   4.057   1.603  1.00  0.00     0.074 A 
ATOM     58  C   UNL     1     -12.131   2.651  -2.662  1.00  0.00     0.029 A 
ATOM     59  N   UNL     1     -13.252   3.057  -0.784  1.00  0.00    -0.354 N 
ATOM     60  N   UNL     1     -15.633   3.743   0.796  1.00  0.00    -0.248 NA
ATOM     61  C   UNL     1     -17.845   4.479   0.916  1.00  0.00     0.031 C 
ATOM     62  C   UNL     1     -13.424   3.067  -2.999  1.00  0.00     0.029 A 
ATOM     63  C   UNL     1     -14.128   3.303  -1.830  1.00  0.00     0.049 A 
ATOM     64  H   UNL     1     -13.473   3.146   0.171  1.00  0.00     0.167 HD
ATOM     65  C   UNL     1     -16.127   3.909  -0.490  1.00  0.00     0.074 A 
ATOM     66  C   UNL     1     -17.503   4.340  -0.357  1.00  0.00     0.031 C 
ATOM     67  C   UNL     1     -15.496   3.725  -1.676  1.00  0.00     0.037 A 
BRANCH  54  68
ATOM     68  C   UNL     1      -9.593   1.982  -1.163  1.00  0.00     0.064 A 
ATOM     69  C   UNL     1      -9.119   0.662  -1.181  1.00  0.00     0.173 A 
ATOM     70  C   UNL     1      -8.854   2.956  -1.850  1.00  0.00     0.173 A 
ATOM     71  F   UNL     1      -9.784  -0.303  -0.528  1.00  0.00    -0.203 F 
ATOM     72  C   UNL     1      -7.939   0.336  -1.844  1.00  0.00     0.198 A 
ATOM     73  C   UNL     1      -7.687   2.622  -2.531  1.00  0.00     0.198 A 
ATOM     74  F   UNL     1      -9.267   4.232  -1.866  1.00  0.00    -0.203 F 
ATOM     75  F   UNL     1      -7.483  -0.924  -1.817  1.00  0.00    -0.200 F 
ATOM     76  C   UNL     1      -7.228   1.314  -2.524  1.00  0.00     0.200 A 
ATOM     77  F   UNL     1      -7.006   3.566  -3.196  1.00  0.00    -0.200 F 
ATOM     78  F   UNL     1      -6.095   0.997  -3.167  1.00  0.00    -0.200 F 
ENDBRANCH  54  68
BRANCH  55  79
ATOM     79  C   UNL     1     -17.878   4.438   3.845  1.00  0.00     0.064 A 
ATOM     80  C   UNL     1     -19.017   3.622   3.834  1.00  0.00     0.173 A 
ATOM     81  C   UNL     1     -17.939   5.636   4.572  1.00  0.00     0.173 A 
ATOM     82  F   UNL     1     -19.016   2.480   3.131  1.00  0.00    -0.203 F 
ATOM     83  C   UNL     1     -20.175   3.997   4.513  1.00  0.00     0.198 A 
ATOM     84  C   UNL     1     -19.087   5.997   5.271  1.00  0.00     0.198 A 
ATOM     85  F   UNL     1     -16.876   6.453   4.610  1.00  0.00    -0.203 F 
ATOM     86  F   UNL     1     -21.265   3.219   4.453  1.00  0.00    -0.200 F 
ATOM     87  C   UNL     1     -20.207   5.180   5.236  1.00  0.00     0.200 A 
ATOM     88  F   UNL     1     -19.111   7.136   5.977  1.00  0.00    -0.200 F 
ATOM     89  F   UNL     1     -21.320   5.537   5.891  1.00  0.00    -0.200 F 
ENDBRANCH  55  79
BRANCH  67  90
ATOM     90  C   UNL     1     -16.297   3.962  -2.921  1.00  0.00     0.064 A 
ATOM     91  C   UNL     1     -16.616   5.257  -3.351  1.00  0.00     0.173 A 
ATOM     92  C   UNL     1     -16.715   2.881  -3.712  1.00  0.00     0.173 A 
ATOM     93  F   UNL     1     -16.253   6.321  -2.619  1.00  0.00    -0.203 F 
ATOM     94  C   UNL     1     -17.344   5.462  -4.521  1.00  0.00     0.198 A 
ATOM     95  C   UNL     1     -17.420   3.091  -4.894  1.00  0.00     0.198 A 
ATOM     96  F   UNL     1     -16.429   1.623  -3.345  1.00  0.00    -0.203 F 
ATOM     97  F   UNL     1     -17.673   6.707  -4.894  1.00  0.00    -0.200 F 
ATOM     98  C   UNL     1     -17.739   4.380  -5.294  1.00  0.00     0.200 A 
ATOM     99  F   UNL     1     -17.793   2.046  -5.644  1.00  0.00    -0.200 F 
ATOM    100  F   UNL     1     -18.434   4.580  -6.422  1.00  0.00    -0.200 F 
ENDBRANCH  67  90
ENDBRANCH  41  42
ENDBRANCH  34  36
ENDBRANCH  33  34
ENDBRANCH  32  33
ENDBRANCH  31  32
ENDBRANCH  30  31
ENDBRANCH  28  30
ENDBRANCH  26  28
ENDBRANCH   4  26
TORSDOF 21
