REMARK SMILES Cc1nc(-c2ccccn2)cc(N2CCC[C@H](C(=O)OCCOC(=O)c3ccc(-c4c5nc(c(-c6c(F)c(F)c(F)c(F)c6F)c6ccc([nH]6)c(-c6c(F)c(F)c(F)c(F)c6F)c6nc(c(-c7c(F)c(F)c(F)c(F)c7F)c7ccc4[nH]7)C=C6)C=C5)cc3)C2)n1
REMARK SMILES IDX 21 1 20 2 18 3 19 4 17 5 13 6 14 7 89 8 15 9 16 10 12 11
REMARK SMILES IDX 1 12 2 13 3 14 90 15 4 16 11 17 5 18 6 19 10 20 7 21 9 22
REMARK SMILES IDX 8 23 22 24 23 25 24 26 25 27 26 28 27 29 88 30 28 31 87 32
REMARK SMILES IDX 29 33 30 34 31 35 81 36 32 37 86 38 80 39 82 40 33 41 85 42
REMARK SMILES IDX 79 43 78 44 34 46 66 47 46 48 65 49 47 50 50 51 64 52 83 53
REMARK SMILES IDX 48 54 49 55 63 57 84 58 51 59 35 60 36 61 44 62 37 63 38 64
REMARK SMILES IDX 42 65 45 66 39 67 40 68 43 69 41 70 67 71 68 72 76 73 69 74
REMARK SMILES IDX 70 75 74 76 77 77 71 78 72 79 75 80 73 81 52 82 53 83 61 84
REMARK SMILES IDX 54 85 55 86 59 87 62 88 56 89 57 90 60 91 58 92
REMARK H PARENT 82 45 50 56
REMARK Flexibility Score: inf
ROOT
ATOM      1  C   UNL     1       4.839   0.898   2.016  1.00  0.00     0.274 C 
ENDROOT
BRANCH   1   2
ATOM      2  O   UNL     1       4.228   1.876   1.153  1.00  0.00    -0.462 OA
BRANCH   2   3
ATOM      3  C   UNL     1       3.396   2.781   1.730  1.00  0.00     0.310 C 
ATOM      4  O   UNL     1       3.139   2.821   2.928  1.00  0.00    -0.252 OA
BRANCH   3   5
ATOM      5  C   UNL     1       2.784   3.760   0.738  1.00  0.00     0.118 C 
ATOM      6  N   UNL     1       1.542   2.236  -0.665  1.00  0.00    -0.356 N 
ATOM      7  C   UNL     1       2.222   2.559  -1.905  1.00  0.00     0.118 C 
ATOM      8  C   UNL     1       1.393   3.272   0.339  1.00  0.00     0.133 C 
ATOM      9  C   UNL     1       3.635   3.038  -1.588  1.00  0.00     0.022 C 
ATOM     10  C   UNL     1       3.655   4.100  -0.483  1.00  0.00     0.019 C 
BRANCH   6  11
ATOM     11  C   UNL     1       0.905   1.035  -0.478  1.00  0.00     0.132 A 
ATOM     12  C   UNL     1      -2.475  -0.160   0.232  1.00  0.00     0.090 C 
ATOM     13  C   UNL     1      -0.991  -0.147   0.048  1.00  0.00     0.128 A 
ATOM     14  N   UNL     1      -0.351  -1.326   0.088  1.00  0.00    -0.231 NA
ATOM     15  N   UNL     1      -0.402   1.039  -0.181  1.00  0.00    -0.216 NA
ATOM     16  C   UNL     1       0.969  -1.298  -0.187  1.00  0.00     0.094 A 
ATOM     17  C   UNL     1       1.632  -0.133  -0.510  1.00  0.00     0.077 A 
BRANCH  16  18
ATOM     18  C   UNL     1       1.705  -2.559  -0.061  1.00  0.00     0.089 A 
ATOM     19  C   UNL     1       2.504  -2.820   1.054  1.00  0.00     0.030 A 
ATOM     20  N   UNL     1       1.617  -3.419  -1.108  1.00  0.00    -0.255 NA
ATOM     21  C   UNL     1       3.232  -4.005   1.101  1.00  0.00     0.004 A 
ATOM     22  C   UNL     1       2.321  -4.568  -1.026  1.00  0.00     0.112 A 
ATOM     23  C   UNL     1       3.137  -4.900   0.042  1.00  0.00     0.020 A 
ENDBRANCH  16  18
ENDBRANCH   6  11
ENDBRANCH   3   5
ENDBRANCH   2   3
ENDBRANCH   1   2
BRANCH   1  24
ATOM     24  C   UNL     1       6.311   1.225   2.272  1.00  0.00     0.275 C 
BRANCH  24  25
ATOM     25  O   UNL     1       6.442   2.429   3.049  1.00  0.00    -0.458 OA
BRANCH  25  26
ATOM     26  C   UNL     1       6.648   3.554   2.327  1.00  0.00     0.338 C 
ATOM     27  O   UNL     1       6.817   3.650   1.125  1.00  0.00    -0.246 OA
BRANCH  26  28
ATOM     28  C   UNL     1       6.494   4.722   3.206  1.00  0.00     0.060 A 
ATOM     29  C   UNL     1       5.414   5.576   2.974  1.00  0.00     0.016 A 
ATOM     30  C   UNL     1       7.433   5.012   4.196  1.00  0.00     0.016 A 
ATOM     31  C   UNL     1       5.262   6.731   3.733  1.00  0.00     0.010 A 
ATOM     32  C   UNL     1       7.284   6.177   4.955  1.00  0.00     0.010 A 
ATOM     33  C   UNL     1       6.204   7.046   4.719  1.00  0.00    -0.014 A 
BRANCH  33  34
ATOM     34  C   UNL     1       6.086   8.324   5.457  1.00  0.00     0.031 A 
ATOM     35  C   UNL     1       6.978   9.474   5.093  1.00  0.00     0.074 A 
ATOM     36  C   UNL     1       5.165   8.456   6.428  1.00  0.00     0.049 A 
ATOM     37  N   UNL     1       7.083  10.651   5.654  1.00  0.00    -0.248 NA
ATOM     38  C   UNL     1       7.872   9.272   3.942  1.00  0.00     0.031 C 
ATOM     39  C   UNL     1       4.216   7.421   6.835  1.00  0.00     0.029 A 
ATOM     40  N   UNL     1       4.881   9.517   7.250  1.00  0.00    -0.354 N 
ATOM     41  C   UNL     1       8.066  11.323   4.940  1.00  0.00     0.074 A 
ATOM     42  C   UNL     1       8.536  10.419   3.912  1.00  0.00     0.031 C 
ATOM     43  C   UNL     1       3.457   7.895   7.836  1.00  0.00     0.029 A 
ATOM     44  C   UNL     1       3.893   9.250   8.165  1.00  0.00     0.049 A 
ATOM     45  H   UNL     1       5.341  10.385   7.190  1.00  0.00     0.167 HD
ATOM     46  C   UNL     1       8.529  12.581   5.129  1.00  0.00     0.037 A 
ATOM     47  C   UNL     1       3.415  10.008   9.170  1.00  0.00     0.037 A 
ATOM     48  C   UNL     1       8.045  13.480   6.142  1.00  0.00     0.049 A 
ATOM     49  C   UNL     1       3.980  11.386   9.385  1.00  0.00     0.074 A 
ATOM     50  C   UNL     1       8.438  14.782   6.402  1.00  0.00     0.029 A 
ATOM     51  N   UNL     1       7.057  13.169   7.064  1.00  0.00    -0.354 N 
ATOM     52  N   UNL     1       4.908  12.014   8.705  1.00  0.00    -0.248 NA
ATOM     53  C   UNL     1       3.433  12.159  10.509  1.00  0.00     0.031 C 
ATOM     54  C   UNL     1       7.715  15.245   7.506  1.00  0.00     0.029 A 
ATOM     55  C   UNL     1       6.841  14.248   7.907  1.00  0.00     0.049 A 
ATOM     56  H   UNL     1       6.579  12.310   7.113  1.00  0.00     0.167 HD
ATOM     57  C   UNL     1       5.043  13.259   9.304  1.00  0.00     0.074 A 
ATOM     58  C   UNL     1       4.091  13.304  10.394  1.00  0.00     0.031 C 
ATOM     59  C   UNL     1       5.883  14.273   8.982  1.00  0.00     0.037 A 
BRANCH  46  60
ATOM     60  C   UNL     1       9.638  13.051   4.237  1.00  0.00     0.064 A 
ATOM     61  C   UNL     1       9.411  13.396   2.897  1.00  0.00     0.173 A 
ATOM     62  C   UNL     1      10.938  13.197   4.743  1.00  0.00     0.173 A 
ATOM     63  F   UNL     1       8.188  13.259   2.362  1.00  0.00    -0.203 F 
ATOM     64  C   UNL     1      10.450  13.855   2.091  1.00  0.00     0.198 A 
ATOM     65  C   UNL     1      11.970  13.678   3.942  1.00  0.00     0.198 A 
ATOM     66  F   UNL     1      11.206  12.882   6.020  1.00  0.00    -0.203 F 
ATOM     67  F   UNL     1      10.220  14.145   0.803  1.00  0.00    -0.200 F 
ATOM     68  C   UNL     1      11.726  14.002   2.615  1.00  0.00     0.200 A 
ATOM     69  F   UNL     1      13.200  13.827   4.452  1.00  0.00    -0.200 F 
ATOM     70  F   UNL     1      12.723  14.450   1.840  1.00  0.00    -0.200 F 
ENDBRANCH  46  60
BRANCH  47  71
ATOM     71  C   UNL     1       2.360   9.469  10.066  1.00  0.00     0.064 A 
ATOM     72  C   UNL     1       1.059   9.987  10.045  1.00  0.00     0.173 A 
ATOM     73  C   UNL     1       2.636   8.430  10.968  1.00  0.00     0.173 A 
ATOM     74  F   UNL     1       0.754  10.998   9.219  1.00  0.00    -0.203 F 
ATOM     75  C   UNL     1       0.076   9.498  10.904  1.00  0.00     0.198 A 
ATOM     76  C   UNL     1       1.647   7.924  11.807  1.00  0.00     0.198 A 
ATOM     77  F   UNL     1       3.868   7.903  11.028  1.00  0.00    -0.203 F 
ATOM     78  F   UNL     1      -1.149  10.041  10.896  1.00  0.00    -0.200 F 
ATOM     79  C   UNL     1       0.369   8.463  11.780  1.00  0.00     0.200 A 
ATOM     80  F   UNL     1       1.932   6.918  12.645  1.00  0.00    -0.200 F 
ATOM     81  F   UNL     1      -0.576   7.992  12.604  1.00  0.00    -0.200 F 
ENDBRANCH  47  71
BRANCH  59  82
ATOM     82  C   UNL     1       5.790  15.526   9.802  1.00  0.00     0.064 A 
ATOM     83  C   UNL     1       6.295  15.585  11.108  1.00  0.00     0.173 A 
ATOM     84  C   UNL     1       5.225  16.689   9.259  1.00  0.00     0.173 A 
ATOM     85  F   UNL     1       6.831  14.494  11.675  1.00  0.00    -0.203 F 
ATOM     86  C   UNL     1       6.220  16.761  11.850  1.00  0.00     0.198 A 
ATOM     87  C   UNL     1       5.173  17.870   9.995  1.00  0.00     0.198 A 
ATOM     88  F   UNL     1       4.733  16.683   8.011  1.00  0.00    -0.203 F 
ATOM     89  F   UNL     1       6.673  16.786  13.111  1.00  0.00    -0.200 F 
ATOM     90  C   UNL     1       5.665  17.903  11.291  1.00  0.00     0.200 A 
ATOM     91  F   UNL     1       4.647  18.975   9.449  1.00  0.00    -0.200 F 
ATOM     92  F   UNL     1       5.599  19.035  12.005  1.00  0.00    -0.200 F 
ENDBRANCH  59  82
ENDBRANCH  33  34
ENDBRANCH  26  28
ENDBRANCH  25  26
ENDBRANCH  24  25
ENDBRANCH   1  24
TORSDOF 13
