REMARK SMILES COc1ccc([C@H]2CC(c3ccc(S(C)(=O)=O)cc3)=NN2c2ccc(C(=O)OCCOC(=O)c3ccc(-c4c5nc(c(-c6c(F)c(F)c(F)c(F)c6F)c6ccc([nH]6)c(-c6c(F)c(F)c(F)c(F)c6F)c6nc(c(-c7c(F)c(F)c(F)c(F)c7F)c7ccc4[nH]7)C=C6)C=C5)cc3)cc2)cc1
REMARK SMILES IDX 29 1 28 2 26 3 27 4 25 5 22 6 23 7 98 8 24 9 97 10 21 11
REMARK SMILES IDX 7 12 8 13 9 14 20 15 6 16 3 17 4 18 100 19 5 20 99 21 2 22
REMARK SMILES IDX 1 23 10 24 11 25 19 26 12 27 18 28 13 29 14 30 15 31 16 32
REMARK SMILES IDX 17 33 30 34 31 35 32 36 33 37 34 38 35 39 96 40 36 41 95 42
REMARK SMILES IDX 37 43 38 44 39 45 89 46 40 47 94 48 88 49 90 50 41 51 93 52
REMARK SMILES IDX 87 53 86 54 42 56 74 57 54 58 73 59 55 60 58 61 72 62 91 63
REMARK SMILES IDX 56 64 57 65 71 67 92 68 59 69 43 70 44 71 52 72 45 73 46 74
REMARK SMILES IDX 50 75 53 76 47 77 48 78 51 79 49 80 75 81 76 82 84 83 77 84
REMARK SMILES IDX 78 85 82 86 85 87 79 88 80 89 83 90 81 91 60 92 61 93 69 94
REMARK SMILES IDX 62 95 63 96 67 97 70 98 64 99 65 100 68 101 66 102
REMARK H PARENT 90 55 58 66
REMARK Flexibility Score: inf
ROOT
ATOM      1  C   UNL     1       2.138   4.348  10.062  1.00  0.00     0.275 C 
ENDROOT
BRANCH   1   2
ATOM      2  O   UNL     1       2.224   2.969   9.644  1.00  0.00    -0.458 OA
BRANCH   2   3
ATOM      3  C   UNL     1       2.544   2.780   8.341  1.00  0.00     0.338 C 
ATOM      4  O   UNL     1       2.765   3.650   7.511  1.00  0.00    -0.246 OA
BRANCH   3   5
ATOM      5  C   UNL     1       2.679   1.343   8.029  1.00  0.00     0.060 A 
ATOM      6  C   UNL     1       2.908  -1.320   7.138  1.00  0.00     0.060 A 
ATOM      7  C   UNL     1       3.937  -0.404   6.920  1.00  0.00     0.029 A 
ATOM      8  C   UNL     1       1.778  -0.891   7.853  1.00  0.00     0.029 A 
ATOM      9  C   UNL     1       3.806   0.919   7.322  1.00  0.00     0.018 A 
ATOM     10  C   UNL     1       1.669   0.428   8.321  1.00  0.00     0.018 A 
BRANCH   6  11
ATOM     11  N   UNL     1       3.013  -2.599   6.610  1.00  0.00    -0.257 N 
ATOM     12  C   UNL     1       2.031  -3.186   5.697  1.00  0.00     0.144 C 
ATOM     13  C   UNL     1       2.722  -4.484   5.253  1.00  0.00     0.091 C 
ATOM     14  C   UNL     1       4.053  -4.325   5.932  1.00  0.00     0.071 C 
ATOM     15  N   UNL     1       4.197  -3.267   6.663  1.00  0.00    -0.176 NA
BRANCH  12  16
ATOM     16  C   UNL     1       1.677  -2.271   4.530  1.00  0.00    -0.023 A 
ATOM     17  C   UNL     1       0.936  -0.618   2.360  1.00  0.00     0.118 A 
ATOM     18  C   UNL     1       0.020  -0.917   3.366  1.00  0.00     0.047 A 
ATOM     19  C   UNL     1       2.239  -1.102   2.458  1.00  0.00     0.047 A 
ATOM     20  C   UNL     1       0.381  -1.741   4.436  1.00  0.00     0.010 A 
ATOM     21  C   UNL     1       2.609  -1.914   3.540  1.00  0.00     0.010 A 
BRANCH  17  22
ATOM     22  O   UNL     1       0.462   0.188   1.361  1.00  0.00    -0.497 OA
ATOM     23  C   UNL     1       1.087   0.031   0.092  1.00  0.00     0.278 C 
ENDBRANCH  17  22
ENDBRANCH  12  16
BRANCH  14  24
ATOM     24  C   UNL     1       5.084  -5.366   5.831  1.00  0.00    -0.002 A 
ATOM     25  C   UNL     1       5.608  -5.890   7.019  1.00  0.00     0.011 A 
ATOM     26  C   UNL     1       5.504  -5.847   4.590  1.00  0.00     0.011 A 
ATOM     27  C   UNL     1       6.531  -6.934   6.968  1.00  0.00     0.021 A 
ATOM     28  C   UNL     1       6.451  -6.874   4.536  1.00  0.00     0.021 A 
ATOM     29  C   UNL     1       6.951  -7.417   5.725  1.00  0.00     0.067 A 
BRANCH  29  30
ATOM     30  S   UNL     1       8.086  -8.786   5.669  1.00  0.00     0.175 S 
ATOM     31  C   UNL     1       9.547  -8.186   6.474  1.00  0.00     0.163 C 
ATOM     32  O   UNL     1       7.508  -9.835   6.488  1.00  0.00    -0.224 OA
ATOM     33  O   UNL     1       8.417  -9.022   4.277  1.00  0.00    -0.224 OA
ENDBRANCH  29  30
ENDBRANCH  14  24
ENDBRANCH   6  11
ENDBRANCH   3   5
ENDBRANCH   2   3
ENDBRANCH   1   2
BRANCH   1  34
ATOM     34  C   UNL     1       3.419   4.810  10.757  1.00  0.00     0.275 C 
BRANCH  34  35
ATOM     35  O   UNL     1       4.514   4.849   9.823  1.00  0.00    -0.458 OA
BRANCH  35  36
ATOM     36  C   UNL     1       5.524   3.986  10.075  1.00  0.00     0.338 C 
ATOM     37  O   UNL     1       5.633   3.219  11.016  1.00  0.00    -0.246 OA
BRANCH  36  38
ATOM     38  C   UNL     1       6.530   4.051   9.003  1.00  0.00     0.060 A 
ATOM     39  C   UNL     1       6.184   3.628   7.727  1.00  0.00     0.016 A 
ATOM     40  C   UNL     1       7.859   4.341   9.300  1.00  0.00     0.016 A 
ATOM     41  C   UNL     1       7.173   3.328   6.795  1.00  0.00     0.010 A 
ATOM     42  C   UNL     1       8.838   4.188   8.309  1.00  0.00     0.010 A 
ATOM     43  C   UNL     1       8.518   3.624   7.060  1.00  0.00    -0.014 A 
BRANCH  43  44
ATOM     44  C   UNL     1       9.579   3.321   6.051  1.00  0.00     0.031 A 
ATOM     45  C   UNL     1      10.778   2.486   6.426  1.00  0.00     0.074 A 
ATOM     46  C   UNL     1       9.473   3.779   4.786  1.00  0.00     0.049 A 
ATOM     47  N   UNL     1      11.888   2.274   5.761  1.00  0.00    -0.248 NA
ATOM     48  C   UNL     1      10.730   1.810   7.732  1.00  0.00     0.031 C 
ATOM     49  C   UNL     1       8.351   4.553   4.253  1.00  0.00     0.029 A 
ATOM     50  N   UNL     1      10.318   3.648   3.709  1.00  0.00    -0.354 N 
ATOM     51  C   UNL     1      12.692   1.503   6.592  1.00  0.00     0.074 A 
ATOM     52  C   UNL     1      11.946   1.288   7.814  1.00  0.00     0.031 C 
ATOM     53  C   UNL     1       8.545   4.774   2.946  1.00  0.00     0.029 A 
ATOM     54  C   UNL     1       9.855   4.260   2.570  1.00  0.00     0.049 A 
ATOM     55  H   UNL     1      11.173   3.162   3.751  1.00  0.00     0.167 HD
ATOM     56  C   UNL     1      13.937   1.020   6.358  1.00  0.00     0.037 A 
ATOM     57  C   UNL     1      10.433   4.436   1.367  1.00  0.00     0.037 A 
ATOM     58  C   UNL     1      14.652   1.184   5.117  1.00  0.00     0.049 A 
ATOM     59  C   UNL     1      11.831   3.935   1.145  1.00  0.00     0.074 A 
ATOM     60  C   UNL     1      15.910   0.717   4.775  1.00  0.00     0.029 A 
ATOM     61  N   UNL     1      14.163   1.858   4.007  1.00  0.00    -0.354 N 
ATOM     62  N   UNL     1      12.608   3.266   1.960  1.00  0.00    -0.248 NA
ATOM     63  C   UNL     1      12.441   4.240  -0.156  1.00  0.00     0.031 C 
ATOM     64  C   UNL     1      16.198   1.143   3.473  1.00  0.00     0.029 A 
ATOM     65  C   UNL     1      15.101   1.833   2.986  1.00  0.00     0.049 A 
ATOM     66  H   UNL     1      13.281   2.290   3.953  1.00  0.00     0.167 HD
ATOM     67  C   UNL     1      13.793   3.057   1.269  1.00  0.00     0.074 A 
ATOM     68  C   UNL     1      13.624   3.654  -0.040  1.00  0.00     0.031 C 
ATOM     69  C   UNL     1      14.920   2.430   1.686  1.00  0.00     0.037 A 
BRANCH  56  70
ATOM     70  C   UNL     1      14.625   0.299   7.485  1.00  0.00     0.064 A 
ATOM     71  C   UNL     1      14.214  -0.968   7.925  1.00  0.00     0.173 A 
ATOM     72  C   UNL     1      15.728   0.887   8.127  1.00  0.00     0.173 A 
ATOM     73  F   UNL     1      13.162  -1.573   7.353  1.00  0.00    -0.203 F 
ATOM     74  C   UNL     1      14.854  -1.601   8.989  1.00  0.00     0.198 A 
ATOM     75  C   UNL     1      16.385   0.237   9.169  1.00  0.00     0.198 A 
ATOM     76  F   UNL     1      16.172   2.092   7.740  1.00  0.00    -0.203 F 
ATOM     77  F   UNL     1      14.406  -2.785   9.429  1.00  0.00    -0.200 F 
ATOM     78  C   UNL     1      15.941  -1.000   9.607  1.00  0.00     0.200 A 
ATOM     79  F   UNL     1      17.446   0.813   9.753  1.00  0.00    -0.200 F 
ATOM     80  F   UNL     1      16.555  -1.611  10.630  1.00  0.00    -0.200 F 
ENDBRANCH  56  70
BRANCH  57  81
ATOM     81  C   UNL     1       9.694   5.151   0.293  1.00  0.00     0.064 A 
ATOM     82  C   UNL     1       9.246   4.468  -0.845  1.00  0.00     0.173 A 
ATOM     83  C   UNL     1       9.394   6.518   0.395  1.00  0.00     0.173 A 
ATOM     84  F   UNL     1       9.531   3.167  -1.001  1.00  0.00    -0.203 F 
ATOM     85  C   UNL     1       8.524   5.125  -1.840  1.00  0.00     0.198 A 
ATOM     86  C   UNL     1       8.646   7.166  -0.584  1.00  0.00     0.198 A 
ATOM     87  F   UNL     1       9.803   7.218   1.464  1.00  0.00    -0.203 F 
ATOM     88  F   UNL     1       8.134   4.456  -2.933  1.00  0.00    -0.200 F 
ATOM     89  C   UNL     1       8.215   6.470  -1.703  1.00  0.00     0.200 A 
ATOM     90  F   UNL     1       8.335   8.461  -0.439  1.00  0.00    -0.200 F 
ATOM     91  F   UNL     1       7.505   7.096  -2.651  1.00  0.00    -0.200 F 
ENDBRANCH  57  81
BRANCH  69  92
ATOM     92  C   UNL     1      16.047   2.328   0.701  1.00  0.00     0.064 A 
ATOM     93  C   UNL     1      16.823   3.442   0.351  1.00  0.00     0.173 A 
ATOM     94  C   UNL     1      16.365   1.094   0.114  1.00  0.00     0.173 A 
ATOM     95  F   UNL     1      16.545   4.648   0.870  1.00  0.00    -0.203 F 
ATOM     96  C   UNL     1      17.861   3.330  -0.570  1.00  0.00     0.198 A 
ATOM     97  C   UNL     1      17.422   0.979  -0.784  1.00  0.00     0.198 A 
ATOM     98  F   UNL     1      15.655  -0.003   0.417  1.00  0.00    -0.203 F 
ATOM     99  F   UNL     1      18.558   4.417  -0.927  1.00  0.00    -0.200 F 
ATOM    100  C   UNL     1      18.164   2.098  -1.131  1.00  0.00     0.200 A 
ATOM    101  F   UNL     1      17.719  -0.213  -1.319  1.00  0.00    -0.200 F 
ATOM    102  F   UNL     1      19.165   1.991  -2.015  1.00  0.00    -0.200 F 
ENDBRANCH  69  92
ENDBRANCH  43  44
ENDBRANCH  36  38
ENDBRANCH  35  36
ENDBRANCH  34  35
ENDBRANCH   1  34
TORSDOF 16
