REMARK SMILES O=C(Cc1ccccc1Nc1c(Cl)cccc1Cl)OCCOC(=O)c1ccc(-c2c3nc(c(-c4c(F)c(F)c(F)c(F)c4F)c4ccc([nH]4)c(-c4c(F)c(F)c(F)c(F)c4F)c4nc(c(-c5c(F)c(F)c(F)c(F)c5F)c5ccc2[nH]5)C=C4)C=C3)cc1
REMARK SMILES IDX 20 1 19 2 2 3 1 4 3 5 4 6 5 7 9 8 6 9 8 10 7 11 10 12 11 14
REMARK SMILES IDX 12 15 17 16 13 17 14 18 16 19 18 20 15 21 21 22 22 23 23 24
REMARK SMILES IDX 24 25 25 26 26 27 87 28 27 29 86 30 28 31 29 32 30 33 80 34
REMARK SMILES IDX 31 35 85 36 79 37 81 38 32 39 84 40 78 41 77 42 33 44 65 45
REMARK SMILES IDX 45 46 64 47 46 48 49 49 63 50 82 51 47 52 48 53 62 55 83 56
REMARK SMILES IDX 50 57 34 58 35 59 43 60 36 61 37 62 41 63 44 64 38 65 39 66
REMARK SMILES IDX 42 67 40 68 66 69 67 70 75 71 68 72 69 73 73 74 76 75 70 76
REMARK SMILES IDX 71 77 74 78 72 79 51 80 52 81 60 82 53 83 54 84 58 85 61 86
REMARK SMILES IDX 55 87 56 88 59 89 57 90
REMARK H PARENT 10 13 81 43 49 54
REMARK Flexibility Score: inf
ROOT
ATOM      1  C   UNL     1       3.572   1.525  -0.162  1.00  0.00     0.274 C 
ENDROOT
BRANCH   1   2
ATOM      2  O   UNL     1       2.390   0.719  -0.312  1.00  0.00    -0.462 OA
BRANCH   2   3
ATOM      3  C   UNL     1       2.514  -0.555  -0.787  1.00  0.00     0.310 C 
ATOM      4  O   UNL     1       1.734  -0.982  -1.635  1.00  0.00    -0.252 OA
BRANCH   3   5
ATOM      5  C   UNL     1       3.467  -1.455  -0.025  1.00  0.00     0.160 C 
BRANCH   5   6
ATOM      6  C   UNL     1       4.295  -2.391  -0.875  1.00  0.00    -0.013 A 
ATOM      7  C   UNL     1       3.817  -3.687  -1.131  1.00  0.00     0.006 A 
ATOM      8  C   UNL     1       5.538  -1.994  -1.407  1.00  0.00     0.042 A 
ATOM      9  C   UNL     1       4.581  -4.593  -1.863  1.00  0.00     0.000 A 
ATOM     10  C   UNL     1       6.300  -2.923  -2.128  1.00  0.00     0.026 A 
ATOM     11  C   UNL     1       5.825  -4.214  -2.357  1.00  0.00     0.002 A 
BRANCH   8  12
ATOM     12  N   UNL     1       6.085  -0.738  -1.081  1.00  0.00    -0.353 N 
ATOM     13  H   UNL     1       6.009  -0.488  -0.132  1.00  0.00     0.167 HD
BRANCH  12  14
ATOM     14  C   UNL     1       6.730   0.225  -1.901  1.00  0.00     0.076 A 
ATOM     15  C   UNL     1       7.705   1.065  -1.312  1.00  0.00     0.066 A 
ATOM     16  C   UNL     1       6.421   0.460  -3.256  1.00  0.00     0.066 A 
ATOM     17  Cl  UNL     1       8.089   0.913   0.373  1.00  0.00    -0.082 Cl
ATOM     18  C   UNL     1       8.377   2.048  -2.044  1.00  0.00     0.023 A 
ATOM     19  C   UNL     1       7.100   1.445  -3.990  1.00  0.00     0.023 A 
ATOM     20  Cl  UNL     1       5.134  -0.343  -4.089  1.00  0.00    -0.082 Cl
ATOM     21  C   UNL     1       8.081   2.231  -3.389  1.00  0.00     0.003 A 
ENDBRANCH  12  14
ENDBRANCH   8  12
ENDBRANCH   5   6
ENDBRANCH   3   5
ENDBRANCH   2   3
ENDBRANCH   1   2
BRANCH   1  22
ATOM     22  C   UNL     1       3.879   1.901   1.292  1.00  0.00     0.275 C 
BRANCH  22  23
ATOM     23  O   UNL     1       3.689   0.782   2.172  1.00  0.00    -0.458 OA
BRANCH  23  24
ATOM     24  C   UNL     1       2.437   0.705   2.686  1.00  0.00     0.338 C 
ATOM     25  O   UNL     1       1.575   1.568   2.635  1.00  0.00    -0.246 OA
BRANCH  24  26
ATOM     26  C   UNL     1       2.173  -0.654   3.200  1.00  0.00     0.060 A 
ATOM     27  C   UNL     1       0.890  -1.171   2.987  1.00  0.00     0.016 A 
ATOM     28  C   UNL     1       3.121  -1.392   3.916  1.00  0.00     0.016 A 
ATOM     29  C   UNL     1       0.519  -2.379   3.571  1.00  0.00     0.010 A 
ATOM     30  C   UNL     1       2.748  -2.610   4.500  1.00  0.00     0.010 A 
ATOM     31  C   UNL     1       1.427  -3.075   4.380  1.00  0.00    -0.014 A 
BRANCH  31  32
ATOM     32  C   UNL     1       0.897  -4.139   5.268  1.00  0.00     0.031 A 
ATOM     33  C   UNL     1       0.516  -3.768   6.677  1.00  0.00     0.074 A 
ATOM     34  C   UNL     1       0.660  -5.382   4.814  1.00  0.00     0.049 A 
ATOM     35  N   UNL     1      -0.110  -4.474   7.585  1.00  0.00    -0.248 NA
ATOM     36  C   UNL     1       0.885  -2.414   7.120  1.00  0.00     0.031 C 
ATOM     37  C   UNL     1       0.965  -5.866   3.470  1.00  0.00     0.029 A 
ATOM     38  N   UNL     1       0.084  -6.460   5.441  1.00  0.00    -0.354 N 
ATOM     39  C   UNL     1      -0.223  -3.645   8.693  1.00  0.00     0.074 A 
ATOM     40  C   UNL     1       0.442  -2.404   8.367  1.00  0.00     0.031 C 
ATOM     41  C   UNL     1       0.563  -7.146   3.368  1.00  0.00     0.029 A 
ATOM     42  C   UNL     1      -0.026  -7.568   4.639  1.00  0.00     0.049 A 
ATOM     43  H   UNL     1      -0.220  -6.439   6.377  1.00  0.00     0.167 HD
ATOM     44  C   UNL     1      -0.846  -3.885   9.871  1.00  0.00     0.037 A 
ATOM     45  C   UNL     1      -0.558  -8.778   4.901  1.00  0.00     0.037 A 
ATOM     46  C   UNL     1      -1.508  -5.116  10.206  1.00  0.00     0.049 A 
ATOM     47  C   UNL     1      -1.202  -9.037   6.239  1.00  0.00     0.074 A 
ATOM     48  C   UNL     1      -2.182  -5.447  11.368  1.00  0.00     0.029 A 
ATOM     49  N   UNL     1      -1.569  -6.225   9.376  1.00  0.00    -0.354 N 
ATOM     50  N   UNL     1      -1.367  -8.225   7.254  1.00  0.00    -0.248 NA
ATOM     51  C   UNL     1      -1.754 -10.383   6.457  1.00  0.00     0.031 C 
ATOM     52  C   UNL     1      -2.615  -6.773  11.259  1.00  0.00     0.029 A 
ATOM     53  C   UNL     1      -2.251  -7.250  10.010  1.00  0.00     0.049 A 
ATOM     54  H   UNL     1      -1.184  -6.276   8.471  1.00  0.00     0.167 HD
ATOM     55  C   UNL     1      -2.079  -8.942   8.208  1.00  0.00     0.074 A 
ATOM     56  C   UNL     1      -2.316 -10.257   7.651  1.00  0.00     0.031 C 
ATOM     57  C   UNL     1      -2.502  -8.546   9.434  1.00  0.00     0.037 A 
BRANCH  44  58
ATOM     58  C   UNL     1      -0.826  -2.787  10.892  1.00  0.00     0.064 A 
ATOM     59  C   UNL     1      -1.602  -1.628  10.736  1.00  0.00     0.173 A 
ATOM     60  C   UNL     1      -0.034  -2.900  12.043  1.00  0.00     0.173 A 
ATOM     61  F   UNL     1      -2.362  -1.466   9.643  1.00  0.00    -0.203 F 
ATOM     62  C   UNL     1      -1.565  -0.610  11.686  1.00  0.00     0.198 A 
ATOM     63  C   UNL     1      -0.019  -1.892  13.002  1.00  0.00     0.198 A 
ATOM     64  F   UNL     1       0.726  -3.988  12.236  1.00  0.00    -0.203 F 
ATOM     65  F   UNL     1      -2.277   0.509  11.495  1.00  0.00    -0.200 F 
ATOM     66  C   UNL     1      -0.778  -0.745  12.820  1.00  0.00     0.200 A 
ATOM     67  F   UNL     1       0.736  -2.026  14.101  1.00  0.00    -0.200 F 
ATOM     68  F   UNL     1      -0.744   0.235  13.733  1.00  0.00    -0.200 F 
ENDBRANCH  44  58
BRANCH  45  69
ATOM     69  C   UNL     1      -0.541  -9.839   3.861  1.00  0.00     0.064 A 
ATOM     70  C   UNL     1      -1.724 -10.261   3.239  1.00  0.00     0.173 A 
ATOM     71  C   UNL     1       0.652 -10.480   3.498  1.00  0.00     0.173 A 
ATOM     72  F   UNL     1      -2.894  -9.697   3.574  1.00  0.00    -0.203 F 
ATOM     73  C   UNL     1      -1.718 -11.301   2.311  1.00  0.00     0.198 A 
ATOM     74  C   UNL     1       0.661 -11.503   2.553  1.00  0.00     0.198 A 
ATOM     75  F   UNL     1       1.810 -10.115   4.069  1.00  0.00    -0.203 F 
ATOM     76  F   UNL     1      -2.870 -11.720   1.771  1.00  0.00    -0.200 F 
ATOM     77  C   UNL     1      -0.525 -11.918   1.967  1.00  0.00     0.200 A 
ATOM     78  F   UNL     1       1.816 -12.094   2.219  1.00  0.00    -0.200 F 
ATOM     79  F   UNL     1      -0.521 -12.923   1.080  1.00  0.00    -0.200 F 
ENDBRANCH  45  69
BRANCH  57  80
ATOM     80  C   UNL     1      -3.316  -9.520  10.236  1.00  0.00     0.064 A 
ATOM     81  C   UNL     1      -2.740 -10.652  10.830  1.00  0.00     0.173 A 
ATOM     82  C   UNL     1      -4.685  -9.291  10.447  1.00  0.00     0.173 A 
ATOM     83  F   UNL     1      -1.438 -10.921  10.649  1.00  0.00    -0.203 F 
ATOM     84  C   UNL     1      -3.511 -11.534  11.583  1.00  0.00     0.198 A 
ATOM     85  C   UNL     1      -5.446 -10.160  11.223  1.00  0.00     0.198 A 
ATOM     86  F   UNL     1      -5.282  -8.217   9.908  1.00  0.00    -0.203 F 
ATOM     87  F   UNL     1      -2.950 -12.635  12.103  1.00  0.00    -0.200 F 
ATOM     88  C   UNL     1      -4.861 -11.285  11.784  1.00  0.00     0.200 A 
ATOM     89  F   UNL     1      -6.747  -9.910  11.428  1.00  0.00    -0.200 F 
ATOM     90  F   UNL     1      -5.599 -12.133  12.513  1.00  0.00    -0.200 F 
ENDBRANCH  57  80
ENDBRANCH  31  32
ENDBRANCH  24  26
ENDBRANCH  23  24
ENDBRANCH  22  23
ENDBRANCH   1  22
TORSDOF 14
