REMARK SMILES CC(C)(C)OC(=O)[C@]1(C(=O)OCCOC(=O)c2ccc(-c3c4nc(c(-c5c(F)c(F)c(F)c(F)c5F)c5ccc([nH]5)c(-c5c(F)c(F)c(F)c(F)c5F)c5nc(c(-c6c(F)c(F)c(F)c(F)c6F)c6ccc3[nH]6)C=C5)C=C4)cc2)CC=CC[C@@H]1[NH3+]
REMARK SMILES IDX 12 1 11 2 9 3 10 4 8 5 80 6 84 7 81 8 83 9 82 10 6 11 7 12
REMARK SMILES IDX 5 13 2 14 1 15 3 16 4 17 85 18 13 22 14 23 15 24 16 25 17 26
REMARK SMILES IDX 18 27 79 28 19 29 78 30 20 31 21 32 22 33 72 34 23 35 77 36
REMARK SMILES IDX 71 37 73 38 24 39 76 40 70 41 69 42 25 44 57 45 37 46 56 47
REMARK SMILES IDX 38 48 41 49 55 50 74 51 39 52 40 53 54 55 75 56 42 57 26 58
REMARK SMILES IDX 27 59 35 60 28 61 29 62 33 63 36 64 30 65 31 66 34 67 32 68
REMARK SMILES IDX 58 69 59 70 67 71 60 72 61 73 65 74 68 75 62 76 63 77 66 78
REMARK SMILES IDX 64 79 43 80 44 81 52 82 45 83 46 84 50 85 53 86 47 87 48 88
REMARK SMILES IDX 51 89 49 90
REMARK H PARENT 85 19 85 20 85 21 73 43 41 54
REMARK Flexibility Score: inf
ROOT
ATOM      1  C   UNL     1      -0.831  -1.661  -2.889  1.00  0.00     0.274 C 
ENDROOT
BRANCH   1   2
ATOM      2  O   UNL     1      -0.255  -1.101  -4.090  1.00  0.00    -0.461 OA
BRANCH   2   3
ATOM      3  C   UNL     1       0.385   0.094  -3.951  1.00  0.00     0.330 C 
ATOM      4  O   UNL     1       0.465   0.690  -2.881  1.00  0.00    -0.251 OA
BRANCH   3   5
ATOM      5  C   UNL     1       1.052   0.583  -5.240  1.00  0.00     0.219 C 
ATOM      6  C   UNL     1       0.032   0.616  -6.411  1.00  0.00     0.064 C 
ATOM      7  C   UNL     1       1.620   2.021  -4.967  1.00  0.00     0.214 C 
ATOM      8  C   UNL     1      -0.823   1.845  -6.509  1.00  0.00    -0.029 C 
ATOM      9  C   UNL     1       0.481   3.058  -4.764  1.00  0.00     0.093 C 
ATOM     10  C   UNL     1      -0.629   2.939  -5.763  1.00  0.00    -0.025 C 
BRANCH   5  11
ATOM     11  C   UNL     1       2.108  -0.445  -5.660  1.00  0.00     0.330 C 
ATOM     12  O   UNL     1       1.821  -1.549  -6.109  1.00  0.00    -0.251 OA
BRANCH  11  13
ATOM     13  O   UNL     1       3.389   0.011  -5.551  1.00  0.00    -0.459 OA
BRANCH  13  14
ATOM     14  C   UNL     1       4.450  -0.577  -6.361  1.00  0.00     0.104 C 
ATOM     15  C   UNL     1       5.735   0.163  -5.959  1.00  0.00     0.056 C 
ATOM     16  C   UNL     1       4.182  -0.280  -7.842  1.00  0.00     0.056 C 
ATOM     17  C   UNL     1       4.651  -2.074  -6.108  1.00  0.00     0.056 C 
ENDBRANCH  13  14
ENDBRANCH  11  13
ENDBRANCH   5  11
BRANCH   7  18
ATOM     18  N   UNL     1       2.511   2.546  -6.030  1.00  0.00    -0.353 N 
ATOM     19  H   UNL     1       1.976   2.673  -6.889  1.00  0.00     0.344 HD
ATOM     20  H   UNL     1       3.270   1.885  -6.195  1.00  0.00     0.344 HD
ATOM     21  H   UNL     1       2.898   3.443  -5.736  1.00  0.00     0.344 HD
ENDBRANCH   7  18
ENDBRANCH   3   5
ENDBRANCH   2   3
ENDBRANCH   1   2
BRANCH   1  22
ATOM     22  C   UNL     1       0.113  -2.688  -2.264  1.00  0.00     0.275 C 
BRANCH  22  23
ATOM     23  O   UNL     1       1.361  -2.050  -1.946  1.00  0.00    -0.458 OA
BRANCH  23  24
ATOM     24  C   UNL     1       2.463  -2.817  -2.086  1.00  0.00     0.338 C 
ATOM     25  O   UNL     1       2.497  -4.015  -2.340  1.00  0.00    -0.246 OA
BRANCH  24  26
ATOM     26  C   UNL     1       3.683  -1.996  -1.923  1.00  0.00     0.060 A 
ATOM     27  C   UNL     1       3.719  -0.670  -2.353  1.00  0.00     0.016 A 
ATOM     28  C   UNL     1       4.854  -2.600  -1.459  1.00  0.00     0.016 A 
ATOM     29  C   UNL     1       4.938   0.001  -2.446  1.00  0.00     0.010 A 
ATOM     30  C   UNL     1       6.062  -1.894  -1.472  1.00  0.00     0.010 A 
ATOM     31  C   UNL     1       6.135  -0.611  -2.040  1.00  0.00    -0.014 A 
BRANCH  31  32
ATOM     32  C   UNL     1       7.453   0.027  -2.343  1.00  0.00     0.031 A 
ATOM     33  C   UNL     1       8.470  -0.698  -3.198  1.00  0.00     0.074 A 
ATOM     34  C   UNL     1       7.730   1.282  -1.938  1.00  0.00     0.049 A 
ATOM     35  N   UNL     1       9.703  -0.360  -3.492  1.00  0.00    -0.248 NA
ATOM     36  C   UNL     1       8.047  -1.970  -3.805  1.00  0.00     0.031 C 
ATOM     37  C   UNL     1       6.837   2.138  -1.159  1.00  0.00     0.029 A 
ATOM     38  N   UNL     1       8.841   2.066  -2.149  1.00  0.00    -0.354 N 
ATOM     39  C   UNL     1      10.214  -1.402  -4.258  1.00  0.00     0.074 A 
ATOM     40  C   UNL     1       9.160  -2.382  -4.392  1.00  0.00     0.031 C 
ATOM     41  C   UNL     1       7.409   3.341  -1.001  1.00  0.00     0.029 A 
ATOM     42  C   UNL     1       8.745   3.317  -1.591  1.00  0.00     0.049 A 
ATOM     43  H   UNL     1       9.630   1.760  -2.651  1.00  0.00     0.167 HD
ATOM     44  C   UNL     1      11.448  -1.535  -4.803  1.00  0.00     0.037 A 
ATOM     45  C   UNL     1       9.638   4.324  -1.525  1.00  0.00     0.037 A 
ATOM     46  C   UNL     1      12.486  -0.540  -4.738  1.00  0.00     0.049 A 
ATOM     47  C   UNL     1      11.005   4.151  -2.123  1.00  0.00     0.074 A 
ATOM     48  C   UNL     1      13.763  -0.589  -5.271  1.00  0.00     0.029 A 
ATOM     49  N   UNL     1      12.360   0.692  -4.117  1.00  0.00    -0.354 N 
ATOM     50  N   UNL     1      11.498   3.128  -2.776  1.00  0.00    -0.248 NA
ATOM     51  C   UNL     1      11.947   5.267  -1.954  1.00  0.00     0.031 C 
ATOM     52  C   UNL     1      14.420   0.604  -4.949  1.00  0.00     0.029 A 
ATOM     53  C   UNL     1      13.539   1.409  -4.246  1.00  0.00     0.049 A 
ATOM     54  H   UNL     1      11.552   1.011  -3.653  1.00  0.00     0.167 HD
ATOM     55  C   UNL     1      12.807   3.471  -3.089  1.00  0.00     0.074 A 
ATOM     56  C   UNL     1      13.022   4.811  -2.583  1.00  0.00     0.031 C 
ATOM     57  C   UNL     1      13.749   2.735  -3.727  1.00  0.00     0.037 A 
BRANCH  44  58
ATOM     58  C   UNL     1      11.762  -2.830  -5.492  1.00  0.00     0.064 A 
ATOM     59  C   UNL     1      11.257  -3.138  -6.763  1.00  0.00     0.173 A 
ATOM     60  C   UNL     1      12.611  -3.763  -4.877  1.00  0.00     0.173 A 
ATOM     61  F   UNL     1      10.427  -2.286  -7.383  1.00  0.00    -0.203 F 
ATOM     62  C   UNL     1      11.573  -4.344  -7.384  1.00  0.00     0.198 A 
ATOM     63  C   UNL     1      12.944  -4.957  -5.510  1.00  0.00     0.198 A 
ATOM     64  F   UNL     1      13.123  -3.512  -3.662  1.00  0.00    -0.203 F 
ATOM     65  F   UNL     1      11.048  -4.637  -8.581  1.00  0.00    -0.200 F 
ATOM     66  C   UNL     1      12.421  -5.249  -6.761  1.00  0.00     0.200 A 
ATOM     67  F   UNL     1      13.771  -5.825  -4.910  1.00  0.00    -0.200 F 
ATOM     68  F   UNL     1      12.728  -6.406  -7.362  1.00  0.00    -0.200 F 
ENDBRANCH  44  58
BRANCH  45  69
ATOM     69  C   UNL     1       9.270   5.579  -0.820  1.00  0.00     0.064 A 
ATOM     70  C   UNL     1       9.064   6.772  -1.524  1.00  0.00     0.173 A 
ATOM     71  C   UNL     1       9.096   5.601   0.572  1.00  0.00     0.173 A 
ATOM     72  F   UNL     1       9.247   6.806  -2.852  1.00  0.00    -0.203 F 
ATOM     73  C   UNL     1       8.694   7.940  -0.862  1.00  0.00     0.198 A 
ATOM     74  C   UNL     1       8.698   6.761   1.229  1.00  0.00     0.198 A 
ATOM     75  F   UNL     1       9.286   4.484   1.290  1.00  0.00    -0.203 F 
ATOM     76  F   UNL     1       8.530   9.076  -1.553  1.00  0.00    -0.200 F 
ATOM     77  C   UNL     1       8.500   7.931   0.512  1.00  0.00     0.200 A 
ATOM     78  F   UNL     1       8.497   6.744   2.554  1.00  0.00    -0.200 F 
ATOM     79  F   UNL     1       8.126   9.051   1.145  1.00  0.00    -0.200 F 
ENDBRANCH  45  69
BRANCH  57  80
ATOM     80  C   UNL     1      15.098   3.363  -3.912  1.00  0.00     0.064 A 
ATOM     81  C   UNL     1      15.990   3.504  -2.839  1.00  0.00     0.173 A 
ATOM     82  C   UNL     1      15.511   3.811  -5.175  1.00  0.00     0.173 A 
ATOM     83  F   UNL     1      15.634   3.104  -1.609  1.00  0.00    -0.203 F 
ATOM     84  C   UNL     1      17.238   4.094  -3.019  1.00  0.00     0.198 A 
ATOM     85  C   UNL     1      16.769   4.380  -5.356  1.00  0.00     0.198 A 
ATOM     86  F   UNL     1      14.696   3.694  -6.234  1.00  0.00    -0.203 F 
ATOM     87  F   UNL     1      18.056   4.260  -1.971  1.00  0.00    -0.200 F 
ATOM     88  C   UNL     1      17.628   4.528  -4.277  1.00  0.00     0.200 A 
ATOM     89  F   UNL     1      17.148   4.792  -6.574  1.00  0.00    -0.200 F 
ATOM     90  F   UNL     1      18.828   5.099  -4.448  1.00  0.00    -0.200 F 
ENDBRANCH  57  80
ENDBRANCH  31  32
ENDBRANCH  24  26
ENDBRANCH  23  24
ENDBRANCH  22  23
ENDBRANCH   1  22
TORSDOF 15
