REMARK SMILES CC(=O)[NH+]1CCC2(CC1)C[C@H](C(=O)OCCOC(=O)c1ccc(-c3c4nc(c(-c5c(F)c(F)c(F)c(F)c5F)c5ccc([nH]5)c(-c5c(F)c(F)c(F)c(F)c5F)c5nc(c(-c6c(F)c(F)c(F)c(F)c6F)c6ccc3[nH]6)C=C5)C=C4)cc1)[N@H+](Cc1ncc[nH]1)C2
REMARK SMILES IDX 15 1 14 2 12 3 13 4 11 5 4 6 5 7 9 8 6 10 8 11 7 12 10 13
REMARK SMILES IDX 90 14 83 15 2 17 1 18 3 19 84 20 85 21 86 22 89 23 87 24
REMARK SMILES IDX 88 25 16 27 17 28 18 29 19 30 20 31 21 32 82 33 22 34 81 35
REMARK SMILES IDX 23 36 24 37 25 38 75 39 26 40 80 41 74 42 76 43 27 44 79 45
REMARK SMILES IDX 73 46 72 47 28 49 60 50 40 51 59 52 41 53 44 54 58 55 77 56
REMARK SMILES IDX 42 57 43 58 57 60 78 61 45 62 29 63 30 64 38 65 31 66 32 67
REMARK SMILES IDX 36 68 39 69 33 70 34 71 37 72 35 73 61 74 62 75 70 76 63 77
REMARK SMILES IDX 64 78 68 79 71 80 65 81 66 82 69 83 67 84 46 85 47 86 55 87
REMARK SMILES IDX 48 88 49 89 53 90 56 91 50 92 51 93 54 94 52 95
REMARK H PARENT 4 9 83 16 89 26 76 48 44 59
REMARK Flexibility Score: inf
ROOT
ATOM      1  C   UNL     1       0.460   9.706  -3.123  1.00  0.00     0.274 C 
ENDROOT
BRANCH   1   2
ATOM      2  O   UNL     1       1.004   8.389  -3.357  1.00  0.00    -0.458 OA
BRANCH   2   3
ATOM      3  C   UNL     1       1.008   7.531  -2.287  1.00  0.00     0.365 C 
ATOM      4  O   UNL     1       0.526   7.798  -1.193  1.00  0.00    -0.245 OA
BRANCH   3   5
ATOM      5  C   UNL     1       1.890   6.305  -2.577  1.00  0.00     0.296 C 
ATOM      6  N   UNL     1       1.775   1.005  -1.677  1.00  0.00    -0.272 N 
ATOM      7  C   UNL     1       0.675   1.823  -2.133  1.00  0.00     0.270 C 
ATOM      8  C   UNL     1       3.124   1.542  -1.895  1.00  0.00     0.270 C 
ATOM      9  H   UNL     1       1.949   0.219  -2.244  1.00  0.00     0.356 HD
ATOM     10  C   UNL     1       0.851   3.173  -1.462  1.00  0.00     0.075 C 
ATOM     11  C   UNL     1       3.274   3.024  -1.480  1.00  0.00     0.075 C 
ATOM     12  C   UNL     1       2.099   3.909  -1.971  1.00  0.00     0.036 C 
ATOM     13  C   UNL     1       2.103   5.343  -1.393  1.00  0.00     0.091 C 
ATOM     14  C   UNL     1       2.155   4.161  -3.496  1.00  0.00     0.270 C 
ATOM     15  N   UNL     1       1.571   5.476  -3.758  1.00  0.00    -0.316 N 
ATOM     16  H   UNL     1       1.993   5.924  -4.571  1.00  0.00     0.349 HD
BRANCH   6  17
ATOM     17  C   UNL     1       1.434  -0.169  -1.031  1.00  0.00     0.308 C 
ATOM     18  C   UNL     1       2.224  -0.500   0.200  1.00  0.00     0.164 C 
ATOM     19  O   UNL     1       0.425  -0.815  -1.321  1.00  0.00    -0.231 OA
ENDBRANCH   6  17
BRANCH  15  20
ATOM     20  C   UNL     1       0.226   5.501  -4.338  1.00  0.00     0.339 C 
BRANCH  20  21
ATOM     21  C   UNL     1      -0.880   4.907  -3.527  1.00  0.00     0.161 A 
ATOM     22  N   UNL     1      -1.406   5.387  -2.415  1.00  0.00    -0.236 NA
ATOM     23  N   UNL     1      -1.495   3.722  -3.869  1.00  0.00    -0.344 N 
ATOM     24  C   UNL     1      -2.293   4.433  -1.971  1.00  0.00     0.131 A 
ATOM     25  C   UNL     1      -2.358   3.388  -2.860  1.00  0.00     0.104 A 
ATOM     26  H   UNL     1      -1.342   3.207  -4.694  1.00  0.00     0.167 HD
ENDBRANCH  20  21
ENDBRANCH  15  20
ENDBRANCH   3   5
ENDBRANCH   2   3
ENDBRANCH   1   2
BRANCH   1  27
ATOM     27  C   UNL     1      -0.300  10.182  -4.363  1.00  0.00     0.275 C 
BRANCH  27  28
ATOM     28  O   UNL     1      -1.502   9.399  -4.472  1.00  0.00    -0.458 OA
BRANCH  28  29
ATOM     29  C   UNL     1      -1.843   8.918  -5.692  1.00  0.00     0.338 C 
ATOM     30  O   UNL     1      -1.333   9.210  -6.758  1.00  0.00    -0.246 OA
BRANCH  29  31
ATOM     31  C   UNL     1      -2.892   7.870  -5.534  1.00  0.00     0.060 A 
ATOM     32  C   UNL     1      -3.181   7.347  -4.284  1.00  0.00     0.016 A 
ATOM     33  C   UNL     1      -3.511   7.293  -6.646  1.00  0.00     0.016 A 
ATOM     34  C   UNL     1      -3.948   6.183  -4.173  1.00  0.00     0.010 A 
ATOM     35  C   UNL     1      -4.341   6.154  -6.502  1.00  0.00     0.010 A 
ATOM     36  C   UNL     1      -4.498   5.500  -5.266  1.00  0.00    -0.014 A 
BRANCH  36  37
ATOM     37  C   UNL     1      -5.056   4.083  -5.140  1.00  0.00     0.031 A 
ATOM     38  C   UNL     1      -4.818   3.063  -6.248  1.00  0.00     0.074 A 
ATOM     39  C   UNL     1      -5.638   3.567  -4.026  1.00  0.00     0.049 A 
ATOM     40  N   UNL     1      -5.472   1.954  -6.511  1.00  0.00    -0.248 NA
ATOM     41  C   UNL     1      -3.710   3.316  -7.184  1.00  0.00     0.031 C 
ATOM     42  C   UNL     1      -5.865   4.255  -2.759  1.00  0.00     0.029 A 
ATOM     43  N   UNL     1      -6.075   2.279  -3.755  1.00  0.00    -0.354 N 
ATOM     44  C   UNL     1      -4.980   1.492  -7.727  1.00  0.00     0.074 A 
ATOM     45  C   UNL     1      -3.909   2.385  -8.109  1.00  0.00     0.031 C 
ATOM     46  C   UNL     1      -6.196   3.363  -1.813  1.00  0.00     0.029 A 
ATOM     47  C   UNL     1      -6.447   2.075  -2.444  1.00  0.00     0.049 A 
ATOM     48  H   UNL     1      -6.116   1.573  -4.439  1.00  0.00     0.167 HD
ATOM     49  C   UNL     1      -5.413   0.443  -8.469  1.00  0.00     0.037 A 
ATOM     50  C   UNL     1      -7.008   1.017  -1.817  1.00  0.00     0.037 A 
ATOM     51  C   UNL     1      -6.339  -0.561  -8.009  1.00  0.00     0.049 A 
ATOM     52  C   UNL     1      -7.479  -0.160  -2.628  1.00  0.00     0.074 A 
ATOM     53  C   UNL     1      -6.882  -1.629  -8.706  1.00  0.00     0.029 A 
ATOM     54  N   UNL     1      -6.794  -0.669  -6.707  1.00  0.00    -0.354 N 
ATOM     55  N   UNL     1      -7.280  -0.429  -3.893  1.00  0.00    -0.248 NA
ATOM     56  C   UNL     1      -8.336  -1.139  -1.937  1.00  0.00     0.031 C 
ATOM     57  C   UNL     1      -7.674  -2.377  -7.826  1.00  0.00     0.029 A 
ATOM     58  C   UNL     1      -7.596  -1.792  -6.575  1.00  0.00     0.049 A 
ATOM     59  H   UNL     1      -6.580  -0.040  -5.980  1.00  0.00     0.167 HD
ATOM     60  C   UNL     1      -8.011  -1.581  -4.155  1.00  0.00     0.074 A 
ATOM     61  C   UNL     1      -8.611  -1.998  -2.907  1.00  0.00     0.031 C 
ATOM     62  C   UNL     1      -8.197  -2.212  -5.339  1.00  0.00     0.037 A 
BRANCH  49  63
ATOM     63  C   UNL     1      -4.971   0.366  -9.901  1.00  0.00     0.064 A 
ATOM     64  C   UNL     1      -3.696  -0.058 -10.289  1.00  0.00     0.173 A 
ATOM     65  C   UNL     1      -5.901   0.666 -10.914  1.00  0.00     0.173 A 
ATOM     66  F   UNL     1      -2.768  -0.341  -9.363  1.00  0.00    -0.203 F 
ATOM     67  C   UNL     1      -3.360  -0.164 -11.639  1.00  0.00     0.198 A 
ATOM     68  C   UNL     1      -5.572   0.530 -12.259  1.00  0.00     0.198 A 
ATOM     69  F   UNL     1      -7.141   1.068 -10.596  1.00  0.00    -0.203 F 
ATOM     70  F   UNL     1      -2.121  -0.536 -11.990  1.00  0.00    -0.200 F 
ATOM     71  C   UNL     1      -4.299   0.120 -12.620  1.00  0.00     0.200 A 
ATOM     72  F   UNL     1      -6.488   0.790 -13.202  1.00  0.00    -0.200 F 
ATOM     73  F   UNL     1      -3.976   0.002 -13.916  1.00  0.00    -0.200 F 
ENDBRANCH  49  63
BRANCH  50  74
ATOM     74  C   UNL     1      -7.291   1.058  -0.351  1.00  0.00     0.064 A 
ATOM     75  C   UNL     1      -6.697   0.135   0.523  1.00  0.00     0.173 A 
ATOM     76  C   UNL     1      -8.189   1.984   0.203  1.00  0.00     0.173 A 
ATOM     77  F   UNL     1      -5.877  -0.811   0.041  1.00  0.00    -0.203 F 
ATOM     78  C   UNL     1      -6.986   0.142   1.888  1.00  0.00     0.198 A 
ATOM     79  C   UNL     1      -8.439   2.022   1.572  1.00  0.00     0.198 A 
ATOM     80  F   UNL     1      -8.819   2.866  -0.587  1.00  0.00    -0.203 F 
ATOM     81  F   UNL     1      -6.450  -0.788   2.690  1.00  0.00    -0.200 F 
ATOM     82  C   UNL     1      -7.844   1.096   2.413  1.00  0.00     0.200 A 
ATOM     83  F   UNL     1      -9.261   2.954   2.073  1.00  0.00    -0.200 F 
ATOM     84  F   UNL     1      -8.110   1.113   3.726  1.00  0.00    -0.200 F 
ENDBRANCH  50  74
BRANCH  62  85
ATOM     85  C   UNL     1      -9.086  -3.419  -5.350  1.00  0.00     0.064 A 
ATOM     86  C   UNL     1     -10.479  -3.296  -5.241  1.00  0.00     0.173 A 
ATOM     87  C   UNL     1      -8.550  -4.706  -5.501  1.00  0.00     0.173 A 
ATOM     88  F   UNL     1     -11.040  -2.088  -5.080  1.00  0.00    -0.203 F 
ATOM     89  C   UNL     1     -11.302  -4.420  -5.260  1.00  0.00     0.198 A 
ATOM     90  C   UNL     1      -9.377  -5.826  -5.542  1.00  0.00     0.198 A 
ATOM     91  F   UNL     1      -7.224  -4.877  -5.614  1.00  0.00    -0.203 F 
ATOM     92  F   UNL     1     -12.627  -4.281  -5.115  1.00  0.00    -0.200 F 
ATOM     93  C   UNL     1     -10.751  -5.683  -5.416  1.00  0.00     0.200 A 
ATOM     94  F   UNL     1      -8.844  -7.046  -5.700  1.00  0.00    -0.200 F 
ATOM     95  F   UNL     1     -11.543  -6.763  -5.436  1.00  0.00    -0.200 F 
ENDBRANCH  62  85
ENDBRANCH  36  37
ENDBRANCH  29  31
ENDBRANCH  28  29
ENDBRANCH  27  28
ENDBRANCH   1  27
TORSDOF 14
