REMARK SMILES O=C(C[C@H]1C(=O)N[NH+]=C2c3ccc(F)cc3N=CN21)OCCOC(=O)c1ccc(-c2c3nc(c(-c4c(F)c(F)c(F)c(F)c4F)c4ccc([nH]4)c(-c4c(F)c(F)c(F)c(F)c4F)c4nc(c(-c5c(F)c(F)c(F)c(F)c5F)c5ccc2[nH]5)C=C4)C=C3)cc1
REMARK SMILES IDX 22 1 21 2 20 3 2 4 1 5 3 6 4 7 5 8 19 9 6 10 7 11 9 12 18 13
REMARK SMILES IDX 8 14 10 16 17 17 11 19 16 20 12 21 15 22 13 23 14 24 23 25
REMARK SMILES IDX 24 26 25 27 26 28 27 29 88 30 28 31 87 32 29 33 30 34 31 35
REMARK SMILES IDX 81 36 32 37 86 38 80 39 82 40 33 41 85 42 79 43 78 44 34 46
REMARK SMILES IDX 66 47 46 48 65 49 47 50 50 51 64 52 83 53 48 54 49 55 63 57
REMARK SMILES IDX 84 58 51 59 35 60 36 61 44 62 37 63 38 64 42 65 45 66 39 67
REMARK SMILES IDX 40 68 43 69 41 70 67 71 68 72 76 73 69 74 70 75 74 76 77 77
REMARK SMILES IDX 71 78 72 79 75 80 73 81 52 82 53 83 61 84 54 85 55 86 59 87
REMARK SMILES IDX 62 88 56 89 57 90 60 91 58 92
REMARK H PARENT 7 15 8 18 82 45 50 56
REMARK Flexibility Score: inf
ROOT
ATOM      1  C   UNL     1       4.391   0.200  -1.725  1.00  0.00     0.275 C 
ENDROOT
BRANCH   1   2
ATOM      2  C   UNL     1       4.597  -0.852  -0.627  1.00  0.00     0.274 C 
BRANCH   2   3
ATOM      3  O   UNL     1       3.400  -1.094   0.145  1.00  0.00    -0.462 OA
BRANCH   3   4
ATOM      4  C   UNL     1       3.123  -0.497   1.328  1.00  0.00     0.310 C 
ATOM      5  O   UNL     1       2.183  -0.872   2.024  1.00  0.00    -0.252 OA
BRANCH   4   6
ATOM      6  C   UNL     1       3.884   0.747   1.687  1.00  0.00     0.183 C 
BRANCH   6   7
ATOM      7  C   UNL     1       4.269   0.836   3.157  1.00  0.00     0.286 C 
ATOM      8  C   UNL     1       5.172  -0.345   3.486  1.00  0.00     0.300 C 
ATOM      9  N   UNL     1       4.941   2.134   3.375  1.00  0.00    -0.202 N 
ATOM     10  O   UNL     1       4.750  -1.497   3.577  1.00  0.00    -0.267 OA
ATOM     11  N   UNL     1       6.515  -0.102   3.571  1.00  0.00    -0.193 N 
ATOM     12  C   UNL     1       6.302   2.155   3.629  1.00  0.00     0.309 C 
ATOM     13  C   UNL     1       4.232   3.302   3.214  1.00  0.00     0.317 C 
ATOM     14  N   UNL     1       7.086   1.121   3.682  1.00  0.00    -0.169 N 
ATOM     15  H   UNL     1       7.117  -0.880   3.551  1.00  0.00     0.216 HD
ATOM     16  C   UNL     1       6.885   3.506   3.885  1.00  0.00     0.092 A 
ATOM     17  N   UNL     1       4.689   4.506   3.325  1.00  0.00    -0.216 NA
ATOM     18  H   UNL     1       8.059   1.222   3.797  1.00  0.00     0.340 HD
ATOM     19  C   UNL     1       8.189   3.652   4.372  1.00  0.00     0.022 A 
ATOM     20  C   UNL     1       6.036   4.620   3.727  1.00  0.00     0.085 A 
ATOM     21  C   UNL     1       8.646   4.920   4.724  1.00  0.00     0.040 A 
ATOM     22  C   UNL     1       6.525   5.886   4.048  1.00  0.00     0.068 A 
ATOM     23  C   UNL     1       7.813   6.023   4.556  1.00  0.00     0.125 A 
ATOM     24  F   UNL     1       8.253   7.235   4.917  1.00  0.00    -0.207 F 
ENDBRANCH   6   7
ENDBRANCH   4   6
ENDBRANCH   3   4
ENDBRANCH   2   3
ENDBRANCH   1   2
BRANCH   1  25
ATOM     25  O   UNL     1       3.964   1.470  -1.190  1.00  0.00    -0.458 OA
BRANCH  25  26
ATOM     26  C   UNL     1       2.643   1.770  -1.345  1.00  0.00     0.338 C 
ATOM     27  O   UNL     1       1.812   1.097  -1.913  1.00  0.00    -0.246 OA
BRANCH  26  28
ATOM     28  C   UNL     1       2.311   2.986  -0.549  1.00  0.00     0.060 A 
ATOM     29  C   UNL     1       3.219   4.033  -0.373  1.00  0.00     0.016 A 
ATOM     30  C   UNL     1       1.065   3.036   0.094  1.00  0.00     0.016 A 
ATOM     31  C   UNL     1       2.882   5.116   0.450  1.00  0.00     0.010 A 
ATOM     32  C   UNL     1       0.727   4.127   0.907  1.00  0.00     0.010 A 
ATOM     33  C   UNL     1       1.633   5.179   1.098  1.00  0.00    -0.014 A 
BRANCH  33  34
ATOM     34  C   UNL     1       1.259   6.395   1.877  1.00  0.00     0.031 A 
ATOM     35  C   UNL     1       1.180   6.402   3.380  1.00  0.00     0.074 A 
ATOM     36  C   UNL     1       0.993   7.532   1.204  1.00  0.00     0.049 A 
ATOM     37  N   UNL     1       1.036   7.422   4.194  1.00  0.00    -0.248 NA
ATOM     38  C   UNL     1       1.268   5.107   4.066  1.00  0.00     0.031 C 
ATOM     39  C   UNL     1       0.983   7.659  -0.253  1.00  0.00     0.029 A 
ATOM     40  N   UNL     1       0.690   8.794   1.653  1.00  0.00    -0.354 N 
ATOM     41  C   UNL     1       1.079   6.897   5.479  1.00  0.00     0.074 A 
ATOM     42  C   UNL     1       1.216   5.464   5.344  1.00  0.00     0.031 C 
ATOM     43  C   UNL     1       0.720   8.934  -0.578  1.00  0.00     0.029 A 
ATOM     44  C   UNL     1       0.517   9.709   0.644  1.00  0.00     0.049 A 
ATOM     45  H   UNL     1       0.603   9.021   2.607  1.00  0.00     0.167 HD
ATOM     46  C   UNL     1       1.011   7.552   6.664  1.00  0.00     0.037 A 
ATOM     47  C   UNL     1       0.234  11.026   0.690  1.00  0.00     0.037 A 
ATOM     48  C   UNL     1       0.809   8.971   6.808  1.00  0.00     0.049 A 
ATOM     49  C   UNL     1       0.093  11.715   2.019  1.00  0.00     0.074 A 
ATOM     50  C   UNL     1       0.760   9.719   7.973  1.00  0.00     0.029 A 
ATOM     51  N   UNL     1       0.589   9.851   5.760  1.00  0.00    -0.354 N 
ATOM     52  N   UNL     1       0.251  11.225   3.223  1.00  0.00    -0.248 NA
ATOM     53  C   UNL     1      -0.262  13.142   1.995  1.00  0.00     0.031 C 
ATOM     54  C   UNL     1       0.447  11.038   7.636  1.00  0.00     0.029 A 
ATOM     55  C   UNL     1       0.361  11.125   6.257  1.00  0.00     0.049 A 
ATOM     56  H   UNL     1       0.593   9.608   4.806  1.00  0.00     0.167 HD
ATOM     57  C   UNL     1       0.041  12.284   4.096  1.00  0.00     0.074 A 
ATOM     58  C   UNL     1      -0.245  13.448   3.286  1.00  0.00     0.031 C 
ATOM     59  C   UNL     1       0.082  12.284   5.450  1.00  0.00     0.037 A 
BRANCH  46  60
ATOM     60  C   UNL     1       1.165   6.759   7.929  1.00  0.00     0.064 A 
ATOM     61  C   UNL     1       2.424   6.303   8.345  1.00  0.00     0.173 A 
ATOM     62  C   UNL     1       0.081   6.588   8.804  1.00  0.00     0.173 A 
ATOM     63  F   UNL     1       3.491   6.443   7.545  1.00  0.00    -0.203 F 
ATOM     64  C   UNL     1       2.594   5.713   9.595  1.00  0.00     0.198 A 
ATOM     65  C   UNL     1       0.259   6.017  10.062  1.00  0.00     0.198 A 
ATOM     66  F   UNL     1      -1.142   7.019   8.458  1.00  0.00    -0.203 F 
ATOM     67  F   UNL     1       3.806   5.284   9.973  1.00  0.00    -0.200 F 
ATOM     68  C   UNL     1       1.515   5.583  10.457  1.00  0.00     0.200 A 
ATOM     69  F   UNL     1      -0.781   5.910  10.901  1.00  0.00    -0.200 F 
ATOM     70  F   UNL     1       1.688   5.046  11.673  1.00  0.00    -0.200 F 
ENDBRANCH  46  60
BRANCH  47  71
ATOM     71  C   UNL     1       0.095  11.787  -0.579  1.00  0.00     0.064 A 
ATOM     72  C   UNL     1       1.050  12.741  -0.953  1.00  0.00     0.173 A 
ATOM     73  C   UNL     1      -0.983  11.563  -1.447  1.00  0.00     0.173 A 
ATOM     74  F   UNL     1       2.088  13.003  -0.145  1.00  0.00    -0.203 F 
ATOM     75  C   UNL     1       0.927  13.450  -2.145  1.00  0.00     0.198 A 
ATOM     76  C   UNL     1      -1.090  12.252  -2.652  1.00  0.00     0.198 A 
ATOM     77  F   UNL     1      -1.922  10.658  -1.134  1.00  0.00    -0.203 F 
ATOM     78  F   UNL     1       1.835  14.383  -2.464  1.00  0.00    -0.200 F 
ATOM     79  C   UNL     1      -0.138  13.200  -2.998  1.00  0.00     0.200 A 
ATOM     80  F   UNL     1      -2.111  11.995  -3.480  1.00  0.00    -0.200 F 
ATOM     81  F   UNL     1      -0.250  13.874  -4.150  1.00  0.00    -0.200 F 
ENDBRANCH  47  71
BRANCH  59  82
ATOM     82  C   UNL     1      -0.175  13.579   6.165  1.00  0.00     0.064 A 
ATOM     83  C   UNL     1      -1.465  14.119   6.257  1.00  0.00     0.173 A 
ATOM     84  C   UNL     1       0.862  14.230   6.850  1.00  0.00     0.173 A 
ATOM     85  F   UNL     1      -2.487  13.540   5.610  1.00  0.00    -0.203 F 
ATOM     86  C   UNL     1      -1.708  15.268   7.006  1.00  0.00     0.198 A 
ATOM     87  C   UNL     1       0.611  15.363   7.620  1.00  0.00     0.198 A 
ATOM     88  F   UNL     1       2.113  13.749   6.801  1.00  0.00    -0.203 F 
ATOM     89  F   UNL     1      -2.945  15.780   7.063  1.00  0.00    -0.200 F 
ATOM     90  C   UNL     1      -0.673  15.881   7.697  1.00  0.00     0.200 A 
ATOM     91  F   UNL     1       1.609  15.944   8.300  1.00  0.00    -0.200 F 
ATOM     92  F   UNL     1      -0.913  16.971   8.438  1.00  0.00    -0.200 F 
ENDBRANCH  59  82
ENDBRANCH  33  34
ENDBRANCH  26  28
ENDBRANCH  25  26
ENDBRANCH   1  25
TORSDOF 12
