REMARK SMILES C[C@@](O)(c1ccc(Cl)cc1Cl)[C@@H](F)C(=O)OCCOC(=O)c1ccc(-c2c3nc(c(-c4c(F)c(F)c(F)c(F)c4F)c4ccc([nH]4)c(-c4c(F)c(F)c(F)c(F)c4F)c4nc(c(-c5c(F)c(F)c(F)c(F)c5F)c5ccc2[nH]5)C=C4)C=C3)cc1
REMARK SMILES IDX 17 1 16 2 14 3 15 4 12 5 13 6 2 7 1 8 3 9 4 11 5 12 10 13
REMARK SMILES IDX 6 14 9 15 11 16 7 17 8 18 18 19 19 20 20 21 21 22 22 23
REMARK SMILES IDX 23 24 84 25 24 26 83 27 25 28 26 29 27 30 77 31 28 32 82 33
REMARK SMILES IDX 76 34 78 35 29 36 81 37 75 38 74 39 30 41 62 42 42 43 61 44
REMARK SMILES IDX 43 45 46 46 60 47 79 48 44 49 45 50 59 52 80 53 47 54 31 55
REMARK SMILES IDX 32 56 40 57 33 58 34 59 38 60 41 61 35 62 36 63 39 64 37 65
REMARK SMILES IDX 63 66 64 67 72 68 65 69 66 70 70 71 73 72 67 73 68 74 71 75
REMARK SMILES IDX 69 76 48 77 49 78 57 79 50 80 51 81 55 82 58 83 52 84 53 85
REMARK SMILES IDX 56 86 54 87
REMARK H PARENT 3 10 78 40 46 51
REMARK Flexibility Score: inf
ROOT
ATOM      1  C   UNL     1       4.677  -1.724   0.484  1.00  0.00     0.274 C 
ENDROOT
BRANCH   1   2
ATOM      2  O   UNL     1       3.265  -1.440   0.374  1.00  0.00    -0.460 OA
BRANCH   2   3
ATOM      3  C   UNL     1       2.424  -2.370   0.897  1.00  0.00     0.344 C 
ATOM      4  O   UNL     1       2.807  -3.382   1.479  1.00  0.00    -0.249 OA
BRANCH   3   5
ATOM      5  C   UNL     1       0.949  -2.108   0.617  1.00  0.00     0.311 C 
ATOM      6  F   UNL     1       0.615  -2.553  -0.635  1.00  0.00    -0.231 F 
BRANCH   5   7
ATOM      7  C   UNL     1       0.400  -0.661   0.822  1.00  0.00     0.130 C 
ATOM      8  C   UNL     1       0.911   0.251  -0.309  1.00  0.00     0.051 C 
BRANCH   7   9
ATOM      9  O   UNL     1       0.828  -0.205   2.105  1.00  0.00    -0.382 OA
ATOM     10  H   UNL     1       0.498   0.695   2.255  1.00  0.00     0.212 HD
ENDBRANCH   7   9
BRANCH   7  11
ATOM     11  C   UNL     1      -1.147  -0.590   0.921  1.00  0.00     0.006 A 
ATOM     12  C   UNL     1      -1.946  -1.734   0.690  1.00  0.00     0.010 A 
ATOM     13  C   UNL     1      -1.838   0.589   1.310  1.00  0.00     0.048 A 
ATOM     14  C   UNL     1      -3.337  -1.714   0.853  1.00  0.00     0.021 A 
ATOM     15  C   UNL     1      -3.235   0.611   1.444  1.00  0.00     0.041 A 
ATOM     16  Cl  UNL     1      -1.051   2.090   1.689  1.00  0.00    -0.084 Cl
ATOM     17  C   UNL     1      -3.975  -0.541   1.225  1.00  0.00     0.042 A 
ATOM     18  Cl  UNL     1      -5.683  -0.517   1.421  1.00  0.00    -0.084 Cl
ENDBRANCH   7  11
ENDBRANCH   5   7
ENDBRANCH   3   5
ENDBRANCH   2   3
ENDBRANCH   1   2
BRANCH   1  19
ATOM     19  C   UNL     1       5.333  -1.030   1.683  1.00  0.00     0.275 C 
BRANCH  19  20
ATOM     20  O   UNL     1       4.851  -1.545   2.939  1.00  0.00    -0.458 OA
BRANCH  20  21
ATOM     21  C   UNL     1       3.783  -0.882   3.441  1.00  0.00     0.338 C 
ATOM     22  O   UNL     1       3.248   0.100   2.953  1.00  0.00    -0.246 OA
BRANCH  21  23
ATOM     23  C   UNL     1       3.236  -1.605   4.604  1.00  0.00     0.060 A 
ATOM     24  C   UNL     1       1.929  -2.095   4.523  1.00  0.00     0.016 A 
ATOM     25  C   UNL     1       3.956  -1.720   5.794  1.00  0.00     0.016 A 
ATOM     26  C   UNL     1       1.323  -2.675   5.633  1.00  0.00     0.010 A 
ATOM     27  C   UNL     1       3.348  -2.308   6.911  1.00  0.00     0.010 A 
ATOM     28  C   UNL     1       2.021  -2.769   6.841  1.00  0.00    -0.014 A 
BRANCH  28  29
ATOM     29  C   UNL     1       1.314  -3.274   8.042  1.00  0.00     0.031 A 
ATOM     30  C   UNL     1       0.816  -2.305   9.075  1.00  0.00     0.074 A 
ATOM     31  C   UNL     1       1.068  -4.590   8.177  1.00  0.00     0.049 A 
ATOM     32  N   UNL     1       0.192  -2.540  10.201  1.00  0.00    -0.248 NA
ATOM     33  C   UNL     1       1.052  -0.879   8.802  1.00  0.00     0.031 C 
ATOM     34  C   UNL     1       1.453  -5.623   7.217  1.00  0.00     0.029 A 
ATOM     35  N   UNL     1       0.426  -5.279   9.175  1.00  0.00    -0.354 N 
ATOM     36  C   UNL     1      -0.022  -1.297  10.780  1.00  0.00     0.074 A 
ATOM     37  C   UNL     1       0.551  -0.310   9.889  1.00  0.00     0.031 C 
ATOM     38  C   UNL     1       1.030  -6.816   7.668  1.00  0.00     0.029 A 
ATOM     39  C   UNL     1       0.377  -6.633   8.962  1.00  0.00     0.049 A 
ATOM     40  H   UNL     1       0.036  -4.843   9.967  1.00  0.00     0.167 HD
ATOM     41  C   UNL     1      -0.644  -1.006  11.948  1.00  0.00     0.037 A 
ATOM     42  C   UNL     1      -0.126  -7.616   9.733  1.00  0.00     0.037 A 
ATOM     43  C   UNL     1      -1.237  -1.984  12.822  1.00  0.00     0.049 A 
ATOM     44  C   UNL     1      -0.771  -7.268  11.047  1.00  0.00     0.074 A 
ATOM     45  C   UNL     1      -1.908  -1.783  14.016  1.00  0.00     0.029 A 
ATOM     46  N   UNL     1      -1.232  -3.352  12.592  1.00  0.00    -0.354 N 
ATOM     47  N   UNL     1      -0.970  -6.091  11.587  1.00  0.00    -0.248 NA
ATOM     48  C   UNL     1      -1.260  -8.391  11.860  1.00  0.00     0.031 C 
ATOM     49  C   UNL     1      -2.278  -3.032  14.527  1.00  0.00     0.029 A 
ATOM     50  C   UNL     1      -1.871  -4.009  13.632  1.00  0.00     0.049 A 
ATOM     51  H   UNL     1      -0.833  -3.791  11.806  1.00  0.00     0.167 HD
ATOM     52  C   UNL     1      -1.627  -6.327  12.787  1.00  0.00     0.074 A 
ATOM     53  C   UNL     1      -1.803  -7.760  12.893  1.00  0.00     0.031 C 
ATOM     54  C   UNL     1      -2.046  -5.435  13.717  1.00  0.00     0.037 A 
BRANCH  41  55
ATOM     55  C   UNL     1      -0.686   0.433  12.365  1.00  0.00     0.064 A 
ATOM     56  C   UNL     1      -1.541   1.356  11.746  1.00  0.00     0.173 A 
ATOM     57  C   UNL     1       0.124   0.886  13.416  1.00  0.00     0.173 A 
ATOM     58  F   UNL     1      -2.324   0.973  10.727  1.00  0.00    -0.203 F 
ATOM     59  C   UNL     1      -1.566   2.688  12.151  1.00  0.00     0.198 A 
ATOM     60  C   UNL     1       0.080   2.213  13.834  1.00  0.00     0.198 A 
ATOM     61  F   UNL     1       0.957   0.040  14.041  1.00  0.00    -0.203 F 
ATOM     62  F   UNL     1      -2.361   3.564  11.521  1.00  0.00    -0.200 F 
ATOM     63  C   UNL     1      -0.761   3.114  13.197  1.00  0.00     0.200 A 
ATOM     64  F   UNL     1       0.853   2.621  14.850  1.00  0.00    -0.200 F 
ATOM     65  F   UNL     1      -0.788   4.396  13.587  1.00  0.00    -0.200 F 
ENDBRANCH  41  55
BRANCH  42  66
ATOM     66  C   UNL     1      -0.041  -9.027   9.282  1.00  0.00     0.064 A 
ATOM     67  C   UNL     1      -1.189  -9.727   8.887  1.00  0.00     0.173 A 
ATOM     68  C   UNL     1       1.185  -9.707   9.248  1.00  0.00     0.173 A 
ATOM     69  F   UNL     1      -2.387  -9.125   8.929  1.00  0.00    -0.203 F 
ATOM     70  C   UNL     1      -1.116 -11.059   8.486  1.00  0.00     0.198 A 
ATOM     71  C   UNL     1       1.260 -11.032   8.825  1.00  0.00     0.198 A 
ATOM     72  F   UNL     1       2.310  -9.082   9.622  1.00  0.00    -0.203 F 
ATOM     73  F   UNL     1      -2.234 -11.718   8.152  1.00  0.00    -0.200 F 
ATOM     74  C   UNL     1       0.109 -11.709   8.450  1.00  0.00     0.200 A 
ATOM     75  F   UNL     1       2.446 -11.654   8.785  1.00  0.00    -0.200 F 
ATOM     76  F   UNL     1       0.179 -12.990   8.064  1.00  0.00    -0.200 F 
ENDBRANCH  42  66
BRANCH  54  77
ATOM     77  C   UNL     1      -2.769  -5.982  14.912  1.00  0.00     0.064 A 
ATOM     78  C   UNL     1      -2.087  -6.655  15.937  1.00  0.00     0.173 A 
ATOM     79  C   UNL     1      -4.154  -5.806  15.046  1.00  0.00     0.173 A 
ATOM     80  F   UNL     1      -0.765  -6.862  15.846  1.00  0.00    -0.203 F 
ATOM     81  C   UNL     1      -2.772  -7.152  17.043  1.00  0.00     0.198 A 
ATOM     82  C   UNL     1      -4.831  -6.284  16.165  1.00  0.00     0.198 A 
ATOM     83  F   UNL     1      -4.849  -5.165  14.095  1.00  0.00    -0.203 F 
ATOM     84  F   UNL     1      -2.109  -7.830  17.990  1.00  0.00    -0.200 F 
ATOM     85  C   UNL     1      -4.141  -6.962  17.158  1.00  0.00     0.200 A 
ATOM     86  F   UNL     1      -6.153  -6.092  16.279  1.00  0.00    -0.200 F 
ATOM     87  F   UNL     1      -4.798  -7.441  18.224  1.00  0.00    -0.200 F 
ENDBRANCH  54  77
ENDBRANCH  28  29
ENDBRANCH  21  23
ENDBRANCH  20  21
ENDBRANCH  19  20
ENDBRANCH   1  19
TORSDOF 14
