REMARK SMILES O=C(OCCOC(=O)[C@@H]1C[NH2+]CCN1C(=O)N[C@@H]1CCOC1)c1ccc(-c2c3nc(c(-c4c(F)c(F)c(F)c(F)c4F)c4ccc([nH]4)c(-c4c(F)c(F)c(F)c(F)c4F)c4nc(c(-c5c(F)c(F)c(F)c(F)c5F)c5ccc2[nH]5)C=C4)C=C3)cc1
REMARK SMILES IDX 4 1 3 2 2 3 1 4 23 5 24 6 85 7 25 8 84 9 26 10 27 11 28 12
REMARK SMILES IDX 78 13 29 14 83 15 77 16 79 17 30 18 82 19 76 20 75 21 31 23
REMARK SMILES IDX 63 24 43 25 62 26 44 27 47 28 61 29 80 30 45 31 46 32 60 34
REMARK SMILES IDX 81 35 48 36 32 37 33 38 41 39 34 40 35 41 39 42 42 43 36 44
REMARK SMILES IDX 37 45 40 46 38 47 64 48 65 49 73 50 66 51 67 52 71 53 74 54
REMARK SMILES IDX 68 55 69 56 72 57 70 58 49 59 50 60 58 61 51 62 52 63 56 64
REMARK SMILES IDX 59 65 53 66 54 67 57 68 55 69 5 70 6 71 7 72 8 73 9 74 10 75
REMARK SMILES IDX 14 76 11 77 13 78 12 79 15 82 16 83 17 84 18 86 19 87 22 88
REMARK SMILES IDX 20 89 21 90
REMARK H PARENT 79 22 47 33 11 80 11 81 17 85
REMARK Flexibility Score: inf
ROOT
ATOM      1  C   UNL     1       4.637  -0.841  -1.345  1.00  0.00     0.275 C 
ENDROOT
BRANCH   1   2
ATOM      2  O   UNL     1       3.727  -1.756  -0.709  1.00  0.00    -0.458 OA
BRANCH   2   3
ATOM      3  C   UNL     1       3.699  -2.178   0.584  1.00  0.00     0.338 C 
ATOM      4  O   UNL     1       3.088  -3.196   0.895  1.00  0.00    -0.246 OA
BRANCH   3   5
ATOM      5  C   UNL     1       4.228  -1.317   1.668  1.00  0.00     0.060 A 
ATOM      6  C   UNL     1       5.515  -0.781   1.664  1.00  0.00     0.016 A 
ATOM      7  C   UNL     1       3.348  -1.000   2.723  1.00  0.00     0.016 A 
ATOM      8  C   UNL     1       5.887   0.154   2.630  1.00  0.00     0.010 A 
ATOM      9  C   UNL     1       3.714  -0.059   3.692  1.00  0.00     0.010 A 
ATOM     10  C   UNL     1       4.997   0.510   3.655  1.00  0.00    -0.014 A 
BRANCH  10  11
ATOM     11  C   UNL     1       5.580   1.129   4.869  1.00  0.00     0.031 A 
ATOM     12  C   UNL     1       6.097   0.160   5.890  1.00  0.00     0.074 A 
ATOM     13  C   UNL     1       5.764   2.453   5.023  1.00  0.00     0.049 A 
ATOM     14  N   UNL     1       6.852   0.377   6.931  1.00  0.00    -0.248 NA
ATOM     15  C   UNL     1       5.735  -1.256   5.688  1.00  0.00     0.031 C 
ATOM     16  C   UNL     1       5.329   3.482   4.093  1.00  0.00     0.029 A 
ATOM     17  N   UNL     1       6.387   3.163   6.018  1.00  0.00    -0.354 N 
ATOM     18  C   UNL     1       7.090  -0.877   7.471  1.00  0.00     0.074 A 
ATOM     19  C   UNL     1       6.339  -1.839   6.704  1.00  0.00     0.031 C 
ATOM     20  C   UNL     1       5.699   4.692   4.542  1.00  0.00     0.029 A 
ATOM     21  C   UNL     1       6.401   4.523   5.807  1.00  0.00     0.049 A 
ATOM     22  H   UNL     1       6.787   2.739   6.811  1.00  0.00     0.167 HD
ATOM     23  C   UNL     1       7.899  -1.204   8.500  1.00  0.00     0.037 A 
ATOM     24  C   UNL     1       6.934   5.513   6.549  1.00  0.00     0.037 A 
ATOM     25  C   UNL     1       8.584  -0.236   9.301  1.00  0.00     0.049 A 
ATOM     26  C   UNL     1       7.709   5.132   7.785  1.00  0.00     0.074 A 
ATOM     27  C   UNL     1       9.394  -0.442  10.398  1.00  0.00     0.029 A 
ATOM     28  N   UNL     1       8.502   1.137   9.103  1.00  0.00    -0.354 N 
ATOM     29  N   UNL     1       8.001   3.937   8.243  1.00  0.00    -0.248 NA
ATOM     30  C   UNL     1       8.248   6.232   8.594  1.00  0.00     0.031 C 
ATOM     31  C   UNL     1       9.744   0.811  10.911  1.00  0.00     0.029 A 
ATOM     32  C   UNL     1       9.218   1.795  10.086  1.00  0.00     0.049 A 
ATOM     33  H   UNL     1       8.008   1.575   8.373  1.00  0.00     0.167 HD
ATOM     34  C   UNL     1       8.796   4.140   9.362  1.00  0.00     0.074 A 
ATOM     35  C   UNL     1       8.947   5.574   9.508  1.00  0.00     0.031 C 
ATOM     36  C   UNL     1       9.360   3.226  10.191  1.00  0.00     0.037 A 
BRANCH  23  37
ATOM     37  C   UNL     1       8.008  -2.664   8.815  1.00  0.00     0.064 A 
ATOM     38  C   UNL     1       8.637  -3.561   7.934  1.00  0.00     0.173 A 
ATOM     39  C   UNL     1       7.393  -3.186   9.960  1.00  0.00     0.173 A 
ATOM     40  F   UNL     1       9.202  -3.112   6.803  1.00  0.00    -0.203 F 
ATOM     41  C   UNL     1       8.604  -4.932   8.168  1.00  0.00     0.198 A 
ATOM     42  C   UNL     1       7.393  -4.555  10.207  1.00  0.00     0.198 A 
ATOM     43  F   UNL     1       6.763  -2.373  10.820  1.00  0.00    -0.203 F 
ATOM     44  F   UNL     1       9.134  -5.775   7.271  1.00  0.00    -0.200 F 
ATOM     45  C   UNL     1       7.985  -5.427   9.305  1.00  0.00     0.200 A 
ATOM     46  F   UNL     1       6.794  -5.034  11.306  1.00  0.00    -0.200 F 
ATOM     47  F   UNL     1       7.940  -6.749   9.522  1.00  0.00    -0.200 F 
ENDBRANCH  23  37
BRANCH  24  48
ATOM     48  C   UNL     1       6.790   6.942   6.150  1.00  0.00     0.064 A 
ATOM     49  C   UNL     1       7.906   7.714   5.791  1.00  0.00     0.173 A 
ATOM     50  C   UNL     1       5.543   7.586   6.181  1.00  0.00     0.173 A 
ATOM     51  F   UNL     1       9.124   7.154   5.762  1.00  0.00    -0.203 F 
ATOM     52  C   UNL     1       7.787   9.077   5.519  1.00  0.00     0.198 A 
ATOM     53  C   UNL     1       5.421   8.943   5.883  1.00  0.00     0.198 A 
ATOM     54  F   UNL     1       4.441   6.898   6.513  1.00  0.00    -0.203 F 
ATOM     55  F   UNL     1       8.881   9.800   5.243  1.00  0.00    -0.200 F 
ATOM     56  C   UNL     1       6.545   9.691   5.565  1.00  0.00     0.200 A 
ATOM     57  F   UNL     1       4.218   9.530   5.923  1.00  0.00    -0.200 F 
ATOM     58  F   UNL     1       6.434  11.004   5.320  1.00  0.00    -0.200 F 
ENDBRANCH  24  48
BRANCH  36  59
ATOM     59  C   UNL     1      10.237   3.743  11.292  1.00  0.00     0.064 A 
ATOM     60  C   UNL     1       9.716   4.440  12.391  1.00  0.00     0.173 A 
ATOM     61  C   UNL     1      11.615   3.476  11.274  1.00  0.00     0.173 A 
ATOM     62  F   UNL     1       8.407   4.730  12.449  1.00  0.00    -0.203 F 
ATOM     63  C   UNL     1      10.548   4.875  13.419  1.00  0.00     0.198 A 
ATOM     64  C   UNL     1      12.436   3.876  12.322  1.00  0.00     0.198 A 
ATOM     65  F   UNL     1      12.161   2.804  10.248  1.00  0.00    -0.203 F 
ATOM     66  F   UNL     1      10.038   5.586  14.434  1.00  0.00    -0.200 F 
ATOM     67  C   UNL     1      11.903   4.583  13.389  1.00  0.00     0.200 A 
ATOM     68  F   UNL     1      13.741   3.572  12.302  1.00  0.00    -0.200 F 
ATOM     69  F   UNL     1      12.699   4.987  14.388  1.00  0.00    -0.200 F 
ENDBRANCH  36  59
ENDBRANCH  10  11
ENDBRANCH   3   5
ENDBRANCH   2   3
ENDBRANCH   1   2
BRANCH   1  70
ATOM     70  C   UNL     1       4.164   0.576  -1.774  1.00  0.00     0.274 C 
BRANCH  70  71
ATOM     71  O   UNL     1       3.250   1.462  -0.729  1.00  0.00    -0.460 OA
BRANCH  71  72
ATOM     72  C   UNL     1       1.893   2.422   0.183  1.00  0.00     0.334 C 
ATOM     73  O   UNL     1       0.746   2.688  -0.253  1.00  0.00    -0.250 OA
BRANCH  72  74
ATOM     74  C   UNL     1       2.089   2.941   1.666  1.00  0.00     0.252 C 
ATOM     75  C   UNL     1       0.847   2.436   2.482  1.00  0.00     0.298 C 
ATOM     76  N   UNL     1       2.133   4.417   1.593  1.00  0.00    -0.300 N 
ATOM     77  N   UNL     1       0.728   3.058   3.817  1.00  0.00    -0.343 N 
ATOM     78  C   UNL     1       1.853   5.099   2.868  1.00  0.00     0.183 C 
ATOM     79  C   UNL     1       0.645   4.517   3.628  1.00  0.00     0.282 C 
ATOM     80  H   UNL     1       1.545   2.828   4.383  1.00  0.00     0.346 HD
ATOM     81  H   UNL     1      -0.103   2.714   4.298  1.00  0.00     0.346 HD
BRANCH  76  82
ATOM     82  C   UNL     1       2.505   5.169   0.504  1.00  0.00     0.318 C 
ATOM     83  O   UNL     1       2.501   6.402   0.537  1.00  0.00    -0.249 OA
ATOM     84  N   UNL     1       2.902   4.612  -0.673  1.00  0.00    -0.333 N 
ATOM     85  H   UNL     1       2.879   5.254  -1.419  1.00  0.00     0.165 HD
BRANCH  84  86
ATOM     86  C   UNL     1       3.359   3.272  -1.096  1.00  0.00     0.112 C 
ATOM     87  C   UNL     1       1.977   2.054  -1.905  1.00  0.00     0.056 C 
ATOM     88  C   UNL     1       4.146   2.360   0.486  1.00  0.00     0.185 C 
ATOM     89  C   UNL     1       1.716   0.540  -0.571  1.00  0.00     0.162 C 
ATOM     90  O   UNL     1       2.956   0.891   0.881  1.00  0.00    -0.379 OA
ENDBRANCH  84  86
ENDBRANCH  76  82
ENDBRANCH  72  74
ENDBRANCH  71  72
ENDBRANCH  70  71
ENDBRANCH   1  70
TORSDOF 13
