REMARK SMILES COC(=O)c1ccc([C@H]2CC(=O)Nc3c(C(=O)OCCOC(=O)c4ccc(-c5c6nc(c(-c7c(F)c(F)c(F)c(F)c7F)c7ccc([nH]7)c(-c7c(F)c(F)c(F)c(F)c7F)c7nc(c(-c8c(F)c(F)c(F)c(F)c8F)c8ccc5[nH]8)C=C7)C=C6)cc4)cn(-c4ccccc4)c32)cc1
REMARK SMILES IDX 19 1 18 2 16 3 17 4 15 5 9 6 10 7 95 8 11 9 14 10 88 11
REMARK SMILES IDX 12 12 13 13 87 14 8 16 5 17 6 18 97 19 7 20 96 21 3 22 4 23
REMARK SMILES IDX 2 24 1 25 89 26 90 27 94 28 91 29 93 30 92 31 20 32 21 33
REMARK SMILES IDX 22 34 23 35 24 36 25 37 86 38 26 39 85 40 27 41 28 42 29 43
REMARK SMILES IDX 79 44 30 45 84 46 78 47 80 48 31 49 83 50 77 51 76 52 32 54
REMARK SMILES IDX 64 55 44 56 63 57 45 58 48 59 62 60 81 61 46 62 47 63 61 65
REMARK SMILES IDX 82 66 49 67 33 68 34 69 42 70 35 71 36 72 40 73 43 74 37 75
REMARK SMILES IDX 38 76 41 77 39 78 65 79 66 80 74 81 67 82 68 83 72 84 75 85
REMARK SMILES IDX 69 86 70 87 73 88 71 89 50 90 51 91 59 92 52 93 53 94 57 95
REMARK SMILES IDX 60 96 54 97 55 98 58 99 56 100
REMARK H PARENT 13 15 80 53 48 64
REMARK Flexibility Score: inf
ROOT
ATOM      1  C   UNL     1      -6.458   2.167   8.392  1.00  0.00     0.275 C 
ENDROOT
BRANCH   1   2
ATOM      2  O   UNL     1      -5.272   1.427   8.060  1.00  0.00    -0.458 OA
BRANCH   2   3
ATOM      3  C   UNL     1      -4.103   2.139   8.050  1.00  0.00     0.341 C 
ATOM      4  O   UNL     1      -4.034   3.361   8.117  1.00  0.00    -0.246 OA
BRANCH   3   5
ATOM      5  C   UNL     1      -2.932   1.275   8.028  1.00  0.00     0.102 A 
ATOM      6  C   UNL     1      -1.070  -1.928   7.660  1.00  0.00     0.078 C 
ATOM      7  C   UNL     1      -2.284  -2.877   7.649  1.00  0.00     0.115 C 
ATOM      8  C   UNL     1      -1.528  -0.507   7.861  1.00  0.00     0.055 A 
ATOM      9  C   UNL     1      -3.565  -2.298   7.079  1.00  0.00     0.225 C 
ATOM     10  C   UNL     1      -2.834  -0.099   7.717  1.00  0.00     0.078 A 
ATOM     11  N   UNL     1      -0.777   0.616   8.171  1.00  0.00    -0.317 N 
ATOM     12  O   UNL     1      -4.416  -3.012   6.546  1.00  0.00    -0.275 OA
ATOM     13  N   UNL     1      -3.806  -0.969   7.291  1.00  0.00    -0.324 N 
ATOM     14  C   UNL     1      -1.648   1.665   8.383  1.00  0.00     0.109 A 
ATOM     15  H   UNL     1      -4.714  -0.622   7.132  1.00  0.00     0.170 HD
BRANCH   6  16
ATOM     16  C   UNL     1      -0.044  -2.481   8.653  1.00  0.00    -0.038 A 
ATOM     17  C   UNL     1       2.004  -3.450  10.344  1.00  0.00     0.060 A 
ATOM     18  C   UNL     1       1.786  -4.033   9.092  1.00  0.00     0.016 A 
ATOM     19  C   UNL     1       1.152  -2.430  10.778  1.00  0.00     0.016 A 
ATOM     20  C   UNL     1       0.777  -3.550   8.254  1.00  0.00     0.005 A 
ATOM     21  C   UNL     1       0.114  -1.980   9.955  1.00  0.00     0.005 A 
BRANCH  17  22
ATOM     22  C   UNL     1       3.155  -3.922  11.156  1.00  0.00     0.337 C 
ATOM     23  O   UNL     1       4.026  -4.668  10.725  1.00  0.00    -0.246 OA
BRANCH  22  24
ATOM     24  O   UNL     1       3.096  -3.415  12.412  1.00  0.00    -0.465 OA
ATOM     25  C   UNL     1       4.174  -3.813  13.259  1.00  0.00     0.282 C 
ENDBRANCH  22  24
ENDBRANCH  17  22
ENDBRANCH   6  16
BRANCH  11  26
ATOM     26  C   UNL     1       0.629   0.707   8.287  1.00  0.00     0.045 A 
ATOM     27  C   UNL     1       1.440   0.183   7.276  1.00  0.00     0.026 A 
ATOM     28  C   UNL     1       1.194   1.242   9.451  1.00  0.00     0.026 A 
ATOM     29  C   UNL     1       2.822   0.155   7.449  1.00  0.00     0.002 A 
ATOM     30  C   UNL     1       2.576   1.168   9.633  1.00  0.00     0.002 A 
ATOM     31  C   UNL     1       3.387   0.623   8.635  1.00  0.00     0.000 A 
ENDBRANCH  11  26
ENDBRANCH   3   5
ENDBRANCH   2   3
ENDBRANCH   1   2
BRANCH   1  32
ATOM     32  C   UNL     1      -6.665   2.253   9.899  1.00  0.00     0.275 C 
BRANCH  32  33
ATOM     33  O   UNL     1      -5.709   3.112  10.519  1.00  0.00    -0.458 OA
BRANCH  33  34
ATOM     34  C   UNL     1      -4.643   2.482  11.061  1.00  0.00     0.338 C 
ATOM     35  O   UNL     1      -4.235   1.362  10.803  1.00  0.00    -0.246 OA
BRANCH  34  36
ATOM     36  C   UNL     1      -4.173   3.249  12.217  1.00  0.00     0.060 A 
ATOM     37  C   UNL     1      -2.987   2.836  12.831  1.00  0.00     0.016 A 
ATOM     38  C   UNL     1      -5.043   4.164  12.827  1.00  0.00     0.016 A 
ATOM     39  C   UNL     1      -2.741   3.240  14.127  1.00  0.00     0.010 A 
ATOM     40  C   UNL     1      -4.809   4.547  14.125  1.00  0.00     0.010 A 
ATOM     41  C   UNL     1      -3.691   4.037  14.780  1.00  0.00    -0.014 A 
BRANCH  41  42
ATOM     42  C   UNL     1      -3.395   4.504  16.120  1.00  0.00     0.031 A 
ATOM     43  C   UNL     1      -2.305   5.510  16.119  1.00  0.00     0.074 A 
ATOM     44  C   UNL     1      -4.142   4.164  17.189  1.00  0.00     0.049 A 
ATOM     45  N   UNL     1      -1.144   5.411  16.672  1.00  0.00    -0.248 NA
ATOM     46  C   UNL     1      -2.449   6.687  15.241  1.00  0.00     0.031 C 
ATOM     47  C   UNL     1      -5.393   3.399  17.190  1.00  0.00     0.029 A 
ATOM     48  N   UNL     1      -4.005   4.521  18.497  1.00  0.00    -0.354 N 
ATOM     49  C   UNL     1      -0.496   6.612  16.393  1.00  0.00     0.074 A 
ATOM     50  C   UNL     1      -1.248   7.254  15.354  1.00  0.00     0.031 C 
ATOM     51  C   UNL     1      -6.011   3.552  18.383  1.00  0.00     0.029 A 
ATOM     52  C   UNL     1      -5.148   4.318  19.265  1.00  0.00     0.049 A 
ATOM     53  H   UNL     1      -3.171   4.891  18.867  1.00  0.00     0.167 HD
ATOM     54  C   UNL     1       0.407   7.113  17.278  1.00  0.00     0.037 A 
ATOM     55  C   UNL     1      -5.382   4.809  20.509  1.00  0.00     0.037 A 
ATOM     56  C   UNL     1       0.878   6.069  18.155  1.00  0.00     0.049 A 
ATOM     57  C   UNL     1      -4.071   5.190  21.083  1.00  0.00     0.074 A 
ATOM     58  C   UNL     1       1.616   4.913  18.017  1.00  0.00     0.029 A 
ATOM     59  N   UNL     1       0.208   5.974  19.344  1.00  0.00    -0.354 N 
ATOM     60  N   UNL     1      -3.150   4.333  21.424  1.00  0.00    -0.248 NA
ATOM     61  C   UNL     1      -3.615   6.564  20.927  1.00  0.00     0.031 C 
ATOM     62  C   UNL     1       1.115   4.015  19.008  1.00  0.00     0.029 A 
ATOM     63  C   UNL     1       0.134   4.673  19.751  1.00  0.00     0.049 A 
ATOM     64  H   UNL     1      -0.169   6.738  19.838  1.00  0.00     0.167 HD
ATOM     65  C   UNL     1      -1.960   4.950  21.082  1.00  0.00     0.074 A 
ATOM     66  C   UNL     1      -2.295   6.364  20.946  1.00  0.00     0.031 C 
ATOM     67  C   UNL     1      -0.905   4.202  20.641  1.00  0.00     0.037 A 
BRANCH  54  68
ATOM     68  C   UNL     1       0.435   8.574  17.703  1.00  0.00     0.064 A 
ATOM     69  C   UNL     1       1.391   8.971  18.663  1.00  0.00     0.173 A 
ATOM     70  C   UNL     1      -0.614   9.496  17.487  1.00  0.00     0.173 A 
ATOM     71  F   UNL     1       2.426   8.173  18.966  1.00  0.00    -0.203 F 
ATOM     72  C   UNL     1       1.248  10.143  19.412  1.00  0.00     0.198 A 
ATOM     73  C   UNL     1      -0.726  10.688  18.203  1.00  0.00     0.198 A 
ATOM     74  F   UNL     1      -1.639   9.250  16.666  1.00  0.00    -0.203 F 
ATOM     75  F   UNL     1       2.106  10.404  20.408  1.00  0.00    -0.200 F 
ATOM     76  C   UNL     1       0.184  10.995  19.189  1.00  0.00     0.200 A 
ATOM     77  F   UNL     1      -1.779  11.488  17.984  1.00  0.00    -0.200 F 
ATOM     78  F   UNL     1       0.005  12.081  19.951  1.00  0.00    -0.200 F 
ENDBRANCH  54  68
BRANCH  55  79
ATOM     79  C   UNL     1      -6.659   5.247  21.127  1.00  0.00     0.064 A 
ATOM     80  C   UNL     1      -6.749   5.486  22.511  1.00  0.00     0.173 A 
ATOM     81  C   UNL     1      -7.728   5.723  20.344  1.00  0.00     0.173 A 
ATOM     82  F   UNL     1      -5.757   5.105  23.328  1.00  0.00    -0.203 F 
ATOM     83  C   UNL     1      -7.821   6.192  23.069  1.00  0.00     0.198 A 
ATOM     84  C   UNL     1      -8.801   6.421  20.903  1.00  0.00     0.198 A 
ATOM     85  F   UNL     1      -7.705   5.612  19.009  1.00  0.00    -0.203 F 
ATOM     86  F   UNL     1      -7.833   6.465  24.381  1.00  0.00    -0.200 F 
ATOM     87  C   UNL     1      -8.840   6.670  22.262  1.00  0.00     0.200 A 
ATOM     88  F   UNL     1      -9.761   6.910  20.105  1.00  0.00    -0.200 F 
ATOM     89  F   UNL     1      -9.831   7.405  22.784  1.00  0.00    -0.200 F 
ENDBRANCH  55  79
BRANCH  67  90
ATOM     90  C   UNL     1      -0.917   2.738  20.976  1.00  0.00     0.064 A 
ATOM     91  C   UNL     1      -1.882   1.819  20.529  1.00  0.00     0.173 A 
ATOM     92  C   UNL     1       0.153   2.236  21.729  1.00  0.00     0.173 A 
ATOM     93  F   UNL     1      -2.883   2.200  19.725  1.00  0.00    -0.203 F 
ATOM     94  C   UNL     1      -1.803   0.470  20.874  1.00  0.00     0.198 A 
ATOM     95  C   UNL     1       0.253   0.883  22.033  1.00  0.00     0.198 A 
ATOM     96  F   UNL     1       1.129   3.060  22.143  1.00  0.00    -0.203 F 
ATOM     97  F   UNL     1      -2.752  -0.386  20.463  1.00  0.00    -0.200 F 
ATOM     98  C   UNL     1      -0.733   0.003  21.620  1.00  0.00     0.200 A 
ATOM     99  F   UNL     1       1.316   0.431  22.712  1.00  0.00    -0.200 F 
ATOM    100  F   UNL     1      -0.639  -1.299  21.923  1.00  0.00    -0.200 F 
ENDBRANCH  67  90
ENDBRANCH  41  42
ENDBRANCH  34  36
ENDBRANCH  33  34
ENDBRANCH  32  33
ENDBRANCH   1  32
TORSDOF 15
