REMARK SMILES Cc1cc(=O)n(Cc2cc(C(=O)OCCOC(=O)c3ccc(-c4c5nc(c(-c6c(F)c(F)c(F)c(F)c6F)c6ccc([nH]6)c(-c6c(F)c(F)c(F)c(F)c6F)c6nc(c(-c7c(F)c(F)c(F)c(F)c7F)c7ccc4[nH]7)C=C6)C=C5)cc3)oc2C)cc1[N+](=O)[O-]
REMARK SMILES IDX 14 1 13 2 11 3 12 4 10 5 8 6 9 7 83 8 82 9 84 10 7 11 6 12
REMARK SMILES IDX 1 13 2 14 3 15 86 16 4 17 85 18 5 19 87 20 88 21 89 22 15 23
REMARK SMILES IDX 16 24 17 25 18 26 19 27 20 28 81 29 21 30 80 31 22 32 23 33
REMARK SMILES IDX 24 34 74 35 25 36 79 37 73 38 75 39 26 40 78 41 72 42 71 43
REMARK SMILES IDX 27 45 59 46 39 47 58 48 40 49 43 50 57 51 76 52 41 53 42 54
REMARK SMILES IDX 56 56 77 57 44 58 28 59 29 60 37 61 30 62 31 63 35 64 38 65
REMARK SMILES IDX 32 66 33 67 36 68 34 69 60 70 61 71 69 72 62 73 63 74 67 75
REMARK SMILES IDX 70 76 64 77 65 78 68 79 66 80 45 81 46 82 54 83 47 84 48 85
REMARK SMILES IDX 52 86 55 87 49 88 50 89 53 90 51 91
REMARK H PARENT 75 44 43 55
REMARK Flexibility Score: inf
ROOT
ATOM      1  C   UNL     1      -4.728  -6.414   2.886  1.00  0.00     0.275 C 
ENDROOT
BRANCH   1   2
ATOM      2  O   UNL     1      -3.942  -5.268   3.262  1.00  0.00    -0.456 OA
BRANCH   2   3
ATOM      3  C   UNL     1      -4.559  -4.055   3.132  1.00  0.00     0.374 C 
ATOM      4  O   UNL     1      -5.664  -3.891   2.636  1.00  0.00    -0.242 OA
BRANCH   3   5
ATOM      5  C   UNL     1      -3.746  -3.022   3.733  1.00  0.00     0.212 A 
ATOM      6  C   UNL     1      -2.200  -1.663   4.680  1.00  0.00     0.014 A 
ATOM      7  C   UNL     1      -2.426  -2.964   4.130  1.00  0.00     0.064 A 
ATOM      8  C   UNL     1      -3.435  -1.041   4.662  1.00  0.00     0.107 A 
ATOM      9  O   UNL     1      -4.350  -1.831   4.039  1.00  0.00    -0.454 OA
ATOM     10  C   UNL     1      -3.953   0.250   5.161  1.00  0.00     0.088 C 
BRANCH   6  11
ATOM     11  C   UNL     1      -0.886  -1.110   5.135  1.00  0.00     0.164 C 
BRANCH  11  12
ATOM     12  N   UNL     1      -0.146  -0.722   3.932  1.00  0.00    -0.304 N 
ATOM     13  C   UNL     1       1.221   0.132  -0.050  1.00  0.00     0.052 C 
ATOM     14  C   UNL     1       0.868  -0.127   1.386  1.00  0.00     0.034 A 
ATOM     15  C   UNL     1       1.088  -1.342   1.923  1.00  0.00     0.082 A 
ATOM     16  C   UNL     1       0.198   0.883   2.201  1.00  0.00     0.288 A 
ATOM     17  C   UNL     1       0.612  -1.696   3.288  1.00  0.00     0.251 A 
ATOM     18  C   UNL     1      -0.306   0.557   3.406  1.00  0.00     0.175 A 
ATOM     19  O   UNL     1       0.853  -2.813   3.733  1.00  0.00    -0.269 OA
BRANCH  16  20
ATOM     20  N   UNL     1       0.011   2.278   1.782  1.00  0.00     0.064 N 
ATOM     21  O   UNL     1      -0.917   2.921   2.295  1.00  0.00    -0.258 OA
ATOM     22  O   UNL     1       0.806   2.742   0.955  1.00  0.00    -0.258 OA
ENDBRANCH  16  20
ENDBRANCH  11  12
ENDBRANCH   6  11
ENDBRANCH   3   5
ENDBRANCH   2   3
ENDBRANCH   1   2
BRANCH   1  23
ATOM     23  C   UNL     1      -5.447  -7.030   4.092  1.00  0.00     0.275 C 
BRANCH  23  24
ATOM     24  O   UNL     1      -6.501  -6.178   4.581  1.00  0.00    -0.458 OA
BRANCH  24  25
ATOM     25  C   UNL     1      -6.160  -5.357   5.604  1.00  0.00     0.338 C 
ATOM     26  O   UNL     1      -5.084  -5.310   6.177  1.00  0.00    -0.246 OA
BRANCH  25  27
ATOM     27  C   UNL     1      -7.235  -4.371   5.826  1.00  0.00     0.060 A 
ATOM     28  C   UNL     1      -8.565  -4.747   6.024  1.00  0.00     0.016 A 
ATOM     29  C   UNL     1      -6.875  -3.022   5.853  1.00  0.00     0.016 A 
ATOM     30  C   UNL     1      -9.535  -3.757   6.227  1.00  0.00     0.010 A 
ATOM     31  C   UNL     1      -7.841  -2.036   6.029  1.00  0.00     0.010 A 
ATOM     32  C   UNL     1      -9.179  -2.397   6.216  1.00  0.00    -0.014 A 
BRANCH  32  33
ATOM     33  C   UNL     1     -10.181  -1.337   6.468  1.00  0.00     0.031 A 
ATOM     34  C   UNL     1     -10.736  -0.517   5.341  1.00  0.00     0.074 A 
ATOM     35  C   UNL     1     -10.532  -1.064   7.737  1.00  0.00     0.049 A 
ATOM     36  N   UNL     1     -11.645   0.425   5.378  1.00  0.00    -0.248 NA
ATOM     37  C   UNL     1     -10.185  -0.774   4.003  1.00  0.00     0.031 C 
ATOM     38  C   UNL     1      -9.996  -1.740   8.918  1.00  0.00     0.029 A 
ATOM     39  N   UNL     1     -11.410  -0.142   8.246  1.00  0.00    -0.354 N 
ATOM     40  C   UNL     1     -11.787   0.863   4.069  1.00  0.00     0.074 A 
ATOM     41  C   UNL     1     -10.835   0.120   3.269  1.00  0.00     0.031 C 
ATOM     42  C   UNL     1     -10.572  -1.224  10.015  1.00  0.00     0.029 A 
ATOM     43  C   UNL     1     -11.511  -0.180   9.613  1.00  0.00     0.049 A 
ATOM     44  H   UNL     1     -11.919   0.486   7.684  1.00  0.00     0.167 HD
ATOM     45  C   UNL     1     -12.650   1.786   3.581  1.00  0.00     0.037 A 
ATOM     46  C   UNL     1     -12.289   0.535  10.448  1.00  0.00     0.037 A 
ATOM     47  C   UNL     1     -13.590   2.527   4.383  1.00  0.00     0.049 A 
ATOM     48  C   UNL     1     -13.246   1.546   9.883  1.00  0.00     0.074 A 
ATOM     49  C   UNL     1     -14.553   3.432   3.972  1.00  0.00     0.029 A 
ATOM     50  N   UNL     1     -13.674   2.455   5.766  1.00  0.00    -0.354 N 
ATOM     51  N   UNL     1     -13.450   1.879   8.632  1.00  0.00    -0.248 NA
ATOM     52  C   UNL     1     -14.089   2.271  10.844  1.00  0.00     0.031 C 
ATOM     53  C   UNL     1     -15.194   3.937   5.109  1.00  0.00     0.029 A 
ATOM     54  C   UNL     1     -14.658   3.316   6.226  1.00  0.00     0.049 A 
ATOM     55  H   UNL     1     -13.117   1.878   6.337  1.00  0.00     0.167 HD
ATOM     56  C   UNL     1     -14.454   2.836   8.651  1.00  0.00     0.074 A 
ATOM     57  C   UNL     1     -14.828   3.022  10.038  1.00  0.00     0.031 C 
ATOM     58  C   UNL     1     -15.015   3.497   7.610  1.00  0.00     0.037 A 
BRANCH  45  59
ATOM     59  C   UNL     1     -12.640   2.035   2.101  1.00  0.00     0.064 A 
ATOM     60  C   UNL     1     -13.156   1.089   1.203  1.00  0.00     0.173 A 
ATOM     61  C   UNL     1     -12.175   3.251   1.579  1.00  0.00     0.173 A 
ATOM     62  F   UNL     1     -13.611  -0.090   1.653  1.00  0.00    -0.203 F 
ATOM     63  C   UNL     1     -13.190   1.343  -0.165  1.00  0.00     0.198 A 
ATOM     64  C   UNL     1     -12.232   3.512   0.212  1.00  0.00     0.198 A 
ATOM     65  F   UNL     1     -11.682   4.194   2.396  1.00  0.00    -0.203 F 
ATOM     66  F   UNL     1     -13.661   0.413  -1.007  1.00  0.00    -0.200 F 
ATOM     67  C   UNL     1     -12.735   2.557  -0.659  1.00  0.00     0.200 A 
ATOM     68  F   UNL     1     -11.806   4.691  -0.263  1.00  0.00    -0.200 F 
ATOM     69  F   UNL     1     -12.781   2.805  -1.975  1.00  0.00    -0.200 F 
ENDBRANCH  45  59
BRANCH  46  70
ATOM     70  C   UNL     1     -12.240   0.250  11.902  1.00  0.00     0.064 A 
ATOM     71  C   UNL     1     -13.269  -0.474  12.518  1.00  0.00     0.173 A 
ATOM     72  C   UNL     1     -11.149   0.642  12.689  1.00  0.00     0.173 A 
ATOM     73  F   UNL     1     -14.339  -0.855  11.804  1.00  0.00    -0.203 F 
ATOM     74  C   UNL     1     -13.210  -0.795  13.871  1.00  0.00     0.198 A 
ATOM     75  C   UNL     1     -11.082   0.304  14.039  1.00  0.00     0.198 A 
ATOM     76  F   UNL     1     -10.138   1.331  12.141  1.00  0.00    -0.203 F 
ATOM     77  F   UNL     1     -14.215  -1.474  14.441  1.00  0.00    -0.200 F 
ATOM     78  C   UNL     1     -12.113  -0.413  14.629  1.00  0.00     0.200 A 
ATOM     79  F   UNL     1     -10.016   0.664  14.766  1.00  0.00    -0.200 F 
ATOM     80  F   UNL     1     -12.049  -0.736  15.928  1.00  0.00    -0.200 F 
ENDBRANCH  46  70
BRANCH  58  81
ATOM     81  C   UNL     1     -16.099   4.484   7.924  1.00  0.00     0.064 A 
ATOM     82  C   UNL     1     -15.806   5.738   8.477  1.00  0.00     0.173 A 
ATOM     83  C   UNL     1     -17.436   4.199   7.608  1.00  0.00     0.173 A 
ATOM     84  F   UNL     1     -14.544   6.051   8.809  1.00  0.00    -0.203 F 
ATOM     85  C   UNL     1     -16.814   6.668   8.714  1.00  0.00     0.198 A 
ATOM     86  C   UNL     1     -18.439   5.140   7.825  1.00  0.00     0.198 A 
ATOM     87  F   UNL     1     -17.767   3.014   7.072  1.00  0.00    -0.203 F 
ATOM     88  F   UNL     1     -16.516   7.851   9.270  1.00  0.00    -0.200 F 
ATOM     89  C   UNL     1     -18.128   6.372   8.380  1.00  0.00     0.200 A 
ATOM     90  F   UNL     1     -19.706   4.856   7.493  1.00  0.00    -0.200 F 
ATOM     91  F   UNL     1     -19.095   7.274   8.597  1.00  0.00    -0.200 F 
ENDBRANCH  58  81
ENDBRANCH  32  33
ENDBRANCH  25  27
ENDBRANCH  24  25
ENDBRANCH  23  24
ENDBRANCH   1  23
TORSDOF 14
