REMARK SMILES Cc1ccc(C(=O)N2C[C@H](C(=O)OCCOC(=O)c3ccc(-c4c5nc(c(-c6c(F)c(F)c(F)c(F)c6F)c6ccc([nH]6)c(-c6c(F)c(F)c(F)c(F)c6F)c6nc(c(-c7c(F)c(F)c(F)c(F)c7F)c7ccc4[nH]7)C=C6)C=C5)cc3)Oc3ccccc32)o1
REMARK SMILES IDX 14 1 13 2 11 3 12 4 10 5 8 6 9 7 88 8 83 9 87 10 82 11 84 12
REMARK SMILES IDX 86 13 85 14 6 15 7 16 5 17 1 18 2 19 3 20 89 21 4 22 15 23
REMARK SMILES IDX 16 24 17 25 18 26 19 27 20 28 81 29 21 30 80 31 22 32 23 33
REMARK SMILES IDX 24 34 74 35 25 36 79 37 73 38 75 39 26 40 78 41 72 42 71 43
REMARK SMILES IDX 27 45 59 46 39 47 58 48 40 49 43 50 57 51 76 52 41 53 42 54
REMARK SMILES IDX 56 56 77 57 44 58 28 59 29 60 37 61 30 62 31 63 35 64 38 65
REMARK SMILES IDX 32 66 33 67 36 68 34 69 60 70 61 71 69 72 62 73 63 74 67 75
REMARK SMILES IDX 70 76 64 77 65 78 68 79 66 80 45 81 46 82 54 83 47 84 48 85
REMARK SMILES IDX 52 86 55 87 49 88 50 89 53 90 51 91
REMARK H PARENT 75 44 43 55
REMARK Flexibility Score: inf
ROOT
ATOM      1  C   UNL     1      -6.971  -1.669   3.690  1.00  0.00     0.274 C 
ENDROOT
BRANCH   1   2
ATOM      2  O   UNL     1      -6.353  -1.092   2.519  1.00  0.00    -0.459 OA
BRANCH   2   3
ATOM      3  C   UNL     1      -6.604   0.230   2.318  1.00  0.00     0.349 C 
ATOM      4  O   UNL     1      -7.300   0.921   3.057  1.00  0.00    -0.248 OA
BRANCH   3   5
ATOM      5  C   UNL     1      -5.949   0.791   1.067  1.00  0.00     0.302 C 
ATOM      6  N   UNL     1      -3.984   0.979  -0.367  1.00  0.00    -0.298 N 
ATOM      7  C   UNL     1      -4.568   0.223   0.752  1.00  0.00     0.183 C 
ATOM      8  C   UNL     1      -4.916   1.423  -1.360  1.00  0.00     0.087 A 
ATOM      9  C   UNL     1      -6.293   1.177  -1.183  1.00  0.00     0.144 A 
ATOM     10  C   UNL     1      -4.500   2.050  -2.541  1.00  0.00     0.030 A 
ATOM     11  O   UNL     1      -6.819   0.594  -0.051  1.00  0.00    -0.475 OA
ATOM     12  C   UNL     1      -7.217   1.526  -2.168  1.00  0.00     0.049 A 
ATOM     13  C   UNL     1      -5.429   2.418  -3.518  1.00  0.00     0.002 A 
ATOM     14  C   UNL     1      -6.784   2.154  -3.334  1.00  0.00     0.004 A 
BRANCH   6  15
ATOM     15  C   UNL     1      -2.651   1.412  -0.352  1.00  0.00     0.294 C 
ATOM     16  O   UNL     1      -2.364   2.580  -0.626  1.00  0.00    -0.265 OA
BRANCH  15  17
ATOM     17  C   UNL     1      -1.626   0.418  -0.067  1.00  0.00     0.192 A 
ATOM     18  C   UNL     1       1.932   0.053   0.168  1.00  0.00     0.087 C 
ATOM     19  C   UNL     1       0.482  -0.220   0.141  1.00  0.00     0.101 A 
ATOM     20  C   UNL     1      -0.274  -1.368   0.194  1.00  0.00     0.046 A 
ATOM     21  O   UNL     1      -0.328   0.863   0.005  1.00  0.00    -0.456 OA
ATOM     22  C   UNL     1      -1.625  -0.961   0.056  1.00  0.00     0.056 A 
ENDBRANCH  15  17
ENDBRANCH   6  15
ENDBRANCH   3   5
ENDBRANCH   2   3
ENDBRANCH   1   2
BRANCH   1  23
ATOM     23  C   UNL     1      -6.025  -1.711   4.897  1.00  0.00     0.275 C 
BRANCH  23  24
ATOM     24  O   UNL     1      -5.703  -0.398   5.396  1.00  0.00    -0.458 OA
BRANCH  24  25
ATOM     25  C   UNL     1      -4.622   0.173   4.818  1.00  0.00     0.338 C 
ATOM     26  O   UNL     1      -3.909  -0.316   3.957  1.00  0.00    -0.246 OA
BRANCH  25  27
ATOM     27  C   UNL     1      -4.471   1.571   5.253  1.00  0.00     0.060 A 
ATOM     28  C   UNL     1      -4.434   2.557   4.262  1.00  0.00     0.016 A 
ATOM     29  C   UNL     1      -4.241   1.901   6.590  1.00  0.00     0.016 A 
ATOM     30  C   UNL     1      -4.140   3.875   4.596  1.00  0.00     0.010 A 
ATOM     31  C   UNL     1      -3.939   3.226   6.925  1.00  0.00     0.010 A 
ATOM     32  C   UNL     1      -3.862   4.213   5.925  1.00  0.00    -0.014 A 
BRANCH  32  33
ATOM     33  C   UNL     1      -3.385   5.581   6.233  1.00  0.00     0.031 A 
ATOM     34  C   UNL     1      -1.917   5.820   6.444  1.00  0.00     0.074 A 
ATOM     35  C   UNL     1      -4.250   6.610   6.263  1.00  0.00     0.049 A 
ATOM     36  N   UNL     1      -1.292   6.928   6.753  1.00  0.00    -0.248 NA
ATOM     37  C   UNL     1      -1.034   4.654   6.284  1.00  0.00     0.031 C 
ATOM     38  C   UNL     1      -5.687   6.509   6.019  1.00  0.00     0.029 A 
ATOM     39  N   UNL     1      -4.040   7.944   6.503  1.00  0.00    -0.354 N 
ATOM     40  C   UNL     1       0.052   6.591   6.839  1.00  0.00     0.074 A 
ATOM     41  C   UNL     1       0.152   5.172   6.567  1.00  0.00     0.031 C 
ATOM     42  C   UNL     1      -6.232   7.733   6.118  1.00  0.00     0.029 A 
ATOM     43  C   UNL     1      -5.188   8.695   6.465  1.00  0.00     0.049 A 
ATOM     44  H   UNL     1      -3.151   8.326   6.685  1.00  0.00     0.167 HD
ATOM     45  C   UNL     1       1.106   7.394   7.116  1.00  0.00     0.037 A 
ATOM     46  C   UNL     1      -5.374  10.007   6.700  1.00  0.00     0.037 A 
ATOM     47  C   UNL     1       1.008   8.808   7.365  1.00  0.00     0.049 A 
ATOM     48  C   UNL     1      -4.190  10.871   7.042  1.00  0.00     0.074 A 
ATOM     49  C   UNL     1       2.018   9.707   7.659  1.00  0.00     0.029 A 
ATOM     50  N   UNL     1      -0.176   9.530   7.340  1.00  0.00    -0.354 N 
ATOM     51  N   UNL     1      -2.925  10.541   7.141  1.00  0.00    -0.248 NA
ATOM     52  C   UNL     1      -4.461  12.292   7.306  1.00  0.00     0.031 C 
ATOM     53  C   UNL     1       1.441  10.969   7.842  1.00  0.00     0.029 A 
ATOM     54  C   UNL     1       0.077  10.862   7.625  1.00  0.00     0.049 A 
ATOM     55  H   UNL     1      -1.065   9.152   7.148  1.00  0.00     0.167 HD
ATOM     56  C   UNL     1      -2.248  11.711   7.455  1.00  0.00     0.074 A 
ATOM     57  C   UNL     1      -3.240  12.764   7.520  1.00  0.00     0.031 C 
ATOM     58  C   UNL     1      -0.923  11.897   7.673  1.00  0.00     0.037 A 
BRANCH  45  59
ATOM     59  C   UNL     1       2.459   6.753   7.194  1.00  0.00     0.064 A 
ATOM     60  C   UNL     1       3.147   6.342   6.043  1.00  0.00     0.173 A 
ATOM     61  C   UNL     1       3.084   6.570   8.436  1.00  0.00     0.173 A 
ATOM     62  F   UNL     1       2.584   6.481   4.834  1.00  0.00    -0.203 F 
ATOM     63  C   UNL     1       4.405   5.752   6.136  1.00  0.00     0.198 A 
ATOM     64  C   UNL     1       4.351   6.000   8.524  1.00  0.00     0.198 A 
ATOM     65  F   UNL     1       2.467   6.947   9.566  1.00  0.00    -0.203 F 
ATOM     66  F   UNL     1       5.029   5.329   5.028  1.00  0.00    -0.200 F 
ATOM     67  C   UNL     1       5.008   5.587   7.375  1.00  0.00     0.200 A 
ATOM     68  F   UNL     1       4.935   5.848   9.720  1.00  0.00    -0.200 F 
ATOM     69  F   UNL     1       6.220   5.020   7.462  1.00  0.00    -0.200 F 
ENDBRANCH  45  59
BRANCH  46  70
ATOM     70  C   UNL     1      -6.740  10.584   6.627  1.00  0.00     0.064 A 
ATOM     71  C   UNL     1      -7.104  11.454   5.592  1.00  0.00     0.173 A 
ATOM     72  C   UNL     1      -7.706  10.280   7.597  1.00  0.00     0.173 A 
ATOM     73  F   UNL     1      -6.205  11.795   4.657  1.00  0.00    -0.203 F 
ATOM     74  C   UNL     1      -8.380  12.010   5.536  1.00  0.00     0.198 A 
ATOM     75  C   UNL     1      -8.989  10.816   7.527  1.00  0.00     0.198 A 
ATOM     76  F   UNL     1      -7.405   9.454   8.611  1.00  0.00    -0.203 F 
ATOM     77  F   UNL     1      -8.691  12.872   4.558  1.00  0.00    -0.200 F 
ATOM     78  C   UNL     1      -9.324  11.686   6.500  1.00  0.00     0.200 A 
ATOM     79  F   UNL     1      -9.900  10.495   8.456  1.00  0.00    -0.200 F 
ATOM     80  F   UNL     1     -10.552  12.219   6.444  1.00  0.00    -0.200 F 
ENDBRANCH  46  70
BRANCH  58  81
ATOM     81  C   UNL     1      -0.466  13.294   7.968  1.00  0.00     0.064 A 
ATOM     82  C   UNL     1      -0.693  13.890   9.216  1.00  0.00     0.173 A 
ATOM     83  C   UNL     1       0.241  14.027   7.004  1.00  0.00     0.173 A 
ATOM     84  F   UNL     1      -1.377  13.233  10.165  1.00  0.00    -0.203 F 
ATOM     85  C   UNL     1      -0.246  15.182   9.482  1.00  0.00     0.198 A 
ATOM     86  C   UNL     1       0.706  15.309   7.281  1.00  0.00     0.198 A 
ATOM     87  F   UNL     1       0.487  13.497   5.797  1.00  0.00    -0.203 F 
ATOM     88  F   UNL     1      -0.506  15.748  10.668  1.00  0.00    -0.200 F 
ATOM     89  C   UNL     1       0.458  15.887   8.517  1.00  0.00     0.200 A 
ATOM     90  F   UNL     1       1.394  15.987   6.351  1.00  0.00    -0.200 F 
ATOM     91  F   UNL     1       0.892  17.129   8.776  1.00  0.00    -0.200 F 
ENDBRANCH  58  81
ENDBRANCH  32  33
ENDBRANCH  25  27
ENDBRANCH  24  25
ENDBRANCH  23  24
ENDBRANCH   1  23
TORSDOF 13
