REMARK SMILES O=C(CSc1ccc(NC(=O)c2cccc3ccccc23)cc1)OCCOC(=O)c1ccc(-c2c3nc(c(-c4c(F)c(F)c(F)c(F)c4F)c4ccc([nH]4)c(-c4c(F)c(F)c(F)c(F)c4F)c4nc(c(-c5c(F)c(F)c(F)c(F)c5F)c5ccc2[nH]5)C=C4)C=C3)cc1
REMARK SMILES IDX 25 1 24 2 2 3 1 4 3 5 4 6 5 7 6 8 23 9 7 10 22 11 8 12 9 13
REMARK SMILES IDX 10 14 11 16 12 17 13 18 21 19 14 20 16 21 20 22 15 23 17 24
REMARK SMILES IDX 19 25 18 26 26 27 27 28 28 29 29 30 30 31 31 32 92 33 32 34
REMARK SMILES IDX 91 35 33 36 34 37 35 38 85 39 36 40 90 41 84 42 86 43 37 44
REMARK SMILES IDX 89 45 83 46 82 47 38 49 70 50 50 51 69 52 51 53 54 54 68 55
REMARK SMILES IDX 87 56 52 57 53 58 67 60 88 61 55 62 39 63 40 64 48 65 41 66
REMARK SMILES IDX 42 67 46 68 49 69 43 70 44 71 47 72 45 73 71 74 72 75 80 76
REMARK SMILES IDX 73 77 74 78 78 79 81 80 75 81 76 82 79 83 77 84 56 85 57 86
REMARK SMILES IDX 65 87 58 88 59 89 63 90 66 91 60 92 61 93 64 94 62 95
REMARK H PARENT 9 15 86 48 54 59
REMARK Flexibility Score: inf
ROOT
ATOM      1  C   UNL     1       4.382  -1.248   0.025  1.00  0.00     0.274 C 
ENDROOT
BRANCH   1   2
ATOM      2  O   UNL     1       3.086  -0.844   0.513  1.00  0.00    -0.461 OA
BRANCH   2   3
ATOM      3  C   UNL     1       2.615   0.426   0.490  1.00  0.00     0.316 C 
ATOM      4  O   UNL     1       1.419   0.640   0.690  1.00  0.00    -0.251 OA
BRANCH   3   5
ATOM      5  C   UNL     1       3.565   1.567   0.210  1.00  0.00     0.197 C 
BRANCH   5   6
ATOM      6  S   UNL     1       4.776   1.824   1.553  1.00  0.00    -0.114 SA
BRANCH   6   7
ATOM      7  C   UNL     1       3.810   2.807   2.671  1.00  0.00     0.008 A 
ATOM      8  C   UNL     1       4.242   4.095   2.985  1.00  0.00     0.017 A 
ATOM      9  C   UNL     1       2.625   2.332   3.229  1.00  0.00     0.017 A 
ATOM     10  C   UNL     1       3.437   4.939   3.755  1.00  0.00     0.027 A 
ATOM     11  C   UNL     1       1.806   3.188   3.966  1.00  0.00     0.027 A 
ATOM     12  C   UNL     1       2.169   4.524   4.154  1.00  0.00     0.041 A 
BRANCH  12  13
ATOM     13  N   UNL     1       1.171   5.374   4.659  1.00  0.00    -0.322 N 
ATOM     14  C   UNL     1       0.960   6.733   4.575  1.00  0.00     0.256 C 
ATOM     15  H   UNL     1       0.481   4.902   5.178  1.00  0.00     0.170 HD
ATOM     16  O   UNL     1       0.002   7.213   5.184  1.00  0.00    -0.269 OA
BRANCH  14  17
ATOM     17  C   UNL     1       1.805   7.661   3.783  1.00  0.00     0.048 A 
ATOM     18  C   UNL     1       2.269   8.782   4.491  1.00  0.00     0.014 A 
ATOM     19  C   UNL     1       2.167   7.470   2.423  1.00  0.00    -0.006 A 
ATOM     20  C   UNL     1       3.101   9.711   3.878  1.00  0.00     0.001 A 
ATOM     21  C   UNL     1       3.095   8.378   1.851  1.00  0.00    -0.018 A 
ATOM     22  C   UNL     1       1.722   6.399   1.616  1.00  0.00     0.009 A 
ATOM     23  C   UNL     1       3.512   9.508   2.565  1.00  0.00     0.009 A 
ATOM     24  C   UNL     1       3.648   8.117   0.591  1.00  0.00     0.009 A 
ATOM     25  C   UNL     1       2.342   6.109   0.404  1.00  0.00     0.001 A 
ATOM     26  C   UNL     1       3.325   6.954  -0.096  1.00  0.00     0.001 A 
ENDBRANCH  14  17
ENDBRANCH  12  13
ENDBRANCH   6   7
ENDBRANCH   5   6
ENDBRANCH   3   5
ENDBRANCH   2   3
ENDBRANCH   1   2
BRANCH   1  27
ATOM     27  C   UNL     1       4.325  -1.664  -1.444  1.00  0.00     0.275 C 
BRANCH  27  28
ATOM     28  O   UNL     1       3.895  -0.561  -2.268  1.00  0.00    -0.458 OA
BRANCH  28  29
ATOM     29  C   UNL     1       2.582  -0.567  -2.615  1.00  0.00     0.338 C 
ATOM     30  O   UNL     1       1.767  -1.440  -2.369  1.00  0.00    -0.246 OA
BRANCH  29  31
ATOM     31  C   UNL     1       2.222   0.739  -3.215  1.00  0.00     0.060 A 
ATOM     32  C   UNL     1       1.018   1.340  -2.829  1.00  0.00     0.016 A 
ATOM     33  C   UNL     1       3.044   1.367  -4.154  1.00  0.00     0.016 A 
ATOM     34  C   UNL     1       0.625   2.561  -3.393  1.00  0.00     0.010 A 
ATOM     35  C   UNL     1       2.647   2.588  -4.717  1.00  0.00     0.010 A 
ATOM     36  C   UNL     1       1.428   3.192  -4.353  1.00  0.00    -0.014 A 
BRANCH  36  37
ATOM     37  C   UNL     1       0.999   4.447  -5.028  1.00  0.00     0.031 A 
ATOM     38  C   UNL     1       0.460   4.412  -6.426  1.00  0.00     0.074 A 
ATOM     39  C   UNL     1       1.074   5.645  -4.419  1.00  0.00     0.049 A 
ATOM     40  N   UNL     1       0.135   5.415  -7.203  1.00  0.00    -0.248 NA
ATOM     41  C   UNL     1       0.214   3.087  -7.007  1.00  0.00     0.031 C 
ATOM     42  C   UNL     1       1.409   5.851  -3.019  1.00  0.00     0.029 A 
ATOM     43  N   UNL     1       0.884   6.919  -4.909  1.00  0.00    -0.354 N 
ATOM     44  C   UNL     1      -0.396   4.847  -8.347  1.00  0.00     0.074 A 
ATOM     45  C   UNL     1      -0.296   3.409  -8.189  1.00  0.00     0.031 C 
ATOM     46  C   UNL     1       1.461   7.172  -2.780  1.00  0.00     0.029 A 
ATOM     47  C   UNL     1       1.250   7.896  -4.018  1.00  0.00     0.049 A 
ATOM     48  H   UNL     1       0.523   7.107  -5.805  1.00  0.00     0.167 HD
ATOM     49  C   UNL     1      -0.950   5.471  -9.413  1.00  0.00     0.037 A 
ATOM     50  C   UNL     1       1.452   9.218  -4.169  1.00  0.00     0.037 A 
ATOM     51  C   UNL     1      -1.061   6.897  -9.581  1.00  0.00     0.049 A 
ATOM     52  C   UNL     1       1.083   9.875  -5.461  1.00  0.00     0.074 A 
ATOM     53  C   UNL     1      -1.673   7.595 -10.609  1.00  0.00     0.029 A 
ATOM     54  N   UNL     1      -0.533   7.846  -8.721  1.00  0.00    -0.354 N 
ATOM     55  N   UNL     1       0.552   9.335  -6.525  1.00  0.00    -0.248 NA
ATOM     56  C   UNL     1       1.295  11.326  -5.559  1.00  0.00     0.031 C 
ATOM     57  C   UNL     1      -1.452   8.963 -10.410  1.00  0.00     0.029 A 
ATOM     58  C   UNL     1      -0.747   9.120  -9.231  1.00  0.00     0.049 A 
ATOM     59  H   UNL     1      -0.073   7.646  -7.874  1.00  0.00     0.167 HD
ATOM     60  C   UNL     1       0.306  10.383  -7.395  1.00  0.00     0.074 A 
ATOM     61  C   UNL     1       0.765  11.591  -6.744  1.00  0.00     0.031 C 
ATOM     62  C   UNL     1      -0.283  10.334  -8.612  1.00  0.00     0.037 A 
BRANCH  49  63
ATOM     63  C   UNL     1      -1.481   4.605 -10.510  1.00  0.00     0.064 A 
ATOM     64  C   UNL     1      -2.697   3.920 -10.378  1.00  0.00     0.173 A 
ATOM     65  C   UNL     1      -0.801   4.526 -11.732  1.00  0.00     0.173 A 
ATOM     66  F   UNL     1      -3.374   3.960  -9.221  1.00  0.00    -0.203 F 
ATOM     67  C   UNL     1      -3.212   3.178 -11.436  1.00  0.00     0.198 A 
ATOM     68  C   UNL     1      -1.330   3.801 -12.794  1.00  0.00     0.198 A 
ATOM     69  F   UNL     1       0.365   5.167 -11.900  1.00  0.00    -0.203 F 
ATOM     70  F   UNL     1      -4.365   2.512 -11.287  1.00  0.00    -0.200 F 
ATOM     71  C   UNL     1      -2.534   3.127 -12.646  1.00  0.00     0.200 A 
ATOM     72  F   UNL     1      -0.678   3.760 -13.965  1.00  0.00    -0.200 F 
ATOM     73  F   UNL     1      -3.039   2.426 -13.669  1.00  0.00    -0.200 F 
ENDBRANCH  49  63
BRANCH  50  74
ATOM     74  C   UNL     1       2.118  10.009  -3.103  1.00  0.00     0.064 A 
ATOM     75  C   UNL     1       1.422  10.947  -2.332  1.00  0.00     0.173 A 
ATOM     76  C   UNL     1       3.505   9.903  -2.914  1.00  0.00     0.173 A 
ATOM     77  F   UNL     1       0.103  11.110  -2.509  1.00  0.00    -0.203 F 
ATOM     78  C   UNL     1       2.093  11.770  -1.428  1.00  0.00     0.198 A 
ATOM     79  C   UNL     1       4.171  10.719  -2.004  1.00  0.00     0.198 A 
ATOM     80  F   UNL     1       4.217   9.021  -3.632  1.00  0.00    -0.203 F 
ATOM     81  F   UNL     1       1.416  12.702  -0.744  1.00  0.00    -0.200 F 
ATOM     82  C   UNL     1       3.466  11.657  -1.266  1.00  0.00     0.200 A 
ATOM     83  F   UNL     1       5.496  10.599  -1.844  1.00  0.00    -0.200 F 
ATOM     84  F   UNL     1       4.113  12.458  -0.409  1.00  0.00    -0.200 F 
ENDBRANCH  50  74
BRANCH  62  85
ATOM     85  C   UNL     1      -0.500  11.638  -9.317  1.00  0.00     0.064 A 
ATOM     86  C   UNL     1       0.568  12.368  -9.858  1.00  0.00     0.173 A 
ATOM     87  C   UNL     1      -1.793  12.166  -9.451  1.00  0.00     0.173 A 
ATOM     88  F   UNL     1       1.826  11.919  -9.728  1.00  0.00    -0.203 F 
ATOM     89  C   UNL     1       0.352  13.590 -10.488  1.00  0.00     0.198 A 
ATOM     90  C   UNL     1      -2.009  13.374 -10.108  1.00  0.00     0.198 A 
ATOM     91  F   UNL     1      -2.848  11.511  -8.944  1.00  0.00    -0.203 F 
ATOM     92  F   UNL     1       1.393  14.296 -10.949  1.00  0.00    -0.200 F 
ATOM     93  C   UNL     1      -0.936  14.088 -10.620  1.00  0.00     0.200 A 
ATOM     94  F   UNL     1      -3.254  13.851 -10.240  1.00  0.00    -0.200 F 
ATOM     95  F   UNL     1      -1.141  15.264 -11.229  1.00  0.00    -0.200 F 
ENDBRANCH  62  85
ENDBRANCH  36  37
ENDBRANCH  29  31
ENDBRANCH  28  29
ENDBRANCH  27  28
ENDBRANCH   1  27
TORSDOF 15
