REMARK SMILES C[C@@H](C(=O)OCCOC(=O)c1ccc(-c2c3nc(c(-c4c(F)c(F)c(F)c(F)c4F)c4ccc([nH]4)c(-c4c(F)c(F)c(F)c(F)c4F)c4nc(c(-c5c(F)c(F)c(F)c(F)c5F)c5ccc2[nH]5)C=C4)C=C3)cc1)[C@H](C)[N@@H+]1C[C@H]2C[NH2+]C[C@@H]2[C@@H]1C
REMARK SMILES IDX 6 1 5 2 3 3 4 4 2 5 1 6 74 7 75 8 76 9 77 10 83 11 78 13
REMARK SMILES IDX 82 14 84 15 79 16 81 17 80 18 7 21 8 22 9 23 10 24 11 25
REMARK SMILES IDX 12 26 73 27 13 28 72 29 14 30 15 31 16 32 66 33 17 34 71 35
REMARK SMILES IDX 65 36 67 37 18 38 70 39 64 40 63 41 19 43 51 44 31 45 50 46
REMARK SMILES IDX 32 47 35 48 49 49 68 50 33 51 34 52 48 54 69 55 36 56 20 57
REMARK SMILES IDX 21 58 29 59 22 60 23 61 27 62 30 63 24 64 25 65 28 66 26 67
REMARK SMILES IDX 52 68 53 69 61 70 54 71 55 72 59 73 62 74 56 75 57 76 60 77
REMARK SMILES IDX 58 78 37 79 38 80 46 81 39 82 40 83 44 84 47 85 41 86 42 87
REMARK SMILES IDX 45 88 43 89
REMARK H PARENT 76 12 80 19 80 20 67 42 35 53
REMARK Flexibility Score: inf
ROOT
ATOM      1  C   UNL     1      -2.546  -2.751   0.881  1.00  0.00     0.274 C 
ENDROOT
BRANCH   1   2
ATOM      2  O   UNL     1      -2.467  -1.442   1.487  1.00  0.00    -0.462 OA
BRANCH   2   3
ATOM      3  C   UNL     1      -1.254  -0.823   1.500  1.00  0.00     0.314 C 
ATOM      4  O   UNL     1      -0.226  -1.326   1.064  1.00  0.00    -0.252 OA
BRANCH   3   5
ATOM      5  C   UNL     1      -1.317   0.605   2.071  1.00  0.00     0.154 C 
ATOM      6  C   UNL     1      -2.651   0.846   2.793  1.00  0.00     0.026 C 
BRANCH   5   7
ATOM      7  C   UNL     1      -1.087   1.625   0.917  1.00  0.00     0.195 C 
ATOM      8  C   UNL     1       0.316   1.521   0.298  1.00  0.00     0.076 C 
BRANCH   7   9
ATOM      9  N   UNL     1      -1.542   2.990   1.222  1.00  0.00    -0.329 N 
ATOM     10  C   UNL     1      -2.388   3.599   0.164  1.00  0.00     0.272 C 
ATOM     11  C   UNL     1      -0.724   4.059   1.869  1.00  0.00     0.190 C 
ATOM     12  H   UNL     1      -2.033   2.653   2.051  1.00  0.00     0.348 HD
ATOM     13  C   UNL     1      -1.552   4.774  -0.230  1.00  0.00     0.114 C 
ATOM     14  C   UNL     1      -1.195   5.315   1.130  1.00  0.00     0.116 C 
ATOM     15  C   UNL     1       0.793   3.972   1.958  1.00  0.00     0.076 C 
ATOM     16  C   UNL     1      -2.079   6.004  -0.912  1.00  0.00     0.270 C 
ATOM     17  C   UNL     1      -0.390   6.526   0.726  1.00  0.00     0.271 C 
ATOM     18  N   UNL     1      -1.125   7.048  -0.460  1.00  0.00    -0.345 N 
ATOM     19  H   UNL     1      -1.635   7.894  -0.205  1.00  0.00     0.346 HD
ATOM     20  H   UNL     1      -0.470   7.274  -1.208  1.00  0.00     0.346 HD
ENDBRANCH   7   9
ENDBRANCH   5   7
ENDBRANCH   3   5
ENDBRANCH   2   3
ENDBRANCH   1   2
BRANCH   1  21
ATOM     21  C   UNL     1      -3.643  -2.737  -0.180  1.00  0.00     0.275 C 
BRANCH  21  22
ATOM     22  O   UNL     1      -3.267  -1.794  -1.200  1.00  0.00    -0.458 OA
BRANCH  22  23
ATOM     23  C   UNL     1      -4.234  -0.951  -1.619  1.00  0.00     0.338 C 
ATOM     24  O   UNL     1      -5.422  -0.981  -1.314  1.00  0.00    -0.246 OA
BRANCH  23  25
ATOM     25  C   UNL     1      -3.660   0.084  -2.507  1.00  0.00     0.060 A 
ATOM     26  C   UNL     1      -2.351   0.534  -2.334  1.00  0.00     0.016 A 
ATOM     27  C   UNL     1      -4.475   0.700  -3.457  1.00  0.00     0.016 A 
ATOM     28  C   UNL     1      -1.911   1.679  -3.003  1.00  0.00     0.010 A 
ATOM     29  C   UNL     1      -3.985   1.771  -4.215  1.00  0.00     0.010 A 
ATOM     30  C   UNL     1      -2.715   2.317  -3.962  1.00  0.00    -0.014 A 
BRANCH  30  31
ATOM     31  C   UNL     1      -2.264   3.564  -4.659  1.00  0.00     0.031 A 
ATOM     32  C   UNL     1      -3.153   4.788  -4.693  1.00  0.00     0.074 A 
ATOM     33  C   UNL     1      -1.061   3.631  -5.267  1.00  0.00     0.049 A 
ATOM     34  N   UNL     1      -3.058   5.864  -5.435  1.00  0.00    -0.248 NA
ATOM     35  C   UNL     1      -4.309   4.798  -3.782  1.00  0.00     0.031 C 
ATOM     36  C   UNL     1      -0.060   2.565  -5.298  1.00  0.00     0.029 A 
ATOM     37  N   UNL     1      -0.469   4.654  -5.972  1.00  0.00    -0.354 N 
ATOM     38  C   UNL     1      -4.179   6.632  -5.145  1.00  0.00     0.074 A 
ATOM     39  C   UNL     1      -4.934   5.911  -4.142  1.00  0.00     0.031 C 
ATOM     40  C   UNL     1       1.041   3.009  -5.921  1.00  0.00     0.029 A 
ATOM     41  C   UNL     1       0.787   4.349  -6.436  1.00  0.00     0.049 A 
ATOM     42  H   UNL     1      -0.905   5.523  -6.128  1.00  0.00     0.167 HD
ATOM     43  C   UNL     1      -4.551   7.824  -5.672  1.00  0.00     0.037 A 
ATOM     44  C   UNL     1       1.629   5.039  -7.230  1.00  0.00     0.037 A 
ATOM     45  C   UNL     1      -3.761   8.593  -6.600  1.00  0.00     0.049 A 
ATOM     46  C   UNL     1       1.200   6.361  -7.798  1.00  0.00     0.074 A 
ATOM     47  C   UNL     1      -4.053   9.820  -7.173  1.00  0.00     0.029 A 
ATOM     48  N   UNL     1      -2.508   8.226  -7.062  1.00  0.00    -0.354 N 
ATOM     49  N   UNL     1       0.086   7.020  -7.606  1.00  0.00    -0.248 NA
ATOM     50  C   UNL     1       2.134   7.014  -8.728  1.00  0.00     0.031 C 
ATOM     51  C   UNL     1      -2.985  10.185  -8.001  1.00  0.00     0.029 A 
ATOM     52  C   UNL     1      -2.016   9.200  -7.917  1.00  0.00     0.049 A 
ATOM     53  H   UNL     1      -2.036   7.397  -6.820  1.00  0.00     0.167 HD
ATOM     54  C   UNL     1       0.179   8.160  -8.390  1.00  0.00     0.074 A 
ATOM     55  C   UNL     1       1.471   8.119  -9.042  1.00  0.00     0.031 C 
ATOM     56  C   UNL     1      -0.733   9.146  -8.565  1.00  0.00     0.037 A 
BRANCH  43  57
ATOM     57  C   UNL     1      -5.896   8.370  -5.292  1.00  0.00     0.064 A 
ATOM     58  C   UNL     1      -6.137   8.959  -4.044  1.00  0.00     0.173 A 
ATOM     59  C   UNL     1      -6.945   8.358  -6.227  1.00  0.00     0.173 A 
ATOM     60  F   UNL     1      -5.173   8.981  -3.111  1.00  0.00    -0.203 F 
ATOM     61  C   UNL     1      -7.382   9.505  -3.740  1.00  0.00     0.198 A 
ATOM     62  C   UNL     1      -8.180   8.926  -5.928  1.00  0.00     0.198 A 
ATOM     63  F   UNL     1      -6.763   7.811  -7.439  1.00  0.00    -0.203 F 
ATOM     64  F   UNL     1      -7.601  10.036  -2.529  1.00  0.00    -0.200 F 
ATOM     65  C   UNL     1      -8.399   9.495  -4.684  1.00  0.00     0.200 A 
ATOM     66  F   UNL     1      -9.156   8.925  -6.847  1.00  0.00    -0.200 F 
ATOM     67  F   UNL     1      -9.592  10.032  -4.393  1.00  0.00    -0.200 F 
ENDBRANCH  43  57
BRANCH  44  68
ATOM     68  C   UNL     1       2.952   4.458  -7.578  1.00  0.00     0.064 A 
ATOM     69  C   UNL     1       4.134   5.010  -7.067  1.00  0.00     0.173 A 
ATOM     70  C   UNL     1       3.060   3.333  -8.409  1.00  0.00     0.173 A 
ATOM     71  F   UNL     1       4.083   6.105  -6.295  1.00  0.00    -0.203 F 
ATOM     72  C   UNL     1       5.375   4.456  -7.374  1.00  0.00     0.198 A 
ATOM     73  C   UNL     1       4.298   2.763  -8.690  1.00  0.00     0.198 A 
ATOM     74  F   UNL     1       1.957   2.772  -8.926  1.00  0.00    -0.203 F 
ATOM     75  F   UNL     1       6.494   5.021  -6.899  1.00  0.00    -0.200 F 
ATOM     76  C   UNL     1       5.455   3.327  -8.175  1.00  0.00     0.200 A 
ATOM     77  F   UNL     1       4.369   1.664  -9.453  1.00  0.00    -0.200 F 
ATOM     78  F   UNL     1       6.648   2.785  -8.456  1.00  0.00    -0.200 F 
ENDBRANCH  44  68
BRANCH  56  79
ATOM     79  C   UNL     1      -0.362  10.262  -9.492  1.00  0.00     0.064 A 
ATOM     80  C   UNL     1      -0.389  10.091 -10.884  1.00  0.00     0.173 A 
ATOM     81  C   UNL     1       0.004  11.518  -8.988  1.00  0.00     0.173 A 
ATOM     82  F   UNL     1      -0.717   8.902 -11.411  1.00  0.00    -0.203 F 
ATOM     83  C   UNL     1      -0.043  11.134 -11.738  1.00  0.00     0.198 A 
ATOM     84  C   UNL     1       0.330  12.565  -9.846  1.00  0.00     0.198 A 
ATOM     85  F   UNL     1       0.042  11.730  -7.664  1.00  0.00    -0.203 F 
ATOM     86  F   UNL     1      -0.039  10.939 -13.064  1.00  0.00    -0.200 F 
ATOM     87  C   UNL     1       0.312  12.371 -11.219  1.00  0.00     0.200 A 
ATOM     88  F   UNL     1       0.668  13.761  -9.344  1.00  0.00    -0.200 F 
ATOM     89  F   UNL     1       0.646  13.373 -12.043  1.00  0.00    -0.200 F 
ENDBRANCH  56  79
ENDBRANCH  30  31
ENDBRANCH  23  25
ENDBRANCH  22  23
ENDBRANCH  21  22
ENDBRANCH   1  21
TORSDOF 13
