REMARK SMILES O=C(OCCOC(=O)c1ccc(S(=O)(=O)N[C@@H]2CC[N@@H+]3CCC[C@H]23)cc1)c1ccc(-c2c3nc(c(-c4c(F)c(F)c(F)c(F)c4F)c4ccc([nH]4)c(-c4c(F)c(F)c(F)c(F)c4F)c4nc(c(-c5c(F)c(F)c(F)c(F)c5F)c5ccc2[nH]5)C=C4)C=C3)cc1
REMARK SMILES IDX 5 1 4 2 3 3 2 4 1 5 27 6 28 7 89 8 29 9 88 10 30 11 31 12
REMARK SMILES IDX 32 13 82 14 33 15 87 16 81 17 83 18 34 19 86 20 80 21 79 22
REMARK SMILES IDX 35 24 67 25 47 26 66 27 48 28 51 29 65 30 84 31 49 32 50 33
REMARK SMILES IDX 64 35 85 36 52 37 36 38 37 39 45 40 38 41 39 42 43 43 46 44
REMARK SMILES IDX 40 45 41 46 44 47 42 48 68 49 69 50 77 51 70 52 71 53 75 54
REMARK SMILES IDX 78 55 72 56 73 57 76 58 74 59 53 60 54 61 62 62 55 63 56 64
REMARK SMILES IDX 60 65 63 66 57 67 58 68 61 69 59 70 6 71 7 72 8 73 9 74
REMARK SMILES IDX 10 75 26 76 11 77 25 78 12 79 13 80 14 81 15 82 16 83 17 85
REMARK SMILES IDX 18 86 24 87 19 88 20 89 23 90 21 91 22 93
REMARK H PARENT 83 23 51 34 16 84 20 92
REMARK Flexibility Score: inf
ROOT
ATOM      1  C   UNL     1       3.954  -2.082  -0.230  1.00  0.00     0.275 C 
ENDROOT
BRANCH   1   2
ATOM      2  C   UNL     1       4.394  -1.087   0.840  1.00  0.00     0.275 C 
BRANCH   2   3
ATOM      3  O   UNL     1       3.426  -0.056   1.108  1.00  0.00    -0.458 OA
BRANCH   3   4
ATOM      4  C   UNL     1       3.264   1.176   0.573  1.00  0.00     0.338 C 
ATOM      5  O   UNL     1       2.471   1.946   1.115  1.00  0.00    -0.246 OA
BRANCH   4   6
ATOM      6  C   UNL     1       3.900   1.650  -0.701  1.00  0.00     0.060 A 
ATOM      7  C   UNL     1       5.160   1.296  -1.194  1.00  0.00     0.016 A 
ATOM      8  C   UNL     1       3.165   2.603  -1.431  1.00  0.00     0.016 A 
ATOM      9  C   UNL     1       5.664   1.853  -2.387  1.00  0.00     0.010 A 
ATOM     10  C   UNL     1       3.659   3.156  -2.618  1.00  0.00     0.010 A 
ATOM     11  C   UNL     1       4.925   2.795  -3.105  1.00  0.00    -0.014 A 
BRANCH  11  12
ATOM     12  C   UNL     1       5.508   3.573  -4.232  1.00  0.00     0.031 A 
ATOM     13  C   UNL     1       5.844   5.018  -3.979  1.00  0.00     0.074 A 
ATOM     14  C   UNL     1       5.741   3.054  -5.455  1.00  0.00     0.049 A 
ATOM     15  N   UNL     1       6.258   5.933  -4.816  1.00  0.00    -0.248 NA
ATOM     16  C   UNL     1       5.740   5.478  -2.584  1.00  0.00     0.031 C 
ATOM     17  C   UNL     1       5.626   1.649  -5.832  1.00  0.00     0.029 A 
ATOM     18  N   UNL     1       6.087   3.680  -6.635  1.00  0.00    -0.354 N 
ATOM     19  C   UNL     1       6.530   7.048  -4.038  1.00  0.00     0.074 A 
ATOM     20  C   UNL     1       6.123   6.739  -2.686  1.00  0.00     0.031 C 
ATOM     21  C   UNL     1       5.791   1.540  -7.163  1.00  0.00     0.029 A 
ATOM     22  C   UNL     1       5.974   2.865  -7.739  1.00  0.00     0.049 A 
ATOM     23  H   UNL     1       6.386   4.617  -6.682  1.00  0.00     0.167 HD
ATOM     24  C   UNL     1       7.138   8.200  -4.402  1.00  0.00     0.037 A 
ATOM     25  C   UNL     1       5.945   3.178  -9.051  1.00  0.00     0.037 A 
ATOM     26  C   UNL     1       7.506   8.526  -5.749  1.00  0.00     0.049 A 
ATOM     27  C   UNL     1       6.250   4.588  -9.470  1.00  0.00     0.074 A 
ATOM     28  C   UNL     1       8.203   9.622  -6.225  1.00  0.00     0.029 A 
ATOM     29  N   UNL     1       7.162   7.758  -6.850  1.00  0.00    -0.354 N 
ATOM     30  N   UNL     1       6.521   5.629  -8.727  1.00  0.00    -0.248 NA
ATOM     31  C   UNL     1       6.300   4.849 -10.918  1.00  0.00     0.031 C 
ATOM     32  C   UNL     1       8.234   9.543  -7.623  1.00  0.00     0.029 A 
ATOM     33  C   UNL     1       7.592   8.378  -8.010  1.00  0.00     0.049 A 
ATOM     34  H   UNL     1       6.682   6.900  -6.812  1.00  0.00     0.167 HD
ATOM     35  C   UNL     1       6.856   6.642  -9.611  1.00  0.00     0.074 A 
ATOM     36  C   UNL     1       6.661   6.123 -10.947  1.00  0.00     0.031 C 
ATOM     37  C   UNL     1       7.367   7.864  -9.333  1.00  0.00     0.037 A 
BRANCH  24  38
ATOM     38  C   UNL     1       7.458   9.158  -3.298  1.00  0.00     0.064 A 
ATOM     39  C   UNL     1       8.461   8.864  -2.359  1.00  0.00     0.173 A 
ATOM     40  C   UNL     1       6.732  10.345  -3.142  1.00  0.00     0.173 A 
ATOM     41  F   UNL     1       9.169   7.729  -2.459  1.00  0.00    -0.203 F 
ATOM     42  C   UNL     1       8.693   9.705  -1.276  1.00  0.00     0.198 A 
ATOM     43  C   UNL     1       6.984  11.195  -2.069  1.00  0.00     0.198 A 
ATOM     44  F   UNL     1       5.764  10.666  -4.013  1.00  0.00    -0.203 F 
ATOM     45  F   UNL     1       9.609   9.371  -0.355  1.00  0.00    -0.200 F 
ATOM     46  C   UNL     1       7.955  10.869  -1.131  1.00  0.00     0.200 A 
ATOM     47  F   UNL     1       6.273  12.322  -1.928  1.00  0.00    -0.200 F 
ATOM     48  F   UNL     1       8.166  11.669  -0.077  1.00  0.00    -0.200 F 
ENDBRANCH  24  38
BRANCH  25  49
ATOM     49  C   UNL     1       5.524   2.209 -10.099  1.00  0.00     0.064 A 
ATOM     50  C   UNL     1       6.362   1.209 -10.598  1.00  0.00     0.173 A 
ATOM     51  C   UNL     1       4.252   2.348 -10.687  1.00  0.00     0.173 A 
ATOM     52  F   UNL     1       7.590   1.047 -10.088  1.00  0.00    -0.203 F 
ATOM     53  C   UNL     1       5.943   0.379 -11.641  1.00  0.00     0.198 A 
ATOM     54  C   UNL     1       3.833   1.517 -11.723  1.00  0.00     0.198 A 
ATOM     55  F   UNL     1       3.407   3.285 -10.232  1.00  0.00    -0.203 F 
ATOM     56  F   UNL     1       6.764  -0.572 -12.107  1.00  0.00    -0.200 F 
ATOM     57  C   UNL     1       4.682   0.535 -12.203  1.00  0.00     0.200 A 
ATOM     58  F   UNL     1       2.607   1.665 -12.242  1.00  0.00    -0.200 F 
ATOM     59  F   UNL     1       4.284  -0.267 -13.200  1.00  0.00    -0.200 F 
ENDBRANCH  25  49
BRANCH  37  60
ATOM     60  C   UNL     1       7.852   8.664 -10.497  1.00  0.00     0.064 A 
ATOM     61  C   UNL     1       6.982   9.367 -11.338  1.00  0.00     0.173 A 
ATOM     62  C   UNL     1       9.227   8.705 -10.777  1.00  0.00     0.173 A 
ATOM     63  F   UNL     1       5.657   9.318 -11.132  1.00  0.00    -0.203 F 
ATOM     64  C   UNL     1       7.473  10.081 -12.428  1.00  0.00     0.198 A 
ATOM     65  C   UNL     1       9.715   9.435 -11.852  1.00  0.00     0.198 A 
ATOM     66  F   UNL     1      10.092   8.026 -10.008  1.00  0.00    -0.203 F 
ATOM     67  F   UNL     1       6.625  10.712 -13.250  1.00  0.00    -0.200 F 
ATOM     68  C   UNL     1       8.838  10.120 -12.679  1.00  0.00     0.200 A 
ATOM     69  F   UNL     1      11.033   9.466 -12.096  1.00  0.00    -0.200 F 
ATOM     70  F   UNL     1       9.308  10.805 -13.730  1.00  0.00    -0.200 F 
ENDBRANCH  37  60
ENDBRANCH  11  12
ENDBRANCH   4   6
ENDBRANCH   3   4
ENDBRANCH   2   3
ENDBRANCH   1   2
BRANCH   1  71
ATOM     71  O   UNL     1       3.458  -1.409  -1.392  1.00  0.00    -0.458 OA
BRANCH  71  72
ATOM     72  C   UNL     1       2.104  -1.355  -1.498  1.00  0.00     0.338 C 
ATOM     73  O   UNL     1       1.291  -1.921  -0.789  1.00  0.00    -0.246 OA
BRANCH  72  74
ATOM     74  C   UNL     1       1.738  -0.383  -2.552  1.00  0.00     0.060 A 
ATOM     75  C   UNL     1       0.520   0.307  -2.437  1.00  0.00     0.017 A 
ATOM     76  C   UNL     1       2.610  -0.098  -3.606  1.00  0.00     0.017 A 
ATOM     77  C   UNL     1       0.172   1.283  -3.374  1.00  0.00     0.022 A 
ATOM     78  C   UNL     1       2.273   0.892  -4.521  1.00  0.00     0.022 A 
ATOM     79  C   UNL     1       1.055   1.566  -4.415  1.00  0.00     0.082 A 
BRANCH  79  80
ATOM     80  S   UNL     1       0.603   2.709  -5.693  1.00  0.00     0.241 S 
ATOM     81  O   UNL     1      -0.834   2.739  -5.817  1.00  0.00    -0.207 OA
ATOM     82  O   UNL     1       1.388   3.902  -5.466  1.00  0.00    -0.207 OA
BRANCH  80  83
ATOM     83  N   UNL     1       1.234   1.980  -7.064  1.00  0.00    -0.202 NA
ATOM     84  H   UNL     1       2.137   1.597  -6.784  1.00  0.00     0.141 HD
BRANCH  83  85
ATOM     85  C   UNL     1       0.555   0.901  -7.813  1.00  0.00     0.133 C 
ATOM     86  C   UNL     1      -0.195  -0.152  -7.000  1.00  0.00     0.087 C 
ATOM     87  C   UNL     1       1.575   0.051  -8.606  1.00  0.00     0.202 C 
ATOM     88  C   UNL     1       0.719  -1.367  -6.965  1.00  0.00     0.264 C 
ATOM     89  N   UNL     1       1.313  -1.376  -8.306  1.00  0.00    -0.331 N 
ATOM     90  C   UNL     1       3.040   0.200  -8.250  1.00  0.00     0.072 C 
ATOM     91  C   UNL     1       2.596  -2.105  -8.346  1.00  0.00     0.262 C 
ATOM     92  H   UNL     1       0.691  -1.838  -8.970  1.00  0.00     0.348 HD
ATOM     93  C   UNL     1       3.636  -1.084  -8.777  1.00  0.00     0.068 C 
ENDBRANCH  83  85
ENDBRANCH  80  83
ENDBRANCH  79  80
ENDBRANCH  72  74
ENDBRANCH  71  72
ENDBRANCH   1  71
TORSDOF 14
