REMARK SMILES O=C(OCCOC(=O)[C@H]1CC(=O)N(CCc2ccc3c(c2)OCO3)C1)c1ccc(-c2c3nc(c(-c4c(F)c(F)c(F)c(F)c4F)c4ccc([nH]4)c(-c4c(F)c(F)c(F)c(F)c4F)c4nc(c(-c5c(F)c(F)c(F)c(F)c5F)c5ccc2[nH]5)C=C4)C=C3)cc1
REMARK SMILES IDX 5 1 4 2 3 3 2 4 1 5 26 6 27 7 88 8 28 9 87 10 29 11 30 12
REMARK SMILES IDX 31 13 81 14 32 15 86 16 80 17 82 18 33 19 85 20 79 21 78 22
REMARK SMILES IDX 34 24 66 25 46 26 65 27 47 28 50 29 64 30 83 31 48 32 49 33
REMARK SMILES IDX 63 35 84 36 51 37 35 38 36 39 44 40 37 41 38 42 42 43 45 44
REMARK SMILES IDX 39 45 40 46 43 47 41 48 67 49 68 50 76 51 69 52 70 53 74 54
REMARK SMILES IDX 77 55 71 56 72 57 75 58 73 59 52 60 53 61 61 62 54 63 55 64
REMARK SMILES IDX 59 65 62 66 56 67 57 68 60 69 58 70 6 71 7 72 8 73 9 74
REMARK SMILES IDX 10 75 25 76 11 77 13 78 12 79 14 80 15 81 16 82 17 83 21 84
REMARK SMILES IDX 18 85 20 86 19 87 22 88 24 89 23 90
REMARK H PARENT 82 23 50 34
REMARK Flexibility Score: inf
ROOT
ATOM      1  C   UNL     1       4.925   3.479   2.760  1.00  0.00     0.274 C 
ENDROOT
BRANCH   1   2
ATOM      2  C   UNL     1       4.425   3.395   4.225  1.00  0.00     0.275 C 
BRANCH   2   3
ATOM      3  O   UNL     1       3.538   2.310   4.505  1.00  0.00    -0.458 OA
BRANCH   3   4
ATOM      4  C   UNL     1       2.296   2.126   4.010  1.00  0.00     0.338 C 
ATOM      5  O   UNL     1       1.795   1.005   4.071  1.00  0.00    -0.246 OA
BRANCH   4   6
ATOM      6  C   UNL     1       1.545   3.192   3.272  1.00  0.00     0.060 A 
ATOM      7  C   UNL     1       1.968   4.508   3.076  1.00  0.00     0.016 A 
ATOM      8  C   UNL     1       0.411   2.756   2.574  1.00  0.00     0.016 A 
ATOM      9  C   UNL     1       1.478   5.266   2.037  1.00  0.00     0.010 A 
ATOM     10  C   UNL     1      -0.105   3.516   1.532  1.00  0.00     0.010 A 
ATOM     11  C   UNL     1       0.474   4.753   1.237  1.00  0.00    -0.014 A 
BRANCH  11  12
ATOM     12  C   UNL     1      -0.108   5.734   0.344  1.00  0.00     0.031 A 
ATOM     13  C   UNL     1      -1.515   6.225   0.715  1.00  0.00     0.074 A 
ATOM     14  C   UNL     1       0.681   6.245  -0.640  1.00  0.00     0.049 A 
ATOM     15  N   UNL     1      -2.369   7.008   0.096  1.00  0.00    -0.248 NA
ATOM     16  C   UNL     1      -2.074   5.644   1.958  1.00  0.00     0.031 C 
ATOM     17  C   UNL     1       2.096   5.386  -1.746  1.00  0.00     0.029 A 
ATOM     18  N   UNL     1       0.018   7.568  -1.716  1.00  0.00    -0.354 N 
ATOM     19  C   UNL     1      -3.535   6.991   0.876  1.00  0.00     0.074 A 
ATOM     20  C   UNL     1      -3.333   6.028   1.925  1.00  0.00     0.031 C 
ATOM     21  C   UNL     1       2.148   6.171  -3.321  1.00  0.00     0.029 A 
ATOM     22  C   UNL     1       0.838   7.621  -3.322  1.00  0.00     0.049 A 
ATOM     23  H   UNL     1      -0.704   8.182  -1.449  1.00  0.00     0.167 HD
ATOM     24  C   UNL     1      -4.670   7.730   0.794  1.00  0.00     0.037 A 
ATOM     25  C   UNL     1       0.460   8.422  -4.337  1.00  0.00     0.037 A 
ATOM     26  C   UNL     1      -4.918   8.690  -0.240  1.00  0.00     0.049 A 
ATOM     27  C   UNL     1      -0.842   9.205  -4.267  1.00  0.00     0.074 A 
ATOM     28  C   UNL     1      -6.007   9.527  -0.389  1.00  0.00     0.029 A 
ATOM     29  N   UNL     1      -4.072   8.919  -1.317  1.00  0.00    -0.354 N 
ATOM     30  N   UNL     1      -1.834   9.156  -3.401  1.00  0.00    -0.248 NA
ATOM     31  C   UNL     1      -1.094  10.117  -5.392  1.00  0.00     0.031 C 
ATOM     32  C   UNL     1      -5.866  10.194  -1.608  1.00  0.00     0.029 A 
ATOM     33  C   UNL     1      -4.632   9.866  -2.155  1.00  0.00     0.049 A 
ATOM     34  H   UNL     1      -3.205   8.475  -1.463  1.00  0.00     0.167 HD
ATOM     35  C   UNL     1      -2.803  10.057  -3.858  1.00  0.00     0.074 A 
ATOM     36  C   UNL     1      -2.275  10.628  -5.080  1.00  0.00     0.031 C 
ATOM     37  C   UNL     1      -4.019  10.399  -3.348  1.00  0.00     0.037 A 
BRANCH  24  38
ATOM     38  C   UNL     1      -5.731   7.515   1.857  1.00  0.00     0.064 A 
ATOM     39  C   UNL     1      -5.496   7.807   3.214  1.00  0.00     0.173 A 
ATOM     40  C   UNL     1      -6.991   6.990   1.525  1.00  0.00     0.173 A 
ATOM     41  F   UNL     1      -4.314   8.310   3.602  1.00  0.00    -0.203 F 
ATOM     42  C   UNL     1      -6.444   7.514   4.195  1.00  0.00     0.198 A 
ATOM     43  C   UNL     1      -7.955   6.743   2.503  1.00  0.00     0.198 A 
ATOM     44  F   UNL     1      -7.290   6.706   0.249  1.00  0.00    -0.203 F 
ATOM     45  F   UNL     1      -6.152   7.713   5.488  1.00  0.00    -0.200 F 
ATOM     46  C   UNL     1      -7.673   6.986   3.838  1.00  0.00     0.200 A 
ATOM     47  F   UNL     1      -9.153   6.254   2.153  1.00  0.00    -0.200 F 
ATOM     48  F   UNL     1      -8.581   6.697   4.782  1.00  0.00    -0.200 F 
ENDBRANCH  24  38
BRANCH  25  49
ATOM     49  C   UNL     1       1.391   8.537  -5.469  1.00  0.00     0.064 A 
ATOM     50  C   UNL     1       2.085   9.739  -5.682  1.00  0.00     0.173 A 
ATOM     51  C   UNL     1       1.663   7.462  -6.317  1.00  0.00     0.173 A 
ATOM     52  F   UNL     1       1.837  10.805  -4.904  1.00  0.00    -0.203 F 
ATOM     53  C   UNL     1       3.014   9.860  -6.708  1.00  0.00     0.198 A 
ATOM     54  C   UNL     1       2.625   7.569  -7.315  1.00  0.00     0.198 A 
ATOM     55  F   UNL     1       1.020   6.297  -6.150  1.00  0.00    -0.203 F 
ATOM     56  F   UNL     1       3.634  11.029  -6.915  1.00  0.00    -0.200 F 
ATOM     57  C   UNL     1       3.295   8.768  -7.514  1.00  0.00     0.200 A 
ATOM     58  F   UNL     1       2.916   6.503  -8.072  1.00  0.00    -0.200 F 
ATOM     59  F   UNL     1       4.216   8.869  -8.482  1.00  0.00    -0.200 F 
ENDBRANCH  25  49
BRANCH  37  60
ATOM     60  C   UNL     1      -4.782  11.500  -4.048  1.00  0.00     0.064 A 
ATOM     61  C   UNL     1      -5.348  11.339  -5.322  1.00  0.00     0.173 A 
ATOM     62  C   UNL     1      -4.981  12.732  -3.399  1.00  0.00     0.173 A 
ATOM     63  F   UNL     1      -5.200  10.182  -5.985  1.00  0.00    -0.203 F 
ATOM     64  C   UNL     1      -6.020  12.389  -5.945  1.00  0.00     0.198 A 
ATOM     65  C   UNL     1      -5.699  13.759  -4.002  1.00  0.00     0.198 A 
ATOM     66  F   UNL     1      -4.494  12.933  -2.165  1.00  0.00    -0.203 F 
ATOM     67  F   UNL     1      -6.474  12.241  -7.197  1.00  0.00    -0.200 F 
ATOM     68  C   UNL     1      -6.200  13.595  -5.283  1.00  0.00     0.200 A 
ATOM     69  F   UNL     1      -5.902  14.909  -3.344  1.00  0.00    -0.200 F 
ATOM     70  F   UNL     1      -6.846  14.603  -5.885  1.00  0.00    -0.200 F 
ENDBRANCH  37  60
ENDBRANCH  11  12
ENDBRANCH   4   6
ENDBRANCH   3   4
ENDBRANCH   2   3
ENDBRANCH   1   2
BRANCH   1  71
ATOM     71  O   UNL     1       3.979   3.156   1.683  1.00  0.00    -0.462 OA
BRANCH  71  72
ATOM     72  C   UNL     1       3.912   1.880   1.189  1.00  0.00     0.311 C 
ATOM     73  O   UNL     1       4.576   0.967   1.667  1.00  0.00    -0.252 OA
BRANCH  72  74
ATOM     74  C   UNL     1       3.008   1.670  -0.076  1.00  0.00     0.128 C 
ATOM     75  C   UNL     1       1.653   1.003   0.057  1.00  0.00     0.117 C 
ATOM     76  C   UNL     1       2.659   2.932  -0.823  1.00  0.00     0.135 C 
ATOM     77  C   UNL     1       0.683   1.760  -0.875  1.00  0.00     0.223 C 
ATOM     78  N   UNL     1       1.274   2.935  -1.339  1.00  0.00    -0.341 N 
ATOM     79  O   UNL     1      -0.450   1.388  -1.138  1.00  0.00    -0.275 OA
BRANCH  78  80
ATOM     80  C   UNL     1       0.596   3.928  -2.435  1.00  0.00     0.124 C 
BRANCH  80  81
ATOM     81  C   UNL     1       0.490   5.865  -2.476  1.00  0.00     0.057 C 
BRANCH  81  82
ATOM     82  C   UNL     1       2.030   7.290  -1.699  1.00  0.00    -0.042 A 
ATOM     83  C   UNL     1       3.666   6.917  -1.641  1.00  0.00     0.008 A 
ATOM     84  C   UNL     1       2.017   8.622  -1.039  1.00  0.00     0.054 A 
ATOM     85  C   UNL     1       4.671   7.321  -0.785  1.00  0.00     0.051 A 
ATOM     86  C   UNL     1       3.191   9.146  -0.371  1.00  0.00     0.166 A 
ATOM     87  C   UNL     1       4.387   8.467  -0.163  1.00  0.00     0.165 A 
ATOM     88  O   UNL     1       3.343  10.423   0.130  1.00  0.00    -0.454 OA
ATOM     89  O   UNL     1       5.316   9.128   0.571  1.00  0.00    -0.454 OA
ATOM     90  C   UNL     1       4.758  10.438   0.477  1.00  0.00     0.468 C 
ENDBRANCH  81  82
ENDBRANCH  80  81
ENDBRANCH  78  80
ENDBRANCH  72  74
ENDBRANCH  71  72
ENDBRANCH   1  71
TORSDOF 14
