REMARK SMILES CCc1cccc(NC(=O)N2CCO[C@@H](CC(=O)OCCOC(=O)c3ccc(-c4c5nc(c(-c6c(F)c(F)c(F)c(F)c6F)c6ccc([nH]6)c(-c6c(F)c(F)c(F)c(F)c6F)c6nc(c(-c7c(F)c(F)c(F)c(F)c7F)c7ccc4[nH]7)C=C6)C=C5)cc3)C2)c1
REMARK SMILES IDX 20 1 19 2 17 3 18 4 16 5 15 6 11 7 12 8 88 9 13 10 14 11
REMARK SMILES IDX 9 12 8 13 10 15 7 16 3 17 4 18 89 19 5 20 6 21 2 22 1 23
REMARK SMILES IDX 21 24 22 25 23 26 24 27 25 28 26 29 87 30 27 31 86 32 28 33
REMARK SMILES IDX 29 34 30 35 80 36 31 37 85 38 79 39 81 40 32 41 84 42 78 43
REMARK SMILES IDX 77 44 33 46 65 47 45 48 64 49 46 50 49 51 63 52 82 53 47 54
REMARK SMILES IDX 48 55 62 57 83 58 50 59 34 60 35 61 43 62 36 63 37 64 41 65
REMARK SMILES IDX 44 66 38 67 39 68 42 69 40 70 66 71 67 72 75 73 68 74 69 75
REMARK SMILES IDX 73 76 76 77 70 78 71 79 74 80 72 81 51 82 52 83 60 84 53 85
REMARK SMILES IDX 54 86 58 87 61 88 55 89 56 90 59 91 57 92
REMARK H PARENT 8 14 81 45 49 56
REMARK Flexibility Score: inf
ROOT
ATOM      1  C   UNL     1      -2.606   9.726   4.971  1.00  0.00     0.274 C 
ENDROOT
BRANCH   1   2
ATOM      2  O   UNL     1      -1.219   9.336   5.024  1.00  0.00    -0.462 OA
BRANCH   2   3
ATOM      3  C   UNL     1      -0.732   8.923   6.221  1.00  0.00     0.308 C 
ATOM      4  O   UNL     1      -1.376   8.870   7.260  1.00  0.00    -0.252 OA
BRANCH   3   5
ATOM      5  C   UNL     1       0.735   8.588   6.136  1.00  0.00     0.156 C 
BRANCH   5   6
ATOM      6  C   UNL     1       1.068   7.373   5.276  1.00  0.00     0.149 C 
ATOM      7  N   UNL     1       1.280   6.437   3.012  1.00  0.00    -0.320 N 
ATOM      8  C   UNL     1       2.644   5.996   3.309  1.00  0.00     0.150 C 
ATOM      9  C   UNL     1       0.860   7.612   3.770  1.00  0.00     0.154 C 
ATOM     10  C   UNL     1       2.869   5.869   4.821  1.00  0.00     0.182 C 
ATOM     11  O   UNL     1       2.463   7.056   5.525  1.00  0.00    -0.374 OA
BRANCH   7  12
ATOM     12  C   UNL     1       0.626   6.152   1.844  1.00  0.00     0.322 C 
ATOM     13  N   UNL     1       0.601   4.882   1.359  1.00  0.00    -0.308 N 
ATOM     14  H   UNL     1       0.509   4.831   0.380  1.00  0.00     0.171 HD
ATOM     15  O   UNL     1       0.052   7.028   1.192  1.00  0.00    -0.248 OA
BRANCH  13  16
ATOM     16  C   UNL     1       0.680   3.625   1.989  1.00  0.00     0.043 A 
ATOM     17  C   UNL     1       0.716   1.192   1.711  1.00  0.00    -0.046 A 
ATOM     18  C   UNL     1       0.842   1.055   3.100  1.00  0.00     0.004 A 
ATOM     19  C   UNL     1       0.647   2.487   1.169  1.00  0.00     0.029 A 
ATOM     20  C   UNL     1       0.830   2.176   3.925  1.00  0.00     0.002 A 
ATOM     21  C   UNL     1       0.704   3.449   3.371  1.00  0.00     0.026 A 
BRANCH  17  22
ATOM     22  C   UNL     1       0.533  -0.050   0.870  1.00  0.00     0.032 C 
ATOM     23  C   UNL     1       1.200  -0.033  -0.497  1.00  0.00     0.009 C 
ENDBRANCH  17  22
ENDBRANCH  13  16
ENDBRANCH   7  12
ENDBRANCH   5   6
ENDBRANCH   3   5
ENDBRANCH   2   3
ENDBRANCH   1   2
BRANCH   1  24
ATOM     24  C   UNL     1      -3.527   8.571   4.561  1.00  0.00     0.275 C 
BRANCH  24  25
ATOM     25  O   UNL     1      -3.768   7.666   5.656  1.00  0.00    -0.458 OA
BRANCH  25  26
ATOM     26  C   UNL     1      -2.898   6.634   5.746  1.00  0.00     0.338 C 
ATOM     27  O   UNL     1      -1.990   6.371   4.975  1.00  0.00    -0.246 OA
BRANCH  26  28
ATOM     28  C   UNL     1      -3.087   5.906   7.015  1.00  0.00     0.060 A 
ATOM     29  C   UNL     1      -1.940   5.603   7.756  1.00  0.00     0.016 A 
ATOM     30  C   UNL     1      -4.342   5.468   7.445  1.00  0.00     0.016 A 
ATOM     31  C   UNL     1      -2.037   4.838   8.914  1.00  0.00     0.010 A 
ATOM     32  C   UNL     1      -4.440   4.702   8.613  1.00  0.00     0.010 A 
ATOM     33  C   UNL     1      -3.285   4.366   9.342  1.00  0.00    -0.014 A 
BRANCH  33  34
ATOM     34  C   UNL     1      -3.346   3.471  10.522  1.00  0.00     0.031 A 
ATOM     35  C   UNL     1      -3.515   1.991  10.329  1.00  0.00     0.074 A 
ATOM     36  C   UNL     1      -3.188   3.978  11.758  1.00  0.00     0.049 A 
ATOM     37  N   UNL     1      -3.543   1.037  11.225  1.00  0.00    -0.248 NA
ATOM     38  C   UNL     1      -3.670   1.519   8.944  1.00  0.00     0.031 C 
ATOM     39  C   UNL     1      -2.991   5.394  12.069  1.00  0.00     0.029 A 
ATOM     40  N   UNL     1      -3.156   3.358  12.982  1.00  0.00    -0.354 N 
ATOM     41  C   UNL     1      -3.730  -0.142  10.517  1.00  0.00     0.074 A 
ATOM     42  C   UNL     1      -3.829   0.214   9.118  1.00  0.00     0.031 C 
ATOM     43  C   UNL     1      -2.846   5.533  13.397  1.00  0.00     0.029 A 
ATOM     44  C   UNL     1      -2.968   4.222  14.031  1.00  0.00     0.049 A 
ATOM     45  H   UNL     1      -3.259   2.385  13.096  1.00  0.00     0.167 HD
ATOM     46  C   UNL     1      -3.802  -1.408  10.993  1.00  0.00     0.037 A 
ATOM     47  C   UNL     1      -2.909   3.982  15.355  1.00  0.00     0.037 A 
ATOM     48  C   UNL     1      -3.677  -1.766  12.382  1.00  0.00     0.049 A 
ATOM     49  C   UNL     1      -3.034   2.567  15.855  1.00  0.00     0.074 A 
ATOM     50  C   UNL     1      -3.683  -3.028  12.951  1.00  0.00     0.029 A 
ATOM     51  N   UNL     1      -3.526  -0.860  13.420  1.00  0.00    -0.354 N 
ATOM     52  N   UNL     1      -3.158   1.455  15.173  1.00  0.00    -0.248 NA
ATOM     53  C   UNL     1      -3.009   2.376  17.313  1.00  0.00     0.031 C 
ATOM     54  C   UNL     1      -3.582  -2.883  14.339  1.00  0.00     0.029 A 
ATOM     55  C   UNL     1      -3.470  -1.533  14.630  1.00  0.00     0.049 A 
ATOM     56  H   UNL     1      -3.469   0.117  13.313  1.00  0.00     0.167 HD
ATOM     57  C   UNL     1      -3.199   0.433  16.113  1.00  0.00     0.074 A 
ATOM     58  C   UNL     1      -3.072   1.056  17.414  1.00  0.00     0.031 C 
ATOM     59  C   UNL     1      -3.332  -0.901  15.915  1.00  0.00     0.037 A 
BRANCH  46  60
ATOM     60  C   UNL     1      -4.046  -2.510  10.008  1.00  0.00     0.064 A 
ATOM     61  C   UNL     1      -3.037  -2.967   9.148  1.00  0.00     0.173 A 
ATOM     62  C   UNL     1      -5.289  -3.161   9.969  1.00  0.00     0.173 A 
ATOM     63  F   UNL     1      -1.835  -2.369   9.140  1.00  0.00    -0.203 F 
ATOM     64  C   UNL     1      -3.267  -4.027   8.275  1.00  0.00     0.198 A 
ATOM     65  C   UNL     1      -5.509  -4.234   9.111  1.00  0.00     0.198 A 
ATOM     66  F   UNL     1      -6.285  -2.764  10.776  1.00  0.00    -0.203 F 
ATOM     67  F   UNL     1      -2.298  -4.429   7.442  1.00  0.00    -0.200 F 
ATOM     68  C   UNL     1      -4.499  -4.665   8.264  1.00  0.00     0.200 A 
ATOM     69  F   UNL     1      -6.696  -4.856   9.108  1.00  0.00    -0.200 F 
ATOM     70  F   UNL     1      -4.715  -5.693   7.431  1.00  0.00    -0.200 F 
ENDBRANCH  46  60
BRANCH  47  71
ATOM     71  C   UNL     1      -2.724   5.104  16.310  1.00  0.00     0.064 A 
ATOM     72  C   UNL     1      -1.541   5.236  17.050  1.00  0.00     0.173 A 
ATOM     73  C   UNL     1      -3.741   6.045  16.530  1.00  0.00     0.173 A 
ATOM     74  F   UNL     1      -0.551   4.344  16.896  1.00  0.00    -0.203 F 
ATOM     75  C   UNL     1      -1.391   6.253  17.991  1.00  0.00     0.198 A 
ATOM     76  C   UNL     1      -3.579   7.077  17.451  1.00  0.00     0.198 A 
ATOM     77  F   UNL     1      -4.894   5.958  15.851  1.00  0.00    -0.203 F 
ATOM     78  F   UNL     1      -0.271   6.325  18.724  1.00  0.00    -0.200 F 
ATOM     79  C   UNL     1      -2.408   7.175  18.187  1.00  0.00     0.200 A 
ATOM     80  F   UNL     1      -4.562   7.970  17.633  1.00  0.00    -0.200 F 
ATOM     81  F   UNL     1      -2.266   8.149  19.096  1.00  0.00    -0.200 F 
ENDBRANCH  47  71
BRANCH  59  82
ATOM     82  C   UNL     1      -3.314  -1.780  17.130  1.00  0.00     0.064 A 
ATOM     83  C   UNL     1      -4.405  -1.839  18.009  1.00  0.00     0.173 A 
ATOM     84  C   UNL     1      -2.208  -2.602  17.398  1.00  0.00     0.173 A 
ATOM     85  F   UNL     1      -5.479  -1.061  17.804  1.00  0.00    -0.203 F 
ATOM     86  C   UNL     1      -4.381  -2.671  19.125  1.00  0.00     0.198 A 
ATOM     87  C   UNL     1      -2.198  -3.452  18.500  1.00  0.00     0.198 A 
ATOM     88  F   UNL     1      -1.142  -2.587  16.583  1.00  0.00    -0.203 F 
ATOM     89  F   UNL     1      -5.417  -2.679  19.975  1.00  0.00    -0.200 F 
ATOM     90  C   UNL     1      -3.281  -3.481  19.365  1.00  0.00     0.200 A 
ATOM     91  F   UNL     1      -1.140  -4.242  18.724  1.00  0.00    -0.200 F 
ATOM     92  F   UNL     1      -3.262  -4.285  20.437  1.00  0.00    -0.200 F 
ENDBRANCH  59  82
ENDBRANCH  33  34
ENDBRANCH  26  28
ENDBRANCH  25  26
ENDBRANCH  24  25
ENDBRANCH   1  24
TORSDOF 15
