REMARK SMILES Cc1nc2sc3c(c2c2nc(CCC(=O)OCCOC(=O)c4ccc(-c5c6nc(c(-c7c(F)c(F)c(F)c(F)c7F)c7ccc([nH]7)c(-c7c(F)c(F)c(F)c(F)c7F)c7nc(c(-c8c(F)c(F)c(F)c(F)c8F)c8ccc5[nH]8)C=C7)C=C6)cc4)nn12)[C@@H](C)CCC3
REMARK SMILES IDX 17 1 16 2 14 3 15 4 13 5 12 6 11 7 1 8 2 9 3 10 86 11 4 12
REMARK SMILES IDX 9 13 85 14 5 15 8 16 10 17 6 18 7 19 91 20 87 21 90 22 88 23
REMARK SMILES IDX 89 24 18 25 19 26 20 27 21 28 22 29 23 30 84 31 24 32 83 33
REMARK SMILES IDX 25 34 26 35 27 36 77 37 28 38 82 39 76 40 78 41 29 42 81 43
REMARK SMILES IDX 75 44 74 45 30 47 62 48 42 49 61 50 43 51 46 52 60 53 79 54
REMARK SMILES IDX 44 55 45 56 59 58 80 59 47 60 31 61 32 62 40 63 33 64 34 65
REMARK SMILES IDX 38 66 41 67 35 68 36 69 39 70 37 71 63 72 64 73 72 74 65 75
REMARK SMILES IDX 66 76 70 77 73 78 67 79 68 80 71 81 69 82 48 83 49 84 57 85
REMARK SMILES IDX 50 86 51 87 55 88 58 89 52 90 53 91 56 92 54 93
REMARK H PARENT 78 46 46 57
REMARK Flexibility Score: inf
ROOT
ATOM      1  C   UNL     1      -3.547   4.674   5.047  1.00  0.00     0.274 C 
ENDROOT
BRANCH   1   2
ATOM      2  O   UNL     1      -2.740   4.386   3.890  1.00  0.00    -0.462 OA
BRANCH   2   3
ATOM      3  C   UNL     1      -2.123   5.441   3.300  1.00  0.00     0.306 C 
ATOM      4  O   UNL     1      -2.174   6.601   3.694  1.00  0.00    -0.252 OA
BRANCH   3   5
ATOM      5  C   UNL     1      -1.404   5.033   2.041  1.00  0.00     0.131 C 
BRANCH   5   6
ATOM      6  C   UNL     1       0.011   4.532   2.285  1.00  0.00     0.091 C 
BRANCH   6   7
ATOM      7  C   UNL     1       0.090   3.051   2.435  1.00  0.00     0.152 A 
ATOM      8  C   UNL     1       1.068  -0.091  -0.064  1.00  0.00     0.090 C 
ATOM      9  C   UNL     1       0.668  -0.185   1.374  1.00  0.00     0.131 A 
ATOM     10  N   UNL     1       0.590  -1.327   2.010  1.00  0.00    -0.222 NA
ATOM     11  N   UNL     1       0.396   1.041   1.989  1.00  0.00    -0.199 N 
ATOM     12  C   UNL     1       0.170  -1.256   3.317  1.00  0.00     0.129 A 
ATOM     13  C   UNL     1      -0.026   1.135   3.286  1.00  0.00     0.168 A 
ATOM     14  N   UNL     1       0.468   2.261   1.415  1.00  0.00    -0.150 NA
ATOM     15  S   UNL     1       0.003  -2.657   4.281  1.00  0.00    -0.120 S 
ATOM     16  C   UNL     1      -0.189  -0.126   4.040  1.00  0.00     0.060 A 
ATOM     17  N   UNL     1      -0.227   2.390   3.599  1.00  0.00    -0.211 NA
ATOM     18  C   UNL     1      -0.595  -1.758   5.601  1.00  0.00     0.011 A 
ATOM     19  C   UNL     1      -0.698  -0.402   5.340  1.00  0.00    -0.018 A 
ATOM     20  C   UNL     1      -1.000  -2.411   6.883  1.00  0.00     0.047 C 
ATOM     21  C   UNL     1      -1.299   0.561   6.334  1.00  0.00     0.018 C 
ATOM     22  C   UNL     1      -0.942  -1.382   8.017  1.00  0.00     0.006 C 
ATOM     23  C   UNL     1      -2.536   1.239   5.738  1.00  0.00     0.013 C 
ATOM     24  C   UNL     1      -1.741  -0.128   7.655  1.00  0.00     0.008 C 
ENDBRANCH   6   7
ENDBRANCH   5   6
ENDBRANCH   3   5
ENDBRANCH   2   3
ENDBRANCH   1   2
BRANCH   1  25
ATOM     25  C   UNL     1      -2.776   4.589   6.360  1.00  0.00     0.275 C 
BRANCH  25  26
ATOM     26  O   UNL     1      -1.938   5.718   6.587  1.00  0.00    -0.458 OA
BRANCH  26  27
ATOM     27  C   UNL     1      -0.679   5.546   6.129  1.00  0.00     0.338 C 
ATOM     28  O   UNL     1      -0.243   4.683   5.393  1.00  0.00    -0.246 OA
BRANCH  27  29
ATOM     29  C   UNL     1       0.192   6.478   6.813  1.00  0.00     0.060 A 
ATOM     30  C   UNL     1       1.108   7.233   6.080  1.00  0.00     0.016 A 
ATOM     31  C   UNL     1       0.177   6.448   8.209  1.00  0.00     0.016 A 
ATOM     32  C   UNL     1       2.040   7.984   6.772  1.00  0.00     0.010 A 
ATOM     33  C   UNL     1       1.108   7.189   8.894  1.00  0.00     0.010 A 
ATOM     34  C   UNL     1       2.042   7.941   8.172  1.00  0.00    -0.014 A 
BRANCH  34  35
ATOM     35  C   UNL     1       2.966   8.794   8.904  1.00  0.00     0.031 A 
ATOM     36  C   UNL     1       2.608  10.237   8.944  1.00  0.00     0.074 A 
ATOM     37  C   UNL     1       3.913   8.274   9.707  1.00  0.00     0.049 A 
ATOM     38  N   UNL     1       3.375  11.260   8.745  1.00  0.00    -0.248 NA
ATOM     39  C   UNL     1       1.202  10.588   9.222  1.00  0.00     0.031 C 
ATOM     40  C   UNL     1       4.103   6.854  10.021  1.00  0.00     0.029 A 
ATOM     41  N   UNL     1       4.806   8.903  10.527  1.00  0.00    -0.354 N 
ATOM     42  C   UNL     1       2.592  12.378   9.019  1.00  0.00     0.074 A 
ATOM     43  C   UNL     1       1.243  11.918   9.212  1.00  0.00     0.031 C 
ATOM     44  C   UNL     1       4.886   6.747  11.114  1.00  0.00     0.029 A 
ATOM     45  C   UNL     1       5.353   8.071  11.489  1.00  0.00     0.049 A 
ATOM     46  H   UNL     1       5.037   9.857  10.442  1.00  0.00     0.167 HD
ATOM     47  C   UNL     1       3.141  13.589   9.296  1.00  0.00     0.037 A 
ATOM     48  C   UNL     1       6.091   8.435  12.561  1.00  0.00     0.037 A 
ATOM     49  C   UNL     1       4.525  13.675   8.940  1.00  0.00     0.049 A 
ATOM     50  C   UNL     1       6.670   9.777  12.315  1.00  0.00     0.074 A 
ATOM     51  C   UNL     1       5.259  14.040   7.835  1.00  0.00     0.029 A 
ATOM     52  N   UNL     1       5.374  13.049   9.807  1.00  0.00    -0.354 N 
ATOM     53  N   UNL     1       7.547  10.036  11.384  1.00  0.00    -0.248 NA
ATOM     54  C   UNL     1       6.084  10.949  12.962  1.00  0.00     0.031 C 
ATOM     55  C   UNL     1       6.569  13.504   8.020  1.00  0.00     0.029 A 
ATOM     56  C   UNL     1       6.596  12.820   9.229  1.00  0.00     0.049 A 
ATOM     57  H   UNL     1       5.139  12.794  10.728  1.00  0.00     0.167 HD
ATOM     58  C   UNL     1       7.323  11.358  11.064  1.00  0.00     0.074 A 
ATOM     59  C   UNL     1       6.561  11.912  12.171  1.00  0.00     0.031 C 
ATOM     60  C   UNL     1       7.457  11.805   9.786  1.00  0.00     0.037 A 
BRANCH  47  61
ATOM     61  C   UNL     1       2.531  14.565  10.260  1.00  0.00     0.064 A 
ATOM     62  C   UNL     1       2.883  15.924  10.213  1.00  0.00     0.173 A 
ATOM     63  C   UNL     1       1.838  14.139  11.414  1.00  0.00     0.173 A 
ATOM     64  F   UNL     1       3.586  16.410   9.180  1.00  0.00    -0.203 F 
ATOM     65  C   UNL     1       2.571  16.795  11.261  1.00  0.00     0.198 A 
ATOM     66  C   UNL     1       1.486  15.020  12.433  1.00  0.00     0.198 A 
ATOM     67  F   UNL     1       1.576  12.842  11.631  1.00  0.00    -0.203 F 
ATOM     68  F   UNL     1       2.996  18.066  11.220  1.00  0.00    -0.200 F 
ATOM     69  C   UNL     1       1.869  16.344  12.366  1.00  0.00     0.200 A 
ATOM     70  F   UNL     1       0.832  14.559  13.509  1.00  0.00    -0.200 F 
ATOM     71  F   UNL     1       1.601  17.171  13.386  1.00  0.00    -0.200 F 
ENDBRANCH  47  61
BRANCH  48  72
ATOM     72  C   UNL     1       6.189   7.754  13.871  1.00  0.00     0.064 A 
ATOM     73  C   UNL     1       7.268   8.000  14.733  1.00  0.00     0.173 A 
ATOM     74  C   UNL     1       5.108   7.027  14.407  1.00  0.00     0.173 A 
ATOM     75  F   UNL     1       8.316   8.724  14.314  1.00  0.00    -0.203 F 
ATOM     76  C   UNL     1       7.258   7.560  16.059  1.00  0.00     0.198 A 
ATOM     77  C   UNL     1       5.108   6.571  15.724  1.00  0.00     0.198 A 
ATOM     78  F   UNL     1       3.993   6.818  13.691  1.00  0.00    -0.203 F 
ATOM     79  F   UNL     1       8.278   7.870  16.871  1.00  0.00    -0.200 F 
ATOM     80  C   UNL     1       6.177   6.851  16.555  1.00  0.00     0.200 A 
ATOM     81  F   UNL     1       4.042   5.911  16.200  1.00  0.00    -0.200 F 
ATOM     82  F   UNL     1       6.146   6.472  17.840  1.00  0.00    -0.200 F 
ENDBRANCH  48  72
BRANCH  60  83
ATOM     83  C   UNL     1       8.367  11.045   8.879  1.00  0.00     0.064 A 
ATOM     84  C   UNL     1       8.100   9.748   8.416  1.00  0.00     0.173 A 
ATOM     85  C   UNL     1       9.534  11.672   8.426  1.00  0.00     0.173 A 
ATOM     86  F   UNL     1       6.963   9.122   8.745  1.00  0.00    -0.203 F 
ATOM     87  C   UNL     1       8.995   9.088   7.575  1.00  0.00     0.198 A 
ATOM     88  C   UNL     1      10.409  11.024   7.560  1.00  0.00     0.198 A 
ATOM     89  F   UNL     1       9.812  12.929   8.804  1.00  0.00    -0.203 F 
ATOM     90  F   UNL     1       8.734   7.838   7.166  1.00  0.00    -0.200 F 
ATOM     91  C   UNL     1      10.146   9.728   7.146  1.00  0.00     0.200 A 
ATOM     92  F   UNL     1      11.502  11.661   7.116  1.00  0.00    -0.200 F 
ATOM     93  F   UNL     1      10.996   9.102   6.319  1.00  0.00    -0.200 F 
ENDBRANCH  60  83
ENDBRANCH  34  35
ENDBRANCH  27  29
ENDBRANCH  26  27
ENDBRANCH  25  26
ENDBRANCH   1  25
TORSDOF 13
