REMARK SMILES Cc1ccc(C)c(-n2nc(C)c(/C=C(/C#N)C(=O)OCCOC(=O)c3ccc(-c4c5nc(c(-c6c(F)c(F)c(F)c(F)c6F)c6ccc([nH]6)c(-c6c(F)c(F)c(F)c(F)c6F)c6nc(c(-c7c(F)c(F)c(F)c(F)c7F)c7ccc4[nH]7)C=C6)C=C5)cc3)c2Cl)c1
REMARK SMILES IDX 20 1 19 2 17 3 18 4 14 5 13 6 12 7 8 8 9 9 88 10 10 11 89 12
REMARK SMILES IDX 11 13 7 14 1 15 2 16 3 17 90 18 4 19 5 20 6 21 15 22 16 23
REMARK SMILES IDX 21 24 22 25 23 26 24 27 25 28 26 29 87 30 27 31 86 32 28 33
REMARK SMILES IDX 29 34 30 35 80 36 31 37 85 38 79 39 81 40 32 41 84 42 78 43
REMARK SMILES IDX 77 44 33 46 65 47 45 48 64 49 46 50 49 51 63 52 82 53 47 54
REMARK SMILES IDX 48 55 62 57 83 58 50 59 34 60 35 61 43 62 36 63 37 64 41 65
REMARK SMILES IDX 44 66 38 67 39 68 42 69 40 70 66 71 67 72 75 73 68 74 69 75
REMARK SMILES IDX 73 76 76 77 70 78 71 79 74 80 72 81 51 82 52 83 60 84 53 85
REMARK SMILES IDX 54 86 58 87 61 88 55 89 56 90 59 91 57 92
REMARK H PARENT 81 45 49 56
REMARK Flexibility Score: inf
ROOT
ATOM      1  C   UNL     1      -6.419   7.669  -0.316  1.00  0.00     0.275 C 
ENDROOT
BRANCH   1   2
ATOM      2  O   UNL     1      -5.328   6.944  -0.928  1.00  0.00    -0.458 OA
BRANCH   2   3
ATOM      3  C   UNL     1      -4.084   7.329  -0.532  1.00  0.00     0.349 C 
ATOM      4  O   UNL     1      -3.857   8.302   0.179  1.00  0.00    -0.245 OA
BRANCH   3   5
ATOM      5  C   UNL     1      -3.024   6.816  -1.421  1.00  0.00     0.138 C 
ATOM      6  C   UNL     1      -2.209   5.732  -1.395  1.00  0.00     0.040 C 
BRANCH   6   7
ATOM      7  C   UNL     1      -1.997   4.454  -0.641  1.00  0.00     0.037 A 
ATOM      8  N   UNL     1      -1.264   2.296  -0.507  1.00  0.00    -0.221 N 
ATOM      9  N   UNL     1      -1.963   2.493   0.596  1.00  0.00    -0.171 NA
ATOM     10  C   UNL     1      -1.237   3.443  -1.264  1.00  0.00     0.140 A 
ATOM     11  C   UNL     1      -2.246   3.793   0.650  1.00  0.00     0.069 A 
ATOM     12  Cl  UNL     1      -0.441   3.389  -2.783  1.00  0.00    -0.061 Cl
ATOM     13  C   UNL     1      -2.652   4.053   2.062  1.00  0.00     0.069 C 
BRANCH   8  14
ATOM     14  C   UNL     1      -0.578   1.059  -0.556  1.00  0.00     0.069 A 
ATOM     15  C   UNL     1       3.029  -0.103  -0.124  1.00  0.00     0.044 C 
ATOM     16  C   UNL     1       1.535  -0.107  -0.270  1.00  0.00    -0.049 A 
ATOM     17  C   UNL     1       0.834  -1.305  -0.088  1.00  0.00     0.004 A 
ATOM     18  C   UNL     1       0.827   1.074  -0.540  1.00  0.00     0.032 A 
ATOM     19  C   UNL     1      -0.559  -1.322  -0.106  1.00  0.00     0.006 A 
ATOM     20  C   UNL     1      -1.288  -0.141  -0.305  1.00  0.00    -0.025 A 
ATOM     21  C   UNL     1      -2.791  -0.239  -0.215  1.00  0.00     0.047 C 
ENDBRANCH   8  14
ENDBRANCH   6   7
BRANCH   5  22
ATOM     22  C   UNL     1      -3.058   7.979  -2.401  1.00  0.00     0.107 C 
ATOM     23  N   UNL     1      -3.086   8.943  -3.213  1.00  0.00    -0.192 NA
ENDBRANCH   5  22
ENDBRANCH   3   5
ENDBRANCH   2   3
ENDBRANCH   1   2
BRANCH   1  24
ATOM     24  C   UNL     1      -7.435   6.705   0.318  1.00  0.00     0.275 C 
BRANCH  24  25
ATOM     25  O   UNL     1      -6.989   5.919   1.440  1.00  0.00    -0.458 OA
BRANCH  25  26
ATOM     26  C   UNL     1      -5.665   5.629   1.478  1.00  0.00     0.338 C 
ATOM     27  O   UNL     1      -5.117   4.897   0.692  1.00  0.00    -0.246 OA
BRANCH  26  28
ATOM     28  C   UNL     1      -5.002   6.573   2.443  1.00  0.00     0.060 A 
ATOM     29  C   UNL     1      -3.617   6.837   2.377  1.00  0.00     0.016 A 
ATOM     30  C   UNL     1      -5.819   7.421   3.174  1.00  0.00     0.016 A 
ATOM     31  C   UNL     1      -3.056   7.952   2.968  1.00  0.00     0.010 A 
ATOM     32  C   UNL     1      -5.302   8.617   3.601  1.00  0.00     0.010 A 
ATOM     33  C   UNL     1      -3.928   8.870   3.519  1.00  0.00    -0.014 A 
BRANCH  33  34
ATOM     34  C   UNL     1      -3.420  10.156   3.948  1.00  0.00     0.031 A 
ATOM     35  C   UNL     1      -2.773  11.012   2.910  1.00  0.00     0.074 A 
ATOM     36  C   UNL     1      -3.732  10.570   5.189  1.00  0.00     0.049 A 
ATOM     37  N   UNL     1      -1.575  11.500   2.939  1.00  0.00    -0.248 NA
ATOM     38  C   UNL     1      -3.494  11.319   1.664  1.00  0.00     0.031 C 
ATOM     39  C   UNL     1      -4.586   9.875   6.164  1.00  0.00     0.029 A 
ATOM     40  N   UNL     1      -3.485  11.758   5.794  1.00  0.00    -0.354 N 
ATOM     41  C   UNL     1      -1.461  12.342   1.831  1.00  0.00     0.074 A 
ATOM     42  C   UNL     1      -2.612  12.082   1.011  1.00  0.00     0.031 C 
ATOM     43  C   UNL     1      -5.016  10.752   7.088  1.00  0.00     0.029 A 
ATOM     44  C   UNL     1      -4.299  11.995   6.890  1.00  0.00     0.049 A 
ATOM     45  H   UNL     1      -2.796  12.389   5.484  1.00  0.00     0.167 HD
ATOM     46  C   UNL     1      -0.567  13.373   1.849  1.00  0.00     0.037 A 
ATOM     47  C   UNL     1      -4.394  13.141   7.594  1.00  0.00     0.037 A 
ATOM     48  C   UNL     1       0.411  13.159   2.888  1.00  0.00     0.049 A 
ATOM     49  C   UNL     1      -3.133  13.882   7.373  1.00  0.00     0.074 A 
ATOM     50  C   UNL     1       1.451  12.289   3.123  1.00  0.00     0.029 A 
ATOM     51  N   UNL     1       0.081  13.728   4.088  1.00  0.00    -0.354 N 
ATOM     52  N   UNL     1      -1.968  13.454   7.779  1.00  0.00    -0.248 NA
ATOM     53  C   UNL     1      -3.094  14.930   6.362  1.00  0.00     0.031 C 
ATOM     54  C   UNL     1       1.527  12.155   4.544  1.00  0.00     0.029 A 
ATOM     55  C   UNL     1       0.573  12.991   5.126  1.00  0.00     0.049 A 
ATOM     56  H   UNL     1      -0.441  14.557   4.188  1.00  0.00     0.167 HD
ATOM     57  C   UNL     1      -1.094  13.836   6.778  1.00  0.00     0.074 A 
ATOM     58  C   UNL     1      -1.793  14.894   6.056  1.00  0.00     0.031 C 
ATOM     59  C   UNL     1      -0.035  13.041   6.440  1.00  0.00     0.037 A 
BRANCH  46  60
ATOM     60  C   UNL     1      -0.860  14.791   1.366  1.00  0.00     0.064 A 
ATOM     61  C   UNL     1       0.137  15.781   1.542  1.00  0.00     0.173 A 
ATOM     62  C   UNL     1      -2.155  15.289   1.107  1.00  0.00     0.173 A 
ATOM     63  F   UNL     1       1.409  15.435   1.791  1.00  0.00    -0.203 F 
ATOM     64  C   UNL     1      -0.167  17.147   1.587  1.00  0.00     0.198 A 
ATOM     65  C   UNL     1      -2.445  16.655   1.110  1.00  0.00     0.198 A 
ATOM     66  F   UNL     1      -3.213  14.488   0.956  1.00  0.00    -0.203 F 
ATOM     67  F   UNL     1       0.786  18.032   1.911  1.00  0.00    -0.200 F 
ATOM     68  C   UNL     1      -1.462  17.581   1.388  1.00  0.00     0.200 A 
ATOM     69  F   UNL     1      -3.712  17.058   0.932  1.00  0.00    -0.200 F 
ATOM     70  F   UNL     1      -1.774  18.878   1.511  1.00  0.00    -0.200 F 
ENDBRANCH  46  60
BRANCH  47  71
ATOM     71  C   UNL     1      -5.596  13.707   8.235  1.00  0.00     0.064 A 
ATOM     72  C   UNL     1      -5.485  14.706   9.209  1.00  0.00     0.173 A 
ATOM     73  C   UNL     1      -6.886  13.464   7.719  1.00  0.00     0.173 A 
ATOM     74  F   UNL     1      -4.286  15.013   9.725  1.00  0.00    -0.203 F 
ATOM     75  C   UNL     1      -6.594  15.452   9.617  1.00  0.00     0.198 A 
ATOM     76  C   UNL     1      -7.993  14.203   8.133  1.00  0.00     0.198 A 
ATOM     77  F   UNL     1      -7.081  12.571   6.738  1.00  0.00    -0.203 F 
ATOM     78  F   UNL     1      -6.438  16.448  10.500  1.00  0.00    -0.200 F 
ATOM     79  C   UNL     1      -7.843  15.209   9.069  1.00  0.00     0.200 A 
ATOM     80  F   UNL     1      -9.190  13.979   7.572  1.00  0.00    -0.200 F 
ATOM     81  F   UNL     1      -8.892  15.970   9.410  1.00  0.00    -0.200 F 
ENDBRANCH  47  71
BRANCH  59  82
ATOM     82  C   UNL     1       0.422  12.032   7.453  1.00  0.00     0.064 A 
ATOM     83  C   UNL     1      -0.340  10.939   7.899  1.00  0.00     0.173 A 
ATOM     84  C   UNL     1       1.733  12.139   7.936  1.00  0.00     0.173 A 
ATOM     85  F   UNL     1      -1.564  10.705   7.416  1.00  0.00    -0.203 F 
ATOM     86  C   UNL     1       0.168  10.034   8.829  1.00  0.00     0.198 A 
ATOM     87  C   UNL     1       2.252  11.212   8.833  1.00  0.00     0.198 A 
ATOM     88  F   UNL     1       2.528  13.131   7.505  1.00  0.00    -0.203 F 
ATOM     89  F   UNL     1      -0.592   9.016   9.260  1.00  0.00    -0.200 F 
ATOM     90  C   UNL     1       1.465  10.170   9.292  1.00  0.00     0.200 A 
ATOM     91  F   UNL     1       3.525  11.321   9.239  1.00  0.00    -0.200 F 
ATOM     92  F   UNL     1       1.964   9.284  10.166  1.00  0.00    -0.200 F 
ENDBRANCH  59  82
ENDBRANCH  33  34
ENDBRANCH  26  28
ENDBRANCH  25  26
ENDBRANCH  24  25
ENDBRANCH   1  24
TORSDOF 14
