REMARK SMILES CC(C)C[C@@H](NS(=O)(=O)/C=C/c1ccc(Cl)cc1)C(=O)OCCOC(=O)c1ccc(-c2c3nc(c(-c4c(F)c(F)c(F)c(F)c4F)c4ccc([nH]4)c(-c4c(F)c(F)c(F)c(F)c4F)c4nc(c(-c5c(F)c(F)c(F)c(F)c5F)c5ccc2[nH]5)C=C4)C=C3)cc1
REMARK SMILES IDX 22 1 21 2 19 3 20 4 5 5 4 6 2 7 1 8 3 9 6 10 7 12 8 13 9 14
REMARK SMILES IDX 10 15 11 16 12 17 13 18 18 19 14 20 17 21 15 22 16 23 23 24
REMARK SMILES IDX 24 25 25 26 26 27 27 28 28 29 89 30 29 31 88 32 30 33 31 34
REMARK SMILES IDX 32 35 82 36 33 37 87 38 81 39 83 40 34 41 86 42 80 43 79 44
REMARK SMILES IDX 35 46 67 47 47 48 66 49 48 50 51 51 65 52 84 53 49 54 50 55
REMARK SMILES IDX 64 57 85 58 52 59 36 60 37 61 45 62 38 63 39 64 43 65 46 66
REMARK SMILES IDX 40 67 41 68 44 69 42 70 68 71 69 72 77 73 70 74 71 75 75 76
REMARK SMILES IDX 78 77 72 78 73 79 76 80 74 81 53 82 54 83 62 84 55 85 56 86
REMARK SMILES IDX 60 87 63 88 57 89 58 90 61 91 59 92
REMARK H PARENT 6 11 83 45 51 56
REMARK Flexibility Score: inf
ROOT
ATOM      1  C   UNL     1      -4.953  -1.746  -1.270  1.00  0.00     0.274 C 
ENDROOT
BRANCH   1   2
ATOM      2  O   UNL     1      -3.531  -1.634  -1.454  1.00  0.00    -0.461 OA
BRANCH   2   3
ATOM      3  C   UNL     1      -3.027  -0.373  -1.508  1.00  0.00     0.324 C 
ATOM      4  O   UNL     1      -3.680   0.647  -1.320  1.00  0.00    -0.250 OA
BRANCH   3   5
ATOM      5  C   UNL     1      -1.556  -0.313  -1.888  1.00  0.00     0.180 C 
BRANCH   5   6
ATOM      6  C   UNL     1      -0.797  -1.528  -1.330  1.00  0.00     0.035 C 
BRANCH   6   7
ATOM      7  C   UNL     1       0.716  -1.352  -1.067  1.00  0.00    -0.015 C 
ATOM      8  C   UNL     1       1.062  -0.121  -0.224  1.00  0.00     0.007 C 
ATOM      9  C   UNL     1       1.236  -2.600  -0.338  1.00  0.00     0.007 C 
ENDBRANCH   6   7
ENDBRANCH   5   6
BRANCH   5  10
ATOM     10  N   UNL     1      -1.431  -0.182  -3.370  1.00  0.00    -0.197 NA
ATOM     11  H   UNL     1      -2.070  -0.853  -3.797  1.00  0.00     0.142 HD
BRANCH  10  12
ATOM     12  S   UNL     1      -1.781   1.364  -4.027  1.00  0.00     0.234 S 
ATOM     13  O   UNL     1      -1.043   2.300  -3.212  1.00  0.00    -0.208 OA
ATOM     14  O   UNL     1      -1.458   1.230  -5.436  1.00  0.00    -0.208 OA
BRANCH  12  15
ATOM     15  C   UNL     1      -3.472   1.712  -3.877  1.00  0.00     0.123 C 
ATOM     16  C   UNL     1      -4.396   0.846  -4.316  1.00  0.00     0.021 C 
BRANCH  16  17
ATOM     17  C   UNL     1      -5.844   1.006  -4.095  1.00  0.00    -0.025 A 
ATOM     18  C   UNL     1      -6.724   0.766  -5.155  1.00  0.00     0.009 A 
ATOM     19  C   UNL     1      -6.384   1.252  -2.822  1.00  0.00     0.009 A 
ATOM     20  C   UNL     1      -8.107   0.730  -4.940  1.00  0.00     0.021 A 
ATOM     21  C   UNL     1      -7.762   1.175  -2.595  1.00  0.00     0.021 A 
ATOM     22  C   UNL     1      -8.618   0.907  -3.656  1.00  0.00     0.041 A 
ATOM     23  Cl  UNL     1     -10.309   0.768  -3.376  1.00  0.00    -0.084 Cl
ENDBRANCH  16  17
ENDBRANCH  12  15
ENDBRANCH  10  12
ENDBRANCH   5  10
ENDBRANCH   3   5
ENDBRANCH   2   3
ENDBRANCH   1   2
BRANCH   1  24
ATOM     24  C   UNL     1      -5.448  -1.600   0.178  1.00  0.00     0.275 C 
BRANCH  24  25
ATOM     25  O   UNL     1      -5.179  -0.313   0.769  1.00  0.00    -0.458 OA
BRANCH  25  26
ATOM     26  C   UNL     1      -3.976  -0.231   1.386  1.00  0.00     0.338 C 
ATOM     27  O   UNL     1      -3.165  -1.137   1.517  1.00  0.00    -0.246 OA
BRANCH  26  28
ATOM     28  C   UNL     1      -3.631   1.158   1.749  1.00  0.00     0.060 A 
ATOM     29  C   UNL     1      -2.377   1.622   1.333  1.00  0.00     0.016 A 
ATOM     30  C   UNL     1      -4.418   1.932   2.600  1.00  0.00     0.016 A 
ATOM     31  C   UNL     1      -1.870   2.824   1.805  1.00  0.00     0.010 A 
ATOM     32  C   UNL     1      -3.899   3.136   3.097  1.00  0.00     0.010 A 
ATOM     33  C   UNL     1      -2.602   3.557   2.741  1.00  0.00    -0.014 A 
BRANCH  33  34
ATOM     34  C   UNL     1      -1.889   4.610   3.504  1.00  0.00     0.031 A 
ATOM     35  C   UNL     1      -1.395   4.281   4.888  1.00  0.00     0.074 A 
ATOM     36  C   UNL     1      -1.578   5.788   2.937  1.00  0.00     0.049 A 
ATOM     37  N   UNL     1      -0.754   5.033   5.747  1.00  0.00    -0.248 NA
ATOM     38  C   UNL     1      -1.653   2.913   5.365  1.00  0.00     0.031 C 
ATOM     39  C   UNL     1      -1.912   6.181   1.570  1.00  0.00     0.029 A 
ATOM     40  N   UNL     1      -0.892   6.864   3.441  1.00  0.00    -0.354 N 
ATOM     41  C   UNL     1      -0.564   4.240   6.872  1.00  0.00     0.074 A 
ATOM     42  C   UNL     1      -1.168   2.956   6.596  1.00  0.00     0.031 C 
ATOM     43  C   UNL     1      -1.427   7.414   1.341  1.00  0.00     0.029 A 
ATOM     44  C   UNL     1      -0.784   7.909   2.557  1.00  0.00     0.049 A 
ATOM     45  H   UNL     1      -0.514   6.885   4.350  1.00  0.00     0.167 HD
ATOM     46  C   UNL     1       0.064   4.555   8.030  1.00  0.00     0.037 A 
ATOM     47  C   UNL     1      -0.243   9.131   2.723  1.00  0.00     0.037 A 
ATOM     48  C   UNL     1       0.691   5.825   8.288  1.00  0.00     0.049 A 
ATOM     49  C   UNL     1       0.391   9.479   4.045  1.00  0.00     0.074 A 
ATOM     50  C   UNL     1       1.354   6.246   9.426  1.00  0.00     0.029 A 
ATOM     51  N   UNL     1       0.733   6.879   7.386  1.00  0.00    -0.354 N 
ATOM     52  N   UNL     1       0.548   8.736   5.114  1.00  0.00    -0.248 NA
ATOM     53  C   UNL     1       0.928  10.841   4.180  1.00  0.00     0.031 C 
ATOM     54  C   UNL     1       1.754   7.573   9.233  1.00  0.00     0.029 A 
ATOM     55  C   UNL     1       1.395   7.957   7.950  1.00  0.00     0.049 A 
ATOM     56  H   UNL     1       0.350   6.863   6.479  1.00  0.00     0.167 HD
ATOM     57  C   UNL     1       1.236   9.521   6.030  1.00  0.00     0.074 A 
ATOM     58  C   UNL     1       1.472  10.798   5.388  1.00  0.00     0.031 C 
ATOM     59  C   UNL     1       1.640   9.213   7.288  1.00  0.00     0.037 A 
BRANCH  46  60
ATOM     60  C   UNL     1       0.057   3.525   9.123  1.00  0.00     0.064 A 
ATOM     61  C   UNL     1       0.805   2.341   9.040  1.00  0.00     0.173 A 
ATOM     62  C   UNL     1      -0.710   3.735  10.280  1.00  0.00     0.173 A 
ATOM     63  F   UNL     1       1.540   2.082   7.949  1.00  0.00    -0.203 F 
ATOM     64  C   UNL     1       0.761   1.393  10.060  1.00  0.00     0.198 A 
ATOM     65  C   UNL     1      -0.727   2.800  11.311  1.00  0.00     0.198 A 
ATOM     66  F   UNL     1      -1.444   4.851  10.411  1.00  0.00    -0.203 F 
ATOM     67  F   UNL     1       1.438   0.243   9.934  1.00  0.00    -0.200 F 
ATOM     68  C   UNL     1       0.001   1.626  11.197  1.00  0.00     0.200 A 
ATOM     69  F   UNL     1      -1.453   3.034  12.413  1.00  0.00    -0.200 F 
ATOM     70  F   UNL     1      -0.039   0.714  12.177  1.00  0.00    -0.200 F 
ENDBRANCH  46  60
BRANCH  47  71
ATOM     71  C   UNL     1      -0.283  10.121   1.615  1.00  0.00     0.064 A 
ATOM     72  C   UNL     1       0.892  10.547   0.981  1.00  0.00     0.173 A 
ATOM     73  C   UNL     1      -1.495  10.682   1.185  1.00  0.00     0.173 A 
ATOM     74  F   UNL     1       2.079  10.062   1.374  1.00  0.00    -0.203 F 
ATOM     75  C   UNL     1       0.859  11.510  -0.026  1.00  0.00     0.198 A 
ATOM     76  C   UNL     1      -1.530  11.622   0.158  1.00  0.00     0.198 A 
ATOM     77  F   UNL     1      -2.648  10.314   1.763  1.00  0.00    -0.203 F 
ATOM     78  F   UNL     1       2.003  11.939  -0.578  1.00  0.00    -0.200 F 
ATOM     79  C   UNL     1      -0.352  12.043  -0.441  1.00  0.00     0.200 A 
ATOM     80  F   UNL     1      -2.704  12.127  -0.245  1.00  0.00    -0.200 F 
ATOM     81  F   UNL     1      -0.384  12.970  -1.407  1.00  0.00    -0.200 F 
ENDBRANCH  47  71
BRANCH  59  82
ATOM     82  C   UNL     1       2.439  10.248   8.027  1.00  0.00     0.064 A 
ATOM     83  C   UNL     1       1.863  11.437   8.498  1.00  0.00     0.173 A 
ATOM     84  C   UNL     1       3.801  10.030   8.289  1.00  0.00     0.173 A 
ATOM     85  F   UNL     1       0.569  11.699   8.264  1.00  0.00    -0.203 F 
ATOM     86  C   UNL     1       2.630  12.386   9.170  1.00  0.00     0.198 A 
ATOM     87  C   UNL     1       4.556  10.966   8.992  1.00  0.00     0.198 A 
ATOM     88  F   UNL     1       4.399   8.905   7.871  1.00  0.00    -0.203 F 
ATOM     89  F   UNL     1       2.072  13.541   9.558  1.00  0.00    -0.200 F 
ATOM     90  C   UNL     1       3.973  12.147   9.422  1.00  0.00     0.200 A 
ATOM     91  F   UNL     1       5.849  10.725   9.248  1.00  0.00    -0.200 F 
ATOM     92  F   UNL     1       4.707  13.061  10.071  1.00  0.00    -0.200 F 
ENDBRANCH  59  82
ENDBRANCH  33  34
ENDBRANCH  26  28
ENDBRANCH  25  26
ENDBRANCH  24  25
ENDBRANCH   1  24
TORSDOF 17
