REMARK SMILES COc1ccc(-c2sc(C(=O)OCCOC(=O)c3ccc(-c4c5nc(c(-c6c(F)c(F)c(F)c(F)c6F)c6ccc([nH]6)c(-c6c(F)c(F)c(F)c(F)c6F)c6nc(c(-c7c(F)c(F)c(F)c(F)c7F)c7ccc4[nH]7)C=C6)C=C5)cc3)cc2C)c(OC)c1
REMARK SMILES IDX 13 1 12 2 10 3 11 4 9 5 7 6 8 7 82 8 81 9 83 10 6 11 3 12
REMARK SMILES IDX 4 13 87 14 5 15 84 16 2 17 1 18 85 19 86 20 14 21 15 22
REMARK SMILES IDX 16 23 17 24 18 25 19 26 80 27 20 28 79 29 21 30 22 31 23 32
REMARK SMILES IDX 73 33 24 34 78 35 72 36 74 37 25 38 77 39 71 40 70 41 26 43
REMARK SMILES IDX 58 44 38 45 57 46 39 47 42 48 56 49 75 50 40 51 41 52 55 54
REMARK SMILES IDX 76 55 43 56 27 57 28 58 36 59 29 60 30 61 34 62 37 63 31 64
REMARK SMILES IDX 32 65 35 66 33 67 59 68 60 69 68 70 61 71 62 72 66 73 69 74
REMARK SMILES IDX 63 75 64 76 67 77 65 78 44 79 45 80 53 81 46 82 47 83 51 84
REMARK SMILES IDX 54 85 48 86 49 87 52 88 50 89
REMARK H PARENT 74 42 42 53
REMARK Flexibility Score: inf
ROOT
ATOM      1  C   UNL     1       1.999  -9.335   7.153  1.00  0.00     0.275 C 
ENDROOT
BRANCH   1   2
ATOM      2  O   UNL     1       1.887  -8.053   6.502  1.00  0.00    -0.458 OA
BRANCH   2   3
ATOM      3  C   UNL     1       2.010  -6.965   7.317  1.00  0.00     0.348 C 
ATOM      4  O   UNL     1       2.156  -7.031   8.533  1.00  0.00    -0.245 OA
BRANCH   3   5
ATOM      5  C   UNL     1       2.080  -5.722   6.569  1.00  0.00     0.113 A 
ATOM      6  C   UNL     1       1.947  -3.877   4.931  1.00  0.00     0.042 A 
ATOM      7  S   UNL     1       1.411  -5.505   5.013  1.00  0.00    -0.128 S 
ATOM      8  C   UNL     1       2.719  -3.526   6.027  1.00  0.00    -0.031 A 
ATOM      9  C   UNL     1       2.672  -4.554   7.013  1.00  0.00     0.031 A 
ATOM     10  C   UNL     1       3.470  -2.246   6.203  1.00  0.00     0.046 C 
BRANCH   6  11
ATOM     11  C   UNL     1       1.539  -3.020   3.812  1.00  0.00     0.034 A 
ATOM     12  C   UNL     1       0.714  -1.135   1.902  1.00  0.00     0.122 A 
ATOM     13  C   UNL     1      -0.177  -1.579   2.877  1.00  0.00     0.047 A 
ATOM     14  C   UNL     1       2.022  -1.630   1.878  1.00  0.00     0.093 A 
ATOM     15  C   UNL     1       0.227  -2.521   3.818  1.00  0.00     0.017 A 
ATOM     16  C   UNL     1       2.448  -2.563   2.837  1.00  0.00     0.131 A 
BRANCH  12  17
ATOM     17  O   UNL     1       0.203  -0.185   1.060  1.00  0.00    -0.497 OA
ATOM     18  C   UNL     1       0.864  -0.022  -0.188  1.00  0.00     0.278 C 
ENDBRANCH  12  17
BRANCH  16  19
ATOM     19  O   UNL     1       3.721  -3.073   2.908  1.00  0.00    -0.496 OA
ATOM     20  C   UNL     1       4.729  -2.436   2.134  1.00  0.00     0.278 C 
ENDBRANCH  16  19
ENDBRANCH   6  11
ENDBRANCH   3   5
ENDBRANCH   2   3
ENDBRANCH   1   2
BRANCH   1  21
ATOM     21  C   UNL     1       3.410  -9.910   7.012  1.00  0.00     0.275 C 
BRANCH  21  22
ATOM     22  O   UNL     1       4.371  -9.077   7.690  1.00  0.00    -0.458 OA
BRANCH  22  23
ATOM     23  C   UNL     1       5.271  -8.461   6.891  1.00  0.00     0.338 C 
ATOM     24  O   UNL     1       5.380  -8.552   5.680  1.00  0.00    -0.246 OA
BRANCH  23  25
ATOM     25  C   UNL     1       6.129  -7.569   7.686  1.00  0.00     0.060 A 
ATOM     26  C   UNL     1       5.632  -6.321   8.044  1.00  0.00     0.016 A 
ATOM     27  C   UNL     1       7.469  -7.876   7.906  1.00  0.00     0.016 A 
ATOM     28  C   UNL     1       6.482  -5.336   8.540  1.00  0.00     0.010 A 
ATOM     29  C   UNL     1       8.309  -6.913   8.482  1.00  0.00     0.010 A 
ATOM     30  C   UNL     1       7.836  -5.616   8.762  1.00  0.00    -0.014 A 
BRANCH  30  31
ATOM     31  C   UNL     1       8.765  -4.535   9.204  1.00  0.00     0.031 A 
ATOM     32  C   UNL     1       9.933  -4.144   8.333  1.00  0.00     0.074 A 
ATOM     33  C   UNL     1       8.559  -3.876  10.361  1.00  0.00     0.049 A 
ATOM     34  N   UNL     1      10.943  -3.353   8.599  1.00  0.00    -0.248 NA
ATOM     35  C   UNL     1       9.974  -4.731   6.984  1.00  0.00     0.031 C 
ATOM     36  C   UNL     1       7.441  -4.101  11.278  1.00  0.00     0.029 A 
ATOM     37  N   UNL     1       9.284  -2.875  10.964  1.00  0.00    -0.354 N 
ATOM     38  C   UNL     1      11.764  -3.394   7.479  1.00  0.00     0.074 A 
ATOM     39  C   UNL     1      11.140  -4.292   6.531  1.00  0.00     0.031 C 
ATOM     40  C   UNL     1       7.538  -3.249  12.309  1.00  0.00     0.029 A 
ATOM     41  C   UNL     1       8.767  -2.474  12.173  1.00  0.00     0.049 A 
ATOM     42  H   UNL     1      10.095  -2.483  10.568  1.00  0.00     0.167 HD
ATOM     43  C   UNL     1      12.932  -2.741   7.260  1.00  0.00     0.037 A 
ATOM     44  C   UNL     1       9.247  -1.612  13.090  1.00  0.00     0.037 A 
ATOM     45  C   UNL     1      13.523  -1.802   8.179  1.00  0.00     0.049 A 
ATOM     46  C   UNL     1      10.562  -0.925  12.840  1.00  0.00     0.074 A 
ATOM     47  C   UNL     1      14.696  -1.079   8.040  1.00  0.00     0.029 A 
ATOM     48  N   UNL     1      12.976  -1.442   9.402  1.00  0.00    -0.354 N 
ATOM     49  N   UNL     1      11.355  -1.009  11.800  1.00  0.00    -0.248 NA
ATOM     50  C   UNL     1      11.055  -0.033  13.899  1.00  0.00     0.031 C 
ATOM     51  C   UNL     1      14.879  -0.312   9.195  1.00  0.00     0.029 A 
ATOM     52  C   UNL     1      13.794  -0.517  10.031  1.00  0.00     0.049 A 
ATOM     53  H   UNL     1      12.132  -1.793   9.768  1.00  0.00     0.167 HD
ATOM     54  C   UNL     1      12.426  -0.166  12.068  1.00  0.00     0.074 A 
ATOM     55  C   UNL     1      12.173   0.433  13.361  1.00  0.00     0.031 C 
ATOM     56  C   UNL     1      13.522   0.085  11.311  1.00  0.00     0.037 A 
BRANCH  43  57
ATOM     57  C   UNL     1      13.671  -3.039   5.987  1.00  0.00     0.064 A 
ATOM     58  C   UNL     1      13.215  -2.595   4.737  1.00  0.00     0.173 A 
ATOM     59  C   UNL     1      14.883  -3.748   6.027  1.00  0.00     0.173 A 
ATOM     60  F   UNL     1      12.057  -1.923   4.641  1.00  0.00    -0.203 F 
ATOM     61  C   UNL     1      13.929  -2.871   3.574  1.00  0.00     0.198 A 
ATOM     62  C   UNL     1      15.610  -3.996   4.865  1.00  0.00     0.198 A 
ATOM     63  F   UNL     1      15.371  -4.189   7.196  1.00  0.00    -0.203 F 
ATOM     64  F   UNL     1      13.450  -2.476   2.386  1.00  0.00    -0.200 F 
ATOM     65  C   UNL     1      15.129  -3.564   3.639  1.00  0.00     0.200 A 
ATOM     66  F   UNL     1      16.777  -4.652   4.933  1.00  0.00    -0.200 F 
ATOM     67  F   UNL     1      15.819  -3.821   2.519  1.00  0.00    -0.200 F 
ENDBRANCH  43  57
BRANCH  44  68
ATOM     68  C   UNL     1       8.497  -1.376  14.353  1.00  0.00     0.064 A 
ATOM     69  C   UNL     1       7.914  -0.131  14.626  1.00  0.00     0.173 A 
ATOM     70  C   UNL     1       8.357  -2.387  15.316  1.00  0.00     0.173 A 
ATOM     71  F   UNL     1       8.044   0.876  13.750  1.00  0.00    -0.203 F 
ATOM     72  C   UNL     1       7.234   0.098  15.821  1.00  0.00     0.198 A 
ATOM     73  C   UNL     1       7.649  -2.167  16.495  1.00  0.00     0.198 A 
ATOM     74  F   UNL     1       8.899  -3.595  15.106  1.00  0.00    -0.203 F 
ATOM     75  F   UNL     1       6.729   1.312  16.079  1.00  0.00    -0.200 F 
ATOM     76  C   UNL     1       7.095  -0.922  16.751  1.00  0.00     0.200 A 
ATOM     77  F   UNL     1       7.505  -3.159  17.383  1.00  0.00    -0.200 F 
ATOM     78  F   UNL     1       6.436  -0.702  17.896  1.00  0.00    -0.200 F 
ENDBRANCH  44  68
BRANCH  56  79
ATOM     79  C   UNL     1      14.505   1.090  11.837  1.00  0.00     0.064 A 
ATOM     80  C   UNL     1      15.346   0.802  12.922  1.00  0.00     0.173 A 
ATOM     81  C   UNL     1      14.627   2.347  11.226  1.00  0.00     0.173 A 
ATOM     82  F   UNL     1      15.257  -0.379  13.551  1.00  0.00    -0.203 F 
ATOM     83  C   UNL     1      16.255   1.747  13.392  1.00  0.00     0.198 A 
ATOM     84  C   UNL     1      15.557   3.278  11.680  1.00  0.00     0.198 A 
ATOM     85  F   UNL     1      13.850   2.669  10.181  1.00  0.00    -0.203 F 
ATOM     86  F   UNL     1      17.014   1.470  14.461  1.00  0.00    -0.200 F 
ATOM     87  C   UNL     1      16.364   2.981  12.767  1.00  0.00     0.200 A 
ATOM     88  F   UNL     1      15.669   4.464  11.066  1.00  0.00    -0.200 F 
ATOM     89  F   UNL     1      17.242   3.887  13.218  1.00  0.00    -0.200 F 
ENDBRANCH  56  79
ENDBRANCH  30  31
ENDBRANCH  23  25
ENDBRANCH  22  23
ENDBRANCH  21  22
ENDBRANCH   1  21
TORSDOF 14
