REMARK SMILES O=C(OCCOC(=O)[C@H]1CC[C@@H](CNc2nncs2)CC1)c1ccc(-c2c3nc(c(-c4c(F)c(F)c(F)c(F)c4F)c4ccc([nH]4)c(-c4c(F)c(F)c(F)c(F)c4F)c4nc(c(-c5c(F)c(F)c(F)c(F)c5F)c5ccc2[nH]5)C=C4)C=C3)cc1
REMARK SMILES IDX 5 1 4 2 3 3 2 4 1 5 22 6 23 7 84 8 24 9 83 10 25 11 26 12
REMARK SMILES IDX 27 13 77 14 28 15 82 16 76 17 78 18 29 19 81 20 75 21 74 22
REMARK SMILES IDX 30 24 62 25 42 26 61 27 43 28 46 29 60 30 79 31 44 32 45 33
REMARK SMILES IDX 59 35 80 36 47 37 31 38 32 39 40 40 33 41 34 42 38 43 41 44
REMARK SMILES IDX 35 45 36 46 39 47 37 48 63 49 64 50 72 51 65 52 66 53 70 54
REMARK SMILES IDX 73 55 67 56 68 57 71 58 69 59 48 60 49 61 57 62 50 63 51 64
REMARK SMILES IDX 55 65 58 66 52 67 53 68 56 69 54 70 6 71 7 72 8 73 9 74
REMARK SMILES IDX 21 75 10 76 20 77 11 78 12 79 13 80 14 81 15 83 16 84 19 85
REMARK SMILES IDX 17 86 18 87
REMARK H PARENT 78 23 46 34 14 82
REMARK Flexibility Score: inf
ROOT
ATOM      1  C   UNL     1       3.799  -1.141  -2.006  1.00  0.00     0.274 C 
ENDROOT
BRANCH   1   2
ATOM      2  C   UNL     1       4.198  -1.646  -0.614  1.00  0.00     0.275 C 
BRANCH   2   3
ATOM      3  O   UNL     1       3.373  -1.162   0.450  1.00  0.00    -0.458 OA
BRANCH   3   4
ATOM      4  C   UNL     1       3.422   0.023   1.095  1.00  0.00     0.338 C 
ATOM      5  O   UNL     1       2.613   0.217   2.003  1.00  0.00    -0.246 OA
BRANCH   4   6
ATOM      6  C   UNL     1       4.310   1.171   0.702  1.00  0.00     0.060 A 
ATOM      7  C   UNL     1       5.444   1.156  -0.124  1.00  0.00     0.016 A 
ATOM      8  C   UNL     1       3.887   2.419   1.174  1.00  0.00     0.016 A 
ATOM      9  C   UNL     1       6.054   2.343  -0.574  1.00  0.00     0.010 A 
ATOM     10  C   UNL     1       4.473   3.595   0.708  1.00  0.00     0.010 A 
ATOM     11  C   UNL     1       5.546   3.581  -0.197  1.00  0.00    -0.014 A 
BRANCH  11  12
ATOM     12  C   UNL     1       6.132   4.879  -0.630  1.00  0.00     0.031 A 
ATOM     13  C   UNL     1       6.584   5.823   0.449  1.00  0.00     0.074 A 
ATOM     14  C   UNL     1       6.131   5.286  -1.919  1.00  0.00     0.049 A 
ATOM     15  N   UNL     1       6.941   7.076   0.367  1.00  0.00    -0.248 NA
ATOM     16  C   UNL     1       6.570   5.289   1.823  1.00  0.00     0.031 C 
ATOM     17  C   UNL     1       5.694   4.501  -3.072  1.00  0.00     0.029 A 
ATOM     18  N   UNL     1       6.466   6.502  -2.470  1.00  0.00    -0.354 N 
ATOM     19  C   UNL     1       7.152   7.471   1.680  1.00  0.00     0.074 A 
ATOM     20  C   UNL     1       6.717   6.392   2.533  1.00  0.00     0.031 C 
ATOM     21  C   UNL     1       5.718   5.269  -4.177  1.00  0.00     0.029 A 
ATOM     22  C   UNL     1       6.214   6.593  -3.821  1.00  0.00     0.049 A 
ATOM     23  H   UNL     1       6.852   7.240  -1.946  1.00  0.00     0.167 HD
ATOM     24  C   UNL     1       7.774   8.579   2.141  1.00  0.00     0.037 A 
ATOM     25  C   UNL     1       6.388   7.624  -4.673  1.00  0.00     0.037 A 
ATOM     26  C   UNL     1       8.277   9.610   1.284  1.00  0.00     0.049 A 
ATOM     27  C   UNL     1       7.052   8.877  -4.156  1.00  0.00     0.074 A 
ATOM     28  C   UNL     1       9.030  10.720   1.610  1.00  0.00     0.029 A 
ATOM     29  N   UNL     1       8.068   9.645  -0.087  1.00  0.00    -0.354 N 
ATOM     30  N   UNL     1       7.413   9.175  -2.931  1.00  0.00    -0.248 NA
ATOM     31  C   UNL     1       7.394   9.908  -5.147  1.00  0.00     0.031 C 
ATOM     32  C   UNL     1       9.254  11.444   0.435  1.00  0.00     0.029 A 
ATOM     33  C   UNL     1       8.680  10.760  -0.627  1.00  0.00     0.049 A 
ATOM     34  H   UNL     1       7.559   8.975  -0.598  1.00  0.00     0.167 HD
ATOM     35  C   UNL     1       8.085  10.387  -3.013  1.00  0.00     0.074 A 
ATOM     36  C   UNL     1       8.071  10.776  -4.408  1.00  0.00     0.031 C 
ATOM     37  C   UNL     1       8.680  11.103  -2.026  1.00  0.00     0.037 A 
BRANCH  24  38
ATOM     38  C   UNL     1       8.005   8.649   3.622  1.00  0.00     0.064 A 
ATOM     39  C   UNL     1       8.831   7.713   4.272  1.00  0.00     0.173 A 
ATOM     40  C   UNL     1       7.349   9.601   4.412  1.00  0.00     0.173 A 
ATOM     41  F   UNL     1       9.475   6.771   3.564  1.00  0.00    -0.203 F 
ATOM     42  C   UNL     1       8.925   7.678   5.659  1.00  0.00     0.198 A 
ATOM     43  C   UNL     1       7.481   9.589   5.799  1.00  0.00     0.198 A 
ATOM     44  F   UNL     1       6.564  10.530   3.846  1.00  0.00    -0.203 F 
ATOM     45  F   UNL     1       9.632   6.707   6.255  1.00  0.00    -0.200 F 
ATOM     46  C   UNL     1       8.251   8.616   6.421  1.00  0.00     0.200 A 
ATOM     47  F   UNL     1       6.841  10.505   6.539  1.00  0.00    -0.200 F 
ATOM     48  F   UNL     1       8.328   8.572   7.758  1.00  0.00    -0.200 F 
ENDBRANCH  24  38
BRANCH  25  49
ATOM     49  C   UNL     1       6.041   7.495  -6.117  1.00  0.00     0.064 A 
ATOM     50  C   UNL     1       7.046   7.376  -7.088  1.00  0.00     0.173 A 
ATOM     51  C   UNL     1       4.712   7.531  -6.562  1.00  0.00     0.173 A 
ATOM     52  F   UNL     1       8.335   7.354  -6.716  1.00  0.00    -0.203 F 
ATOM     53  C   UNL     1       6.740   7.334  -8.448  1.00  0.00     0.198 A 
ATOM     54  C   UNL     1       4.405   7.469  -7.924  1.00  0.00     0.198 A 
ATOM     55  F   UNL     1       3.709   7.637  -5.679  1.00  0.00    -0.203 F 
ATOM     56  F   UNL     1       7.727   7.274  -9.353  1.00  0.00    -0.200 F 
ATOM     57  C   UNL     1       5.420   7.381  -8.866  1.00  0.00     0.200 A 
ATOM     58  F   UNL     1       3.127   7.506  -8.325  1.00  0.00    -0.200 F 
ATOM     59  F   UNL     1       5.127   7.351 -10.173  1.00  0.00    -0.200 F 
ENDBRANCH  25  49
BRANCH  37  60
ATOM     60  C   UNL     1       9.431  12.338  -2.421  1.00  0.00     0.064 A 
ATOM     61  C   UNL     1       8.774  13.504  -2.834  1.00  0.00     0.173 A 
ATOM     62  C   UNL     1      10.830  12.374  -2.302  1.00  0.00     0.173 A 
ATOM     63  F   UNL     1       7.440  13.513  -2.980  1.00  0.00    -0.203 F 
ATOM     64  C   UNL     1       9.492  14.660  -3.127  1.00  0.00     0.198 A 
ATOM     65  C   UNL     1      11.540  13.541  -2.561  1.00  0.00     0.198 A 
ATOM     66  F   UNL     1      11.504  11.284  -1.905  1.00  0.00    -0.203 F 
ATOM     67  F   UNL     1       8.848  15.753  -3.559  1.00  0.00    -0.200 F 
ATOM     68  C   UNL     1      10.871  14.681  -2.978  1.00  0.00     0.200 A 
ATOM     69  F   UNL     1      12.870  13.565  -2.397  1.00  0.00    -0.200 F 
ATOM     70  F   UNL     1      11.557  15.802  -3.239  1.00  0.00    -0.200 F 
ENDBRANCH  37  60
ENDBRANCH  11  12
ENDBRANCH   4   6
ENDBRANCH   3   4
ENDBRANCH   2   3
ENDBRANCH   1   2
BRANCH   1  71
ATOM     71  O   UNL     1       3.326   0.224  -2.041  1.00  0.00    -0.462 OA
BRANCH  71  72
ATOM     72  C   UNL     1       1.979   0.394  -2.158  1.00  0.00     0.309 C 
ATOM     73  O   UNL     1       1.175  -0.536  -2.193  1.00  0.00    -0.252 OA
BRANCH  72  74
ATOM     74  C   UNL     1       1.536   1.859  -2.286  1.00  0.00     0.099 C 
ATOM     75  C   UNL     1       0.498   2.187  -1.211  1.00  0.00     0.015 C 
ATOM     76  C   UNL     1       2.660   2.884  -2.230  1.00  0.00     0.015 C 
ATOM     77  C   UNL     1      -0.046   3.608  -1.366  1.00  0.00     0.006 C 
ATOM     78  C   UNL     1       2.216   4.350  -2.216  1.00  0.00     0.006 C 
ATOM     79  C   UNL     1       1.030   4.706  -1.300  1.00  0.00     0.008 C 
BRANCH  79  80
ATOM     80  C   UNL     1       1.364   5.056   0.170  1.00  0.00     0.119 C 
BRANCH  80  81
ATOM     81  N   UNL     1       2.241   6.207   0.283  1.00  0.00    -0.360 N 
ATOM     82  H   UNL     1       2.749   6.473  -0.517  1.00  0.00     0.162 HD
BRANCH  81  83
ATOM     83  C   UNL     1       2.414   6.944   1.411  1.00  0.00     0.205 A 
ATOM     84  N   UNL     1       3.155   8.035   1.436  1.00  0.00    -0.121 NA
ATOM     85  S   UNL     1       1.727   6.583   2.957  1.00  0.00    -0.083 S 
ATOM     86  N   UNL     1       3.171   8.666   2.665  1.00  0.00    -0.145 NA
ATOM     87  C   UNL     1       2.443   8.021   3.546  1.00  0.00     0.204 A 
ENDBRANCH  81  83
ENDBRANCH  80  81
ENDBRANCH  79  80
ENDBRANCH  72  74
ENDBRANCH  71  72
ENDBRANCH   1  71
TORSDOF 14
