REMARK SMILES CO[C@H](C)c1noc(C[C@](C)(C(=O)OCCOC(=O)c2ccc(-c3c4nc(c(-c5c(F)c(F)c(F)c(F)c5F)c5ccc([nH]5)c(-c5c(F)c(F)c(F)c(F)c5F)c5nc(c(-c6c(F)c(F)c(F)c(F)c6F)c6ccc3[nH]6)C=C5)C=C4)cc2)c2ccccc2)n1
REMARK SMILES IDX 15 1 14 2 12 3 13 4 10 5 11 6 9 7 8 8 5 9 6 10 89 11 7 12
REMARK SMILES IDX 3 13 4 14 2 15 1 16 83 17 84 18 88 19 85 20 87 21 86 22
REMARK SMILES IDX 16 23 17 24 18 25 19 26 20 27 21 28 82 29 22 30 81 31 23 32
REMARK SMILES IDX 24 33 25 34 75 35 26 36 80 37 74 38 76 39 27 40 79 41 73 42
REMARK SMILES IDX 72 43 28 45 60 46 40 47 59 48 41 49 44 50 58 51 77 52 42 53
REMARK SMILES IDX 43 54 57 56 78 57 45 58 29 59 30 60 38 61 31 62 32 63 36 64
REMARK SMILES IDX 39 65 33 66 34 67 37 68 35 69 61 70 62 71 70 72 63 73 64 74
REMARK SMILES IDX 68 75 71 76 65 77 66 78 69 79 67 80 46 81 47 82 55 83 48 84
REMARK SMILES IDX 49 85 53 86 56 87 50 88 51 89 54 90 52 91
REMARK H PARENT 76 44 44 55
REMARK Flexibility Score: inf
ROOT
ATOM      1  C   UNL     1       9.318   4.520   1.979  1.00  0.00     0.274 C 
ENDROOT
BRANCH   1   2
ATOM      2  O   UNL     1       8.108   3.732   1.876  1.00  0.00    -0.461 OA
BRANCH   2   3
ATOM      3  C   UNL     1       7.595   3.246   3.046  1.00  0.00     0.316 C 
ATOM      4  O   UNL     1       8.042   3.545   4.144  1.00  0.00    -0.251 OA
BRANCH   3   5
ATOM      5  C   UNL     1       6.526   2.152   2.812  1.00  0.00     0.099 C 
ATOM      6  C   UNL     1       5.810   2.391   1.463  1.00  0.00     0.029 C 
BRANCH   5   7
ATOM      7  C   UNL     1       7.365   0.839   2.719  1.00  0.00     0.123 C 
BRANCH   7   8
ATOM      8  C   UNL     1       7.876   0.320   4.026  1.00  0.00     0.228 A 
ATOM      9  C   UNL     1       8.213  -0.654   5.849  1.00  0.00     0.200 A 
ATOM     10  N   UNL     1       8.978   0.444   5.939  1.00  0.00    -0.060 NA
ATOM     11  N   UNL     1       7.554  -0.793   4.647  1.00  0.00    -0.193 NA
ATOM     12  O   UNL     1       8.767   1.083   4.719  1.00  0.00    -0.339 OA
BRANCH   9  13
ATOM     13  C   UNL     1       8.113  -1.681   6.939  1.00  0.00     0.186 C 
ATOM     14  C   UNL     1       9.494  -2.100   7.439  1.00  0.00     0.047 C 
BRANCH  13  15
ATOM     15  O   UNL     1       7.340  -1.202   8.056  1.00  0.00    -0.374 OA
ATOM     16  C   UNL     1       6.557  -2.221   8.661  1.00  0.00     0.195 C 
ENDBRANCH  13  15
ENDBRANCH   9  13
ENDBRANCH   7   8
ENDBRANCH   5   7
BRANCH   5  17
ATOM     17  C   UNL     1       5.410   2.138   3.887  1.00  0.00    -0.030 A 
ATOM     18  C   UNL     1       4.839   3.333   4.354  1.00  0.00     0.005 A 
ATOM     19  C   UNL     1       4.882   0.942   4.407  1.00  0.00     0.005 A 
ATOM     20  C   UNL     1       3.892   3.335   5.386  1.00  0.00     0.000 A 
ATOM     21  C   UNL     1       3.952   0.941   5.450  1.00  0.00     0.000 A 
ATOM     22  C   UNL     1       3.473   2.140   5.958  1.00  0.00     0.000 A 
ENDBRANCH   5  17
ENDBRANCH   3   5
ENDBRANCH   2   3
ENDBRANCH   1   2
BRANCH   1  23
ATOM     23  C   UNL     1       9.025   6.019   2.016  1.00  0.00     0.275 C 
BRANCH  23  24
ATOM     24  O   UNL     1       8.433   6.351   3.281  1.00  0.00    -0.458 OA
BRANCH  24  25
ATOM     25  C   UNL     1       7.453   7.282   3.268  1.00  0.00     0.338 C 
ATOM     26  O   UNL     1       7.078   7.941   2.315  1.00  0.00    -0.246 OA
BRANCH  25  27
ATOM     27  C   UNL     1       6.829   7.359   4.608  1.00  0.00     0.060 A 
ATOM     28  C   UNL     1       6.611   6.193   5.334  1.00  0.00     0.016 A 
ATOM     29  C   UNL     1       6.335   8.568   5.098  1.00  0.00     0.016 A 
ATOM     30  C   UNL     1       5.809   6.200   6.467  1.00  0.00     0.010 A 
ATOM     31  C   UNL     1       5.612   8.590   6.302  1.00  0.00     0.010 A 
ATOM     32  C   UNL     1       5.295   7.395   6.974  1.00  0.00    -0.014 A 
BRANCH  32  33
ATOM     33  C   UNL     1       4.350   7.351   8.128  1.00  0.00     0.031 A 
ATOM     34  C   UNL     1       2.958   7.909   7.978  1.00  0.00     0.074 A 
ATOM     35  C   UNL     1       4.669   6.701   9.267  1.00  0.00     0.049 A 
ATOM     36  N   UNL     1       2.041   8.111   8.892  1.00  0.00    -0.248 NA
ATOM     37  C   UNL     1       2.534   8.281   6.618  1.00  0.00     0.031 C 
ATOM     38  C   UNL     1       5.924   5.992   9.518  1.00  0.00     0.029 A 
ATOM     39  N   UNL     1       3.938   6.483  10.411  1.00  0.00    -0.354 N 
ATOM     40  C   UNL     1       0.966   8.690   8.231  1.00  0.00     0.074 A 
ATOM     41  C   UNL     1       1.331   8.794   6.836  1.00  0.00     0.031 C 
ATOM     42  C   UNL     1       5.839   5.342  10.689  1.00  0.00     0.029 A 
ATOM     43  C   UNL     1       4.581   5.696  11.335  1.00  0.00     0.049 A 
ATOM     44  H   UNL     1       3.038   6.856  10.554  1.00  0.00     0.167 HD
ATOM     45  C   UNL     1      -0.216   9.104   8.746  1.00  0.00     0.037 A 
ATOM     46  C   UNL     1       4.226   5.339  12.585  1.00  0.00     0.037 A 
ATOM     47  C   UNL     1      -0.601   8.948  10.124  1.00  0.00     0.049 A 
ATOM     48  C   UNL     1       2.951   5.890  13.162  1.00  0.00     0.074 A 
ATOM     49  C   UNL     1      -1.736   9.412  10.766  1.00  0.00     0.029 A 
ATOM     50  N   UNL     1       0.131   8.242  11.067  1.00  0.00    -0.354 N 
ATOM     51  N   UNL     1       2.012   6.592  12.578  1.00  0.00    -0.248 NA
ATOM     52  C   UNL     1       2.714   5.640  14.591  1.00  0.00     0.031 C 
ATOM     53  C   UNL     1      -1.682   9.003  12.103  1.00  0.00     0.029 A 
ATOM     54  C   UNL     1      -0.528   8.258  12.285  1.00  0.00     0.049 A 
ATOM     55  H   UNL     1       0.992   7.796  10.896  1.00  0.00     0.167 HD
ATOM     56  C   UNL     1       1.077   6.870  13.565  1.00  0.00     0.074 A 
ATOM     57  C   UNL     1       1.543   6.231  14.777  1.00  0.00     0.031 C 
ATOM     58  C   UNL     1      -0.056   7.609  13.479  1.00  0.00     0.037 A 
BRANCH  45  59
ATOM     59  C   UNL     1      -1.159   9.819   7.827  1.00  0.00     0.064 A 
ATOM     60  C   UNL     1      -1.935   9.137   6.881  1.00  0.00     0.173 A 
ATOM     61  C   UNL     1      -1.308  11.212   7.922  1.00  0.00     0.173 A 
ATOM     62  F   UNL     1      -1.812   7.809   6.737  1.00  0.00    -0.203 F 
ATOM     63  C   UNL     1      -2.819   9.826   6.053  1.00  0.00     0.198 A 
ATOM     64  C   UNL     1      -2.208  11.894   7.110  1.00  0.00     0.198 A 
ATOM     65  F   UNL     1      -0.587  11.909   8.813  1.00  0.00    -0.203 F 
ATOM     66  F   UNL     1      -3.528   9.161   5.131  1.00  0.00    -0.200 F 
ATOM     67  C   UNL     1      -2.960  11.201   6.173  1.00  0.00     0.200 A 
ATOM     68  F   UNL     1      -2.348  13.221   7.233  1.00  0.00    -0.200 F 
ATOM     69  F   UNL     1      -3.817  11.861   5.381  1.00  0.00    -0.200 F 
ENDBRANCH  45  59
BRANCH  46  70
ATOM     70  C   UNL     1       5.123   4.485  13.410  1.00  0.00     0.064 A 
ATOM     71  C   UNL     1       4.716   3.215  13.841  1.00  0.00     0.173 A 
ATOM     72  C   UNL     1       6.391   4.933  13.812  1.00  0.00     0.173 A 
ATOM     73  F   UNL     1       3.498   2.756  13.518  1.00  0.00    -0.203 F 
ATOM     74  C   UNL     1       5.538   2.432  14.650  1.00  0.00     0.198 A 
ATOM     75  C   UNL     1       7.226   4.135  14.590  1.00  0.00     0.198 A 
ATOM     76  F   UNL     1       6.823   6.148  13.445  1.00  0.00    -0.203 F 
ATOM     77  F   UNL     1       5.102   1.246  15.096  1.00  0.00    -0.200 F 
ATOM     78  C   UNL     1       6.795   2.889  15.016  1.00  0.00     0.200 A 
ATOM     79  F   UNL     1       8.443   4.578  14.933  1.00  0.00    -0.200 F 
ATOM     80  F   UNL     1       7.585   2.135  15.794  1.00  0.00    -0.200 F 
ENDBRANCH  46  70
BRANCH  58  81
ATOM     81  C   UNL     1      -0.875   7.746  14.725  1.00  0.00     0.064 A 
ATOM     82  C   UNL     1      -0.466   8.577  15.778  1.00  0.00     0.173 A 
ATOM     83  C   UNL     1      -2.091   7.060  14.858  1.00  0.00     0.173 A 
ATOM     84  F   UNL     1       0.698   9.239  15.703  1.00  0.00    -0.203 F 
ATOM     85  C   UNL     1      -1.236   8.698  16.932  1.00  0.00     0.198 A 
ATOM     86  C   UNL     1      -2.869   7.202  16.003  1.00  0.00     0.198 A 
ATOM     87  F   UNL     1      -2.525   6.257  13.876  1.00  0.00    -0.203 F 
ATOM     88  F   UNL     1      -0.805   9.463  17.945  1.00  0.00    -0.200 F 
ATOM     89  C   UNL     1      -2.438   8.015  17.041  1.00  0.00     0.200 A 
ATOM     90  F   UNL     1      -4.034   6.548  16.105  1.00  0.00    -0.200 F 
ATOM     91  F   UNL     1      -3.178   8.133  18.152  1.00  0.00    -0.200 F 
ENDBRANCH  58  81
ENDBRANCH  32  33
ENDBRANCH  25  27
ENDBRANCH  24  25
ENDBRANCH  23  24
ENDBRANCH   1  23
TORSDOF 16
