REMARK SMILES O=C(OCCOC(=O)c1ccc(-c2c3nc(c(-c4c(F)c(F)c(F)c(F)c4F)c4ccc([nH]4)c(-c4c(F)c(F)c(F)c(F)c4F)c4nc(c(-c5c(F)c(F)c(F)c(F)c5F)c5ccc2[nH]5)C=C4)C=C3)cc1)C1=Cc2cc(Cl)c(Cl)c(Cl)c2O[C@@H]1C(F)(F)F
REMARK SMILES IDX 5 1 4 2 3 3 2 4 1 5 72 6 73 7 84 8 74 9 83 10 75 11 82 12
REMARK SMILES IDX 76 13 80 14 77 15 78 16 81 17 79 18 85 19 86 20 87 21 88 22
REMARK SMILES IDX 6 23 7 24 8 25 9 26 10 27 71 28 11 29 70 30 12 31 13 32
REMARK SMILES IDX 14 33 64 34 15 35 69 36 63 37 65 38 16 39 68 40 62 41 61 42
REMARK SMILES IDX 17 44 49 45 29 46 48 47 30 48 33 49 47 50 66 51 31 52 32 53
REMARK SMILES IDX 46 55 67 56 34 57 18 58 19 59 27 60 20 61 21 62 25 63 28 64
REMARK SMILES IDX 22 65 23 66 26 67 24 68 50 69 51 70 59 71 52 72 53 73 57 74
REMARK SMILES IDX 60 75 54 76 55 77 58 78 56 79 35 80 36 81 44 82 37 83 38 84
REMARK SMILES IDX 42 85 45 86 39 87 40 88 43 89 41 90
REMARK H PARENT 65 43 33 54
REMARK Flexibility Score: inf
ROOT
ATOM      1  C   UNL     1       2.987   0.691  -2.345  1.00  0.00     0.275 C 
ENDROOT
BRANCH   1   2
ATOM      2  C   UNL     1       2.837  -0.474  -1.337  1.00  0.00     0.275 C 
BRANCH   2   3
ATOM      3  O   UNL     1       2.043  -0.126  -0.168  1.00  0.00    -0.459 OA
BRANCH   3   4
ATOM      4  C   UNL     1       2.423  -0.587   1.061  1.00  0.00     0.338 C 
ATOM      5  O   UNL     1       1.772  -1.406   1.690  1.00  0.00    -0.246 OA
BRANCH   4   6
ATOM      6  C   UNL     1       3.663   0.039   1.583  1.00  0.00     0.087 C 
ATOM      7  C   UNL     1       4.591  -0.719   2.188  1.00  0.00     0.027 C 
ATOM      8  C   UNL     1       4.129   1.335   1.020  1.00  0.00     0.316 C 
ATOM      9  C   UNL     1       5.858  -0.780   1.437  1.00  0.00     0.020 A 
ATOM     10  O   UNL     1       5.217   1.142   0.095  1.00  0.00    -0.474 OA
ATOM     11  C   UNL     1       6.770  -1.812   1.664  1.00  0.00     0.034 A 
ATOM     12  C   UNL     1       6.036   0.057   0.320  1.00  0.00     0.148 A 
ATOM     13  C   UNL     1       7.773  -2.085   0.725  1.00  0.00     0.062 A 
ATOM     14  C   UNL     1       6.999  -0.253  -0.655  1.00  0.00     0.103 A 
ATOM     15  Cl  UNL     1       8.853  -3.390   1.083  1.00  0.00    -0.083 Cl
ATOM     16  C   UNL     1       7.852  -1.353  -0.470  1.00  0.00     0.082 A 
ATOM     17  Cl  UNL     1       7.032   0.680  -2.121  1.00  0.00    -0.079 Cl
ATOM     18  Cl  UNL     1       8.938  -1.848  -1.732  1.00  0.00    -0.081 Cl
BRANCH   8  19
ATOM     19  C   UNL     1       4.417   2.362   2.132  1.00  0.00     0.430 C 
ATOM     20  F   UNL     1       3.258   2.771   2.709  1.00  0.00    -0.167 F 
ATOM     21  F   UNL     1       5.198   1.875   3.121  1.00  0.00    -0.167 F 
ATOM     22  F   UNL     1       5.025   3.465   1.641  1.00  0.00    -0.167 F 
ENDBRANCH   8  19
ENDBRANCH   4   6
ENDBRANCH   3   4
ENDBRANCH   2   3
ENDBRANCH   1   2
BRANCH   1  23
ATOM     23  O   UNL     1       2.806   1.972  -1.724  1.00  0.00    -0.458 OA
BRANCH  23  24
ATOM     24  C   UNL     1       1.516   2.384  -1.678  1.00  0.00     0.338 C 
ATOM     25  O   UNL     1       0.586   1.926  -2.328  1.00  0.00    -0.246 OA
BRANCH  24  26
ATOM     26  C   UNL     1       1.330   3.312  -0.539  1.00  0.00     0.060 A 
ATOM     27  C   UNL     1       0.167   3.153   0.219  1.00  0.00     0.016 A 
ATOM     28  C   UNL     1       2.276   4.278  -0.172  1.00  0.00     0.016 A 
ATOM     29  C   UNL     1      -0.084   3.992   1.303  1.00  0.00     0.010 A 
ATOM     30  C   UNL     1       2.036   5.100   0.940  1.00  0.00     0.010 A 
ATOM     31  C   UNL     1       0.831   4.994   1.657  1.00  0.00    -0.014 A 
BRANCH  31  32
ATOM     32  C   UNL     1       0.406   6.005   2.664  1.00  0.00     0.031 A 
ATOM     33  C   UNL     1      -0.025   7.368   2.188  1.00  0.00     0.074 A 
ATOM     34  C   UNL     1       0.267   5.680   3.964  1.00  0.00     0.049 A 
ATOM     35  N   UNL     1      -0.653   8.316   2.838  1.00  0.00    -0.248 NA
ATOM     36  C   UNL     1       0.288   7.707   0.791  1.00  0.00     0.031 C 
ATOM     37  C   UNL     1       0.658   4.407   4.566  1.00  0.00     0.029 A 
ATOM     38  N   UNL     1      -0.271   6.393   5.010  1.00  0.00    -0.354 N 
ATOM     39  C   UNL     1      -0.850   9.336   1.917  1.00  0.00     0.074 A 
ATOM     40  C   UNL     1      -0.196   8.935   0.692  1.00  0.00     0.031 C 
ATOM     41  C   UNL     1       0.332   4.421   5.871  1.00  0.00     0.029 A 
ATOM     42  C   UNL     1      -0.294   5.701   6.197  1.00  0.00     0.049 A 
ATOM     43  H   UNL     1      -0.607   7.314   4.917  1.00  0.00     0.167 HD
ATOM     44  C   UNL     1      -1.551  10.486   2.058  1.00  0.00     0.037 A 
ATOM     45  C   UNL     1      -0.782   6.055   7.403  1.00  0.00     0.037 A 
ATOM     46  C   UNL     1      -2.176  10.912   3.279  1.00  0.00     0.049 A 
ATOM     47  C   UNL     1      -1.497   7.378   7.554  1.00  0.00     0.074 A 
ATOM     48  C   UNL     1      -2.897  12.066   3.525  1.00  0.00     0.029 A 
ATOM     49  N   UNL     1      -2.141  10.200   4.469  1.00  0.00    -0.354 N 
ATOM     50  N   UNL     1      -1.757   8.293   6.651  1.00  0.00    -0.248 NA
ATOM     51  C   UNL     1      -2.011   7.703   8.894  1.00  0.00     0.031 C 
ATOM     52  C   UNL     1      -3.255  12.078   4.878  1.00  0.00     0.029 A 
ATOM     53  C   UNL     1      -2.809  10.902   5.460  1.00  0.00     0.049 A 
ATOM     54  H   UNL     1      -1.706   9.325   4.592  1.00  0.00     0.167 HD
ATOM     55  C   UNL     1      -2.490   9.279   7.303  1.00  0.00     0.074 A 
ATOM     56  C   UNL     1      -2.659   8.837   8.670  1.00  0.00     0.031 C 
ATOM     57  C   UNL     1      -2.977  10.447   6.816  1.00  0.00     0.037 A 
BRANCH  44  58
ATOM     58  C   UNL     1      -1.676  11.358   0.842  1.00  0.00     0.064 A 
ATOM     59  C   UNL     1      -2.455  10.962  -0.258  1.00  0.00     0.173 A 
ATOM     60  C   UNL     1      -1.020  12.594   0.771  1.00  0.00     0.173 A 
ATOM     61  F   UNL     1      -3.089   9.780  -0.247  1.00  0.00    -0.203 F 
ATOM     62  C   UNL     1      -2.543  11.758  -1.397  1.00  0.00     0.198 A 
ATOM     63  C   UNL     1      -1.135  13.401  -0.357  1.00  0.00     0.198 A 
ATOM     64  F   UNL     1      -0.265  13.019   1.795  1.00  0.00    -0.203 F 
ATOM     65  F   UNL     1      -3.244  11.332  -2.457  1.00  0.00    -0.200 F 
ATOM     66  C   UNL     1      -1.887  12.978  -1.444  1.00  0.00     0.200 A 
ATOM     67  F   UNL     1      -0.509  14.585  -0.399  1.00  0.00    -0.200 F 
ATOM     68  F   UNL     1      -1.971  13.743  -2.541  1.00  0.00    -0.200 F 
ENDBRANCH  44  58
BRANCH  45  69
ATOM     69  C   UNL     1      -0.632   5.150   8.577  1.00  0.00     0.064 A 
ATOM     70  C   UNL     1      -1.745   4.574   9.208  1.00  0.00     0.173 A 
ATOM     71  C   UNL     1       0.629   4.909   9.143  1.00  0.00     0.173 A 
ATOM     72  F   UNL     1      -2.977   4.794   8.724  1.00  0.00    -0.203 F 
ATOM     73  C   UNL     1      -1.607   3.832  10.380  1.00  0.00     0.198 A 
ATOM     74  C   UNL     1       0.769   4.138  10.295  1.00  0.00     0.198 A 
ATOM     75  F   UNL     1       1.728   5.436   8.583  1.00  0.00    -0.203 F 
ATOM     76  F   UNL     1      -2.696   3.360  11.004  1.00  0.00    -0.200 F 
ATOM     77  C   UNL     1      -0.350   3.614  10.922  1.00  0.00     0.200 A 
ATOM     78  F   UNL     1       1.988   3.923  10.810  1.00  0.00    -0.200 F 
ATOM     79  F   UNL     1      -0.219   2.914  12.058  1.00  0.00    -0.200 F 
ENDBRANCH  45  69
BRANCH  57  80
ATOM     80  C   UNL     1      -3.766  11.316   7.757  1.00  0.00     0.064 A 
ATOM     81  C   UNL     1      -3.164  11.966   8.845  1.00  0.00     0.173 A 
ATOM     82  C   UNL     1      -5.140  11.520   7.553  1.00  0.00     0.173 A 
ATOM     83  F   UNL     1      -1.856  11.798   9.093  1.00  0.00    -0.203 F 
ATOM     84  C   UNL     1      -3.914  12.754   9.715  1.00  0.00     0.198 A 
ATOM     85  C   UNL     1      -5.879  12.339   8.403  1.00  0.00     0.198 A 
ATOM     86  F   UNL     1      -5.766  10.933   6.522  1.00  0.00    -0.203 F 
ATOM     87  F   UNL     1      -3.328  13.312  10.784  1.00  0.00    -0.200 F 
ATOM     88  C   UNL     1      -5.268  12.945   9.490  1.00  0.00     0.200 A 
ATOM     89  F   UNL     1      -7.184  12.539   8.171  1.00  0.00    -0.200 F 
ATOM     90  F   UNL     1      -5.987  13.707  10.326  1.00  0.00    -0.200 F 
ENDBRANCH  57  80
ENDBRANCH  31  32
ENDBRANCH  24  26
ENDBRANCH  23  24
ENDBRANCH   1  23
TORSDOF 12
