REMARK SMILES C[C@H](CCc1ccco1)NC(=O)c1cccn1CC(=O)OCCOC(=O)c1ccc(-c2c3nc(c(-c4c(F)c(F)c(F)c(F)c4F)c4ccc([nH]4)c(-c4c(F)c(F)c(F)c(F)c4F)c4nc(c(-c5c(F)c(F)c(F)c(F)c5F)c5ccc2[nH]5)C=C4)C=C3)cc1
REMARK SMILES IDX 19 1 20 2 18 3 17 4 13 5 14 6 15 7 16 8 11 9 10 10 12 12
REMARK SMILES IDX 2 13 1 14 3 15 4 16 5 17 6 18 9 19 7 20 8 21 21 22 22 23
REMARK SMILES IDX 23 24 24 25 25 26 26 27 27 28 28 29 89 30 29 31 88 32 30 33
REMARK SMILES IDX 31 34 32 35 82 36 33 37 87 38 81 39 83 40 34 41 86 42 80 43
REMARK SMILES IDX 79 44 35 46 67 47 47 48 66 49 48 50 51 51 65 52 84 53 49 54
REMARK SMILES IDX 50 55 64 57 85 58 52 59 36 60 37 61 45 62 38 63 39 64 43 65
REMARK SMILES IDX 46 66 40 67 41 68 44 69 42 70 68 71 69 72 77 73 70 74 71 75
REMARK SMILES IDX 75 76 78 77 72 78 73 79 76 80 74 81 53 82 54 83 62 84 55 85
REMARK SMILES IDX 56 86 60 87 63 88 57 89 58 90 61 91 59 92
REMARK H PARENT 10 11 83 45 51 56
REMARK Flexibility Score: inf
ROOT
ATOM      1  C   UNL     1      -2.243   2.406   4.545  1.00  0.00     0.326 C 
ATOM      2  O   UNL     1      -2.906   2.713   5.525  1.00  0.00    -0.250 OA
ENDROOT
BRANCH   1   3
ATOM      3  C   UNL     1      -2.633   2.831   3.151  1.00  0.00     0.244 C 
BRANCH   3   4
ATOM      4  N   UNL     1      -1.614   3.458   2.313  1.00  0.00    -0.332 N 
ATOM      5  C   UNL     1      -1.330   3.150   0.992  1.00  0.00     0.107 A 
ATOM      6  C   UNL     1      -0.552   4.195   0.502  1.00  0.00     0.033 A 
ATOM      7  C   UNL     1      -0.278   5.089   1.550  1.00  0.00     0.020 A 
ATOM      8  C   UNL     1      -0.956   4.616   2.642  1.00  0.00     0.087 A 
BRANCH   5   9
ATOM      9  C   UNL     1      -1.837   2.002   0.272  1.00  0.00     0.268 C 
ATOM     10  N   UNL     1      -0.986   1.299  -0.547  1.00  0.00    -0.348 N 
ATOM     11  H   UNL     1      -1.415   0.636  -1.134  1.00  0.00     0.164 HD
ATOM     12  O   UNL     1      -3.000   1.614   0.359  1.00  0.00    -0.268 OA
BRANCH  10  13
ATOM     13  C   UNL     1       0.467   1.399  -0.669  1.00  0.00     0.079 C 
ATOM     14  C   UNL     1       0.837   1.609  -2.133  1.00  0.00     0.031 C 
BRANCH  13  15
ATOM     15  C   UNL     1       1.141   0.157  -0.060  1.00  0.00     0.032 C 
BRANCH  15  16
ATOM     16  C   UNL     1       2.607   0.396   0.331  1.00  0.00     0.077 C 
BRANCH  16  17
ATOM     17  C   UNL     1       2.726   1.389   1.429  1.00  0.00     0.103 A 
ATOM     18  C   UNL     1       3.146   2.703   1.488  1.00  0.00     0.045 A 
ATOM     19  O   UNL     1       2.281   0.982   2.648  1.00  0.00    -0.469 OA
ATOM     20  C   UNL     1       2.896   3.137   2.811  1.00  0.00     0.042 A 
ATOM     21  C   UNL     1       2.384   2.049   3.474  1.00  0.00     0.195 A 
ENDBRANCH  16  17
ENDBRANCH  15  16
ENDBRANCH  13  15
ENDBRANCH  10  13
ENDBRANCH   5   9
ENDBRANCH   3   4
ENDBRANCH   1   3
BRANCH   1  22
ATOM     22  O   UNL     1      -1.189   1.542   4.581  1.00  0.00    -0.461 OA
BRANCH  22  23
ATOM     23  C   UNL     1      -0.986   0.864   5.839  1.00  0.00     0.274 C 
BRANCH  23  24
ATOM     24  C   UNL     1      -0.075   1.569   6.858  1.00  0.00     0.275 C 
BRANCH  24  25
ATOM     25  O   UNL     1      -0.457   2.906   7.214  1.00  0.00    -0.458 OA
BRANCH  25  26
ATOM     26  C   UNL     1      -0.011   3.809   6.320  1.00  0.00     0.338 C 
ATOM     27  O   UNL     1       0.528   3.580   5.250  1.00  0.00    -0.246 OA
BRANCH  26  28
ATOM     28  C   UNL     1      -0.105   5.192   6.761  1.00  0.00     0.060 A 
ATOM     29  C   UNL     1      -0.875   6.058   5.980  1.00  0.00     0.016 A 
ATOM     30  C   UNL     1       0.896   5.664   7.610  1.00  0.00     0.016 A 
ATOM     31  C   UNL     1      -0.550   7.402   5.933  1.00  0.00     0.010 A 
ATOM     32  C   UNL     1       1.173   7.025   7.624  1.00  0.00     0.010 A 
ATOM     33  C   UNL     1       0.470   7.885   6.762  1.00  0.00    -0.014 A 
BRANCH  33  34
ATOM     34  C   UNL     1       0.575   9.348   6.939  1.00  0.00     0.031 A 
ATOM     35  C   UNL     1      -0.502   9.868   7.900  1.00  0.00     0.074 A 
ATOM     36  C   UNL     1       1.583  10.004   6.295  1.00  0.00     0.049 A 
ATOM     37  N   UNL     1      -0.813  11.085   8.226  1.00  0.00    -0.248 NA
ATOM     38  C   UNL     1      -1.378   8.881   8.600  1.00  0.00     0.031 C 
ATOM     39  C   UNL     1       2.541   9.371   5.369  1.00  0.00     0.029 A 
ATOM     40  N   UNL     1       2.010  11.319   6.287  1.00  0.00    -0.354 N 
ATOM     41  C   UNL     1      -1.709  10.994   9.309  1.00  0.00     0.074 A 
ATOM     42  C   UNL     1      -2.123   9.632   9.405  1.00  0.00     0.031 C 
ATOM     43  C   UNL     1       3.393  10.288   4.860  1.00  0.00     0.029 A 
ATOM     44  C   UNL     1       3.103  11.594   5.425  1.00  0.00     0.049 A 
ATOM     45  H   UNL     1       1.586  12.015   6.839  1.00  0.00     0.167 HD
ATOM     46  C   UNL     1      -1.929  12.009  10.186  1.00  0.00     0.037 A 
ATOM     47  C   UNL     1       3.743  12.781   5.189  1.00  0.00     0.037 A 
ATOM     48  C   UNL     1      -1.284  13.200   9.762  1.00  0.00     0.049 A 
ATOM     49  C   UNL     1       3.275  13.696   6.238  1.00  0.00     0.074 A 
ATOM     50  C   UNL     1      -1.556  14.092   8.761  1.00  0.00     0.029 A 
ATOM     51  N   UNL     1      -0.020  13.436  10.241  1.00  0.00    -0.354 N 
ATOM     52  N   UNL     1       3.652  13.614   7.478  1.00  0.00    -0.248 NA
ATOM     53  C   UNL     1       2.351  14.784   5.904  1.00  0.00     0.031 C 
ATOM     54  C   UNL     1      -0.301  14.630   8.416  1.00  0.00     0.029 A 
ATOM     55  C   UNL     1       0.678  14.102   9.264  1.00  0.00     0.049 A 
ATOM     56  H   UNL     1       0.324  13.175  11.126  1.00  0.00     0.167 HD
ATOM     57  C   UNL     1       2.741  14.418   8.118  1.00  0.00     0.074 A 
ATOM     58  C   UNL     1       2.213  15.316   7.117  1.00  0.00     0.031 C 
ATOM     59  C   UNL     1       2.112  13.930   9.217  1.00  0.00     0.037 A 
BRANCH  46  60
ATOM     60  C   UNL     1      -2.515  11.978  11.565  1.00  0.00     0.064 A 
ATOM     61  C   UNL     1      -3.027  13.181  12.102  1.00  0.00     0.173 A 
ATOM     62  C   UNL     1      -2.277  10.938  12.476  1.00  0.00     0.173 A 
ATOM     63  F   UNL     1      -3.307  14.223  11.303  1.00  0.00    -0.203 F 
ATOM     64  C   UNL     1      -3.180  13.368  13.473  1.00  0.00     0.198 A 
ATOM     65  C   UNL     1      -2.479  11.114  13.847  1.00  0.00     0.198 A 
ATOM     66  F   UNL     1      -1.748   9.773  12.079  1.00  0.00    -0.203 F 
ATOM     67  F   UNL     1      -3.541  14.569  13.946  1.00  0.00    -0.200 F 
ATOM     68  C   UNL     1      -2.892  12.337  14.347  1.00  0.00     0.200 A 
ATOM     69  F   UNL     1      -2.197  10.111  14.691  1.00  0.00    -0.200 F 
ATOM     70  F   UNL     1      -2.975  12.533  15.669  1.00  0.00    -0.200 F 
ENDBRANCH  46  60
BRANCH  47  71
ATOM     71  C   UNL     1       4.781  13.363   4.251  1.00  0.00     0.064 A 
ATOM     72  C   UNL     1       5.306  12.730   3.118  1.00  0.00     0.173 A 
ATOM     73  C   UNL     1       5.200  14.720   4.406  1.00  0.00     0.173 A 
ATOM     74  F   UNL     1       5.040  11.448   2.854  1.00  0.00    -0.203 F 
ATOM     75  C   UNL     1       6.114  13.413   2.188  1.00  0.00     0.198 A 
ATOM     76  C   UNL     1       5.953  15.411   3.456  1.00  0.00     0.198 A 
ATOM     77  F   UNL     1       4.871  15.443   5.485  1.00  0.00    -0.203 F 
ATOM     78  F   UNL     1       6.588  12.759   1.118  1.00  0.00    -0.200 F 
ATOM     79  C   UNL     1       6.405  14.758   2.337  1.00  0.00     0.200 A 
ATOM     80  F   UNL     1       6.205  16.717   3.629  1.00  0.00    -0.200 F 
ATOM     81  F   UNL     1       7.109  15.419   1.409  1.00  0.00    -0.200 F 
ENDBRANCH  47  71
BRANCH  59  82
ATOM     82  C   UNL     1       2.932  12.865   9.930  1.00  0.00     0.064 A 
ATOM     83  C   UNL     1       4.194  13.188  10.457  1.00  0.00     0.173 A 
ATOM     84  C   UNL     1       2.594  11.502   9.937  1.00  0.00     0.173 A 
ATOM     85  F   UNL     1       4.590  14.470  10.506  1.00  0.00    -0.203 F 
ATOM     86  C   UNL     1       5.073  12.203  10.917  1.00  0.00     0.198 A 
ATOM     87  C   UNL     1       3.467  10.515  10.399  1.00  0.00     0.198 A 
ATOM     88  F   UNL     1       1.406  11.095   9.498  1.00  0.00    -0.203 F 
ATOM     89  F   UNL     1       6.277  12.550  11.392  1.00  0.00    -0.200 F 
ATOM     90  C   UNL     1       4.713  10.866  10.879  1.00  0.00     0.200 A 
ATOM     91  F   UNL     1       3.094   9.226  10.374  1.00  0.00    -0.200 F 
ATOM     92  F   UNL     1       5.557   9.920  11.316  1.00  0.00    -0.200 F 
ENDBRANCH  59  82
ENDBRANCH  33  34
ENDBRANCH  26  28
ENDBRANCH  25  26
ENDBRANCH  24  25
ENDBRANCH  23  24
ENDBRANCH  22  23
ENDBRANCH   1  22
TORSDOF 17
