REMARK SMILES C[C@H](C(=O)OCCOC(=O)c1ccc(-c2c3nc(c(-c4c(F)c(F)c(F)c(F)c4F)c4ccc([nH]4)c(-c4c(F)c(F)c(F)c(F)c4F)c4nc(c(-c5c(F)c(F)c(F)c(F)c5F)c5ccc2[nH]5)C=C4)C=C3)cc1)[C@H](C)[NH+]1CCN(S(C)(=O)=O)CC1
REMARK SMILES IDX 6 1 5 2 3 3 4 4 2 5 1 6 74 7 75 8 76 9 77 10 85 11 78 13
REMARK SMILES IDX 84 14 79 15 80 16 81 17 82 18 83 19 7 20 8 21 9 22 10 23
REMARK SMILES IDX 11 24 12 25 73 26 13 27 72 28 14 29 15 30 16 31 66 32 17 33
REMARK SMILES IDX 71 34 65 35 67 36 18 37 70 38 64 39 63 40 19 42 51 43 31 44
REMARK SMILES IDX 50 45 32 46 35 47 49 48 68 49 33 50 34 51 48 53 69 54 36 55
REMARK SMILES IDX 20 56 21 57 29 58 22 59 23 60 27 61 30 62 24 63 25 64 28 65
REMARK SMILES IDX 26 66 52 67 53 68 61 69 54 70 55 71 59 72 62 73 56 74 57 75
REMARK SMILES IDX 60 76 58 77 37 78 38 79 46 80 39 81 40 82 44 83 47 84 41 85
REMARK SMILES IDX 42 86 45 87 43 88
REMARK H PARENT 76 12 67 41 35 52
REMARK Flexibility Score: inf
ROOT
ATOM      1  C   UNL     1       1.978  -1.591  -1.744  1.00  0.00     0.274 C 
ENDROOT
BRANCH   1   2
ATOM      2  O   UNL     1       0.976  -1.053  -0.850  1.00  0.00    -0.462 OA
BRANCH   2   3
ATOM      3  C   UNL     1      -0.299  -1.465  -1.029  1.00  0.00     0.314 C 
ATOM      4  O   UNL     1      -0.622  -2.229  -1.936  1.00  0.00    -0.252 OA
BRANCH   3   5
ATOM      5  C   UNL     1      -1.344  -0.785  -0.124  1.00  0.00     0.154 C 
ATOM      6  C   UNL     1      -2.632  -1.615  -0.158  1.00  0.00     0.026 C 
BRANCH   5   7
ATOM      7  C   UNL     1      -0.979  -0.137   1.280  1.00  0.00     0.195 C 
ATOM      8  C   UNL     1       0.359   0.628   1.190  1.00  0.00     0.076 C 
BRANCH   7   9
ATOM      9  N   UNL     1      -1.252  -0.687   2.632  1.00  0.00    -0.330 N 
ATOM     10  C   UNL     1      -2.135  -1.817   2.893  1.00  0.00     0.279 C 
ATOM     11  C   UNL     1      -0.238  -0.617   3.696  1.00  0.00     0.279 C 
ATOM     12  H   UNL     1      -1.863   0.130   2.652  1.00  0.00     0.348 HD
ATOM     13  C   UNL     1      -1.387  -3.157   2.967  1.00  0.00     0.163 C 
ATOM     14  C   UNL     1       0.585  -1.903   3.863  1.00  0.00     0.163 C 
ATOM     15  N   UNL     1      -0.273  -3.116   3.947  1.00  0.00    -0.191 NA
BRANCH  15  16
ATOM     16  S   UNL     1      -0.393  -3.961   5.384  1.00  0.00     0.211 S 
ATOM     17  C   UNL     1      -1.710  -3.109   6.224  1.00  0.00     0.176 C 
ATOM     18  O   UNL     1      -0.874  -5.294   5.081  1.00  0.00    -0.212 OA
ATOM     19  O   UNL     1       0.821  -3.769   6.144  1.00  0.00    -0.212 OA
ENDBRANCH  15  16
ENDBRANCH   7   9
ENDBRANCH   5   7
ENDBRANCH   3   5
ENDBRANCH   2   3
ENDBRANCH   1   2
BRANCH   1  20
ATOM     20  C   UNL     1       2.781  -2.713  -1.081  1.00  0.00     0.275 C 
BRANCH  20  21
ATOM     21  O   UNL     1       2.003  -3.923  -0.962  1.00  0.00    -0.458 OA
BRANCH  21  22
ATOM     22  C   UNL     1       1.303  -3.990   0.190  1.00  0.00     0.338 C 
ATOM     23  O   UNL     1       1.308  -3.155   1.078  1.00  0.00    -0.246 OA
BRANCH  22  24
ATOM     24  C   UNL     1       0.400  -5.144   0.248  1.00  0.00     0.060 A 
ATOM     25  C   UNL     1      -0.911  -4.966  -0.185  1.00  0.00     0.016 A 
ATOM     26  C   UNL     1       0.740  -6.273   0.990  1.00  0.00     0.016 A 
ATOM     27  C   UNL     1      -1.901  -5.867   0.193  1.00  0.00     0.010 A 
ATOM     28  C   UNL     1      -0.235  -7.248   1.250  1.00  0.00     0.010 A 
ATOM     29  C   UNL     1      -1.575  -7.053   0.866  1.00  0.00    -0.014 A 
BRANCH  29  30
ATOM     30  C   UNL     1      -2.627  -8.087   1.106  1.00  0.00     0.031 A 
ATOM     31  C   UNL     1      -2.895  -8.644   2.481  1.00  0.00     0.074 A 
ATOM     32  C   UNL     1      -3.353  -8.543   0.062  1.00  0.00     0.049 A 
ATOM     33  N   UNL     1      -3.653  -9.654   2.837  1.00  0.00    -0.248 NA
ATOM     34  C   UNL     1      -2.218  -7.987   3.605  1.00  0.00     0.031 C 
ATOM     35  C   UNL     1      -3.227  -8.083  -1.323  1.00  0.00     0.029 A 
ATOM     36  N   UNL     1      -4.341  -9.496  -0.001  1.00  0.00    -0.354 N 
ATOM     37  C   UNL     1      -3.510  -9.775   4.215  1.00  0.00     0.074 A 
ATOM     38  C   UNL     1      -2.587  -8.741   4.631  1.00  0.00     0.031 C 
ATOM     39  C   UNL     1      -4.126  -8.715  -2.086  1.00  0.00     0.029 A 
ATOM     40  C   UNL     1      -4.805  -9.715  -1.276  1.00  0.00     0.049 A 
ATOM     41  H   UNL     1      -4.682  -9.975   0.788  1.00  0.00     0.167 HD
ATOM     42  C   UNL     1      -4.090 -10.672   5.053  1.00  0.00     0.037 A 
ATOM     43  C   UNL     1      -5.632 -10.657  -1.767  1.00  0.00     0.037 A 
ATOM     44  C   UNL     1      -5.019 -11.693   4.633  1.00  0.00     0.049 A 
ATOM     45  C   UNL     1      -6.204 -11.682  -0.834  1.00  0.00     0.074 A 
ATOM     46  C   UNL     1      -5.665 -12.644   5.404  1.00  0.00     0.029 A 
ATOM     47  N   UNL     1      -5.431 -11.898   3.324  1.00  0.00    -0.354 N 
ATOM     48  N   UNL     1      -6.040 -11.805   0.460  1.00  0.00    -0.248 NA
ATOM     49  C   UNL     1      -7.063 -12.710  -1.433  1.00  0.00     0.031 C 
ATOM     50  C   UNL     1      -6.421 -13.460   4.556  1.00  0.00     0.029 A 
ATOM     51  C   UNL     1      -6.303 -12.976   3.264  1.00  0.00     0.049 A 
ATOM     52  H   UNL     1      -5.147 -11.358   2.551  1.00  0.00     0.167 HD
ATOM     53  C   UNL     1      -6.791 -12.909   0.834  1.00  0.00     0.074 A 
ATOM     54  C   UNL     1      -7.428 -13.407  -0.367  1.00  0.00     0.031 C 
ATOM     55  C   UNL     1      -6.935 -13.462   2.063  1.00  0.00     0.037 A 
BRANCH  42  56
ATOM     56  C   UNL     1      -3.709 -10.623   6.508  1.00  0.00     0.064 A 
ATOM     57  C   UNL     1      -4.112  -9.576   7.350  1.00  0.00     0.173 A 
ATOM     58  C   UNL     1      -2.972 -11.673   7.082  1.00  0.00     0.173 A 
ATOM     59  F   UNL     1      -4.819  -8.547   6.858  1.00  0.00    -0.203 F 
ATOM     60  C   UNL     1      -3.768  -9.567   8.701  1.00  0.00     0.198 A 
ATOM     61  C   UNL     1      -2.659 -11.677   8.439  1.00  0.00     0.198 A 
ATOM     62  F   UNL     1      -2.574 -12.710   6.330  1.00  0.00    -0.203 F 
ATOM     63  F   UNL     1      -4.130  -8.535   9.476  1.00  0.00    -0.200 F 
ATOM     64  C   UNL     1      -3.049 -10.620   9.246  1.00  0.00     0.200 A 
ATOM     65  F   UNL     1      -1.985 -12.709   8.967  1.00  0.00    -0.200 F 
ATOM     66  F   UNL     1      -2.733 -10.617  10.548  1.00  0.00    -0.200 F 
ENDBRANCH  42  56
BRANCH  43  67
ATOM     67  C   UNL     1      -5.912 -10.700  -3.227  1.00  0.00     0.064 A 
ATOM     68  C   UNL     1      -7.193 -10.437  -3.726  1.00  0.00     0.173 A 
ATOM     69  C   UNL     1      -4.897 -10.991  -4.154  1.00  0.00     0.173 A 
ATOM     70  F   UNL     1      -8.201 -10.176  -2.880  1.00  0.00    -0.203 F 
ATOM     71  C   UNL     1      -7.454 -10.476  -5.094  1.00  0.00     0.198 A 
ATOM     72  C   UNL     1      -5.150 -10.989  -5.523  1.00  0.00     0.198 A 
ATOM     73  F   UNL     1      -3.651 -11.246  -3.730  1.00  0.00    -0.203 F 
ATOM     74  F   UNL     1      -8.699 -10.268  -5.542  1.00  0.00    -0.200 F 
ATOM     75  C   UNL     1      -6.430 -10.742  -5.992  1.00  0.00     0.200 A 
ATOM     76  F   UNL     1      -4.151 -11.222  -6.386  1.00  0.00    -0.200 F 
ATOM     77  F   UNL     1      -6.679 -10.764  -7.308  1.00  0.00    -0.200 F 
ENDBRANCH  43  67
BRANCH  55  78
ATOM     78  C   UNL     1      -7.857 -14.641   2.177  1.00  0.00     0.064 A 
ATOM     79  C   UNL     1      -7.530 -15.893   1.633  1.00  0.00     0.173 A 
ATOM     80  C   UNL     1      -9.080 -14.520   2.855  1.00  0.00     0.173 A 
ATOM     81  F   UNL     1      -6.383 -16.056   0.957  1.00  0.00    -0.203 F 
ATOM     82  C   UNL     1      -8.408 -16.969   1.736  1.00  0.00     0.198 A 
ATOM     83  C   UNL     1      -9.938 -15.607   2.987  1.00  0.00     0.198 A 
ATOM     84  F   UNL     1      -9.440 -13.346   3.397  1.00  0.00    -0.203 F 
ATOM     85  F   UNL     1      -8.102 -18.138   1.155  1.00  0.00    -0.200 F 
ATOM     86  C   UNL     1      -9.607 -16.828   2.419  1.00  0.00     0.200 A 
ATOM     87  F   UNL     1     -11.090 -15.472   3.659  1.00  0.00    -0.200 F 
ATOM     88  F   UNL     1     -10.448 -17.866   2.521  1.00  0.00    -0.200 F 
ENDBRANCH  55  78
ENDBRANCH  29  30
ENDBRANCH  22  24
ENDBRANCH  21  22
ENDBRANCH  20  21
ENDBRANCH   1  20
TORSDOF 14
