REMARK SMILES O=C(/C=C/c1ccc(O)cc1)NC[C@@H]1CC[C@H](C(=O)OCCOC(=O)c2ccc(-c3c4nc(c(-c5c(F)c(F)c(F)c(F)c5F)c5ccc([nH]5)c(-c5c(F)c(F)c(F)c(F)c5F)c5nc(c(-c6c(F)c(F)c(F)c(F)c6F)c6ccc3[nH]6)C=C5)C=C4)cc2)O1
REMARK SMILES IDX 20 1 18 2 19 3 17 4 14 5 15 6 89 7 16 8 13 9 12 10 1 11 2 12
REMARK SMILES IDX 3 14 4 15 5 16 6 17 11 18 7 19 10 20 8 21 9 22 21 24 22 25
REMARK SMILES IDX 23 26 24 27 25 28 26 29 27 30 88 31 28 32 87 33 29 34 30 35
REMARK SMILES IDX 31 36 81 37 32 38 86 39 80 40 82 41 33 42 85 43 79 44 78 45
REMARK SMILES IDX 34 47 66 48 46 49 65 50 47 51 50 52 64 53 83 54 48 55 49 56
REMARK SMILES IDX 63 58 84 59 51 60 35 61 36 62 44 63 37 64 38 65 42 66 45 67
REMARK SMILES IDX 39 68 40 69 43 70 41 71 67 72 68 73 76 74 69 75 70 76 74 77
REMARK SMILES IDX 77 78 71 79 72 80 75 81 73 82 52 83 53 84 61 85 54 86 55 87
REMARK SMILES IDX 59 88 62 89 56 90 57 91 60 92 58 93
REMARK H PARENT 12 13 9 23 82 46 50 57
REMARK Flexibility Score: inf
ROOT
ATOM      1  O   UNL     1       3.823  -2.130   1.813  1.00  0.00    -0.460 OA
ENDROOT
BRANCH   1   2
ATOM      2  C   UNL     1       2.797  -2.280   2.698  1.00  0.00     0.335 C 
ATOM      3  O   UNL     1       2.045  -3.250   2.727  1.00  0.00    -0.249 OA
BRANCH   2   4
ATOM      4  C   UNL     1       2.667  -1.110   3.679  1.00  0.00     0.228 C 
ATOM      5  C   UNL     1       2.663   1.156   3.115  1.00  0.00     0.138 C 
ATOM      6  C   UNL     1       4.109   0.758   3.366  1.00  0.00     0.037 C 
ATOM      7  O   UNL     1       1.891  -0.051   3.119  1.00  0.00    -0.361 OA
ATOM      8  C   UNL     1       3.970  -0.505   4.179  1.00  0.00     0.047 C 
BRANCH   5   9
ATOM      9  C   UNL     1       2.416   1.947   1.822  1.00  0.00     0.148 C 
BRANCH   9  10
ATOM     10  N   UNL     1       3.014   1.335   0.645  1.00  0.00    -0.350 N 
ATOM     11  O   UNL     1       1.142   0.201  -0.057  1.00  0.00    -0.270 OA
ATOM     12  C   UNL     1       2.332   0.468  -0.165  1.00  0.00     0.244 C 
ATOM     13  H   UNL     1       3.948   1.554   0.422  1.00  0.00     0.163 HD
BRANCH  12  14
ATOM     14  C   UNL     1       3.111  -0.135  -1.282  1.00  0.00     0.072 C 
ATOM     15  C   UNL     1       4.449  -0.219  -1.354  1.00  0.00     0.014 C 
BRANCH  15  16
ATOM     16  C   UNL     1       5.164  -0.896  -2.447  1.00  0.00    -0.025 A 
ATOM     17  C   UNL     1       4.751  -0.806  -3.783  1.00  0.00     0.012 A 
ATOM     18  C   UNL     1       6.330  -1.615  -2.146  1.00  0.00     0.012 A 
ATOM     19  C   UNL     1       5.475  -1.441  -4.797  1.00  0.00     0.047 A 
ATOM     20  C   UNL     1       7.051  -2.254  -3.156  1.00  0.00     0.047 A 
ATOM     21  C   UNL     1       6.620  -2.161  -4.473  1.00  0.00     0.115 A 
BRANCH  21  22
ATOM     22  O   UNL     1       7.359  -2.792  -5.428  1.00  0.00    -0.508 OA
ATOM     23  H   UNL     1       7.097  -2.750  -6.327  1.00  0.00     0.293 HD
ENDBRANCH  21  22
ENDBRANCH  15  16
ENDBRANCH  12  14
ENDBRANCH   9  10
ENDBRANCH   5   9
ENDBRANCH   2   4
ENDBRANCH   1   2
BRANCH   1  24
ATOM     24  C   UNL     1       3.964  -3.189   0.844  1.00  0.00     0.274 C 
BRANCH  24  25
ATOM     25  C   UNL     1       5.025  -4.218   1.244  1.00  0.00     0.275 C 
BRANCH  25  26
ATOM     26  O   UNL     1       4.596  -5.016   2.360  1.00  0.00    -0.458 OA
BRANCH  26  27
ATOM     27  C   UNL     1       4.939  -4.521   3.570  1.00  0.00     0.338 C 
ATOM     28  O   UNL     1       5.633  -3.545   3.800  1.00  0.00    -0.246 OA
BRANCH  27  29
ATOM     29  C   UNL     1       4.219  -5.239   4.631  1.00  0.00     0.060 A 
ATOM     30  C   UNL     1       3.456  -4.475   5.518  1.00  0.00     0.016 A 
ATOM     31  C   UNL     1       4.362  -6.616   4.815  1.00  0.00     0.016 A 
ATOM     32  C   UNL     1       2.852  -5.075   6.614  1.00  0.00     0.010 A 
ATOM     33  C   UNL     1       3.761  -7.220   5.924  1.00  0.00     0.010 A 
ATOM     34  C   UNL     1       3.029  -6.445   6.841  1.00  0.00    -0.014 A 
BRANCH  34  35
ATOM     35  C   UNL     1       2.548  -7.015   8.119  1.00  0.00     0.031 A 
ATOM     36  C   UNL     1       3.530  -7.244   9.231  1.00  0.00     0.074 A 
ATOM     37  C   UNL     1       1.236  -7.241   8.305  1.00  0.00     0.049 A 
ATOM     38  N   UNL     1       3.328  -7.720  10.433  1.00  0.00    -0.248 NA
ATOM     39  C   UNL     1       4.929  -6.885   8.953  1.00  0.00     0.031 C 
ATOM     40  C   UNL     1       0.191  -7.003   7.311  1.00  0.00     0.029 A 
ATOM     41  N   UNL     1       0.560  -7.706   9.403  1.00  0.00    -0.354 N 
ATOM     42  C   UNL     1       4.573  -7.733  11.047  1.00  0.00     0.074 A 
ATOM     43  C   UNL     1       5.529  -7.235  10.081  1.00  0.00     0.031 C 
ATOM     44  C   UNL     1      -1.000  -7.315   7.849  1.00  0.00     0.029 A 
ATOM     45  C   UNL     1      -0.795  -7.802   9.211  1.00  0.00     0.049 A 
ATOM     46  H   UNL     1       1.003  -7.949  10.248  1.00  0.00     0.167 HD
ATOM     47  C   UNL     1       4.886  -8.120  12.306  1.00  0.00     0.037 A 
ATOM     48  C   UNL     1      -1.758  -8.244  10.042  1.00  0.00     0.037 A 
ATOM     49  C   UNL     1       3.928  -8.599  13.266  1.00  0.00     0.049 A 
ATOM     50  C   UNL     1      -1.378  -8.694  11.427  1.00  0.00     0.074 A 
ATOM     51  C   UNL     1       4.142  -9.028  14.563  1.00  0.00     0.029 A 
ATOM     52  N   UNL     1       2.565  -8.705  13.028  1.00  0.00    -0.354 N 
ATOM     53  N   UNL     1      -0.196  -8.718  11.995  1.00  0.00    -0.248 NA
ATOM     54  C   UNL     1      -2.467  -9.175  12.287  1.00  0.00     0.031 C 
ATOM     55  C   UNL     1       2.911  -9.423  15.101  1.00  0.00     0.029 A 
ATOM     56  C   UNL     1       1.926  -9.201  14.153  1.00  0.00     0.049 A 
ATOM     57  H   UNL     1       2.118  -8.464  12.185  1.00  0.00     0.167 HD
ATOM     58  C   UNL     1      -0.401  -9.194  13.282  1.00  0.00     0.074 A 
ATOM     59  C   UNL     1      -1.823  -9.431  13.418  1.00  0.00     0.031 C 
ATOM     60  C   UNL     1       0.507  -9.420  14.264  1.00  0.00     0.037 A 
BRANCH  47  61
ATOM     61  C   UNL     1       6.332  -8.070  12.700  1.00  0.00     0.064 A 
ATOM     62  C   UNL     1       6.988  -6.854  12.947  1.00  0.00     0.173 A 
ATOM     63  C   UNL     1       7.068  -9.255  12.844  1.00  0.00     0.173 A 
ATOM     64  F   UNL     1       6.333  -5.692  12.804  1.00  0.00    -0.203 F 
ATOM     65  C   UNL     1       8.335  -6.827  13.302  1.00  0.00     0.198 A 
ATOM     66  C   UNL     1       8.408  -9.225  13.223  1.00  0.00     0.198 A 
ATOM     67  F   UNL     1       6.488 -10.443  12.619  1.00  0.00    -0.203 F 
ATOM     68  F   UNL     1       8.954  -5.653  13.488  1.00  0.00    -0.200 F 
ATOM     69  C   UNL     1       9.041  -8.012  13.444  1.00  0.00     0.200 A 
ATOM     70  F   UNL     1       9.088 -10.371  13.367  1.00  0.00    -0.200 F 
ATOM     71  F   UNL     1      10.337  -7.984  13.786  1.00  0.00    -0.200 F 
ENDBRANCH  47  61
BRANCH  48  72
ATOM     72  C   UNL     1      -3.170  -8.280   9.585  1.00  0.00     0.064 A 
ATOM     73  C   UNL     1      -4.127  -7.408  10.121  1.00  0.00     0.173 A 
ATOM     74  C   UNL     1      -3.591  -9.193   8.607  1.00  0.00     0.173 A 
ATOM     75  F   UNL     1      -3.777  -6.536  11.078  1.00  0.00    -0.203 F 
ATOM     76  C   UNL     1      -5.456  -7.457   9.705  1.00  0.00     0.198 A 
ATOM     77  C   UNL     1      -4.915  -9.223   8.174  1.00  0.00     0.198 A 
ATOM     78  F   UNL     1      -2.714 -10.051   8.067  1.00  0.00    -0.203 F 
ATOM     79  F   UNL     1      -6.361  -6.642  10.264  1.00  0.00    -0.200 F 
ATOM     80  C   UNL     1      -5.848  -8.360   8.728  1.00  0.00     0.200 A 
ATOM     81  F   UNL     1      -5.287 -10.092   7.224  1.00  0.00    -0.200 F 
ATOM     82  F   UNL     1      -7.126  -8.405   8.328  1.00  0.00    -0.200 F 
ENDBRANCH  48  72
BRANCH  60  83
ATOM     83  C   UNL     1      -0.021  -9.918  15.577  1.00  0.00     0.064 A 
ATOM     84  C   UNL     1      -0.472 -11.236  15.734  1.00  0.00     0.173 A 
ATOM     85  C   UNL     1      -0.054  -9.071  16.695  1.00  0.00     0.173 A 
ATOM     86  F   UNL     1      -0.473 -12.079  14.690  1.00  0.00    -0.203 F 
ATOM     87  C   UNL     1      -0.965 -11.681  16.957  1.00  0.00     0.198 A 
ATOM     88  C   UNL     1      -0.523  -9.527  17.923  1.00  0.00     0.198 A 
ATOM     89  F   UNL     1       0.373  -7.804  16.596  1.00  0.00    -0.203 F 
ATOM     90  F   UNL     1      -1.436 -12.930  17.074  1.00  0.00    -0.200 F 
ATOM     91  C   UNL     1      -0.986 -10.828  18.051  1.00  0.00     0.200 A 
ATOM     92  F   UNL     1      -0.533  -8.706  18.982  1.00  0.00    -0.200 F 
ATOM     93  F   UNL     1      -1.461 -11.258  19.228  1.00  0.00    -0.200 F 
ENDBRANCH  60  83
ENDBRANCH  34  35
ENDBRANCH  27  29
ENDBRANCH  26  27
ENDBRANCH  25  26
ENDBRANCH  24  25
ENDBRANCH   1  24
TORSDOF 16
