REMARK SMILES CC1=C(C(=O)OCCOC(=O)c2ccc(-c3c4nc(c(-c5c(F)c(F)c(F)c(F)c5F)c5ccc([nH]5)c(-c5c(F)c(F)c(F)c(F)c5F)c5nc(c(-c6c(F)c(F)c(F)c(F)c6F)c6ccc3[nH]6)C=C5)C=C4)cc2)N2C(=O)[C@H](NC(=O)c3c(Cl)c(C(F)(F)F)nn3C)[C@@H]2SC1
REMARK SMILES IDX 7 1 6 2 4 3 5 4 3 5 1 6 2 7 95 8 75 9 94 10 76 11 93 12
REMARK SMILES IDX 77 13 78 14 79 15 80 16 81 18 82 19 83 20 91 21 84 22 85 23
REMARK SMILES IDX 90 24 92 25 86 26 87 27 88 28 89 29 8 30 9 31 10 32 11 33
REMARK SMILES IDX 12 34 13 35 74 36 14 37 73 38 15 39 16 40 17 41 67 42 18 43
REMARK SMILES IDX 72 44 66 45 68 46 19 47 71 48 65 49 64 50 20 52 52 53 32 54
REMARK SMILES IDX 51 55 33 56 36 57 50 58 69 59 34 60 35 61 49 63 70 64 37 65
REMARK SMILES IDX 21 66 22 67 30 68 23 69 24 70 28 71 31 72 25 73 26 74 29 75
REMARK SMILES IDX 27 76 53 77 54 78 62 79 55 80 56 81 60 82 63 83 57 84 58 85
REMARK SMILES IDX 61 86 59 87 38 88 39 89 47 90 40 91 41 92 45 93 48 94 42 95
REMARK SMILES IDX 43 96 46 97 44 98
REMARK H PARENT 79 17 68 51 36 62
REMARK Flexibility Score: inf
ROOT
ATOM      1  C   UNL     1       2.107  -1.766   2.928  1.00  0.00     0.275 C 
ENDROOT
BRANCH   1   2
ATOM      2  O   UNL     1       1.546  -1.579   1.611  1.00  0.00    -0.457 OA
BRANCH   2   3
ATOM      3  C   UNL     1       2.101  -2.274   0.581  1.00  0.00     0.355 C 
ATOM      4  O   UNL     1       3.022  -3.064   0.695  1.00  0.00    -0.244 OA
BRANCH   3   5
ATOM      5  C   UNL     1       1.320  -2.050  -0.699  1.00  0.00     0.131 C 
ATOM      6  C   UNL     1       0.921   0.397  -0.203  1.00  0.00     0.043 C 
ATOM      7  C   UNL     1       0.769  -0.854  -1.039  1.00  0.00    -0.032 C 
ATOM      8  C   UNL     1      -0.011  -0.600  -2.324  1.00  0.00     0.105 C 
ATOM      9  N   UNL     1       1.155  -3.115  -1.539  1.00  0.00    -0.289 N 
ATOM     10  S   UNL     1       0.183  -1.870  -3.616  1.00  0.00    -0.129 SA
ATOM     11  C   UNL     1       1.703  -4.321  -1.807  1.00  0.00     0.253 C 
ATOM     12  C   UNL     1       0.032  -3.226  -2.443  1.00  0.00     0.181 C 
ATOM     13  O   UNL     1       2.667  -4.922  -1.405  1.00  0.00    -0.272 OA
ATOM     14  C   UNL     1       0.570  -4.630  -2.837  1.00  0.00     0.206 C 
BRANCH  14  15
ATOM     15  N   UNL     1       1.026  -4.876  -4.223  1.00  0.00    -0.336 N 
ATOM     16  C   UNL     1       0.714  -5.921  -5.062  1.00  0.00     0.271 C 
ATOM     17  H   UNL     1       1.638  -4.200  -4.595  1.00  0.00     0.164 HD
ATOM     18  O   UNL     1       1.424  -6.084  -6.051  1.00  0.00    -0.267 OA
BRANCH  16  19
ATOM     19  C   UNL     1      -0.422  -6.761  -4.776  1.00  0.00     0.145 A 
ATOM     20  C   UNL     1      -0.509  -8.143  -4.838  1.00  0.00     0.104 A 
ATOM     21  N   UNL     1      -1.714  -6.351  -4.566  1.00  0.00    -0.261 N 
ATOM     22  Cl  UNL     1       0.738  -9.254  -5.155  1.00  0.00    -0.079 Cl
ATOM     23  C   UNL     1      -1.869  -8.474  -4.607  1.00  0.00     0.185 A 
ATOM     24  N   UNL     1      -2.584  -7.357  -4.364  1.00  0.00    -0.166 NA
ATOM     25  C   UNL     1      -2.249  -5.009  -4.612  1.00  0.00     0.174 C 
BRANCH  23  26
ATOM     26  C   UNL     1      -2.482  -9.848  -4.660  1.00  0.00     0.436 C 
ATOM     27  F   UNL     1      -2.344 -10.408  -5.894  1.00  0.00    -0.164 F 
ATOM     28  F   UNL     1      -1.906 -10.703  -3.776  1.00  0.00    -0.164 F 
ATOM     29  F   UNL     1      -3.816  -9.848  -4.392  1.00  0.00    -0.164 F 
ENDBRANCH  23  26
ENDBRANCH  16  19
ENDBRANCH  14  15
ENDBRANCH   3   5
ENDBRANCH   2   3
ENDBRANCH   1   2
BRANCH   1  30
ATOM     30  C   UNL     1       1.057  -2.331   3.891  1.00  0.00     0.275 C 
BRANCH  30  31
ATOM     31  O   UNL     1       0.755  -3.704   3.580  1.00  0.00    -0.458 OA
BRANCH  31  32
ATOM     32  C   UNL     1      -0.281  -3.882   2.732  1.00  0.00     0.338 C 
ATOM     33  O   UNL     1      -1.017  -3.033   2.256  1.00  0.00    -0.246 OA
BRANCH  32  34
ATOM     34  C   UNL     1      -0.280  -5.271   2.256  1.00  0.00     0.060 A 
ATOM     35  C   UNL     1       0.166  -5.467   0.954  1.00  0.00     0.016 A 
ATOM     36  C   UNL     1      -0.774  -6.338   2.997  1.00  0.00     0.016 A 
ATOM     37  C   UNL     1       0.086  -6.714   0.351  1.00  0.00     0.010 A 
ATOM     38  C   UNL     1      -0.826  -7.607   2.403  1.00  0.00     0.010 A 
ATOM     39  C   UNL     1      -0.416  -7.801   1.067  1.00  0.00    -0.014 A 
BRANCH  39  40
ATOM     40  C   UNL     1      -0.576  -9.114   0.392  1.00  0.00     0.031 A 
ATOM     41  C   UNL     1      -1.954  -9.672   0.187  1.00  0.00     0.074 A 
ATOM     42  C   UNL     1       0.494  -9.788  -0.073  1.00  0.00     0.049 A 
ATOM     43  N   UNL     1      -2.321 -10.871  -0.185  1.00  0.00    -0.248 NA
ATOM     44  C   UNL     1      -3.073  -8.750   0.436  1.00  0.00     0.031 C 
ATOM     45  C   UNL     1       1.876  -9.309  -0.050  1.00  0.00     0.029 A 
ATOM     46  N   UNL     1       0.582 -11.032  -0.649  1.00  0.00    -0.354 N 
ATOM     47  C   UNL     1      -3.709 -10.863  -0.170  1.00  0.00     0.074 A 
ATOM     48  C   UNL     1      -4.120  -9.540   0.251  1.00  0.00     0.031 C 
ATOM     49  C   UNL     1       2.675 -10.251  -0.576  1.00  0.00     0.029 A 
ATOM     50  C   UNL     1       1.875 -11.430  -0.891  1.00  0.00     0.049 A 
ATOM     51  H   UNL     1      -0.203 -11.584  -0.867  1.00  0.00     0.167 HD
ATOM     52  C   UNL     1      -4.558 -11.874  -0.471  1.00  0.00     0.037 A 
ATOM     53  C   UNL     1       2.365 -12.628  -1.261  1.00  0.00     0.037 A 
ATOM     54  C   UNL     1      -4.133 -13.179  -0.908  1.00  0.00     0.049 A 
ATOM     55  C   UNL     1       1.410 -13.772  -1.481  1.00  0.00     0.074 A 
ATOM     56  C   UNL     1      -4.910 -14.282  -1.217  1.00  0.00     0.029 A 
ATOM     57  N   UNL     1      -2.811 -13.554  -1.103  1.00  0.00    -0.354 N 
ATOM     58  N   UNL     1       0.102 -13.787  -1.398  1.00  0.00    -0.248 NA
ATOM     59  C   UNL     1       2.001 -15.071  -1.833  1.00  0.00     0.031 C 
ATOM     60  C   UNL     1      -4.056 -15.343  -1.532  1.00  0.00     0.029 A 
ATOM     61  C   UNL     1      -2.750 -14.881  -1.496  1.00  0.00     0.049 A 
ATOM     62  H   UNL     1      -2.032 -12.964  -0.981  1.00  0.00     0.167 HD
ATOM     63  C   UNL     1      -0.288 -15.078  -1.731  1.00  0.00     0.074 A 
ATOM     64  C   UNL     1       0.922 -15.819  -2.014  1.00  0.00     0.031 C 
ATOM     65  C   UNL     1      -1.538 -15.599  -1.801  1.00  0.00     0.037 A 
BRANCH  52  66
ATOM     66  C   UNL     1      -6.027 -11.633  -0.271  1.00  0.00     0.064 A 
ATOM     67  C   UNL     1      -6.762 -10.762  -1.090  1.00  0.00     0.173 A 
ATOM     68  C   UNL     1      -6.716 -12.305   0.752  1.00  0.00     0.173 A 
ATOM     69  F   UNL     1      -6.151 -10.078  -2.068  1.00  0.00    -0.203 F 
ATOM     70  C   UNL     1      -8.122 -10.552  -0.873  1.00  0.00     0.198 A 
ATOM     71  C   UNL     1      -8.082 -12.119   0.943  1.00  0.00     0.198 A 
ATOM     72  F   UNL     1      -6.064 -13.150   1.565  1.00  0.00    -0.203 F 
ATOM     73  F   UNL     1      -8.791  -9.670  -1.629  1.00  0.00    -0.200 F 
ATOM     74  C   UNL     1      -8.782 -11.236   0.137  1.00  0.00     0.200 A 
ATOM     75  F   UNL     1      -8.718 -12.791   1.912  1.00  0.00    -0.200 F 
ATOM     76  F   UNL     1     -10.091 -11.035   0.342  1.00  0.00    -0.200 F 
ENDBRANCH  52  66
BRANCH  53  77
ATOM     77  C   UNL     1       3.835 -12.828  -1.388  1.00  0.00     0.064 A 
ATOM     78  C   UNL     1       4.422 -13.120  -2.626  1.00  0.00     0.173 A 
ATOM     79  C   UNL     1       4.679 -12.761  -0.268  1.00  0.00     0.173 A 
ATOM     80  F   UNL     1       3.656 -13.229  -3.721  1.00  0.00    -0.203 F 
ATOM     81  C   UNL     1       5.791 -13.358  -2.736  1.00  0.00     0.198 A 
ATOM     82  C   UNL     1       6.052 -12.962  -0.385  1.00  0.00     0.198 A 
ATOM     83  F   UNL     1       4.170 -12.493   0.944  1.00  0.00    -0.203 F 
ATOM     84  F   UNL     1       6.317 -13.696  -3.921  1.00  0.00    -0.200 F 
ATOM     85  C   UNL     1       6.606 -13.272  -1.617  1.00  0.00     0.200 A 
ATOM     86  F   UNL     1       6.836 -12.868   0.698  1.00  0.00    -0.200 F 
ATOM     87  F   UNL     1       7.922 -13.502  -1.724  1.00  0.00    -0.200 F 
ENDBRANCH  53  77
BRANCH  65  88
ATOM     88  C   UNL     1      -1.675 -17.019  -2.272  1.00  0.00     0.064 A 
ATOM     89  C   UNL     1      -1.282 -18.108  -1.482  1.00  0.00     0.173 A 
ATOM     90  C   UNL     1      -2.268 -17.290  -3.516  1.00  0.00     0.173 A 
ATOM     91  F   UNL     1      -0.697 -17.904  -0.292  1.00  0.00    -0.203 F 
ATOM     92  C   UNL     1      -1.458 -19.416  -1.929  1.00  0.00     0.198 A 
ATOM     93  C   UNL     1      -2.475 -18.598  -3.943  1.00  0.00     0.198 A 
ATOM     94  F   UNL     1      -2.669 -16.284  -4.308  1.00  0.00    -0.203 F 
ATOM     95  F   UNL     1      -1.035 -20.441  -1.177  1.00  0.00    -0.200 F 
ATOM     96  C   UNL     1      -2.064 -19.659  -3.153  1.00  0.00     0.200 A 
ATOM     97  F   UNL     1      -3.078 -18.830  -5.117  1.00  0.00    -0.200 F 
ATOM     98  F   UNL     1      -2.248 -20.919  -3.572  1.00  0.00    -0.200 F 
ENDBRANCH  65  88
ENDBRANCH  39  40
ENDBRANCH  32  34
ENDBRANCH  31  32
ENDBRANCH  30  31
ENDBRANCH   1  30
TORSDOF 14
