REMARK SMILES CC(C)(C)N(CC(=O)OCCOC(=O)c1ccc(-c2c3nc(c(-c4c(F)c(F)c(F)c(F)c4F)c4ccc([nH]4)c(-c4c(F)c(F)c(F)c(F)c4F)c4nc(c(-c5c(F)c(F)c(F)c(F)c5F)c5ccc2[nH]5)C=C4)C=C3)cc1)C(=O)N(CCO)C1CC1
REMARK SMILES IDX 7 1 8 2 6 3 5 4 2 5 1 6 3 7 4 8 78 9 79 10 80 11 81 12 82 13
REMARK SMILES IDX 83 14 84 16 85 17 86 18 9 19 10 20 11 21 12 22 13 23 14 24
REMARK SMILES IDX 15 25 16 26 77 27 17 28 76 29 18 30 19 31 20 32 70 33 21 34
REMARK SMILES IDX 75 35 69 36 71 37 22 38 74 39 68 40 67 41 23 43 55 44 35 45
REMARK SMILES IDX 54 46 36 47 39 48 53 49 72 50 37 51 38 52 52 54 73 55 40 56
REMARK SMILES IDX 24 57 25 58 33 59 26 60 27 61 31 62 34 63 28 64 29 65 32 66
REMARK SMILES IDX 30 67 56 68 57 69 65 70 58 71 59 72 63 73 66 74 60 75 61 76
REMARK SMILES IDX 64 77 62 78 41 79 42 80 50 81 43 82 44 83 48 84 51 85 45 86
REMARK SMILES IDX 46 87 49 88 47 89
REMARK H PARENT 83 15 71 42 39 53
REMARK Flexibility Score: inf
ROOT
ATOM      1  C   UNL     1       2.896   1.314   1.803  1.00  0.00     0.325 C 
ATOM      2  O   UNL     1       3.419   0.215   1.951  1.00  0.00    -0.250 OA
ENDROOT
BRANCH   1   3
ATOM      3  C   UNL     1       1.392   1.535   2.021  1.00  0.00     0.244 C 
BRANCH   3   4
ATOM      4  N   UNL     1       0.694   2.349   1.022  1.00  0.00    -0.309 N 
BRANCH   4   5
ATOM      5  C   UNL     1       0.305   1.618  -0.270  1.00  0.00     0.037 C 
ATOM      6  C   UNL     1       0.921   0.195  -0.433  1.00  0.00     0.034 C 
ATOM      7  C   UNL     1       0.803   2.403  -1.506  1.00  0.00     0.034 C 
ATOM      8  C   UNL     1      -1.228   1.389  -0.335  1.00  0.00     0.034 C 
ENDBRANCH   4   5
BRANCH   4   9
ATOM      9  C   UNL     1       0.176   3.636   1.203  1.00  0.00     0.321 C 
ATOM     10  O   UNL     1      -0.640   4.045   0.367  1.00  0.00    -0.248 OA
BRANCH   9  11
ATOM     11  N   UNL     1       0.498   4.479   2.263  1.00  0.00    -0.319 N 
BRANCH  11  12
ATOM     12  C   UNL     1       1.525   4.328   3.316  1.00  0.00     0.150 C 
BRANCH  12  13
ATOM     13  C   UNL     1       2.357   5.580   3.642  1.00  0.00     0.177 C 
BRANCH  13  14
ATOM     14  O   UNL     1       1.685   6.446   4.553  1.00  0.00    -0.395 OA
ATOM     15  H   UNL     1       0.853   6.749   4.158  1.00  0.00     0.210 HD
ENDBRANCH  13  14
ENDBRANCH  12  13
ENDBRANCH  11  12
BRANCH  11  16
ATOM     16  C   UNL     1      -0.355   5.659   2.501  1.00  0.00     0.087 C 
ATOM     17  C   UNL     1       0.133   7.036   2.087  1.00  0.00     0.027 C 
ATOM     18  C   UNL     1      -1.111   6.483   1.486  1.00  0.00     0.027 C 
ENDBRANCH  11  16
ENDBRANCH   9  11
ENDBRANCH   4   9
ENDBRANCH   3   4
ENDBRANCH   1   3
BRANCH   1  19
ATOM     19  O   UNL     1       3.582   2.475   1.593  1.00  0.00    -0.461 OA
BRANCH  19  20
ATOM     20  C   UNL     1       5.016   2.400   1.727  1.00  0.00     0.274 C 
BRANCH  20  21
ATOM     21  C   UNL     1       5.517   3.406   2.774  1.00  0.00     0.275 C 
BRANCH  21  22
ATOM     22  O   UNL     1       4.738   3.458   3.985  1.00  0.00    -0.458 OA
BRANCH  22  23
ATOM     23  C   UNL     1       4.553   2.316   4.683  1.00  0.00     0.338 C 
ATOM     24  O   UNL     1       5.056   1.234   4.471  1.00  0.00    -0.246 OA
BRANCH  23  25
ATOM     25  C   UNL     1       3.459   2.558   5.652  1.00  0.00     0.060 A 
ATOM     26  C   UNL     1       2.363   1.691   5.639  1.00  0.00     0.016 A 
ATOM     27  C   UNL     1       3.502   3.626   6.555  1.00  0.00     0.016 A 
ATOM     28  C   UNL     1       1.312   1.883   6.539  1.00  0.00     0.010 A 
ATOM     29  C   UNL     1       2.481   3.779   7.500  1.00  0.00     0.010 A 
ATOM     30  C   UNL     1       1.399   2.884   7.524  1.00  0.00    -0.014 A 
BRANCH  30  31
ATOM     31  C   UNL     1       0.551   2.773   8.741  1.00  0.00     0.031 A 
ATOM     32  C   UNL     1      -0.566   3.716   9.063  1.00  0.00     0.074 A 
ATOM     33  C   UNL     1       0.858   1.773   9.593  1.00  0.00     0.049 A 
ATOM     34  N   UNL     1      -1.342   3.732  10.119  1.00  0.00    -0.248 NA
ATOM     35  C   UNL     1      -0.857   4.774   8.086  1.00  0.00     0.031 C 
ATOM     36  C   UNL     1       1.937   0.802   9.384  1.00  0.00     0.029 A 
ATOM     37  N   UNL     1       0.307   1.400  10.791  1.00  0.00    -0.354 N 
ATOM     38  C   UNL     1      -2.217   4.794   9.940  1.00  0.00     0.074 A 
ATOM     39  C   UNL     1      -1.864   5.412   8.675  1.00  0.00     0.031 C 
ATOM     40  C   UNL     1       1.953  -0.067  10.401  1.00  0.00     0.029 A 
ATOM     41  C   UNL     1       0.933   0.321  11.365  1.00  0.00     0.049 A 
ATOM     42  H   UNL     1      -0.461   1.860  11.200  1.00  0.00     0.167 HD
ATOM     43  C   UNL     1      -3.215   5.207  10.761  1.00  0.00     0.037 A 
ATOM     44  C   UNL     1       0.738  -0.280  12.552  1.00  0.00     0.037 A 
ATOM     45  C   UNL     1      -3.550   4.587  12.023  1.00  0.00     0.049 A 
ATOM     46  C   UNL     1      -0.341   0.229  13.455  1.00  0.00     0.074 A 
ATOM     47  C   UNL     1      -4.569   4.915  12.904  1.00  0.00     0.029 A 
ATOM     48  N   UNL     1      -2.868   3.520  12.592  1.00  0.00    -0.354 N 
ATOM     49  N   UNL     1      -1.172   1.222  13.261  1.00  0.00    -0.248 NA
ATOM     50  C   UNL     1      -0.505  -0.459  14.740  1.00  0.00     0.031 C 
ATOM     51  C   UNL     1      -4.474   4.081  14.024  1.00  0.00     0.029 A 
ATOM     52  C   UNL     1      -3.426   3.199  13.823  1.00  0.00     0.049 A 
ATOM     53  H   UNL     1      -2.101   3.059  12.183  1.00  0.00     0.167 HD
ATOM     54  C   UNL     1      -1.966   1.277  14.395  1.00  0.00     0.074 A 
ATOM     55  C   UNL     1      -1.528   0.201  15.263  1.00  0.00     0.031 C 
ATOM     56  C   UNL     1      -2.967   2.142  14.688  1.00  0.00     0.037 A 
BRANCH  43  57
ATOM     57  C   UNL     1      -4.026   6.401  10.344  1.00  0.00     0.064 A 
ATOM     58  C   UNL     1      -4.992   6.316   9.331  1.00  0.00     0.173 A 
ATOM     59  C   UNL     1      -3.907   7.617  11.035  1.00  0.00     0.173 A 
ATOM     60  F   UNL     1      -5.147   5.177   8.640  1.00  0.00    -0.203 F 
ATOM     61  C   UNL     1      -5.803   7.406   9.020  1.00  0.00     0.198 A 
ATOM     62  C   UNL     1      -4.733   8.698  10.736  1.00  0.00     0.198 A 
ATOM     63  F   UNL     1      -3.007   7.748  12.022  1.00  0.00    -0.203 F 
ATOM     64  F   UNL     1      -6.709   7.308   8.037  1.00  0.00    -0.200 F 
ATOM     65  C   UNL     1      -5.679   8.593   9.728  1.00  0.00     0.200 A 
ATOM     66  F   UNL     1      -4.622   9.838  11.433  1.00  0.00    -0.200 F 
ATOM     67  F   UNL     1      -6.473   9.634   9.441  1.00  0.00    -0.200 F 
ENDBRANCH  43  57
BRANCH  44  68
ATOM     68  C   UNL     1       1.606  -1.420  12.935  1.00  0.00     0.064 A 
ATOM     69  C   UNL     1       1.111  -2.729  12.961  1.00  0.00     0.173 A 
ATOM     70  C   UNL     1       2.967  -1.226  13.217  1.00  0.00     0.173 A 
ATOM     71  F   UNL     1      -0.187  -2.959  12.714  1.00  0.00    -0.203 F 
ATOM     72  C   UNL     1       1.946  -3.804  13.253  1.00  0.00     0.198 A 
ATOM     73  C   UNL     1       3.807  -2.304  13.480  1.00  0.00     0.198 A 
ATOM     74  F   UNL     1       3.488   0.010  13.195  1.00  0.00    -0.203 F 
ATOM     75  F   UNL     1       1.446  -5.046  13.292  1.00  0.00    -0.200 F 
ATOM     76  C   UNL     1       3.295  -3.593  13.501  1.00  0.00     0.200 A 
ATOM     77  F   UNL     1       5.112  -2.096  13.698  1.00  0.00    -0.200 F 
ATOM     78  F   UNL     1       4.102  -4.630  13.759  1.00  0.00    -0.200 F 
ENDBRANCH  44  68
BRANCH  56  79
ATOM     79  C   UNL     1      -3.657   1.945  16.004  1.00  0.00     0.064 A 
ATOM     80  C   UNL     1      -3.034   2.283  17.214  1.00  0.00     0.173 A 
ATOM     81  C   UNL     1      -4.948   1.399  16.057  1.00  0.00     0.173 A 
ATOM     82  F   UNL     1      -1.790   2.787  17.215  1.00  0.00    -0.203 F 
ATOM     83  C   UNL     1      -3.666   2.054  18.433  1.00  0.00     0.198 A 
ATOM     84  C   UNL     1      -5.588   1.195  17.276  1.00  0.00     0.198 A 
ATOM     85  F   UNL     1      -5.586   1.059  14.927  1.00  0.00    -0.203 F 
ATOM     86  F   UNL     1      -3.030   2.332  19.579  1.00  0.00    -0.200 F 
ATOM     87  C   UNL     1      -4.943   1.513  18.463  1.00  0.00     0.200 A 
ATOM     88  F   UNL     1      -6.823   0.677  17.305  1.00  0.00    -0.200 F 
ATOM     89  F   UNL     1      -5.548   1.285  19.637  1.00  0.00    -0.200 F 
ENDBRANCH  56  79
ENDBRANCH  30  31
ENDBRANCH  23  25
ENDBRANCH  22  23
ENDBRANCH  21  22
ENDBRANCH  20  21
ENDBRANCH  19  20
ENDBRANCH   1  19
TORSDOF 19
