REMARK SMILES C[N@@H+]1CC2(CC[NH+](C(=O)c3cc(-c4ccncc4)n[nH]3)CC2)C[C@H]1C(=O)OCCOC(=O)c1ccc(-c2c3nc(c(-c4c(F)c(F)c(F)c(F)c4F)c4ccc([nH]4)c(-c4c(F)c(F)c(F)c(F)c4F)c4nc(c(-c5c(F)c(F)c(F)c(F)c5F)c5ccc2[nH]5)C=C4)C=C3)cc1
REMARK SMILES IDX 28 1 27 2 25 3 26 4 24 5 1 6 2 7 3 8 4 10 23 11 5 12 22 13
REMARK SMILES IDX 6 14 21 15 7 16 8 18 9 19 10 20 11 21 20 22 12 23 19 24
REMARK SMILES IDX 13 26 14 27 18 28 15 29 17 30 16 31 29 32 30 33 31 34 32 35
REMARK SMILES IDX 33 36 34 37 95 38 35 39 94 40 36 41 37 42 38 43 88 44 39 45
REMARK SMILES IDX 93 46 87 47 89 48 40 49 92 50 86 51 85 52 41 54 73 55 53 56
REMARK SMILES IDX 72 57 54 58 57 59 71 60 90 61 55 62 56 63 70 65 91 66 58 67
REMARK SMILES IDX 42 68 43 69 51 70 44 71 45 72 49 73 52 74 46 75 47 76 50 77
REMARK SMILES IDX 48 78 74 79 75 80 83 81 76 82 77 83 81 84 84 85 78 86 79 87
REMARK SMILES IDX 82 88 80 89 59 90 60 91 68 92 61 93 62 94 66 95 69 96 63 97
REMARK SMILES IDX 64 98 67 99 65 100
REMARK H PARENT 2 9 7 17 20 25 89 53 57 64
REMARK Flexibility Score: inf
ROOT
ATOM      1  C   UNL     1      -0.477  -5.436  -0.658  1.00  0.00     0.274 C 
ENDROOT
BRANCH   1   2
ATOM      2  O   UNL     1      -0.347  -4.073  -0.217  1.00  0.00    -0.458 OA
BRANCH   2   3
ATOM      3  C   UNL     1       0.500  -3.844   0.822  1.00  0.00     0.365 C 
ATOM      4  O   UNL     1       1.066  -4.726   1.462  1.00  0.00    -0.245 OA
BRANCH   3   5
ATOM      5  C   UNL     1       0.692  -2.355   1.155  1.00  0.00     0.295 C 
ATOM      6  C   UNL     1       1.046  -0.241  -0.011  1.00  0.00     0.333 C 
ATOM      7  N   UNL     1       0.222  -1.442   0.091  1.00  0.00    -0.325 N 
ATOM      8  C   UNL     1      -1.175  -1.127   0.407  1.00  0.00     0.270 C 
ATOM      9  H   UNL     1       0.296  -1.887  -0.824  1.00  0.00     0.348 HD
ATOM     10  C   UNL     1      -1.366  -1.322   1.928  1.00  0.00     0.036 C 
ATOM     11  C   UNL     1      -0.058  -1.965   2.412  1.00  0.00     0.091 C 
ATOM     12  C   UNL     1      -2.557  -2.266   2.211  1.00  0.00     0.075 C 
ATOM     13  C   UNL     1      -1.583   0.023   2.664  1.00  0.00     0.075 C 
ATOM     14  C   UNL     1      -3.883  -1.590   1.891  1.00  0.00     0.271 C 
ATOM     15  C   UNL     1      -2.960   0.633   2.404  1.00  0.00     0.271 C 
ATOM     16  N   UNL     1      -4.002  -0.352   2.661  1.00  0.00    -0.266 N 
ATOM     17  H   UNL     1      -3.701   0.297   1.985  1.00  0.00     0.357 HD
BRANCH  16  18
ATOM     18  C   UNL     1      -5.061  -0.025   3.503  1.00  0.00     0.362 C 
ATOM     19  O   UNL     1      -5.263   1.127   3.877  1.00  0.00    -0.224 OA
BRANCH  18  20
ATOM     20  C   UNL     1      -5.944  -1.087   3.898  1.00  0.00     0.163 A 
ATOM     21  C   UNL     1      -5.712  -2.339   4.433  1.00  0.00     0.068 A 
ATOM     22  N   UNL     1      -7.303  -0.976   3.840  1.00  0.00    -0.269 N 
ATOM     23  C   UNL     1      -6.983  -2.958   4.513  1.00  0.00     0.093 A 
ATOM     24  N   UNL     1      -7.950  -2.122   4.110  1.00  0.00    -0.175 NA
ATOM     25  H   UNL     1      -7.765  -0.135   3.621  1.00  0.00     0.190 HD
BRANCH  23  26
ATOM     26  C   UNL     1      -7.273  -4.323   4.918  1.00  0.00     0.005 A 
ATOM     27  C   UNL     1      -6.874  -4.794   6.168  1.00  0.00     0.030 A 
ATOM     28  C   UNL     1      -7.940  -5.181   4.044  1.00  0.00     0.030 A 
ATOM     29  C   UNL     1      -7.162  -6.109   6.490  1.00  0.00     0.111 A 
ATOM     30  C   UNL     1      -8.170  -6.482   4.455  1.00  0.00     0.111 A 
ATOM     31  N   UNL     1      -7.791  -6.966   5.657  1.00  0.00    -0.265 NA
ENDBRANCH  23  26
ENDBRANCH  18  20
ENDBRANCH  16  18
ENDBRANCH   3   5
ENDBRANCH   2   3
ENDBRANCH   1   2
BRANCH   1  32
ATOM     32  C   UNL     1       0.337  -5.669  -1.931  1.00  0.00     0.275 C 
BRANCH  32  33
ATOM     33  O   UNL     1       1.741  -5.484  -1.670  1.00  0.00    -0.458 OA
BRANCH  33  34
ATOM     34  C   UNL     1       2.280  -4.349  -2.173  1.00  0.00     0.338 C 
ATOM     35  O   UNL     1       1.748  -3.507  -2.871  1.00  0.00    -0.246 OA
BRANCH  34  36
ATOM     36  C   UNL     1       3.659  -4.221  -1.685  1.00  0.00     0.060 A 
ATOM     37  C   UNL     1       3.889  -3.459  -0.541  1.00  0.00     0.016 A 
ATOM     38  C   UNL     1       4.726  -4.744  -2.411  1.00  0.00     0.016 A 
ATOM     39  C   UNL     1       5.186  -3.195  -0.116  1.00  0.00     0.010 A 
ATOM     40  C   UNL     1       6.032  -4.500  -1.974  1.00  0.00     0.010 A 
ATOM     41  C   UNL     1       6.270  -3.708  -0.835  1.00  0.00    -0.014 A 
BRANCH  41  42
ATOM     42  C   UNL     1       7.652  -3.353  -0.433  1.00  0.00     0.031 A 
ATOM     43  C   UNL     1       8.463  -2.433  -1.300  1.00  0.00     0.074 A 
ATOM     44  C   UNL     1       8.167  -3.832   0.715  1.00  0.00     0.049 A 
ATOM     45  N   UNL     1       9.725  -2.100  -1.204  1.00  0.00    -0.248 NA
ATOM     46  C   UNL     1       7.759  -1.806  -2.430  1.00  0.00     0.031 C 
ATOM     47  C   UNL     1       7.454  -4.678   1.672  1.00  0.00     0.029 A 
ATOM     48  N   UNL     1       9.412  -3.676   1.269  1.00  0.00    -0.354 N 
ATOM     49  C   UNL     1       9.976  -1.261  -2.282  1.00  0.00     0.074 A 
ATOM     50  C   UNL     1       8.738  -1.133  -3.020  1.00  0.00     0.031 C 
ATOM     51  C   UNL     1       8.271  -4.963   2.699  1.00  0.00     0.029 A 
ATOM     52  C   UNL     1       9.581  -4.372   2.441  1.00  0.00     0.049 A 
ATOM     53  H   UNL     1      10.117  -3.120   0.866  1.00  0.00     0.167 HD
ATOM     54  C   UNL     1      11.139  -0.656  -2.621  1.00  0.00     0.037 A 
ATOM     55  C   UNL     1      10.680  -4.544   3.199  1.00  0.00     0.037 A 
ATOM     56  C   UNL     1      12.355  -0.756  -1.858  1.00  0.00     0.049 A 
ATOM     57  C   UNL     1      11.973  -3.904   2.768  1.00  0.00     0.074 A 
ATOM     58  C   UNL     1      13.580  -0.161  -2.104  1.00  0.00     0.029 A 
ATOM     59  N   UNL     1      12.496  -1.497  -0.694  1.00  0.00    -0.354 N 
ATOM     60  N   UNL     1      12.209  -3.129   1.737  1.00  0.00    -0.248 NA
ATOM     61  C   UNL     1      13.154  -4.175   3.598  1.00  0.00     0.031 C 
ATOM     62  C   UNL     1      14.474  -0.576  -1.111  1.00  0.00     0.029 A 
ATOM     63  C   UNL     1      13.794  -1.392  -0.221  1.00  0.00     0.049 A 
ATOM     64  H   UNL     1      11.780  -2.021  -0.267  1.00  0.00     0.167 HD
ATOM     65  C   UNL     1      13.556  -2.801   1.808  1.00  0.00     0.074 A 
ATOM     66  C   UNL     1      14.082  -3.449   2.991  1.00  0.00     0.031 C 
ATOM     67  C   UNL     1      14.292  -2.034   0.967  1.00  0.00     0.037 A 
BRANCH  54  68
ATOM     68  C   UNL     1      11.167   0.138  -3.893  1.00  0.00     0.064 A 
ATOM     69  C   UNL     1      10.551   1.393  -3.999  1.00  0.00     0.173 A 
ATOM     70  C   UNL     1      11.864  -0.349  -5.010  1.00  0.00     0.173 A 
ATOM     71  F   UNL     1       9.860   1.895  -2.965  1.00  0.00    -0.203 F 
ATOM     72  C   UNL     1      10.618   2.124  -5.183  1.00  0.00     0.198 A 
ATOM     73  C   UNL     1      11.950   0.396  -6.182  1.00  0.00     0.198 A 
ATOM     74  F   UNL     1      12.474  -1.543  -4.958  1.00  0.00    -0.203 F 
ATOM     75  F   UNL     1       9.992   3.305  -5.275  1.00  0.00    -0.200 F 
ATOM     76  C   UNL     1      11.323   1.629  -6.270  1.00  0.00     0.200 A 
ATOM     77  F   UNL     1      12.642  -0.080  -7.228  1.00  0.00    -0.200 F 
ATOM     78  F   UNL     1      11.395   2.339  -7.404  1.00  0.00    -0.200 F 
ENDBRANCH  54  68
BRANCH  55  79
ATOM     79  C   UNL     1      10.620  -5.382   4.425  1.00  0.00     0.064 A 
ATOM     80  C   UNL     1      10.778  -4.813   5.696  1.00  0.00     0.173 A 
ATOM     81  C   UNL     1      10.425  -6.770   4.351  1.00  0.00     0.173 A 
ATOM     82  F   UNL     1      10.993  -3.495   5.817  1.00  0.00    -0.203 F 
ATOM     83  C   UNL     1      10.761  -5.602   6.845  1.00  0.00     0.198 A 
ATOM     84  C   UNL     1      10.379  -7.553   5.502  1.00  0.00     0.198 A 
ATOM     85  F   UNL     1      10.274  -7.364   3.159  1.00  0.00    -0.203 F 
ATOM     86  F   UNL     1      10.963  -5.040   8.044  1.00  0.00    -0.200 F 
ATOM     87  C   UNL     1      10.556  -6.970   6.747  1.00  0.00     0.200 A 
ATOM     88  F   UNL     1      10.170  -8.873   5.403  1.00  0.00    -0.200 F 
ATOM     89  F   UNL     1      10.539  -7.728   7.852  1.00  0.00    -0.200 F 
ENDBRANCH  55  79
BRANCH  67  90
ATOM     90  C   UNL     1      15.734  -1.821   1.322  1.00  0.00     0.064 A 
ATOM     91  C   UNL     1      16.687  -2.837   1.168  1.00  0.00     0.173 A 
ATOM     92  C   UNL     1      16.170  -0.572   1.790  1.00  0.00     0.173 A 
ATOM     93  F   UNL     1      16.314  -4.053   0.741  1.00  0.00    -0.203 F 
ATOM     94  C   UNL     1      18.023  -2.618   1.491  1.00  0.00     0.198 A 
ATOM     95  C   UNL     1      17.512  -0.348   2.085  1.00  0.00     0.198 A 
ATOM     96  F   UNL     1      15.297   0.434   1.949  1.00  0.00    -0.203 F 
ATOM     97  F   UNL     1      18.910  -3.616   1.379  1.00  0.00    -0.200 F 
ATOM     98  C   UNL     1      18.435  -1.373   1.942  1.00  0.00     0.200 A 
ATOM     99  F   UNL     1      17.910   0.859   2.510  1.00  0.00    -0.200 F 
ATOM    100  F   UNL     1      19.723  -1.162   2.247  1.00  0.00    -0.200 F 
ENDBRANCH  67  90
ENDBRANCH  41  42
ENDBRANCH  34  36
ENDBRANCH  33  34
ENDBRANCH  32  33
ENDBRANCH   1  32
TORSDOF 14
