REMARK SMILES CC(C)(C)C1CN(c2cccc(Cl)c2C(=O)OCCOC(=O)c2ccc(-c3c4nc(c(-c5c(F)c(F)c(F)c(F)c5F)c5ccc([nH]5)c(-c5c(F)c(F)c(F)c(F)c5F)c5nc(c(-c6c(F)c(F)c(F)c(F)c6F)c6ccc3[nH]6)C=C5)C=C4)cc2)C1
REMARK SMILES IDX 18 1 17 2 15 3 16 4 14 5 8 6 9 7 10 8 12 9 11 10 13 11 7 12
REMARK SMILES IDX 5 13 6 14 86 15 2 16 1 17 3 18 4 19 19 20 20 21 21 22 22 23
REMARK SMILES IDX 23 24 24 25 85 26 25 27 84 28 26 29 27 30 28 31 78 32 29 33
REMARK SMILES IDX 83 34 77 35 79 36 30 37 82 38 76 39 75 40 31 42 63 43 43 44
REMARK SMILES IDX 62 45 44 46 47 47 61 48 80 49 45 50 46 51 60 53 81 54 48 55
REMARK SMILES IDX 32 56 33 57 41 58 34 59 35 60 39 61 42 62 36 63 37 64 40 65
REMARK SMILES IDX 38 66 64 67 65 68 73 69 66 70 67 71 71 72 74 73 68 74 69 75
REMARK SMILES IDX 72 76 70 77 49 78 50 79 58 80 51 81 52 82 56 83 59 84 53 85
REMARK SMILES IDX 54 86 57 87 55 88
REMARK H PARENT 79 41 47 52
REMARK Flexibility Score: inf
ROOT
ATOM      1  C   UNL     1       7.236  -3.634  -1.322  1.00  0.00     0.275 C 
ENDROOT
BRANCH   1   2
ATOM      2  O   UNL     1       6.432  -3.693  -2.521  1.00  0.00    -0.458 OA
BRANCH   2   3
ATOM      3  C   UNL     1       5.372  -4.541  -2.503  1.00  0.00     0.341 C 
ATOM      4  O   UNL     1       5.007  -5.224  -1.559  1.00  0.00    -0.246 OA
BRANCH   3   5
ATOM      5  C   UNL     1       4.679  -4.545  -3.804  1.00  0.00     0.102 A 
ATOM      6  C   UNL     1       3.316  -4.188  -3.946  1.00  0.00     0.053 A 
ATOM      7  C   UNL     1       2.708  -4.399  -5.203  1.00  0.00     0.027 A 
ATOM      8  C   UNL     1       3.413  -4.916  -6.290  1.00  0.00     0.004 A 
ATOM      9  C   UNL     1       5.394  -5.037  -4.918  1.00  0.00     0.057 A 
ATOM     10  C   UNL     1       4.762  -5.210  -6.153  1.00  0.00     0.021 A 
ATOM     11  Cl  UNL     1       7.066  -5.497  -4.851  1.00  0.00    -0.083 Cl
BRANCH   6  12
ATOM     12  N   UNL     1       2.489  -3.502  -3.009  1.00  0.00    -0.370 N 
ATOM     13  C   UNL     1       1.617  -1.918  -0.675  1.00  0.00     0.033 C 
ATOM     14  C   UNL     1       2.459  -1.561  -2.835  1.00  0.00     0.122 C 
ATOM     15  C   UNL     1       1.840  -3.939  -1.272  1.00  0.00     0.122 C 
BRANCH  13  16
ATOM     16  C   UNL     1       1.330  -1.322   0.917  1.00  0.00    -0.032 C 
ATOM     17  C   UNL     1       1.907   0.042   1.327  1.00  0.00     0.011 C 
ATOM     18  C   UNL     1       1.801  -2.413   1.880  1.00  0.00     0.011 C 
ATOM     19  C   UNL     1      -0.211  -1.115   1.222  1.00  0.00     0.011 C 
ENDBRANCH  13  16
ENDBRANCH   6  12
ENDBRANCH   3   5
ENDBRANCH   2   3
ENDBRANCH   1   2
BRANCH   1  20
ATOM     20  C   UNL     1       7.231  -2.212  -0.768  1.00  0.00     0.275 C 
BRANCH  20  21
ATOM     21  O   UNL     1       5.882  -1.865  -0.379  1.00  0.00    -0.458 OA
BRANCH  21  22
ATOM     22  C   UNL     1       5.244  -1.063  -1.257  1.00  0.00     0.338 C 
ATOM     23  O   UNL     1       5.727  -0.492  -2.223  1.00  0.00    -0.246 OA
BRANCH  22  24
ATOM     24  C   UNL     1       3.779  -1.085  -1.062  1.00  0.00     0.060 A 
ATOM     25  C   UNL     1       3.041  -2.414  -1.464  1.00  0.00     0.016 A 
ATOM     26  C   UNL     1       2.951   0.180  -1.277  1.00  0.00     0.016 A 
ATOM     27  C   UNL     1       1.089  -2.370  -2.235  1.00  0.00     0.010 A 
ATOM     28  C   UNL     1       1.371   0.264  -1.736  1.00  0.00     0.010 A 
ATOM     29  C   UNL     1       0.361  -0.914  -2.225  1.00  0.00    -0.014 A 
BRANCH  29  30
ATOM     30  C   UNL     1      -1.137  -0.706  -2.205  1.00  0.00     0.031 A 
ATOM     31  C   UNL     1      -1.644   0.678  -2.508  1.00  0.00     0.074 A 
ATOM     32  C   UNL     1      -1.978  -1.587  -1.588  1.00  0.00     0.049 A 
ATOM     33  N   UNL     1      -2.755   1.250  -2.126  1.00  0.00    -0.248 NA
ATOM     34  C   UNL     1      -0.768   1.556  -3.309  1.00  0.00     0.031 C 
ATOM     35  C   UNL     1      -1.718  -2.987  -1.244  1.00  0.00     0.029 A 
ATOM     36  N   UNL     1      -3.187  -1.364  -0.944  1.00  0.00    -0.354 N 
ATOM     37  C   UNL     1      -2.713   2.521  -2.671  1.00  0.00     0.074 A 
ATOM     38  C   UNL     1      -1.386   2.721  -3.201  1.00  0.00     0.031 C 
ATOM     39  C   UNL     1      -2.557  -3.410  -0.289  1.00  0.00     0.029 A 
ATOM     40  C   UNL     1      -3.507  -2.355  -0.023  1.00  0.00     0.049 A 
ATOM     41  H   UNL     1      -3.760  -0.584  -1.121  1.00  0.00     0.167 HD
ATOM     42  C   UNL     1      -3.738   3.384  -2.846  1.00  0.00     0.037 A 
ATOM     43  C   UNL     1      -4.457  -2.433   0.931  1.00  0.00     0.037 A 
ATOM     44  C   UNL     1      -5.064   3.135  -2.360  1.00  0.00     0.049 A 
ATOM     45  C   UNL     1      -5.535  -1.398   0.883  1.00  0.00     0.074 A 
ATOM     46  C   UNL     1      -6.223   3.845  -2.603  1.00  0.00     0.029 A 
ATOM     47  N   UNL     1      -5.397   2.092  -1.508  1.00  0.00    -0.354 N 
ATOM     48  N   UNL     1      -5.568  -0.289   0.190  1.00  0.00    -0.248 NA
ATOM     49  C   UNL     1      -6.765  -1.689   1.627  1.00  0.00     0.031 C 
ATOM     50  C   UNL     1      -7.239   3.286  -1.823  1.00  0.00     0.029 A 
ATOM     51  C   UNL     1      -6.734   2.174  -1.168  1.00  0.00     0.049 A 
ATOM     52  H   UNL     1      -4.774   1.397  -1.193  1.00  0.00     0.167 HD
ATOM     53  C   UNL     1      -6.862   0.185   0.309  1.00  0.00     0.074 A 
ATOM     54  C   UNL     1      -7.566  -0.734   1.180  1.00  0.00     0.031 C 
ATOM     55  C   UNL     1      -7.423   1.256  -0.299  1.00  0.00     0.037 A 
BRANCH  42  56
ATOM     56  C   UNL     1      -3.474   4.609  -3.668  1.00  0.00     0.064 A 
ATOM     57  C   UNL     1      -3.120   4.516  -5.027  1.00  0.00     0.173 A 
ATOM     58  C   UNL     1      -3.595   5.887  -3.110  1.00  0.00     0.173 A 
ATOM     59  F   UNL     1      -2.983   3.316  -5.612  1.00  0.00    -0.203 F 
ATOM     60  C   UNL     1      -2.850   5.654  -5.779  1.00  0.00     0.198 A 
ATOM     61  C   UNL     1      -3.367   7.026  -3.878  1.00  0.00     0.198 A 
ATOM     62  F   UNL     1      -3.934   6.033  -1.821  1.00  0.00    -0.203 F 
ATOM     63  F   UNL     1      -2.443   5.534  -7.050  1.00  0.00    -0.200 F 
ATOM     64  C   UNL     1      -2.983   6.909  -5.206  1.00  0.00     0.200 A 
ATOM     65  F   UNL     1      -3.509   8.240  -3.329  1.00  0.00    -0.200 F 
ATOM     66  F   UNL     1      -2.733   8.006  -5.933  1.00  0.00    -0.200 F 
ENDBRANCH  42  56
BRANCH  43  67
ATOM     67  C   UNL     1      -4.563  -3.595   1.866  1.00  0.00     0.064 A 
ATOM     68  C   UNL     1      -5.503  -4.611   1.636  1.00  0.00     0.173 A 
ATOM     69  C   UNL     1      -3.801  -3.678   3.041  1.00  0.00     0.173 A 
ATOM     70  F   UNL     1      -6.270  -4.571   0.537  1.00  0.00    -0.203 F 
ATOM     71  C   UNL     1      -5.718  -5.629   2.566  1.00  0.00     0.198 A 
ATOM     72  C   UNL     1      -4.001  -4.713   3.962  1.00  0.00     0.198 A 
ATOM     73  F   UNL     1      -2.881  -2.741   3.316  1.00  0.00    -0.203 F 
ATOM     74  F   UNL     1      -6.680  -6.537   2.349  1.00  0.00    -0.200 F 
ATOM     75  C   UNL     1      -4.971  -5.678   3.731  1.00  0.00     0.200 A 
ATOM     76  F   UNL     1      -3.275  -4.761   5.089  1.00  0.00    -0.200 F 
ATOM     77  F   UNL     1      -5.197  -6.641   4.635  1.00  0.00    -0.200 F 
ENDBRANCH  43  67
BRANCH  55  78
ATOM     78  C   UNL     1      -8.890   1.459  -0.099  1.00  0.00     0.064 A 
ATOM     79  C   UNL     1      -9.426   1.813   1.146  1.00  0.00     0.173 A 
ATOM     80  C   UNL     1      -9.767   1.333  -1.188  1.00  0.00     0.173 A 
ATOM     81  F   UNL     1      -8.629   1.925   2.219  1.00  0.00    -0.203 F 
ATOM     82  C   UNL     1     -10.794   2.005   1.300  1.00  0.00     0.198 A 
ATOM     83  C   UNL     1     -11.126   1.577  -1.041  1.00  0.00     0.198 A 
ATOM     84  F   UNL     1      -9.301   0.995  -2.400  1.00  0.00    -0.203 F 
ATOM     85  F   UNL     1     -11.295   2.276   2.513  1.00  0.00    -0.200 F 
ATOM     86  C   UNL     1     -11.640   1.901   0.205  1.00  0.00     0.200 A 
ATOM     87  F   UNL     1     -11.936   1.503  -2.105  1.00  0.00    -0.200 F 
ATOM     88  F   UNL     1     -12.955   2.109   0.353  1.00  0.00    -0.200 F 
ENDBRANCH  55  78
ENDBRANCH  29  30
ENDBRANCH  22  24
ENDBRANCH  21  22
ENDBRANCH  20  21
ENDBRANCH   1  20
TORSDOF 13
