REMARK SMILES Cc1nc(NC(=O)[C@H]2[C@@H]3CC[C@@H](C3)[C@@H]2C(=O)OCCOC(=O)c2ccc(-c3c4nc(c(-c5c(F)c(F)c(F)c(F)c5F)c5ccc([nH]5)c(-c5c(F)c(F)c(F)c(F)c5F)c5nc(c(-c6c(F)c(F)c(F)c(F)c6F)c6ccc3[nH]6)C=C5)C=C4)cc2)sc1-c1ccccc1
REMARK SMILES IDX 18 1 17 2 15 3 16 4 14 5 8 6 9 7 10 8 13 9 12 10 11 11 6 12
REMARK SMILES IDX 5 13 7 15 4 16 1 17 2 18 3 19 87 20 86 21 88 22 89 23 93 24
REMARK SMILES IDX 90 25 92 26 91 27 19 28 20 29 21 30 22 31 23 32 24 33 85 34
REMARK SMILES IDX 25 35 84 36 26 37 27 38 28 39 78 40 29 41 83 42 77 43 79 44
REMARK SMILES IDX 30 45 82 46 76 47 75 48 31 50 63 51 43 52 62 53 44 54 47 55
REMARK SMILES IDX 61 56 80 57 45 58 46 59 60 61 81 62 48 63 32 64 33 65 41 66
REMARK SMILES IDX 34 67 35 68 39 69 42 70 36 71 37 72 40 73 38 74 64 75 65 76
REMARK SMILES IDX 73 77 66 78 67 79 71 80 74 81 68 82 69 83 72 84 70 85 49 86
REMARK SMILES IDX 50 87 58 88 51 89 52 90 56 91 59 92 53 93 54 94 57 95 55 96
REMARK H PARENT 5 14 79 49 47 60
REMARK Flexibility Score: inf
ROOT
ATOM      1  C   UNL     1      -3.880   1.157   2.650  1.00  0.00     0.274 C 
ENDROOT
BRANCH   1   2
ATOM      2  O   UNL     1      -3.469   1.500   1.314  1.00  0.00    -0.462 OA
BRANCH   2   3
ATOM      3  C   UNL     1      -2.818   2.692   1.150  1.00  0.00     0.310 C 
ATOM      4  O   UNL     1      -2.712   3.568   1.993  1.00  0.00    -0.252 OA
BRANCH   3   5
ATOM      5  C   UNL     1      -2.157   2.694  -0.214  1.00  0.00     0.115 C 
ATOM      6  C   UNL     1      -1.038   3.724  -0.448  1.00  0.00     0.096 C 
ATOM      7  C   UNL     1      -1.589   4.543  -1.643  1.00  0.00     0.003 C 
ATOM      8  C   UNL     1      -2.824   5.345  -1.179  1.00  0.00     0.005 C 
ATOM      9  C   UNL     1      -2.223   3.448  -2.494  1.00  0.00     0.009 C 
ATOM     10  C   UNL     1      -3.146   2.976  -1.367  1.00  0.00     0.004 C 
ATOM     11  C   UNL     1      -3.922   4.275  -1.088  1.00  0.00     0.005 C 
BRANCH   6  12
ATOM     12  C   UNL     1       0.444   3.359  -0.716  1.00  0.00     0.230 C 
ATOM     13  N   UNL     1       1.016   2.139  -0.848  1.00  0.00    -0.302 N 
ATOM     14  H   UNL     1       1.994   2.133  -0.738  1.00  0.00     0.172 HD
ATOM     15  O   UNL     1       1.254   4.304  -0.712  1.00  0.00    -0.274 OA
BRANCH  13  16
ATOM     16  C   UNL     1       0.471   0.921  -1.107  1.00  0.00     0.190 A 
ATOM     17  C   UNL     1      -2.425  -1.091  -1.472  1.00  0.00     0.068 C 
ATOM     18  C   UNL     1      -0.999  -0.683  -1.352  1.00  0.00     0.058 A 
ATOM     19  N   UNL     1      -0.699   0.642  -1.601  1.00  0.00    -0.225 NA
ATOM     20  C   UNL     1       0.068  -1.448  -0.898  1.00  0.00     0.059 A 
ATOM     21  S   UNL     1       1.445  -0.424  -0.712  1.00  0.00    -0.096 S 
BRANCH  20  22
ATOM     22  C   UNL     1       0.090  -2.869  -0.544  1.00  0.00    -0.006 A 
ATOM     23  C   UNL     1       0.517  -3.305   0.717  1.00  0.00     0.009 A 
ATOM     24  C   UNL     1      -0.435  -3.816  -1.438  1.00  0.00     0.009 A 
ATOM     25  C   UNL     1       0.387  -4.648   1.086  1.00  0.00     0.001 A 
ATOM     26  C   UNL     1      -0.575  -5.154  -1.065  1.00  0.00     0.001 A 
ATOM     27  C   UNL     1      -0.170  -5.568   0.200  1.00  0.00     0.000 A 
ENDBRANCH  20  22
ENDBRANCH  13  16
ENDBRANCH   6  12
ENDBRANCH   3   5
ENDBRANCH   2   3
ENDBRANCH   1   2
BRANCH   1  28
ATOM     28  C   UNL     1      -2.819   0.264   3.294  1.00  0.00     0.275 C 
BRANCH  28  29
ATOM     29  O   UNL     1      -1.616   1.033   3.475  1.00  0.00    -0.458 OA
BRANCH  29  30
ATOM     30  C   UNL     1      -0.454   0.400   3.215  1.00  0.00     0.338 C 
ATOM     31  O   UNL     1      -0.293  -0.775   2.919  1.00  0.00    -0.246 OA
BRANCH  30  32
ATOM     32  C   UNL     1       0.659   1.358   3.329  1.00  0.00     0.060 A 
ATOM     33  C   UNL     1       0.626   2.548   2.606  1.00  0.00     0.016 A 
ATOM     34  C   UNL     1       1.783   1.038   4.088  1.00  0.00     0.016 A 
ATOM     35  C   UNL     1       1.739   3.385   2.575  1.00  0.00     0.010 A 
ATOM     36  C   UNL     1       2.864   1.926   4.131  1.00  0.00     0.010 A 
ATOM     37  C   UNL     1       2.869   3.096   3.350  1.00  0.00    -0.014 A 
BRANCH  37  38
ATOM     38  C   UNL     1       4.055   3.999   3.320  1.00  0.00     0.031 A 
ATOM     39  C   UNL     1       5.400   3.474   2.893  1.00  0.00     0.074 A 
ATOM     40  C   UNL     1       3.935   5.296   3.667  1.00  0.00     0.049 A 
ATOM     41  N   UNL     1       6.576   4.048   2.960  1.00  0.00    -0.248 NA
ATOM     42  C   UNL     1       5.430   2.115   2.331  1.00  0.00     0.031 C 
ATOM     43  C   UNL     1       2.692   5.956   4.063  1.00  0.00     0.029 A 
ATOM     44  N   UNL     1       4.876   6.296   3.735  1.00  0.00    -0.354 N 
ATOM     45  C   UNL     1       7.488   3.103   2.510  1.00  0.00     0.074 A 
ATOM     46  C   UNL     1       6.730   1.917   2.168  1.00  0.00     0.031 C 
ATOM     47  C   UNL     1       2.936   7.254   4.296  1.00  0.00     0.029 A 
ATOM     48  C   UNL     1       4.366   7.502   4.148  1.00  0.00     0.049 A 
ATOM     49  H   UNL     1       5.825   6.161   3.509  1.00  0.00     0.167 HD
ATOM     50  C   UNL     1       8.834   3.212   2.400  1.00  0.00     0.037 A 
ATOM     51  C   UNL     1       4.979   8.670   4.419  1.00  0.00     0.037 A 
ATOM     52  C   UNL     1       9.581   4.412   2.677  1.00  0.00     0.049 A 
ATOM     53  C   UNL     1       6.471   8.771   4.281  1.00  0.00     0.074 A 
ATOM     54  C   UNL     1      10.944   4.627   2.564  1.00  0.00     0.029 A 
ATOM     55  N   UNL     1       9.024   5.608   3.107  1.00  0.00    -0.354 N 
ATOM     56  N   UNL     1       7.330   7.854   3.909  1.00  0.00    -0.248 NA
ATOM     57  C   UNL     1       7.082  10.064   4.621  1.00  0.00     0.031 C 
ATOM     58  C   UNL     1      11.217   5.941   2.959  1.00  0.00     0.029 A 
ATOM     59  C   UNL     1      10.019   6.559   3.278  1.00  0.00     0.049 A 
ATOM     60  H   UNL     1       8.065   5.760   3.266  1.00  0.00     0.167 HD
ATOM     61  C   UNL     1       8.579   8.455   3.967  1.00  0.00     0.074 A 
ATOM     62  C   UNL     1       8.365   9.825   4.386  1.00  0.00     0.031 C 
ATOM     63  C   UNL     1       9.794   7.915   3.705  1.00  0.00     0.037 A 
BRANCH  50  64
ATOM     64  C   UNL     1       9.599   1.984   2.001  1.00  0.00     0.064 A 
ATOM     65  C   UNL     1       9.581   1.484   0.691  1.00  0.00     0.173 A 
ATOM     66  C   UNL     1      10.388   1.313   2.949  1.00  0.00     0.173 A 
ATOM     67  F   UNL     1       8.831   2.079  -0.248  1.00  0.00    -0.203 F 
ATOM     68  C   UNL     1      10.306   0.344   0.351  1.00  0.00     0.198 A 
ATOM     69  C   UNL     1      11.133   0.191   2.599  1.00  0.00     0.198 A 
ATOM     70  F   UNL     1      10.443   1.753   4.216  1.00  0.00    -0.203 F 
ATOM     71  F   UNL     1      10.239  -0.143  -0.896  1.00  0.00    -0.200 F 
ATOM     72  C   UNL     1      11.085  -0.297   1.303  1.00  0.00     0.200 A 
ATOM     73  F   UNL     1      11.892  -0.421   3.518  1.00  0.00    -0.200 F 
ATOM     74  F   UNL     1      11.785  -1.392   0.972  1.00  0.00    -0.200 F 
ENDBRANCH  50  64
BRANCH  51  75
ATOM     75  C   UNL     1       4.172   9.827   4.886  1.00  0.00     0.064 A 
ATOM     76  C   UNL     1       3.971  10.946   4.069  1.00  0.00     0.173 A 
ATOM     77  C   UNL     1       3.561   9.820   6.150  1.00  0.00     0.173 A 
ATOM     78  F   UNL     1       4.559  11.012   2.866  1.00  0.00    -0.203 F 
ATOM     79  C   UNL     1       3.187  12.016   4.498  1.00  0.00     0.198 A 
ATOM     80  C   UNL     1       2.755  10.876   6.565  1.00  0.00     0.198 A 
ATOM     81  F   UNL     1       3.727   8.772   6.971  1.00  0.00    -0.203 F 
ATOM     82  F   UNL     1       3.035  13.090   3.711  1.00  0.00    -0.200 F 
ATOM     83  C   UNL     1       2.571  11.975   5.740  1.00  0.00     0.200 A 
ATOM     84  F   UNL     1       2.151  10.826   7.760  1.00  0.00    -0.200 F 
ATOM     85  F   UNL     1       1.805  12.997   6.144  1.00  0.00    -0.200 F 
ENDBRANCH  51  75
BRANCH  63  86
ATOM     86  C   UNL     1      10.985   8.814   3.857  1.00  0.00     0.064 A 
ATOM     87  C   UNL     1      11.464   9.186   5.121  1.00  0.00     0.173 A 
ATOM     88  C   UNL     1      11.666   9.291   2.727  1.00  0.00     0.173 A 
ATOM     89  F   UNL     1      10.836   8.768   6.231  1.00  0.00    -0.203 F 
ATOM     90  C   UNL     1      12.570  10.023   5.249  1.00  0.00     0.198 A 
ATOM     91  C   UNL     1      12.786  10.108   2.859  1.00  0.00     0.198 A 
ATOM     92  F   UNL     1      11.249   8.960   1.496  1.00  0.00    -0.203 F 
ATOM     93  F   UNL     1      12.984  10.401   6.466  1.00  0.00    -0.200 F 
ATOM     94  C   UNL     1      13.232  10.479   4.119  1.00  0.00     0.200 A 
ATOM     95  F   UNL     1      13.430  10.542   1.767  1.00  0.00    -0.200 F 
ATOM     96  F   UNL     1      14.296  11.284   4.244  1.00  0.00    -0.200 F 
ENDBRANCH  63  86
ENDBRANCH  37  38
ENDBRANCH  30  32
ENDBRANCH  29  30
ENDBRANCH  28  29
ENDBRANCH   1  28
TORSDOF 14
