REMARK SMILES CN(C)S(=O)(=O)c1ccc(-n2c(CCC(=O)OCCOC(=O)c3ccc(-c4c5nc(c(-c6c(F)c(F)c(F)c(F)c6F)c6ccc([nH]6)c(-c6c(F)c(F)c(F)c(F)c6F)c6nc(c(-c7c(F)c(F)c(F)c(F)c7F)c7ccc4[nH]7)C=C6)C=C5)cc3)ccc2-c2ccc(F)cc2)cc1
REMARK SMILES IDX 17 1 15 2 16 3 14 4 13 5 12 6 11 7 88 8 86 9 87 10 10 11
REMARK SMILES IDX 7 12 8 13 97 14 9 15 96 16 4 17 5 18 6 19 2 20 1 21 3 22
REMARK SMILES IDX 89 23 90 24 95 25 91 26 94 27 92 28 93 29 18 30 19 31 20 32
REMARK SMILES IDX 21 33 22 34 23 35 24 36 85 37 25 38 84 39 26 40 27 41 28 42
REMARK SMILES IDX 78 43 29 44 83 45 77 46 79 47 30 48 82 49 76 50 75 51 31 53
REMARK SMILES IDX 63 54 43 55 62 56 44 57 47 58 61 59 80 60 45 61 46 62 60 64
REMARK SMILES IDX 81 65 48 66 32 67 33 68 41 69 34 70 35 71 39 72 42 73 36 74
REMARK SMILES IDX 37 75 40 76 38 77 64 78 65 79 73 80 66 81 67 82 71 83 74 84
REMARK SMILES IDX 68 85 69 86 72 87 70 88 49 89 50 90 58 91 51 92 52 93 56 94
REMARK SMILES IDX 59 95 53 96 54 97 57 98 55 99
REMARK H PARENT 79 52 47 63
REMARK Flexibility Score: inf
ROOT
ATOM      1  O   UNL     1      -2.955   6.201   0.949  1.00  0.00    -0.462 OA
ENDROOT
BRANCH   1   2
ATOM      2  C   UNL     1      -3.885   6.119   1.943  1.00  0.00     0.306 C 
ATOM      3  O   UNL     1      -4.503   5.095   2.214  1.00  0.00    -0.252 OA
BRANCH   2   4
ATOM      4  C   UNL     1      -4.031   7.398   2.755  1.00  0.00     0.129 C 
BRANCH   4   5
ATOM      5  C   UNL     1      -2.778   8.010   3.403  1.00  0.00     0.066 C 
BRANCH   5   6
ATOM      6  C   UNL     1      -1.881   8.689   2.423  1.00  0.00     0.024 A 
ATOM      7  N   UNL     1      -0.920   8.091   1.605  1.00  0.00    -0.314 N 
ATOM      8  C   UNL     1      -0.629   9.027   0.596  1.00  0.00     0.053 A 
ATOM      9  C   UNL     1      -1.882  10.047   2.154  1.00  0.00     0.024 A 
ATOM     10  C   UNL     1      -1.097  10.259   1.013  1.00  0.00     0.029 A 
BRANCH   7  11
ATOM     11  C   UNL     1      -0.419   6.748   1.655  1.00  0.00     0.046 A 
ATOM     12  C   UNL     1       0.773   3.332   1.483  1.00  0.00     0.082 A 
ATOM     13  C   UNL     1       1.591   4.609   0.522  1.00  0.00     0.024 A 
ATOM     14  C   UNL     1      -0.622   3.723   2.533  1.00  0.00     0.024 A 
ATOM     15  C   UNL     1       1.015   6.319   0.604  1.00  0.00     0.028 A 
ATOM     16  C   UNL     1      -1.188   5.434   2.675  1.00  0.00     0.028 A 
BRANCH  12  17
ATOM     17  S   UNL     1       1.427   1.701   1.503  1.00  0.00     0.242 S 
ATOM     18  O   UNL     1       0.878   1.025   2.658  1.00  0.00    -0.207 OA
ATOM     19  O   UNL     1       2.856   1.818   1.310  1.00  0.00    -0.207 OA
BRANCH  17  20
ATOM     20  N   UNL     1       0.739   0.998   0.102  1.00  0.00    -0.204 NA
ATOM     21  C   UNL     1       1.361  -0.304  -0.242  1.00  0.00     0.124 C 
ATOM     22  C   UNL     1      -0.739   0.889   0.104  1.00  0.00     0.124 C 
ENDBRANCH  17  20
ENDBRANCH  12  17
ENDBRANCH   7  11
BRANCH   8  23
ATOM     23  C   UNL     1      -0.115   8.730  -0.744  1.00  0.00    -0.001 A 
ATOM     24  C   UNL     1       1.110   9.252  -1.183  1.00  0.00     0.013 A 
ATOM     25  C   UNL     1      -0.864   7.913  -1.607  1.00  0.00     0.013 A 
ATOM     26  C   UNL     1       1.608   8.902  -2.441  1.00  0.00     0.040 A 
ATOM     27  C   UNL     1      -0.363   7.562  -2.861  1.00  0.00     0.040 A 
ATOM     28  C   UNL     1       0.872   8.054  -3.262  1.00  0.00     0.123 A 
ATOM     29  F   UNL     1       1.360   7.705  -4.459  1.00  0.00    -0.207 F 
ENDBRANCH   8  23
ENDBRANCH   5   6
ENDBRANCH   4   5
ENDBRANCH   2   4
ENDBRANCH   1   2
BRANCH   1  30
ATOM     30  C   UNL     1      -2.345   4.947   0.539  1.00  0.00     0.274 C 
BRANCH  30  31
ATOM     31  C   UNL     1      -0.682   4.880   0.545  1.00  0.00     0.275 C 
BRANCH  31  32
ATOM     32  O   UNL     1       0.580   5.154   2.095  1.00  0.00    -0.458 OA
BRANCH  32  33
ATOM     33  C   UNL     1       1.486   5.782   2.959  1.00  0.00     0.338 C 
ATOM     34  O   UNL     1       2.029   6.883   2.866  1.00  0.00    -0.246 OA
BRANCH  33  35
ATOM     35  C   UNL     1       1.659   5.072   4.213  1.00  0.00     0.060 A 
ATOM     36  C   UNL     1       1.072   5.698   5.324  1.00  0.00     0.016 A 
ATOM     37  C   UNL     1       2.795   4.271   4.290  1.00  0.00     0.016 A 
ATOM     38  C   UNL     1       1.759   5.683   6.515  1.00  0.00     0.010 A 
ATOM     39  C   UNL     1       3.486   4.269   5.479  1.00  0.00     0.010 A 
ATOM     40  C   UNL     1       3.000   5.043   6.547  1.00  0.00    -0.014 A 
BRANCH  40  41
ATOM     41  C   UNL     1       3.831   5.190   7.743  1.00  0.00     0.031 A 
ATOM     42  C   UNL     1       3.550   4.099   8.759  1.00  0.00     0.074 A 
ATOM     43  C   UNL     1       4.714   6.231   7.709  1.00  0.00     0.049 A 
ATOM     44  N   UNL     1       3.936   3.997   9.991  1.00  0.00    -0.248 NA
ATOM     45  C   UNL     1       2.686   2.954   8.357  1.00  0.00     0.031 C 
ATOM     46  C   UNL     1       4.809   7.208   6.601  1.00  0.00     0.029 A 
ATOM     47  N   UNL     1       5.700   6.685   8.560  1.00  0.00    -0.354 N 
ATOM     48  C   UNL     1       3.572   2.710  10.420  1.00  0.00     0.074 A 
ATOM     49  C   UNL     1       2.703   2.162   9.426  1.00  0.00     0.031 C 
ATOM     50  C   UNL     1       5.737   8.147   6.866  1.00  0.00     0.029 A 
ATOM     51  C   UNL     1       6.365   7.867   8.141  1.00  0.00     0.049 A 
ATOM     52  H   UNL     1       5.926   6.222   9.399  1.00  0.00     0.167 HD
ATOM     53  C   UNL     1       4.140   2.106  11.497  1.00  0.00     0.037 A 
ATOM     54  C   UNL     1       7.341   8.579   8.784  1.00  0.00     0.037 A 
ATOM     55  C   UNL     1       5.007   3.002  12.184  1.00  0.00     0.049 A 
ATOM     56  C   UNL     1       7.729   7.747   9.936  1.00  0.00     0.074 A 
ATOM     57  C   UNL     1       4.772   4.079  12.998  1.00  0.00     0.029 A 
ATOM     58  N   UNL     1       6.326   3.014  11.806  1.00  0.00    -0.354 N 
ATOM     59  N   UNL     1       8.435   6.658   9.854  1.00  0.00    -0.248 NA
ATOM     60  C   UNL     1       7.234   8.103  11.270  1.00  0.00     0.031 C 
ATOM     61  C   UNL     1       5.889   4.922  12.810  1.00  0.00     0.029 A 
ATOM     62  C   UNL     1       6.794   4.300  11.945  1.00  0.00     0.049 A 
ATOM     63  H   UNL     1       6.845   2.240  11.490  1.00  0.00     0.167 HD
ATOM     64  C   UNL     1       8.178   6.043  11.058  1.00  0.00     0.074 A 
ATOM     65  C   UNL     1       7.718   7.074  11.958  1.00  0.00     0.031 C 
ATOM     66  C   UNL     1       7.875   4.721  11.082  1.00  0.00     0.037 A 
BRANCH  53  67
ATOM     67  C   UNL     1       4.161   0.659  11.881  1.00  0.00     0.064 A 
ATOM     68  C   UNL     1       4.445   0.331  13.225  1.00  0.00     0.173 A 
ATOM     69  C   UNL     1       4.253  -0.385  10.949  1.00  0.00     0.173 A 
ATOM     70  F   UNL     1       4.350   1.258  14.191  1.00  0.00    -0.203 F 
ATOM     71  C   UNL     1       4.909  -0.929  13.591  1.00  0.00     0.198 A 
ATOM     72  C   UNL     1       4.670  -1.662  11.329  1.00  0.00     0.198 A 
ATOM     73  F   UNL     1       4.045  -0.174   9.643  1.00  0.00    -0.203 F 
ATOM     74  F   UNL     1       5.293  -1.156  14.855  1.00  0.00    -0.200 F 
ATOM     75  C   UNL     1       5.036  -1.922  12.639  1.00  0.00     0.200 A 
ATOM     76  F   UNL     1       4.789  -2.624  10.403  1.00  0.00    -0.200 F 
ATOM     77  F   UNL     1       5.544  -3.115  12.974  1.00  0.00    -0.200 F 
ENDBRANCH  53  67
BRANCH  54  78
ATOM     78  C   UNL     1       8.042   9.916   8.641  1.00  0.00     0.064 A 
ATOM     79  C   UNL     1       7.883  10.830   7.590  1.00  0.00     0.173 A 
ATOM     80  C   UNL     1       8.893  10.384   9.685  1.00  0.00     0.173 A 
ATOM     81  F   UNL     1       7.205  10.514   6.485  1.00  0.00    -0.203 F 
ATOM     82  C   UNL     1       8.432  12.125   7.629  1.00  0.00     0.198 A 
ATOM     83  C   UNL     1       9.408  11.681   9.742  1.00  0.00     0.198 A 
ATOM     84  F   UNL     1       9.252   9.597  10.708  1.00  0.00    -0.203 F 
ATOM     85  F   UNL     1       8.230  12.962   6.601  1.00  0.00    -0.200 F 
ATOM     86  C   UNL     1       9.163  12.561   8.718  1.00  0.00     0.200 A 
ATOM     87  F   UNL     1      10.121  12.066  10.810  1.00  0.00    -0.200 F 
ATOM     88  F   UNL     1       9.634  13.814   8.776  1.00  0.00    -0.200 F 
ENDBRANCH  54  78
BRANCH  66  89
ATOM     89  C   UNL     1       8.401   3.966   9.880  1.00  0.00     0.064 A 
ATOM     90  C   UNL     1       9.783   3.801   9.704  1.00  0.00     0.173 A 
ATOM     91  C   UNL     1       7.583   3.525   8.827  1.00  0.00     0.173 A 
ATOM     92  F   UNL     1      10.630   4.189  10.670  1.00  0.00    -0.203 F 
ATOM     93  C   UNL     1      10.309   3.241   8.537  1.00  0.00     0.198 A 
ATOM     94  C   UNL     1       8.104   2.959   7.663  1.00  0.00     0.198 A 
ATOM     95  F   UNL     1       6.259   3.628   8.911  1.00  0.00    -0.203 F 
ATOM     96  F   UNL     1      11.635   3.102   8.403  1.00  0.00    -0.200 F 
ATOM     97  C   UNL     1       9.470   2.824   7.516  1.00  0.00     0.200 A 
ATOM     98  F   UNL     1       7.277   2.543   6.692  1.00  0.00    -0.200 F 
ATOM     99  F   UNL     1       9.977   2.279   6.400  1.00  0.00    -0.200 F 
ENDBRANCH  66  89
ENDBRANCH  40  41
ENDBRANCH  33  35
ENDBRANCH  32  33
ENDBRANCH  31  32
ENDBRANCH  30  31
ENDBRANCH   1  30
TORSDOF 17
