REMARK SMILES Cc1ccc2nc3c(c(C(=O)OCCOC(=O)c4ccc(-c5c6nc(c(-c7c(F)c(F)c(F)c(F)c7F)c7ccc([nH]7)c(-c7c(F)c(F)c(F)c(F)c7F)c7nc(c(-c8c(F)c(F)c(F)c(F)c8F)c8ccc5[nH]8)C=C7)C=C6)cc4)c2c1)C[C@H](C)CC3
REMARK SMILES IDX 14 1 13 2 12 3 10 4 11 5 9 6 1 7 2 8 3 9 82 10 4 11 81 12
REMARK SMILES IDX 5 13 6 14 8 15 7 16 83 17 87 18 84 19 86 20 85 21 15 22
REMARK SMILES IDX 16 23 17 24 18 25 19 26 80 27 20 28 79 29 21 30 22 31 23 32
REMARK SMILES IDX 73 33 24 34 78 35 72 36 74 37 25 38 77 39 71 40 70 41 26 43
REMARK SMILES IDX 58 44 38 45 57 46 39 47 42 48 56 49 75 50 40 51 41 52 55 54
REMARK SMILES IDX 76 55 43 56 27 57 28 58 36 59 29 60 30 61 34 62 37 63 31 64
REMARK SMILES IDX 32 65 35 66 33 67 59 68 60 69 68 70 61 71 62 72 66 73 69 74
REMARK SMILES IDX 63 75 64 76 67 77 65 78 44 79 45 80 53 81 46 82 47 83 51 84
REMARK SMILES IDX 54 85 48 86 49 87 52 88 50 89
REMARK H PARENT 74 42 42 53
REMARK Flexibility Score: inf
ROOT
ATOM      1  C   UNL     1      -2.868  -0.773   4.716  1.00  0.00     0.275 C 
ENDROOT
BRANCH   1   2
ATOM      2  C   UNL     1      -2.969  -0.283   3.271  1.00  0.00     0.275 C 
BRANCH   2   3
ATOM      3  O   UNL     1      -2.191   0.925   3.080  1.00  0.00    -0.458 OA
BRANCH   3   4
ATOM      4  C   UNL     1      -2.790   1.929   2.387  1.00  0.00     0.339 C 
ATOM      5  O   UNL     1      -3.974   1.992   2.100  1.00  0.00    -0.246 OA
BRANCH   4   6
ATOM      6  C   UNL     1      -1.808   2.989   2.013  1.00  0.00     0.074 A 
ATOM      7  C   UNL     1       1.248  -0.267  -0.374  1.00  0.00     0.044 C 
ATOM      8  C   UNL     1       0.883   1.115   0.079  1.00  0.00    -0.050 A 
ATOM      9  C   UNL     1       1.675   2.202  -0.274  1.00  0.00     0.005 A 
ATOM     10  C   UNL     1      -0.285   1.347   0.816  1.00  0.00     0.014 A 
ATOM     11  C   UNL     1       1.319   3.485   0.140  1.00  0.00     0.029 A 
ATOM     12  C   UNL     1      -0.651   2.651   1.257  1.00  0.00     0.015 A 
ATOM     13  C   UNL     1       0.185   3.725   0.898  1.00  0.00     0.071 A 
ATOM     14  N   UNL     1      -0.057   4.996   1.240  1.00  0.00    -0.253 NA
ATOM     15  C   UNL     1      -2.089   4.339   2.340  1.00  0.00    -0.011 A 
ATOM     16  C   UNL     1      -1.170   5.299   1.938  1.00  0.00     0.045 A 
ATOM     17  C   UNL     1      -3.326   4.748   3.090  1.00  0.00     0.041 C 
ATOM     18  C   UNL     1      -1.325   6.747   2.318  1.00  0.00     0.057 C 
ATOM     19  C   UNL     1      -3.467   6.228   3.494  1.00  0.00    -0.009 C 
ATOM     20  C   UNL     1      -2.781   7.150   2.493  1.00  0.00     0.010 C 
ATOM     21  C   UNL     1      -4.940   6.618   3.660  1.00  0.00     0.008 C 
ENDBRANCH   4   6
ENDBRANCH   3   4
ENDBRANCH   2   3
ENDBRANCH   1   2
BRANCH   1  22
ATOM     22  O   UNL     1      -3.705   0.073   5.521  1.00  0.00    -0.458 OA
BRANCH  22  23
ATOM     23  C   UNL     1      -3.147   0.621   6.625  1.00  0.00     0.338 C 
ATOM     24  O   UNL     1      -2.083   0.351   7.145  1.00  0.00    -0.246 OA
BRANCH  23  25
ATOM     25  C   UNL     1      -3.999   1.758   7.016  1.00  0.00     0.060 A 
ATOM     26  C   UNL     1      -4.551   1.900   8.285  1.00  0.00     0.016 A 
ATOM     27  C   UNL     1      -4.141   2.774   6.080  1.00  0.00     0.016 A 
ATOM     28  C   UNL     1      -5.263   3.072   8.600  1.00  0.00     0.010 A 
ATOM     29  C   UNL     1      -4.762   3.968   6.427  1.00  0.00     0.010 A 
ATOM     30  C   UNL     1      -5.354   4.135   7.680  1.00  0.00    -0.014 A 
BRANCH  30  31
ATOM     31  C   UNL     1      -5.952   5.461   8.017  1.00  0.00     0.031 A 
ATOM     32  C   UNL     1      -7.094   6.055   7.223  1.00  0.00     0.074 A 
ATOM     33  C   UNL     1      -5.340   6.234   8.935  1.00  0.00     0.049 A 
ATOM     34  N   UNL     1      -7.707   7.205   7.388  1.00  0.00    -0.248 NA
ATOM     35  C   UNL     1      -7.566   5.300   6.054  1.00  0.00     0.031 C 
ATOM     36  C   UNL     1      -4.101   5.893   9.632  1.00  0.00     0.029 A 
ATOM     37  N   UNL     1      -5.667   7.475   9.427  1.00  0.00    -0.354 N 
ATOM     38  C   UNL     1      -8.594   7.327   6.323  1.00  0.00     0.074 A 
ATOM     39  C   UNL     1      -8.399   6.163   5.487  1.00  0.00     0.031 C 
ATOM     40  C   UNL     1      -3.802   6.870  10.501  1.00  0.00     0.029 A 
ATOM     41  C   UNL     1      -4.831   7.905  10.427  1.00  0.00     0.049 A 
ATOM     42  H   UNL     1      -6.427   8.005   9.094  1.00  0.00     0.167 HD
ATOM     43  C   UNL     1      -9.508   8.301   6.085  1.00  0.00     0.037 A 
ATOM     44  C   UNL     1      -4.909   8.981  11.233  1.00  0.00     0.037 A 
ATOM     45  C   UNL     1      -9.760   9.406   6.978  1.00  0.00     0.049 A 
ATOM     46  C   UNL     1      -6.070   9.926  11.104  1.00  0.00     0.074 A 
ATOM     47  C   UNL     1     -10.785  10.337   6.929  1.00  0.00     0.029 A 
ATOM     48  N   UNL     1      -8.988   9.723   8.083  1.00  0.00    -0.354 N 
ATOM     49  N   UNL     1      -7.019   9.944  10.202  1.00  0.00    -0.248 NA
ATOM     50  C   UNL     1      -6.192  10.978  12.124  1.00  0.00     0.031 C 
ATOM     51  C   UNL     1     -10.616  11.235   7.987  1.00  0.00     0.029 A 
ATOM     52  C   UNL     1      -9.517  10.831   8.726  1.00  0.00     0.049 A 
ATOM     53  H   UNL     1      -8.183   9.233   8.370  1.00  0.00     0.167 HD
ATOM     54  C   UNL     1      -7.867  10.982  10.561  1.00  0.00     0.074 A 
ATOM     55  C   UNL     1      -7.327  11.567  11.769  1.00  0.00     0.031 C 
ATOM     56  C   UNL     1      -8.993  11.404   9.938  1.00  0.00     0.037 A 
BRANCH  43  57
ATOM     57  C   UNL     1     -10.373   8.205   4.854  1.00  0.00     0.064 A 
ATOM     58  C   UNL     1     -11.324   7.185   4.704  1.00  0.00     0.173 A 
ATOM     59  C   UNL     1     -10.350   9.220   3.882  1.00  0.00     0.173 A 
ATOM     60  F   UNL     1     -11.402   6.194   5.605  1.00  0.00    -0.203 F 
ATOM     61  C   UNL     1     -12.202   7.171   3.622  1.00  0.00     0.198 A 
ATOM     62  C   UNL     1     -11.256   9.225   2.824  1.00  0.00     0.198 A 
ATOM     63  F   UNL     1      -9.477  10.234   3.981  1.00  0.00    -0.203 F 
ATOM     64  F   UNL     1     -13.079   6.167   3.488  1.00  0.00    -0.200 F 
ATOM     65  C   UNL     1     -12.178   8.198   2.692  1.00  0.00     0.200 A 
ATOM     66  F   UNL     1     -11.252  10.235   1.942  1.00  0.00    -0.200 F 
ATOM     67  F   UNL     1     -13.050   8.203   1.674  1.00  0.00    -0.200 F 
ENDBRANCH  43  57
BRANCH  44  68
ATOM     68  C   UNL     1      -3.943   9.102  12.352  1.00  0.00     0.064 A 
ATOM     69  C   UNL     1      -4.332   8.739  13.650  1.00  0.00     0.173 A 
ATOM     70  C   UNL     1      -2.614   9.495  12.150  1.00  0.00     0.173 A 
ATOM     71  F   UNL     1      -5.598   8.365  13.887  1.00  0.00    -0.203 F 
ATOM     72  C   UNL     1      -3.428   8.768  14.707  1.00  0.00     0.198 A 
ATOM     73  C   UNL     1      -1.704   9.504  13.206  1.00  0.00     0.198 A 
ATOM     74  F   UNL     1      -2.193   9.833  10.923  1.00  0.00    -0.203 F 
ATOM     75  F   UNL     1      -3.832   8.431  15.939  1.00  0.00    -0.200 F 
ATOM     76  C   UNL     1      -2.112   9.141  14.482  1.00  0.00     0.200 A 
ATOM     77  F   UNL     1      -0.428   9.847  12.986  1.00  0.00    -0.200 F 
ATOM     78  F   UNL     1      -1.236   9.149  15.496  1.00  0.00    -0.200 F 
ENDBRANCH  44  68
BRANCH  56  79
ATOM     79  C   UNL     1      -9.760  12.536  10.555  1.00  0.00     0.064 A 
ATOM     80  C   UNL     1      -9.296  13.858  10.497  1.00  0.00     0.173 A 
ATOM     81  C   UNL     1     -11.020  12.306  11.130  1.00  0.00     0.173 A 
ATOM     82  F   UNL     1      -8.095  14.128   9.964  1.00  0.00    -0.203 F 
ATOM     83  C   UNL     1     -10.060  14.907  11.001  1.00  0.00     0.198 A 
ATOM     84  C   UNL     1     -11.792  13.360  11.611  1.00  0.00     0.198 A 
ATOM     85  F   UNL     1     -11.514  11.061  11.201  1.00  0.00    -0.203 F 
ATOM     86  F   UNL     1      -9.586  16.160  10.958  1.00  0.00    -0.200 F 
ATOM     87  C   UNL     1     -11.311  14.659  11.548  1.00  0.00     0.200 A 
ATOM     88  F   UNL     1     -13.006  13.120  12.125  1.00  0.00    -0.200 F 
ATOM     89  F   UNL     1     -12.052  15.672  12.016  1.00  0.00    -0.200 F 
ENDBRANCH  56  79
ENDBRANCH  30  31
ENDBRANCH  23  25
ENDBRANCH  22  23
ENDBRANCH   1  22
TORSDOF 11
