REMARK SMILES CC[C@@H](C(=O)OCCOC(=O)c1ccc(-c2c3nc(c(-c4c(F)c(F)c(F)c(F)c4F)c4ccc([nH]4)c(-c4c(F)c(F)c(F)c(F)c4F)c4nc(c(-c5c(F)c(F)c(F)c(F)c5F)c5ccc2[nH]5)C=C4)C=C3)cc1)c1cc(Br)ccc1F
REMARK SMILES IDX 8 1 7 2 6 3 4 4 5 5 3 6 2 7 1 8 75 9 76 10 81 11 77 12 80 13
REMARK SMILES IDX 82 14 78 15 79 16 9 17 10 18 11 19 12 20 13 21 74 22 14 23
REMARK SMILES IDX 73 24 15 25 16 26 17 27 67 28 18 29 72 30 66 31 68 32 19 33
REMARK SMILES IDX 71 34 65 35 64 36 20 38 52 39 32 40 51 41 33 42 36 43 50 44
REMARK SMILES IDX 69 45 34 46 35 47 49 49 70 50 37 51 21 52 22 53 30 54 23 55
REMARK SMILES IDX 24 56 28 57 31 58 25 59 26 60 29 61 27 62 53 63 54 64 62 65
REMARK SMILES IDX 55 66 56 67 60 68 63 69 57 70 58 71 61 72 59 73 38 74 39 75
REMARK SMILES IDX 47 76 40 77 41 78 45 79 48 80 42 81 43 82 46 83 44 84
REMARK H PARENT 68 37 36 48
REMARK Flexibility Score: inf
ROOT
ATOM      1  C   UNL     1      -1.236  -3.779  -0.699  1.00  0.00     0.275 C 
ENDROOT
BRANCH   1   2
ATOM      2  C   UNL     1       0.276  -3.838  -0.963  1.00  0.00     0.274 C 
BRANCH   2   3
ATOM      3  O   UNL     1       0.865  -2.536  -1.163  1.00  0.00    -0.462 OA
BRANCH   3   4
ATOM      4  C   UNL     1       0.850  -2.044  -2.433  1.00  0.00     0.313 C 
ATOM      5  O   UNL     1       0.382  -2.671  -3.375  1.00  0.00    -0.252 OA
BRANCH   4   6
ATOM      6  C   UNL     1       1.530  -0.653  -2.529  1.00  0.00     0.132 C 
BRANCH   6   7
ATOM      7  C   UNL     1       0.996   0.333  -1.451  1.00  0.00     0.017 C 
ATOM      8  C   UNL     1       1.294   0.001   0.005  1.00  0.00     0.005 C 
ENDBRANCH   6   7
BRANCH   6   9
ATOM      9  C   UNL     1       1.414  -0.063  -3.959  1.00  0.00     0.003 A 
ATOM     10  C   UNL     1       0.889   1.218  -4.231  1.00  0.00     0.023 A 
ATOM     11  C   UNL     1       1.813  -0.827  -5.069  1.00  0.00     0.127 A 
ATOM     12  C   UNL     1       0.709   1.665  -5.546  1.00  0.00     0.018 A 
ATOM     13  C   UNL     1       1.595  -0.401  -6.381  1.00  0.00     0.041 A 
ATOM     14  F   UNL     1       2.415  -2.011  -4.887  1.00  0.00    -0.207 F 
ATOM     15  Br  UNL     1      -0.025   3.380  -5.857  1.00  0.00    -0.051 Br
ATOM     16  C   UNL     1       1.033   0.849  -6.625  1.00  0.00     0.019 A 
ENDBRANCH   6   9
ENDBRANCH   4   6
ENDBRANCH   3   4
ENDBRANCH   2   3
ENDBRANCH   1   2
BRANCH   1  17
ATOM     17  O   UNL     1      -1.984  -3.519  -1.903  1.00  0.00    -0.458 OA
BRANCH  17  18
ATOM     18  C   UNL     1      -2.375  -2.235  -2.082  1.00  0.00     0.338 C 
ATOM     19  O   UNL     1      -2.261  -1.316  -1.283  1.00  0.00    -0.246 OA
BRANCH  18  20
ATOM     20  C   UNL     1      -2.762  -2.021  -3.491  1.00  0.00     0.060 A 
ATOM     21  C   UNL     1      -2.089  -1.004  -4.172  1.00  0.00     0.016 A 
ATOM     22  C   UNL     1      -3.735  -2.775  -4.148  1.00  0.00     0.016 A 
ATOM     23  C   UNL     1      -2.327  -0.775  -5.521  1.00  0.00     0.010 A 
ATOM     24  C   UNL     1      -4.011  -2.514  -5.500  1.00  0.00     0.010 A 
ATOM     25  C   UNL     1      -3.294  -1.524  -6.195  1.00  0.00    -0.014 A 
BRANCH  25  26
ATOM     26  C   UNL     1      -3.581  -1.188  -7.608  1.00  0.00     0.031 A 
ATOM     27  C   UNL     1      -4.610  -0.144  -7.921  1.00  0.00     0.074 A 
ATOM     28  C   UNL     1      -2.847  -1.723  -8.600  1.00  0.00     0.049 A 
ATOM     29  N   UNL     1      -5.042   0.275  -9.083  1.00  0.00    -0.248 NA
ATOM     30  C   UNL     1      -5.213   0.540  -6.767  1.00  0.00     0.031 C 
ATOM     31  C   UNL     1      -1.719  -2.634  -8.417  1.00  0.00     0.029 A 
ATOM     32  N   UNL     1      -2.933  -1.561  -9.960  1.00  0.00    -0.354 N 
ATOM     33  C   UNL     1      -5.968   1.268  -8.803  1.00  0.00     0.074 A 
ATOM     34  C   UNL     1      -6.037   1.390  -7.361  1.00  0.00     0.031 C 
ATOM     35  C   UNL     1      -1.223  -2.959  -9.624  1.00  0.00     0.029 A 
ATOM     36  C   UNL     1      -2.029  -2.320 -10.662  1.00  0.00     0.049 A 
ATOM     37  H   UNL     1      -3.582  -0.959 -10.392  1.00  0.00     0.167 HD
ATOM     38  C   UNL     1      -6.701   2.005  -9.671  1.00  0.00     0.037 A 
ATOM     39  C   UNL     1      -1.898  -2.502 -11.991  1.00  0.00     0.037 A 
ATOM     40  C   UNL     1      -6.650   1.865 -11.102  1.00  0.00     0.049 A 
ATOM     41  C   UNL     1      -2.842  -1.794 -12.930  1.00  0.00     0.074 A 
ATOM     42  C   UNL     1      -7.399   2.522 -12.062  1.00  0.00     0.029 A 
ATOM     43  N   UNL     1      -5.803   1.000 -11.779  1.00  0.00    -0.354 N 
ATOM     44  N   UNL     1      -3.762  -0.899 -12.664  1.00  0.00    -0.248 NA
ATOM     45  C   UNL     1      -2.742  -2.140 -14.357  1.00  0.00     0.031 C 
ATOM     46  C   UNL     1      -7.042   2.017 -13.317  1.00  0.00     0.029 A 
ATOM     47  C   UNL     1      -6.033   1.084 -13.143  1.00  0.00     0.049 A 
ATOM     48  H   UNL     1      -5.138   0.412 -11.353  1.00  0.00     0.167 HD
ATOM     49  C   UNL     1      -4.331  -0.558 -13.885  1.00  0.00     0.074 A 
ATOM     50  C   UNL     1      -3.643  -1.331 -14.897  1.00  0.00     0.031 C 
ATOM     51  C   UNL     1      -5.335   0.316 -14.143  1.00  0.00     0.037 A 
BRANCH  38  52
ATOM     52  C   UNL     1      -7.675   2.980  -9.083  1.00  0.00     0.064 A 
ATOM     53  C   UNL     1      -7.255   4.181  -8.492  1.00  0.00     0.173 A 
ATOM     54  C   UNL     1      -9.050   2.706  -9.115  1.00  0.00     0.173 A 
ATOM     55  F   UNL     1      -5.949   4.478  -8.419  1.00  0.00    -0.203 F 
ATOM     56  C   UNL     1      -8.178   5.060  -7.931  1.00  0.00     0.198 A 
ATOM     57  C   UNL     1      -9.971   3.600  -8.577  1.00  0.00     0.198 A 
ATOM     58  F   UNL     1      -9.501   1.571  -9.670  1.00  0.00    -0.203 F 
ATOM     59  F   UNL     1      -7.754   6.180  -7.328  1.00  0.00    -0.200 F 
ATOM     60  C   UNL     1      -9.534   4.772  -7.978  1.00  0.00     0.200 A 
ATOM     61  F   UNL     1     -11.281   3.322  -8.631  1.00  0.00    -0.200 F 
ATOM     62  F   UNL     1     -10.421   5.619  -7.437  1.00  0.00    -0.200 F 
ENDBRANCH  38  52
BRANCH  39  63
ATOM     63  C   UNL     1      -0.871  -3.437 -12.524  1.00  0.00     0.064 A 
ATOM     64  C   UNL     1       0.189  -2.974 -13.315  1.00  0.00     0.173 A 
ATOM     65  C   UNL     1      -0.959  -4.819 -12.296  1.00  0.00     0.173 A 
ATOM     66  F   UNL     1       0.298  -1.666 -13.591  1.00  0.00    -0.203 F 
ATOM     67  C   UNL     1       1.110  -3.859 -13.874  1.00  0.00     0.198 A 
ATOM     68  C   UNL     1      -0.020  -5.699 -12.829  1.00  0.00     0.198 A 
ATOM     69  F   UNL     1      -1.962  -5.316 -11.558  1.00  0.00    -0.203 F 
ATOM     70  F   UNL     1       2.081  -3.396 -14.673  1.00  0.00    -0.200 F 
ATOM     71  C   UNL     1       1.008  -5.220 -13.626  1.00  0.00     0.200 A 
ATOM     72  F   UNL     1      -0.121  -7.012 -12.583  1.00  0.00    -0.200 F 
ATOM     73  F   UNL     1       1.890  -6.071 -14.168  1.00  0.00    -0.200 F 
ENDBRANCH  39  63
BRANCH  51  74
ATOM     74  C   UNL     1      -5.734   0.512 -15.577  1.00  0.00     0.064 A 
ATOM     75  C   UNL     1      -6.444  -0.469 -16.285  1.00  0.00     0.173 A 
ATOM     76  C   UNL     1      -5.452   1.720 -16.234  1.00  0.00     0.173 A 
ATOM     77  F   UNL     1      -6.726  -1.647 -15.708  1.00  0.00    -0.203 F 
ATOM     78  C   UNL     1      -6.841  -0.254 -17.603  1.00  0.00     0.198 A 
ATOM     79  C   UNL     1      -5.875   1.942 -17.541  1.00  0.00     0.198 A 
ATOM     80  F   UNL     1      -4.780   2.693 -15.600  1.00  0.00    -0.203 F 
ATOM     81  F   UNL     1      -7.484  -1.221 -18.272  1.00  0.00    -0.200 F 
ATOM     82  C   UNL     1      -6.565   0.953 -18.226  1.00  0.00     0.200 A 
ATOM     83  F   UNL     1      -5.619   3.115 -18.138  1.00  0.00    -0.200 F 
ATOM     84  F   UNL     1      -6.958   1.162 -19.490  1.00  0.00    -0.200 F 
ENDBRANCH  51  74
ENDBRANCH  25  26
ENDBRANCH  18  20
ENDBRANCH  17  18
ENDBRANCH   1  17
TORSDOF 13
