REMARK SMILES CO[C@H]1CN(C(=O)c2cn(C(C)C)cc(C(=O)OCCOC(=O)c3ccc(-c4c5nc(c(-c6c(F)c(F)c(F)c(F)c6F)c6ccc([nH]6)c(-c6c(F)c(F)c(F)c(F)c6F)c6nc(c(-c7c(F)c(F)c(F)c(F)c7F)c7ccc4[nH]7)C=C6)C=C5)cc3)c2=O)CC[C@H]1[NH3+]
REMARK SMILES IDX 19 1 18 2 16 3 17 4 15 5 8 6 9 7 87 8 10 9 88 10 14 11 6 12
REMARK SMILES IDX 7 13 5 14 3 15 4 16 91 17 90 18 89 19 2 20 1 21 92 22 11 26
REMARK SMILES IDX 12 27 13 28 20 29 21 30 22 31 23 32 24 33 25 34 86 35 26 36
REMARK SMILES IDX 85 37 27 38 28 39 29 40 79 41 30 42 84 43 78 44 80 45 31 46
REMARK SMILES IDX 83 47 77 48 76 49 32 51 64 52 44 53 63 54 45 55 48 56 62 57
REMARK SMILES IDX 81 58 46 59 47 60 61 62 82 63 49 64 33 65 34 66 42 67 35 68
REMARK SMILES IDX 36 69 40 70 43 71 37 72 38 73 41 74 39 75 65 76 66 77 74 78
REMARK SMILES IDX 67 79 68 80 72 81 75 82 69 83 70 84 73 85 71 86 50 87 51 88
REMARK SMILES IDX 59 89 52 90 53 91 57 92 60 93 54 94 55 95 58 96 56 97
REMARK H PARENT 92 23 92 24 92 25 80 50 48 61
REMARK Flexibility Score: inf
ROOT
ATOM      1  C   UNL     1      -2.828   8.615   0.148  1.00  0.00     0.275 C 
ENDROOT
BRANCH   1   2
ATOM      2  O   UNL     1      -2.277   7.572  -0.677  1.00  0.00    -0.458 OA
BRANCH   2   3
ATOM      3  C   UNL     1      -2.915   6.381  -0.681  1.00  0.00     0.343 C 
ATOM      4  O   UNL     1      -3.920   6.110  -0.036  1.00  0.00    -0.246 OA
BRANCH   3   5
ATOM      5  C   UNL     1      -2.322   5.455  -1.663  1.00  0.00     0.124 A 
ATOM      6  C   UNL     1      -0.460   4.275  -2.896  1.00  0.00     0.104 A 
ATOM      7  C   UNL     1      -1.398   3.502  -3.467  1.00  0.00     0.103 A 
ATOM      8  C   UNL     1      -0.892   5.433  -2.063  1.00  0.00     0.208 A 
ATOM      9  N   UNL     1      -2.762   3.656  -3.246  1.00  0.00    -0.350 N 
ATOM     10  O   UNL     1      -0.074   6.243  -1.637  1.00  0.00    -0.288 OA
ATOM     11  C   UNL     1      -3.127   4.545  -2.240  1.00  0.00     0.105 A 
BRANCH   6  12
ATOM     12  C   UNL     1       0.943   3.825  -2.991  1.00  0.00     0.259 C 
ATOM     13  O   UNL     1       1.473   3.717  -4.096  1.00  0.00    -0.269 OA
BRANCH  12  14
ATOM     14  N   UNL     1       1.557   3.438  -1.801  1.00  0.00    -0.335 N 
ATOM     15  C   UNL     1       1.194   2.258   0.368  1.00  0.00     0.195 C 
ATOM     16  C   UNL     1       0.945   3.520  -0.464  1.00  0.00     0.158 C 
ATOM     17  C   UNL     1       2.705   1.917   0.443  1.00  0.00     0.213 C 
ATOM     18  C   UNL     1       3.248   1.812  -0.994  1.00  0.00     0.089 C 
ATOM     19  C   UNL     1       2.968   3.064  -1.829  1.00  0.00     0.126 C 
BRANCH  15  20
ATOM     20  O   UNL     1       0.508   2.220   1.627  1.00  0.00    -0.373 OA
ATOM     21  C   UNL     1       0.607   3.373   2.448  1.00  0.00     0.195 C 
ENDBRANCH  15  20
BRANCH  17  22
ATOM     22  N   UNL     1       3.518   2.860   1.229  1.00  0.00    -0.353 N 
ATOM     23  H   UNL     1       3.491   3.780   0.789  1.00  0.00     0.344 HD
ATOM     24  H   UNL     1       4.482   2.529   1.266  1.00  0.00     0.344 HD
ATOM     25  H   UNL     1       3.143   2.925   2.175  1.00  0.00     0.344 HD
ENDBRANCH  17  22
ENDBRANCH  12  14
ENDBRANCH   6  12
BRANCH   9  26
ATOM     26  C   UNL     1      -3.802   2.902  -3.992  1.00  0.00     0.080 C 
ATOM     27  C   UNL     1      -3.615   3.028  -5.505  1.00  0.00     0.031 C 
ATOM     28  C   UNL     1      -3.847   1.448  -3.539  1.00  0.00     0.031 C 
ENDBRANCH   9  26
ENDBRANCH   3   5
ENDBRANCH   2   3
ENDBRANCH   1   2
BRANCH   1  29
ATOM     29  C   UNL     1      -3.511   9.685  -0.708  1.00  0.00     0.275 C 
BRANCH  29  30
ATOM     30  O   UNL     1      -4.768   9.209  -1.233  1.00  0.00    -0.458 OA
BRANCH  30  31
ATOM     31  C   UNL     1      -4.726   8.723  -2.493  1.00  0.00     0.338 C 
ATOM     32  O   UNL     1      -3.764   8.669  -3.243  1.00  0.00    -0.246 OA
BRANCH  31  33
ATOM     33  C   UNL     1      -6.001   8.056  -2.791  1.00  0.00     0.060 A 
ATOM     34  C   UNL     1      -7.156   8.748  -3.138  1.00  0.00     0.016 A 
ATOM     35  C   UNL     1      -5.997   6.665  -2.784  1.00  0.00     0.016 A 
ATOM     36  C   UNL     1      -8.314   8.020  -3.449  1.00  0.00     0.010 A 
ATOM     37  C   UNL     1      -7.131   5.937  -3.119  1.00  0.00     0.010 A 
ATOM     38  C   UNL     1      -8.312   6.610  -3.440  1.00  0.00    -0.014 A 
BRANCH  38  39
ATOM     39  C   UNL     1      -9.521   5.826  -3.797  1.00  0.00     0.031 A 
ATOM     40  C   UNL     1     -10.207   4.955  -2.779  1.00  0.00     0.074 A 
ATOM     41  C   UNL     1      -9.969   5.854  -5.066  1.00  0.00     0.049 A 
ATOM     42  N   UNL     1     -11.293   4.232  -2.909  1.00  0.00    -0.248 NA
ATOM     43  C   UNL     1      -9.578   4.851  -1.453  1.00  0.00     0.031 C 
ATOM     44  C   UNL     1      -9.328   6.572  -6.169  1.00  0.00     0.029 A 
ATOM     45  N   UNL     1     -11.071   5.273  -5.642  1.00  0.00    -0.354 N 
ATOM     46  C   UNL     1     -11.473   3.593  -1.689  1.00  0.00     0.074 A 
ATOM     47  C   UNL     1     -10.353   3.959  -0.851  1.00  0.00     0.031 C 
ATOM     48  C   UNL     1     -10.081   6.441  -7.272  1.00  0.00     0.029 A 
ATOM     49  C   UNL     1     -11.244   5.615  -6.960  1.00  0.00     0.049 A 
ATOM     50  H   UNL     1     -11.679   4.670  -5.156  1.00  0.00     0.167 HD
ATOM     51  C   UNL     1     -12.500   2.803  -1.293  1.00  0.00     0.037 A 
ATOM     52  C   UNL     1     -12.243   5.318  -7.813  1.00  0.00     0.037 A 
ATOM     53  C   UNL     1     -13.634   2.474  -2.116  1.00  0.00     0.049 A 
ATOM     54  C   UNL     1     -13.400   4.488  -7.332  1.00  0.00     0.074 A 
ATOM     55  C   UNL     1     -14.762   1.745  -1.780  1.00  0.00     0.029 A 
ATOM     56  N   UNL     1     -13.787   2.861  -3.438  1.00  0.00    -0.354 N 
ATOM     57  N   UNL     1     -13.605   3.965  -6.149  1.00  0.00    -0.248 NA
ATOM     58  C   UNL     1     -14.469   4.215  -8.303  1.00  0.00     0.031 C 
ATOM     59  C   UNL     1     -15.585   1.668  -2.907  1.00  0.00     0.029 A 
ATOM     60  C   UNL     1     -14.987   2.379  -3.935  1.00  0.00     0.049 A 
ATOM     61  H   UNL     1     -13.139   3.399  -3.948  1.00  0.00     0.167 HD
ATOM     62  C   UNL     1     -14.829   3.315  -6.226  1.00  0.00     0.074 A 
ATOM     63  C   UNL     1     -15.332   3.527  -7.567  1.00  0.00     0.031 C 
ATOM     64  C   UNL     1     -15.473   2.602  -5.271  1.00  0.00     0.037 A 
BRANCH  51  65
ATOM     65  C   UNL     1     -12.475   2.269   0.111  1.00  0.00     0.064 A 
ATOM     66  C   UNL     1     -12.695   3.111   1.211  1.00  0.00     0.173 A 
ATOM     67  C   UNL     1     -12.309   0.898   0.356  1.00  0.00     0.173 A 
ATOM     68  F   UNL     1     -12.854   4.431   1.030  1.00  0.00    -0.203 F 
ATOM     69  C   UNL     1     -12.733   2.603   2.507  1.00  0.00     0.198 A 
ATOM     70  C   UNL     1     -12.375   0.389   1.651  1.00  0.00     0.198 A 
ATOM     71  F   UNL     1     -12.106   0.047  -0.661  1.00  0.00    -0.203 F 
ATOM     72  F   UNL     1     -12.914   3.432   3.544  1.00  0.00    -0.200 F 
ATOM     73  C   UNL     1     -12.583   1.242   2.725  1.00  0.00     0.200 A 
ATOM     74  F   UNL     1     -12.244  -0.928   1.861  1.00  0.00    -0.200 F 
ATOM     75  F   UNL     1     -12.637   0.752   3.972  1.00  0.00    -0.200 F 
ENDBRANCH  51  65
BRANCH  52  76
ATOM     76  C   UNL     1     -12.226   5.885  -9.185  1.00  0.00     0.064 A 
ATOM     77  C   UNL     1     -13.103   6.920  -9.538  1.00  0.00     0.173 A 
ATOM     78  C   UNL     1     -11.323   5.432 -10.156  1.00  0.00     0.173 A 
ATOM     79  F   UNL     1     -13.995   7.374  -8.646  1.00  0.00    -0.203 F 
ATOM     80  C   UNL     1     -13.085   7.473 -10.816  1.00  0.00     0.198 A 
ATOM     81  C   UNL     1     -11.290   6.002 -11.427  1.00  0.00     0.198 A 
ATOM     82  F   UNL     1     -10.459   4.449  -9.863  1.00  0.00    -0.203 F 
ATOM     83  F   UNL     1     -13.955   8.441 -11.137  1.00  0.00    -0.200 F 
ATOM     84  C   UNL     1     -12.174   7.019 -11.757  1.00  0.00     0.200 A 
ATOM     85  F   UNL     1     -10.399   5.571 -12.330  1.00  0.00    -0.200 F 
ATOM     86  F   UNL     1     -12.150   7.559 -12.983  1.00  0.00    -0.200 F 
ENDBRANCH  52  76
BRANCH  64  87
ATOM     87  C   UNL     1     -16.797   1.999  -5.634  1.00  0.00     0.064 A 
ATOM     88  C   UNL     1     -16.881   0.869  -6.459  1.00  0.00     0.173 A 
ATOM     89  C   UNL     1     -17.986   2.513  -5.095  1.00  0.00     0.173 A 
ATOM     90  F   UNL     1     -15.772   0.350  -7.007  1.00  0.00    -0.203 F 
ATOM     91  C   UNL     1     -18.110   0.280  -6.741  1.00  0.00     0.198 A 
ATOM     92  C   UNL     1     -19.211   1.907  -5.359  1.00  0.00     0.198 A 
ATOM     93  F   UNL     1     -17.956   3.589  -4.294  1.00  0.00    -0.203 F 
ATOM     94  F   UNL     1     -18.171  -0.783  -7.555  1.00  0.00    -0.200 F 
ATOM     95  C   UNL     1     -19.272   0.793  -6.184  1.00  0.00     0.200 A 
ATOM     96  F   UNL     1     -20.332   2.396  -4.811  1.00  0.00    -0.200 F 
ATOM     97  F   UNL     1     -20.453   0.216  -6.445  1.00  0.00    -0.200 F 
ENDBRANCH  64  87
ENDBRANCH  38  39
ENDBRANCH  31  33
ENDBRANCH  30  31
ENDBRANCH  29  30
ENDBRANCH   1  29
TORSDOF 16
