REMARK SMILES Cc1nccnc1N1CCC2(CCC(=O)N([C@@H](C)C(=O)OCCOC(=O)c3ccc(-c4c5nc(c(-c6c(F)c(F)c(F)c(F)c6F)c6ccc([nH]6)c(-c6c(F)c(F)c(F)c(F)c6F)c6nc(c(-c7c(F)c(F)c(F)c(F)c7F)c7ccc4[nH]7)C=C6)C=C5)cc3)C2)CC1
REMARK SMILES IDX 22 1 21 2 19 3 20 4 17 5 18 6 16 7 8 8 9 9 92 10 10 11 91 12
REMARK SMILES IDX 11 13 12 14 90 15 13 16 14 17 15 18 7 19 1 20 2 21 3 22 4 23
REMARK SMILES IDX 6 24 5 25 23 26 24 27 25 28 26 29 27 30 28 31 89 32 29 33
REMARK SMILES IDX 88 34 30 35 31 36 32 37 82 38 33 39 87 40 81 41 83 42 34 43
REMARK SMILES IDX 86 44 80 45 79 46 35 48 67 49 47 50 66 51 48 52 51 53 65 54
REMARK SMILES IDX 84 55 49 56 50 57 64 59 85 60 52 61 36 62 37 63 45 64 38 65
REMARK SMILES IDX 39 66 43 67 46 68 40 69 41 70 44 71 42 72 68 73 69 74 77 75
REMARK SMILES IDX 70 76 71 77 75 78 78 79 72 80 73 81 76 82 74 83 53 84 54 85
REMARK SMILES IDX 62 86 55 87 56 88 60 89 63 90 57 91 58 92 61 93 59 94
REMARK H PARENT 83 47 51 58
REMARK Flexibility Score: inf
ROOT
ATOM      1  C   UNL     1       1.708   7.821   5.046  1.00  0.00     0.274 C 
ENDROOT
BRANCH   1   2
ATOM      2  O   UNL     1       2.488   7.528   3.867  1.00  0.00    -0.461 OA
BRANCH   2   3
ATOM      3  C   UNL     1       3.804   7.241   4.039  1.00  0.00     0.328 C 
ATOM      4  O   UNL     1       4.388   7.319   5.119  1.00  0.00    -0.250 OA
BRANCH   3   5
ATOM      5  C   UNL     1       4.519   6.738   2.760  1.00  0.00     0.192 C 
ATOM      6  C   UNL     1       5.765   7.581   2.486  1.00  0.00     0.044 C 
BRANCH   5   7
ATOM      7  N   UNL     1       3.705   6.479   1.548  1.00  0.00    -0.329 N 
ATOM      8  N   UNL     1       1.098   2.310  -0.353  1.00  0.00    -0.355 N 
ATOM      9  C   UNL     1       0.430   3.459   0.239  1.00  0.00     0.119 C 
ATOM     10  C   UNL     1       2.022   2.650  -1.424  1.00  0.00     0.119 C 
ATOM     11  C   UNL     1       1.508   4.309   0.897  1.00  0.00     0.030 C 
ATOM     12  C   UNL     1       3.168   3.474  -0.820  1.00  0.00     0.030 C 
ATOM     13  C   UNL     1       2.699   4.716  -0.001  1.00  0.00    -0.008 C 
ATOM     14  C   UNL     1       2.350   5.887  -0.933  1.00  0.00     0.019 C 
ATOM     15  C   UNL     1       3.879   5.186   0.885  1.00  0.00     0.127 C 
ATOM     16  C   UNL     1       2.085   7.185  -0.179  1.00  0.00     0.101 C 
ATOM     17  C   UNL     1       3.083   7.535   0.910  1.00  0.00     0.223 C 
ATOM     18  O   UNL     1       3.226   8.705   1.263  1.00  0.00    -0.275 OA
BRANCH   8  19
ATOM     19  C   UNL     1       0.430   1.100  -0.325  1.00  0.00     0.150 A 
ATOM     20  C   UNL     1       2.583  -0.253  -0.099  1.00  0.00     0.071 C 
ATOM     21  C   UNL     1       1.090  -0.144  -0.198  1.00  0.00     0.080 A 
ATOM     22  N   UNL     1       0.421  -1.332  -0.085  1.00  0.00    -0.256 NA
ATOM     23  C   UNL     1      -0.923  -1.249  -0.089  1.00  0.00     0.131 A 
ATOM     24  N   UNL     1      -0.927   1.134  -0.306  1.00  0.00    -0.236 NA
ATOM     25  C   UNL     1      -1.581  -0.043  -0.193  1.00  0.00     0.133 A 
ENDBRANCH   8  19
ENDBRANCH   5   7
ENDBRANCH   3   5
ENDBRANCH   2   3
ENDBRANCH   1   2
BRANCH   1  26
ATOM     26  C   UNL     1       0.611   6.765   5.259  1.00  0.00     0.275 C 
BRANCH  26  27
ATOM     27  O   UNL     1       1.143   5.496   5.710  1.00  0.00    -0.458 OA
BRANCH  27  28
ATOM     28  C   UNL     1       1.625   4.750   4.697  1.00  0.00     0.338 C 
ATOM     29  O   UNL     1       1.637   5.067   3.524  1.00  0.00    -0.246 OA
BRANCH  28  30
ATOM     30  C   UNL     1       2.261   3.498   5.105  1.00  0.00     0.060 A 
ATOM     31  C   UNL     1       3.608   3.335   4.769  1.00  0.00     0.016 A 
ATOM     32  C   UNL     1       1.512   2.428   5.592  1.00  0.00     0.016 A 
ATOM     33  C   UNL     1       4.218   2.097   4.919  1.00  0.00     0.010 A 
ATOM     34  C   UNL     1       2.136   1.189   5.774  1.00  0.00     0.010 A 
ATOM     35  C   UNL     1       3.490   1.018   5.440  1.00  0.00    -0.014 A 
BRANCH  35  36
ATOM     36  C   UNL     1       4.200  -0.250   5.721  1.00  0.00     0.031 A 
ATOM     37  C   UNL     1       3.997  -1.468   4.872  1.00  0.00     0.074 A 
ATOM     38  C   UNL     1       5.063  -0.270   6.754  1.00  0.00     0.049 A 
ATOM     39  N   UNL     1       4.534  -2.655   5.002  1.00  0.00    -0.248 NA
ATOM     40  C   UNL     1       3.078  -1.342   3.732  1.00  0.00     0.031 C 
ATOM     41  C   UNL     1       5.345   0.868   7.632  1.00  0.00     0.029 A 
ATOM     42  N   UNL     1       5.861  -1.272   7.240  1.00  0.00    -0.354 N 
ATOM     43  C   UNL     1       4.012  -3.422   3.970  1.00  0.00     0.074 A 
ATOM     44  C   UNL     1       3.107  -2.570   3.227  1.00  0.00     0.031 C 
ATOM     45  C   UNL     1       6.258   0.504   8.543  1.00  0.00     0.029 A 
ATOM     46  C   UNL     1       6.587  -0.903   8.345  1.00  0.00     0.049 A 
ATOM     47  H   UNL     1       5.910  -2.169   6.837  1.00  0.00     0.167 HD
ATOM     48  C   UNL     1       4.270  -4.719   3.679  1.00  0.00     0.037 A 
ATOM     49  C   UNL     1       7.405  -1.625   9.131  1.00  0.00     0.037 A 
ATOM     50  C   UNL     1       5.176  -5.559   4.423  1.00  0.00     0.049 A 
ATOM     51  C   UNL     1       7.639  -3.070   8.804  1.00  0.00     0.074 A 
ATOM     52  C   UNL     1       5.525  -6.877   4.186  1.00  0.00     0.029 A 
ATOM     53  N   UNL     1       5.872  -5.161   5.556  1.00  0.00    -0.354 N 
ATOM     54  N   UNL     1       7.157  -3.779   7.812  1.00  0.00    -0.248 NA
ATOM     55  C   UNL     1       8.525  -3.817   9.705  1.00  0.00     0.031 C 
ATOM     56  C   UNL     1       6.401  -7.289   5.197  1.00  0.00     0.029 A 
ATOM     57  C   UNL     1       6.627  -6.216   6.044  1.00  0.00     0.049 A 
ATOM     58  H   UNL     1       5.835  -4.261   5.955  1.00  0.00     0.167 HD
ATOM     59  C   UNL     1       7.681  -5.053   7.967  1.00  0.00     0.074 A 
ATOM     60  C   UNL     1       8.540  -5.013   9.133  1.00  0.00     0.031 C 
ATOM     61  C   UNL     1       7.465  -6.159   7.214  1.00  0.00     0.037 A 
BRANCH  48  62
ATOM     62  C   UNL     1       3.549  -5.330   2.516  1.00  0.00     0.064 A 
ATOM     63  C   UNL     1       3.938  -5.073   1.194  1.00  0.00     0.173 A 
ATOM     64  C   UNL     1       2.506  -6.243   2.731  1.00  0.00     0.173 A 
ATOM     65  F   UNL     1       4.928  -4.205   0.938  1.00  0.00    -0.203 F 
ATOM     66  C   UNL     1       3.305  -5.707   0.127  1.00  0.00     0.198 A 
ATOM     67  C   UNL     1       1.886  -6.886   1.663  1.00  0.00     0.198 A 
ATOM     68  F   UNL     1       2.103  -6.527   3.979  1.00  0.00    -0.203 F 
ATOM     69  F   UNL     1       3.687  -5.443  -1.130  1.00  0.00    -0.200 F 
ATOM     70  C   UNL     1       2.285  -6.617   0.363  1.00  0.00     0.200 A 
ATOM     71  F   UNL     1       0.909  -7.775   1.894  1.00  0.00    -0.200 F 
ATOM     72  F   UNL     1       1.690  -7.241  -0.663  1.00  0.00    -0.200 F 
ENDBRANCH  48  62
BRANCH  49  73
ATOM     73  C   UNL     1       8.029  -0.992  10.319  1.00  0.00     0.064 A 
ATOM     74  C   UNL     1       9.404  -0.730  10.363  1.00  0.00     0.173 A 
ATOM     75  C   UNL     1       7.254  -0.621  11.428  1.00  0.00     0.173 A 
ATOM     76  F   UNL     1      10.186  -1.086   9.334  1.00  0.00    -0.203 F 
ATOM     77  C   UNL     1       9.983  -0.130  11.479  1.00  0.00     0.198 A 
ATOM     78  C   UNL     1       7.830   0.003  12.531  1.00  0.00     0.198 A 
ATOM     79  F   UNL     1       5.932  -0.848  11.431  1.00  0.00    -0.203 F 
ATOM     80  F   UNL     1      11.307   0.077  11.513  1.00  0.00    -0.200 F 
ATOM     81  C   UNL     1       9.196   0.242  12.558  1.00  0.00     0.200 A 
ATOM     82  F   UNL     1       7.063   0.374  13.565  1.00  0.00    -0.200 F 
ATOM     83  F   UNL     1       9.753   0.826  13.627  1.00  0.00    -0.200 F 
ENDBRANCH  49  73
BRANCH  61  84
ATOM     84  C   UNL     1       8.174  -7.409   7.638  1.00  0.00     0.064 A 
ATOM     85  C   UNL     1       7.752  -8.139   8.758  1.00  0.00     0.173 A 
ATOM     86  C   UNL     1       9.277  -7.884   6.915  1.00  0.00     0.173 A 
ATOM     87  F   UNL     1       6.714  -7.711   9.492  1.00  0.00    -0.203 F 
ATOM     88  C   UNL     1       8.427  -9.290   9.155  1.00  0.00     0.198 A 
ATOM     89  C   UNL     1       9.935  -9.048   7.302  1.00  0.00     0.198 A 
ATOM     90  F   UNL     1       9.716  -7.219   5.837  1.00  0.00    -0.203 F 
ATOM     91  F   UNL     1       8.037  -9.947  10.256  1.00  0.00    -0.200 F 
ATOM     92  C   UNL     1       9.515  -9.745   8.424  1.00  0.00     0.200 A 
ATOM     93  F   UNL     1      10.983  -9.490   6.593  1.00  0.00    -0.200 F 
ATOM     94  F   UNL     1      10.165 -10.852   8.809  1.00  0.00    -0.200 F 
ENDBRANCH  61  84
ENDBRANCH  35  36
ENDBRANCH  28  30
ENDBRANCH  27  28
ENDBRANCH  26  27
ENDBRANCH   1  26
TORSDOF 13
