REMARK SMILES CC1(C)Oc2ccc(NC(=O)[C@H]3CC=CC[C@@H]3C(=O)OCCOC(=O)c3ccc(-c4c5nc(c(-c6c(F)c(F)c(F)c(F)c6F)c6ccc([nH]6)c(-c6c(F)c(F)c(F)c(F)c6F)c6nc(c(-c7c(F)c(F)c(F)c(F)c7F)c7ccc4[nH]7)C=C6)C=C5)cc3)cc2NC1=O
REMARK SMILES IDX 21 1 20 2 18 3 19 4 17 5 12 6 13 7 14 8 16 9 15 10 10 11
REMARK SMILES IDX 9 12 11 14 8 15 1 16 2 17 3 18 4 19 92 20 5 21 91 22 93 23
REMARK SMILES IDX 6 24 90 25 7 27 89 28 22 29 23 30 24 31 25 32 26 33 27 34
REMARK SMILES IDX 88 35 28 36 87 37 29 38 30 39 31 40 81 41 32 42 86 43 80 44
REMARK SMILES IDX 82 45 33 46 85 47 79 48 78 49 34 51 66 52 46 53 65 54 47 55
REMARK SMILES IDX 50 56 64 57 83 58 48 59 49 60 63 62 84 63 51 64 35 65 36 66
REMARK SMILES IDX 44 67 37 68 38 69 42 70 45 71 39 72 40 73 43 74 41 75 67 76
REMARK SMILES IDX 68 77 76 78 69 79 70 80 74 81 77 82 71 83 72 84 75 85 73 86
REMARK SMILES IDX 52 87 53 88 61 89 54 90 55 91 59 92 62 93 56 94 57 95 60 96
REMARK SMILES IDX 58 97
REMARK H PARENT 9 13 91 26 82 50 50 61
REMARK Flexibility Score: inf
ROOT
ATOM      1  C   UNL     1       5.636  -6.513  -0.739  1.00  0.00     0.274 C 
ENDROOT
BRANCH   1   2
ATOM      2  O   UNL     1       4.196  -6.668  -0.703  1.00  0.00    -0.462 OA
BRANCH   2   3
ATOM      3  C   UNL     1       3.667  -7.620  -1.529  1.00  0.00     0.310 C 
ATOM      4  O   UNL     1       4.334  -8.461  -2.115  1.00  0.00    -0.252 OA
BRANCH   3   5
ATOM      5  C   UNL     1       2.139  -7.499  -1.627  1.00  0.00     0.116 C 
ATOM      6  C   UNL     1       1.469  -8.616  -0.803  1.00  0.00     0.097 C 
ATOM      7  C   UNL     1       1.704  -9.987  -1.498  1.00  0.00     0.041 C 
ATOM      8  C   UNL     1       1.496  -9.960  -2.985  1.00  0.00    -0.030 C 
ATOM      9  C   UNL     1       1.692  -7.476  -3.093  1.00  0.00     0.043 C 
ATOM     10  C   UNL     1       1.477  -8.827  -3.699  1.00  0.00    -0.030 C 
BRANCH   6  11
ATOM     11  C   UNL     1      -0.015  -8.478  -0.441  1.00  0.00     0.228 C 
ATOM     12  N   UNL     1      -0.564  -7.420   0.211  1.00  0.00    -0.326 N 
ATOM     13  H   UNL     1      -1.510  -7.563   0.440  1.00  0.00     0.169 HD
ATOM     14  O   UNL     1      -0.816  -9.389  -0.691  1.00  0.00    -0.274 OA
BRANCH  12  15
ATOM     15  C   UNL     1      -0.089  -6.174   0.631  1.00  0.00     0.043 A 
ATOM     16  C   UNL     1       0.875   0.055   0.285  1.00  0.00     0.067 C 
ATOM     17  C   UNL     1       0.366  -1.351  -0.034  1.00  0.00     0.182 C 
ATOM     18  C   UNL     1       0.437  -1.566  -1.560  1.00  0.00     0.067 C 
ATOM     19  O   UNL     1       1.260  -2.262   0.629  1.00  0.00    -0.476 OA
ATOM     20  C   UNL     1      -1.115  -1.484   0.391  1.00  0.00     0.268 C 
ATOM     21  C   UNL     1       0.761  -3.531   0.755  1.00  0.00     0.144 A 
ATOM     22  N   UNL     1      -1.526  -2.781   0.575  1.00  0.00    -0.319 N 
ATOM     23  O   UNL     1      -1.913  -0.553   0.444  1.00  0.00    -0.270 OA
ATOM     24  C   UNL     1       1.668  -4.557   0.991  1.00  0.00     0.051 A 
ATOM     25  C   UNL     1      -0.600  -3.820   0.660  1.00  0.00     0.086 A 
ATOM     26  H   UNL     1      -2.488  -2.980   0.647  1.00  0.00     0.170 HD
ATOM     27  C   UNL     1       1.235  -5.886   0.955  1.00  0.00     0.030 A 
ATOM     28  C   UNL     1      -1.032  -5.140   0.624  1.00  0.00     0.056 A 
ENDBRANCH  12  15
ENDBRANCH   6  11
ENDBRANCH   3   5
ENDBRANCH   2   3
ENDBRANCH   1   2
BRANCH   1  29
ATOM     29  C   UNL     1       6.291  -6.775   0.620  1.00  0.00     0.275 C 
BRANCH  29  30
ATOM     30  O   UNL     1       6.288  -8.185   0.912  1.00  0.00    -0.458 OA
BRANCH  30  31
ATOM     31  C   UNL     1       5.460  -8.577   1.902  1.00  0.00     0.338 C 
ATOM     32  O   UNL     1       4.783  -7.864   2.636  1.00  0.00    -0.246 OA
BRANCH  31  33
ATOM     33  C   UNL     1       5.249 -10.024   1.782  1.00  0.00     0.060 A 
ATOM     34  C   UNL     1       6.157 -10.995   2.194  1.00  0.00     0.016 A 
ATOM     35  C   UNL     1       4.025 -10.400   1.240  1.00  0.00     0.016 A 
ATOM     36  C   UNL     1       5.826 -12.349   2.022  1.00  0.00     0.010 A 
ATOM     37  C   UNL     1       3.692 -11.733   1.063  1.00  0.00     0.010 A 
ATOM     38  C   UNL     1       4.598 -12.723   1.438  1.00  0.00    -0.014 A 
BRANCH  38  39
ATOM     39  C   UNL     1       4.180 -14.135   1.304  1.00  0.00     0.031 A 
ATOM     40  C   UNL     1       4.120 -14.813  -0.034  1.00  0.00     0.074 A 
ATOM     41  C   UNL     1       3.698 -14.765   2.389  1.00  0.00     0.049 A 
ATOM     42  N   UNL     1       3.886 -16.072  -0.306  1.00  0.00    -0.248 NA
ATOM     43  C   UNL     1       4.306 -13.966  -1.221  1.00  0.00     0.031 C 
ATOM     44  C   UNL     1       3.528 -14.150   3.705  1.00  0.00     0.029 A 
ATOM     45  N   UNL     1       3.244 -16.048   2.552  1.00  0.00    -0.354 N 
ATOM     46  C   UNL     1       3.925 -16.175  -1.689  1.00  0.00     0.074 A 
ATOM     47  C   UNL     1       4.126 -14.838  -2.205  1.00  0.00     0.031 C 
ATOM     48  C   UNL     1       3.032 -15.066   4.551  1.00  0.00     0.029 A 
ATOM     49  C   UNL     1       2.868 -16.331   3.839  1.00  0.00     0.049 A 
ATOM     50  H   UNL     1       3.193 -16.701   1.817  1.00  0.00     0.167 HD
ATOM     51  C   UNL     1       3.836 -17.293  -2.449  1.00  0.00     0.037 A 
ATOM     52  C   UNL     1       2.477 -17.493   4.394  1.00  0.00     0.037 A 
ATOM     53  C   UNL     1       3.620 -18.614  -1.915  1.00  0.00     0.049 A 
ATOM     54  C   UNL     1       2.453 -18.738   3.556  1.00  0.00     0.074 A 
ATOM     55  C   UNL     1       3.656 -19.831  -2.572  1.00  0.00     0.029 A 
ATOM     56  N   UNL     1       3.295 -18.885  -0.593  1.00  0.00    -0.354 N 
ATOM     57  N   UNL     1       2.707 -18.875   2.278  1.00  0.00    -0.248 NA
ATOM     58  C   UNL     1       2.120 -19.993   4.242  1.00  0.00     0.031 C 
ATOM     59  C   UNL     1       3.299 -20.832  -1.661  1.00  0.00     0.029 A 
ATOM     60  C   UNL     1       3.092 -20.246  -0.423  1.00  0.00     0.049 A 
ATOM     61  H   UNL     1       3.220 -18.210   0.120  1.00  0.00     0.167 HD
ATOM     62  C   UNL     1       2.580 -20.230   2.006  1.00  0.00     0.074 A 
ATOM     63  C   UNL     1       2.244 -20.876   3.259  1.00  0.00     0.031 C 
ATOM     64  C   UNL     1       2.734 -20.877   0.824  1.00  0.00     0.037 A 
BRANCH  51  65
ATOM     65  C   UNL     1       4.018 -17.152  -3.934  1.00  0.00     0.064 A 
ATOM     66  C   UNL     1       5.261 -16.797  -4.483  1.00  0.00     0.173 A 
ATOM     67  C   UNL     1       2.974 -17.450  -4.823  1.00  0.00     0.173 A 
ATOM     68  F   UNL     1       6.296 -16.507  -3.681  1.00  0.00    -0.203 F 
ATOM     69  C   UNL     1       5.444 -16.722  -5.862  1.00  0.00     0.198 A 
ATOM     70  C   UNL     1       3.169 -17.402  -6.202  1.00  0.00     0.198 A 
ATOM     71  F   UNL     1       1.768 -17.809  -4.356  1.00  0.00    -0.203 F 
ATOM     72  F   UNL     1       6.631 -16.347  -6.358  1.00  0.00    -0.200 F 
ATOM     73  C   UNL     1       4.401 -17.032  -6.720  1.00  0.00     0.200 A 
ATOM     74  F   UNL     1       2.166 -17.722  -7.031  1.00  0.00    -0.200 F 
ATOM     75  F   UNL     1       4.584 -16.977  -8.046  1.00  0.00    -0.200 F 
ENDBRANCH  51  65
BRANCH  52  76
ATOM     76  C   UNL     1       2.217 -17.525   5.853  1.00  0.00     0.064 A 
ATOM     77  C   UNL     1       3.185 -18.031   6.730  1.00  0.00     0.173 A 
ATOM     78  C   UNL     1       1.062 -16.954   6.405  1.00  0.00     0.173 A 
ATOM     79  F   UNL     1       4.302 -18.591   6.243  1.00  0.00    -0.203 F 
ATOM     80  C   UNL     1       3.012 -17.958   8.109  1.00  0.00     0.198 A 
ATOM     81  C   UNL     1       0.898 -16.866   7.785  1.00  0.00     0.198 A 
ATOM     82  F   UNL     1       0.117 -16.442   5.603  1.00  0.00    -0.203 F 
ATOM     83  F   UNL     1       3.953 -18.450   8.927  1.00  0.00    -0.200 F 
ATOM     84  C   UNL     1       1.874 -17.366   8.636  1.00  0.00     0.200 A 
ATOM     85  F   UNL     1      -0.193 -16.276   8.292  1.00  0.00    -0.200 F 
ATOM     86  F   UNL     1       1.722 -17.269   9.964  1.00  0.00    -0.200 F 
ENDBRANCH  52  76
BRANCH  64  87
ATOM     87  C   UNL     1       2.526 -22.363   0.817  1.00  0.00     0.064 A 
ATOM     88  C   UNL     1       1.245 -22.921   0.936  1.00  0.00     0.173 A 
ATOM     89  C   UNL     1       3.607 -23.236   0.624  1.00  0.00     0.173 A 
ATOM     90  F   UNL     1       0.180 -22.130   1.135  1.00  0.00    -0.203 F 
ATOM     91  C   UNL     1       1.056 -24.299   0.877  1.00  0.00     0.198 A 
ATOM     92  C   UNL     1       3.412 -24.611   0.537  1.00  0.00     0.198 A 
ATOM     93  F   UNL     1       4.853 -22.752   0.497  1.00  0.00    -0.203 F 
ATOM     94  F   UNL     1      -0.173 -24.813   1.029  1.00  0.00    -0.200 F 
ATOM     95  C   UNL     1       2.138 -25.142   0.669  1.00  0.00     0.200 A 
ATOM     96  F   UNL     1       4.456 -25.423   0.322  1.00  0.00    -0.200 F 
ATOM     97  F   UNL     1       1.952 -26.468   0.598  1.00  0.00    -0.200 F 
ENDBRANCH  64  87
ENDBRANCH  38  39
ENDBRANCH  31  33
ENDBRANCH  30  31
ENDBRANCH  29  30
ENDBRANCH   1  29
TORSDOF 13
