REMARK SMILES Cc1nn(C)c(=O)c(C(=O)N2CCCC[C@H]2C(=O)OCCOC(=O)c2ccc(-c3c4nc(c(-c5c(F)c(F)c(F)c(F)c5F)c5ccc([nH]5)c(-c5c(F)c(F)c(F)c(F)c5F)c5nc(c(-c6c(F)c(F)c(F)c(F)c6F)c6ccc3[nH]6)C=C5)C=C4)cc2)c1C
REMARK SMILES IDX 20 1 19 2 17 3 18 4 16 5 11 6 12 7 13 8 15 9 14 10 9 11
REMARK SMILES IDX 10 12 8 13 1 14 2 15 3 16 88 17 4 18 89 19 5 20 6 21 7 22
REMARK SMILES IDX 21 23 22 24 23 25 24 26 25 27 26 28 87 29 27 30 86 31 28 32
REMARK SMILES IDX 29 33 30 34 80 35 31 36 85 37 79 38 81 39 32 40 84 41 78 42
REMARK SMILES IDX 77 43 33 45 65 46 45 47 64 48 46 49 49 50 63 51 82 52 47 53
REMARK SMILES IDX 48 54 62 56 83 57 50 58 34 59 35 60 43 61 36 62 37 63 41 64
REMARK SMILES IDX 44 65 38 66 39 67 42 68 40 69 66 70 67 71 75 72 68 73 69 74
REMARK SMILES IDX 73 75 76 76 70 77 71 78 74 79 72 80 51 81 52 82 60 83 53 84
REMARK SMILES IDX 54 85 58 86 61 87 55 88 56 89 59 90 57 91
REMARK H PARENT 81 44 49 55
REMARK Flexibility Score: inf
ROOT
ATOM      1  C   UNL     1      -0.945   3.954  -0.400  1.00  0.00     0.274 C 
ENDROOT
BRANCH   1   2
ATOM      2  O   UNL     1      -1.133   3.228  -1.635  1.00  0.00    -0.461 OA
BRANCH   2   3
ATOM      3  C   UNL     1      -0.888   3.893  -2.796  1.00  0.00     0.328 C 
ATOM      4  O   UNL     1      -0.632   5.091  -2.850  1.00  0.00    -0.250 OA
BRANCH   3   5
ATOM      5  C   UNL     1      -0.812   2.942  -4.023  1.00  0.00     0.195 C 
ATOM      6  N   UNL     1      -1.439   1.607  -3.873  1.00  0.00    -0.325 N 
ATOM      7  C   UNL     1      -2.901   1.608  -3.913  1.00  0.00     0.121 C 
ATOM      8  C   UNL     1      -3.458   2.410  -5.105  1.00  0.00     0.022 C 
ATOM      9  C   UNL     1      -1.310   3.669  -5.275  1.00  0.00     0.037 C 
ATOM     10  C   UNL     1      -2.826   3.796  -5.235  1.00  0.00     0.005 C 
BRANCH   6  11
ATOM     11  C   UNL     1      -0.747   0.514  -4.411  1.00  0.00     0.260 C 
ATOM     12  O   UNL     1      -0.252   0.576  -5.535  1.00  0.00    -0.269 OA
BRANCH  11  13
ATOM     13  C   UNL     1      -0.453  -0.660  -3.503  1.00  0.00     0.111 A 
ATOM     14  C   UNL     1       0.900  -1.551  -0.056  1.00  0.00     0.069 C 
ATOM     15  C   UNL     1       0.475  -1.701  -1.505  1.00  0.00     0.062 A 
ATOM     16  N   UNL     1       0.512  -2.890  -2.000  1.00  0.00    -0.175 NA
ATOM     17  C   UNL     1       0.075  -0.492  -2.274  1.00  0.00    -0.010 A 
ATOM     18  N   UNL     1       0.093  -3.053  -3.288  1.00  0.00    -0.232 N 
ATOM     19  C   UNL     1       0.426   0.793  -1.628  1.00  0.00     0.047 C 
ATOM     20  C   UNL     1       0.243  -4.409  -3.790  1.00  0.00     0.178 C 
ATOM     21  C   UNL     1      -0.493  -2.050  -4.063  1.00  0.00     0.279 A 
ATOM     22  O   UNL     1      -1.020  -2.270  -5.152  1.00  0.00    -0.267 OA
ENDBRANCH  11  13
ENDBRANCH   6  11
ENDBRANCH   3   5
ENDBRANCH   2   3
ENDBRANCH   1   2
BRANCH   1  23
ATOM     23  C   UNL     1       0.496   3.843   0.120  1.00  0.00     0.275 C 
BRANCH  23  24
ATOM     24  O   UNL     1       1.365   4.692  -0.643  1.00  0.00    -0.458 OA
BRANCH  24  25
ATOM     25  C   UNL     1       2.251   4.093  -1.478  1.00  0.00     0.338 C 
ATOM     26  O   UNL     1       2.499   2.920  -1.599  1.00  0.00    -0.246 OA
BRANCH  25  27
ATOM     27  C   UNL     1       2.758   5.144  -2.370  1.00  0.00     0.060 A 
ATOM     28  C   UNL     1       2.400   5.100  -3.720  1.00  0.00     0.016 A 
ATOM     29  C   UNL     1       3.512   6.194  -1.851  1.00  0.00     0.016 A 
ATOM     30  C   UNL     1       2.726   6.163  -4.550  1.00  0.00     0.010 A 
ATOM     31  C   UNL     1       3.868   7.243  -2.691  1.00  0.00     0.010 A 
ATOM     32  C   UNL     1       3.456   7.238  -4.033  1.00  0.00    -0.014 A 
BRANCH  32  33
ATOM     33  C   UNL     1       3.848   8.346  -4.919  1.00  0.00     0.031 A 
ATOM     34  C   UNL     1       5.184   8.294  -5.583  1.00  0.00     0.074 A 
ATOM     35  C   UNL     1       3.005   9.373  -5.109  1.00  0.00     0.049 A 
ATOM     36  N   UNL     1       5.766   9.188  -6.336  1.00  0.00    -0.248 NA
ATOM     37  C   UNL     1       5.971   7.068  -5.372  1.00  0.00     0.031 C 
ATOM     38  C   UNL     1       1.659   9.473  -4.545  1.00  0.00     0.029 A 
ATOM     39  N   UNL     1       3.159  10.531  -5.824  1.00  0.00    -0.354 N 
ATOM     40  C   UNL     1       6.984   8.632  -6.694  1.00  0.00     0.074 A 
ATOM     41  C   UNL     1       7.072   7.337  -6.057  1.00  0.00     0.031 C 
ATOM     42  C   UNL     1       1.111  10.638  -4.931  1.00  0.00     0.029 A 
ATOM     43  C   UNL     1       2.081  11.376  -5.737  1.00  0.00     0.049 A 
ATOM     44  H   UNL     1       3.965  10.737  -6.351  1.00  0.00     0.167 HD
ATOM     45  C   UNL     1       7.938   9.164  -7.491  1.00  0.00     0.037 A 
ATOM     46  C   UNL     1       1.917  12.614  -6.237  1.00  0.00     0.037 A 
ATOM     47  C   UNL     1       7.839  10.464  -8.095  1.00  0.00     0.049 A 
ATOM     48  C   UNL     1       3.037  13.225  -7.036  1.00  0.00     0.074 A 
ATOM     49  C   UNL     1       8.752  11.111  -8.907  1.00  0.00     0.029 A 
ATOM     50  N   UNL     1       6.756  11.320  -7.943  1.00  0.00    -0.354 N 
ATOM     51  N   UNL     1       4.192  12.702  -7.372  1.00  0.00    -0.248 NA
ATOM     52  C   UNL     1       2.840  14.600  -7.515  1.00  0.00     0.031 C 
ATOM     53  C   UNL     1       8.241  12.377  -9.209  1.00  0.00     0.029 A 
ATOM     54  C   UNL     1       6.990  12.502  -8.624  1.00  0.00     0.049 A 
ATOM     55  H   UNL     1       5.943  11.117  -7.426  1.00  0.00     0.167 HD
ATOM     56  C   UNL     1       4.853  13.671  -8.113  1.00  0.00     0.074 A 
ATOM     57  C   UNL     1       3.963  14.813  -8.188  1.00  0.00     0.031 C 
ATOM     58  C   UNL     1       6.083  13.622  -8.679  1.00  0.00     0.037 A 
BRANCH  45  59
ATOM     59  C   UNL     1       9.173   8.350  -7.721  1.00  0.00     0.064 A 
ATOM     60  C   UNL     1       9.158   7.213  -8.542  1.00  0.00     0.173 A 
ATOM     61  C   UNL     1      10.388   8.718  -7.125  1.00  0.00     0.173 A 
ATOM     62  F   UNL     1       8.014   6.809  -9.116  1.00  0.00    -0.203 F 
ATOM     63  C   UNL     1      10.313   6.463  -8.744  1.00  0.00     0.198 A 
ATOM     64  C   UNL     1      11.546   7.979  -7.348  1.00  0.00     0.198 A 
ATOM     65  F   UNL     1      10.451   9.794  -6.327  1.00  0.00    -0.203 F 
ATOM     66  F   UNL     1      10.268   5.356  -9.499  1.00  0.00    -0.200 F 
ATOM     67  C   UNL     1      11.507   6.850  -8.153  1.00  0.00     0.200 A 
ATOM     68  F   UNL     1      12.699   8.356  -6.780  1.00  0.00    -0.200 F 
ATOM     69  F   UNL     1      12.619   6.128  -8.351  1.00  0.00    -0.200 F 
ENDBRANCH  45  59
BRANCH  46  70
ATOM     70  C   UNL     1       0.649  13.347  -5.993  1.00  0.00     0.064 A 
ATOM     71  C   UNL     1      -0.259  13.579  -7.034  1.00  0.00     0.173 A 
ATOM     72  C   UNL     1       0.306  13.808  -4.713  1.00  0.00     0.173 A 
ATOM     73  F   UNL     1       0.034  13.178  -8.280  1.00  0.00    -0.203 F 
ATOM     74  C   UNL     1      -1.462  14.245  -6.805  1.00  0.00     0.198 A 
ATOM     75  C   UNL     1      -0.906  14.454  -4.481  1.00  0.00     0.198 A 
ATOM     76  F   UNL     1       1.143  13.614  -3.683  1.00  0.00    -0.203 F 
ATOM     77  F   UNL     1      -2.301  14.477  -7.824  1.00  0.00    -0.200 F 
ATOM     78  C   UNL     1      -1.788  14.675  -5.527  1.00  0.00     0.200 A 
ATOM     79  F   UNL     1      -1.222  14.858  -3.243  1.00  0.00    -0.200 F 
ATOM     80  F   UNL     1      -2.950  15.305  -5.306  1.00  0.00    -0.200 F 
ENDBRANCH  46  70
BRANCH  58  81
ATOM     81  C   UNL     1       6.544  14.830  -9.436  1.00  0.00     0.064 A 
ATOM     82  C   UNL     1       6.980  15.984  -8.770  1.00  0.00     0.173 A 
ATOM     83  C   UNL     1       6.641  14.797 -10.835  1.00  0.00     0.173 A 
ATOM     84  F   UNL     1       6.894  16.065  -7.433  1.00  0.00    -0.203 F 
ATOM     85  C   UNL     1       7.495  17.064  -9.479  1.00  0.00     0.198 A 
ATOM     86  C   UNL     1       7.180  15.869 -11.539  1.00  0.00     0.198 A 
ATOM     87  F   UNL     1       6.244  13.711 -11.514  1.00  0.00    -0.203 F 
ATOM     88  F   UNL     1       7.888  18.167  -8.826  1.00  0.00    -0.200 F 
ATOM     89  C   UNL     1       7.606  17.002 -10.861  1.00  0.00     0.200 A 
ATOM     90  F   UNL     1       7.300  15.801 -12.872  1.00  0.00    -0.200 F 
ATOM     91  F   UNL     1       8.123  18.035 -11.540  1.00  0.00    -0.200 F 
ENDBRANCH  58  81
ENDBRANCH  32  33
ENDBRANCH  25  27
ENDBRANCH  24  25
ENDBRANCH  23  24
ENDBRANCH   1  23
TORSDOF 13
