REMARK SMILES CC[C@H](C)N(CC(=O)OCCOC(=O)c1ccc(-c2c3nc(c(-c4c(F)c(F)c(F)c(F)c4F)c4ccc([nH]4)c(-c4c(F)c(F)c(F)c(F)c4F)c4nc(c(-c5c(F)c(F)c(F)c(F)c5F)c5ccc2[nH]5)C=C4)C=C3)cc1)C(=O)N(C)[C@@H](C)Cc1cccs1
REMARK SMILES IDX 7 1 8 2 6 3 5 4 3 5 4 6 2 7 1 8 78 9 79 10 80 11 81 12 82 13
REMARK SMILES IDX 83 14 84 15 85 16 86 17 89 18 87 19 88 20 9 21 10 22 11 23
REMARK SMILES IDX 12 24 13 25 14 26 15 27 16 28 77 29 17 30 76 31 18 32 19 33
REMARK SMILES IDX 20 34 70 35 21 36 75 37 69 38 71 39 22 40 74 41 68 42 67 43
REMARK SMILES IDX 23 45 55 46 35 47 54 48 36 49 39 50 53 51 72 52 37 53 38 54
REMARK SMILES IDX 52 56 73 57 40 58 24 59 25 60 33 61 26 62 27 63 31 64 34 65
REMARK SMILES IDX 28 66 29 67 32 68 30 69 56 70 57 71 65 72 58 73 59 74 63 75
REMARK SMILES IDX 66 76 60 77 61 78 64 79 62 80 41 81 42 82 50 83 43 84 44 85
REMARK SMILES IDX 48 86 51 87 45 88 46 89 49 90 47 91
REMARK H PARENT 71 44 39 55
REMARK Flexibility Score: inf
ROOT
ATOM      1  C   UNL     1       1.645   5.443  -1.394  1.00  0.00     0.325 C 
ATOM      2  O   UNL     1       2.427   6.334  -1.067  1.00  0.00    -0.250 OA
ENDROOT
BRANCH   1   3
ATOM      3  C   UNL     1       1.454   4.205  -0.521  1.00  0.00     0.244 C 
BRANCH   3   4
ATOM      4  N   UNL     1       0.368   3.246  -0.790  1.00  0.00    -0.311 N 
BRANCH   4   5
ATOM      5  C   UNL     1       0.814   1.856  -1.061  1.00  0.00     0.084 C 
ATOM      6  C   UNL     1       0.335   0.901   0.041  1.00  0.00     0.031 C 
BRANCH   5   7
ATOM      7  C   UNL     1       0.505   1.392  -2.497  1.00  0.00     0.021 C 
ATOM      8  C   UNL     1       1.019  -0.009  -2.793  1.00  0.00     0.006 C 
ENDBRANCH   5   7
ENDBRANCH   4   5
BRANCH   4   9
ATOM      9  C   UNL     1      -1.005   3.459  -0.697  1.00  0.00     0.320 C 
ATOM     10  O   UNL     1      -1.788   2.616  -1.144  1.00  0.00    -0.248 OA
BRANCH   9  11
ATOM     11  N   UNL     1      -1.519   4.588  -0.082  1.00  0.00    -0.325 N 
ATOM     12  C   UNL     1      -0.816   5.322   0.948  1.00  0.00     0.149 C 
BRANCH  11  13
ATOM     13  C   UNL     1      -2.995   4.806  -0.089  1.00  0.00     0.088 C 
ATOM     14  C   UNL     1      -3.614   4.788  -1.495  1.00  0.00     0.031 C 
BRANCH  13  15
ATOM     15  C   UNL     1      -3.769   3.857   0.869  1.00  0.00     0.071 C 
BRANCH  15  16
ATOM     16  C   UNL     1      -3.356   4.020   2.312  1.00  0.00     0.007 A 
ATOM     17  C   UNL     1      -3.527   5.122   3.127  1.00  0.00     0.015 A 
ATOM     18  S   UNL     1      -2.544   2.758   3.138  1.00  0.00    -0.149 S 
ATOM     19  C   UNL     1      -2.904   4.966   4.398  1.00  0.00     0.012 A 
ATOM     20  C   UNL     1      -2.335   3.720   4.537  1.00  0.00     0.065 A 
ENDBRANCH  15  16
ENDBRANCH  13  15
ENDBRANCH  11  13
ENDBRANCH   9  11
ENDBRANCH   4   9
ENDBRANCH   3   4
ENDBRANCH   1   3
BRANCH   1  21
ATOM     21  O   UNL     1       0.969   5.404  -2.570  1.00  0.00    -0.461 OA
BRANCH  21  22
ATOM     22  C   UNL     1       1.246   6.495  -3.474  1.00  0.00     0.274 C 
BRANCH  22  23
ATOM     23  C   UNL     1       0.192   7.595  -3.356  1.00  0.00     0.275 C 
BRANCH  23  24
ATOM     24  O   UNL     1       0.166   8.114  -2.015  1.00  0.00    -0.458 OA
BRANCH  24  25
ATOM     25  C   UNL     1      -1.035   8.595  -1.613  1.00  0.00     0.338 C 
ATOM     26  O   UNL     1      -2.041   8.688  -2.297  1.00  0.00    -0.246 OA
BRANCH  25  27
ATOM     27  C   UNL     1      -1.013   8.965  -0.172  1.00  0.00     0.060 A 
ATOM     28  C   UNL     1      -0.051   8.471   0.708  1.00  0.00     0.016 A 
ATOM     29  C   UNL     1      -2.062   9.738   0.336  1.00  0.00     0.016 A 
ATOM     30  C   UNL     1      -0.240   8.593   2.089  1.00  0.00     0.010 A 
ATOM     31  C   UNL     1      -2.169   9.974   1.713  1.00  0.00     0.010 A 
ATOM     32  C   UNL     1      -1.301   9.350   2.619  1.00  0.00    -0.014 A 
BRANCH  32  33
ATOM     33  C   UNL     1      -1.492   9.480   4.099  1.00  0.00     0.031 A 
ATOM     34  C   UNL     1      -2.799   9.112   4.770  1.00  0.00     0.074 A 
ATOM     35  C   UNL     1      -0.476   9.916   4.873  1.00  0.00     0.049 A 
ATOM     36  N   UNL     1      -3.122   9.163   6.043  1.00  0.00    -0.248 NA
ATOM     37  C   UNL     1      -3.882   8.608   3.913  1.00  0.00     0.031 C 
ATOM     38  C   UNL     1       0.849  10.306   4.391  1.00  0.00     0.029 A 
ATOM     39  N   UNL     1      -0.398  10.103   6.234  1.00  0.00    -0.354 N 
ATOM     40  C   UNL     1      -4.423   8.682   6.134  1.00  0.00     0.074 A 
ATOM     41  C   UNL     1      -4.852   8.377   4.788  1.00  0.00     0.031 C 
ATOM     42  C   UNL     1       1.617  10.646   5.434  1.00  0.00     0.029 A 
ATOM     43  C   UNL     1       0.816  10.590   6.651  1.00  0.00     0.049 A 
ATOM     44  H   UNL     1      -1.142   9.908   6.849  1.00  0.00     0.167 HD
ATOM     45  C   UNL     1      -5.192   8.496   7.234  1.00  0.00     0.037 A 
ATOM     46  C   UNL     1       1.238  10.997   7.863  1.00  0.00     0.037 A 
ATOM     47  C   UNL     1      -4.809   8.836   8.579  1.00  0.00     0.049 A 
ATOM     48  C   UNL     1       0.306  10.945   9.036  1.00  0.00     0.074 A 
ATOM     49  C   UNL     1      -5.528   8.668   9.751  1.00  0.00     0.029 A 
ATOM     50  N   UNL     1      -3.615   9.444   8.929  1.00  0.00    -0.354 N 
ATOM     51  N   UNL     1      -0.909  10.464   9.104  1.00  0.00    -0.248 NA
ATOM     52  C   UNL     1       0.798  11.519  10.296  1.00  0.00     0.031 C 
ATOM     53  C   UNL     1      -4.792   9.226  10.803  1.00  0.00     0.029 A 
ATOM     54  C   UNL     1      -3.597   9.702  10.291  1.00  0.00     0.049 A 
ATOM     55  H   UNL     1      -2.887   9.660   8.303  1.00  0.00     0.167 HD
ATOM     56  C   UNL     1      -1.327  10.670  10.411  1.00  0.00     0.074 A 
ATOM     57  C   UNL     1      -0.228  11.304  11.108  1.00  0.00     0.031 C 
ATOM     58  C   UNL     1      -2.518  10.360  10.977  1.00  0.00     0.037 A 
BRANCH  45  59
ATOM     59  C   UNL     1      -6.552   7.895   7.038  1.00  0.00     0.064 A 
ATOM     60  C   UNL     1      -6.714   6.514   6.853  1.00  0.00     0.173 A 
ATOM     61  C   UNL     1      -7.704   8.690   7.121  1.00  0.00     0.173 A 
ATOM     62  F   UNL     1      -5.640   5.716   6.761  1.00  0.00    -0.203 F 
ATOM     63  C   UNL     1      -7.984   5.951   6.753  1.00  0.00     0.198 A 
ATOM     64  C   UNL     1      -8.973   8.122   7.035  1.00  0.00     0.198 A 
ATOM     65  F   UNL     1      -7.598  10.015   7.302  1.00  0.00    -0.203 F 
ATOM     66  F   UNL     1      -8.118   4.631   6.565  1.00  0.00    -0.200 F 
ATOM     67  C   UNL     1      -9.111   6.754   6.852  1.00  0.00     0.200 A 
ATOM     68  F   UNL     1     -10.061   8.897   7.137  1.00  0.00    -0.200 F 
ATOM     69  F   UNL     1     -10.333   6.209   6.770  1.00  0.00    -0.200 F 
ENDBRANCH  45  59
BRANCH  46  70
ATOM     70  C   UNL     1       2.609  11.551   8.004  1.00  0.00     0.064 A 
ATOM     71  C   UNL     1       3.606  10.852   8.694  1.00  0.00     0.173 A 
ATOM     72  C   UNL     1       2.952  12.780   7.419  1.00  0.00     0.173 A 
ATOM     73  F   UNL     1       3.315   9.688   9.294  1.00  0.00    -0.203 F 
ATOM     74  C   UNL     1       4.900  11.358   8.787  1.00  0.00     0.198 A 
ATOM     75  C   UNL     1       4.253  13.270   7.487  1.00  0.00     0.198 A 
ATOM     76  F   UNL     1       2.028  13.488   6.752  1.00  0.00    -0.203 F 
ATOM     77  F   UNL     1       5.833  10.684   9.473  1.00  0.00    -0.200 F 
ATOM     78  C   UNL     1       5.225  12.560   8.174  1.00  0.00     0.200 A 
ATOM     79  F   UNL     1       4.564  14.423   6.880  1.00  0.00    -0.200 F 
ATOM     80  F   UNL     1       6.476  13.035   8.246  1.00  0.00    -0.200 F 
ENDBRANCH  46  70
BRANCH  58  81
ATOM     81  C   UNL     1      -2.695  10.707  12.425  1.00  0.00     0.064 A 
ATOM     82  C   UNL     1      -2.878  12.035  12.838  1.00  0.00     0.173 A 
ATOM     83  C   UNL     1      -2.682   9.707  13.408  1.00  0.00     0.173 A 
ATOM     84  F   UNL     1      -2.879  13.028  11.936  1.00  0.00    -0.203 F 
ATOM     85  C   UNL     1      -3.015  12.351  14.187  1.00  0.00     0.198 A 
ATOM     86  C   UNL     1      -2.843  10.025  14.753  1.00  0.00     0.198 A 
ATOM     87  F   UNL     1      -2.512   8.422  13.063  1.00  0.00    -0.203 F 
ATOM     88  F   UNL     1      -3.138  13.632  14.563  1.00  0.00    -0.200 F 
ATOM     89  C   UNL     1      -3.001  11.347  15.142  1.00  0.00     0.200 A 
ATOM     90  F   UNL     1      -2.836   9.052  15.675  1.00  0.00    -0.200 F 
ATOM     91  F   UNL     1      -3.126  11.653  16.441  1.00  0.00    -0.200 F 
ENDBRANCH  58  81
ENDBRANCH  32  33
ENDBRANCH  25  27
ENDBRANCH  24  25
ENDBRANCH  23  24
ENDBRANCH  22  23
ENDBRANCH  21  22
ENDBRANCH   1  21
TORSDOF 19
