REMARK SMILES Cc1nn(CC(F)F)c2c1c(C(F)(F)F)cc(=O)n2CC(=O)OCCOC(=O)c1ccc(-c2c3nc(c(-c4c(F)c(F)c(F)c(F)c4F)c4ccc([nH]4)c(-c4c(F)c(F)c(F)c(F)c4F)c4nc(c(-c5c(F)c(F)c(F)c(F)c5F)c5ccc2[nH]5)C=C4)C=C3)cc1
REMARK SMILES IDX 24 1 23 2 21 3 22 4 20 5 19 6 1 7 2 8 3 9 10 10 4 11 9 12
REMARK SMILES IDX 11 13 16 14 17 15 18 16 5 17 6 18 7 19 8 20 12 21 13 22
REMARK SMILES IDX 14 23 15 24 25 25 26 26 27 27 28 28 29 29 30 30 91 31 31 32
REMARK SMILES IDX 90 33 32 34 33 35 34 36 84 37 35 38 89 39 83 40 85 41 36 42
REMARK SMILES IDX 88 43 82 44 81 45 37 47 69 48 49 49 68 50 50 51 53 52 67 53
REMARK SMILES IDX 86 54 51 55 52 56 66 58 87 59 54 60 38 61 39 62 47 63 40 64
REMARK SMILES IDX 41 65 45 66 48 67 42 68 43 69 46 70 44 71 70 72 71 73 79 74
REMARK SMILES IDX 72 75 73 76 77 77 80 78 74 79 75 80 78 81 76 82 55 83 56 84
REMARK SMILES IDX 64 85 57 86 58 87 62 88 65 89 59 90 60 91 63 92 61 93
REMARK H PARENT 85 46 53 57
REMARK Flexibility Score: inf
ROOT
ATOM      1  C   UNL     1       3.191   2.425  -6.080  1.00  0.00     0.274 C 
ENDROOT
BRANCH   1   2
ATOM      2  O   UNL     1       2.353   2.745  -4.924  1.00  0.00    -0.461 OA
BRANCH   2   3
ATOM      3  C   UNL     1       1.866   4.031  -4.854  1.00  0.00     0.326 C 
ATOM      4  O   UNL     1       2.141   4.905  -5.672  1.00  0.00    -0.250 OA
BRANCH   3   5
ATOM      5  C   UNL     1       0.674   4.156  -3.892  1.00  0.00     0.250 C 
BRANCH   5   6
ATOM      6  N   UNL     1       0.912   3.693  -2.552  1.00  0.00    -0.282 N 
ATOM      7  C   UNL     1       1.079  -0.272   0.463  1.00  0.00     0.069 C 
ATOM      8  C   UNL     1       0.725   0.706  -0.594  1.00  0.00     0.069 A 
ATOM      9  N   UNL     1       0.036   0.278  -1.654  1.00  0.00    -0.175 NA
ATOM     10  C   UNL     1       1.018   2.079  -0.715  1.00  0.00     0.053 A 
ATOM     11  N   UNL     1      -0.070   1.348  -2.471  1.00  0.00    -0.243 N 
ATOM     12  C   UNL     1       0.620   2.443  -1.990  1.00  0.00     0.142 A 
ATOM     13  C   UNL     1       1.639   3.053   0.121  1.00  0.00     0.074 A 
ATOM     14  C   UNL     1       1.889   4.282  -0.358  1.00  0.00     0.085 A 
ATOM     15  C   UNL     1       1.571   4.638  -1.756  1.00  0.00     0.253 A 
ATOM     16  O   UNL     1       1.903   5.754  -2.151  1.00  0.00    -0.269 OA
BRANCH  11  17
ATOM     17  C   UNL     1      -0.966   1.161  -3.593  1.00  0.00     0.219 C 
BRANCH  17  18
ATOM     18  C   UNL     1      -2.389   1.494  -3.212  1.00  0.00     0.363 C 
ATOM     19  F   UNL     1      -2.538   2.843  -3.118  1.00  0.00    -0.208 F 
ATOM     20  F   UNL     1      -3.232   1.103  -4.206  1.00  0.00    -0.208 F 
ENDBRANCH  17  18
ENDBRANCH  11  17
BRANCH  13  21
ATOM     21  C   UNL     1       1.919   2.701   1.542  1.00  0.00     0.417 C 
ATOM     22  F   UNL     1       0.810   2.269   2.194  1.00  0.00    -0.166 F 
ATOM     23  F   UNL     1       2.860   1.731   1.653  1.00  0.00    -0.166 F 
ATOM     24  F   UNL     1       2.384   3.765   2.251  1.00  0.00    -0.166 F 
ENDBRANCH  13  21
ENDBRANCH   5   6
ENDBRANCH   3   5
ENDBRANCH   2   3
ENDBRANCH   1   2
BRANCH   1  25
ATOM     25  C   UNL     1       2.839   1.038  -6.688  1.00  0.00     0.275 C 
BRANCH  25  26
ATOM     26  O   UNL     1       1.755   1.179  -7.643  1.00  0.00    -0.458 OA
BRANCH  26  27
ATOM     27  C   UNL     1       0.576   0.539  -7.391  1.00  0.00     0.338 C 
ATOM     28  O   UNL     1       0.401  -0.486  -6.766  1.00  0.00    -0.246 OA
BRANCH  27  29
ATOM     29  C   UNL     1      -0.482   1.551  -7.613  1.00  0.00     0.060 A 
ATOM     30  C   UNL     1      -1.710   1.413  -8.238  1.00  0.00     0.016 A 
ATOM     31  C   UNL     1      -0.231   2.714  -6.912  1.00  0.00     0.016 A 
ATOM     32  C   UNL     1      -2.615   2.500  -8.187  1.00  0.00     0.010 A 
ATOM     33  C   UNL     1      -1.147   3.710  -6.751  1.00  0.00     0.010 A 
ATOM     34  C   UNL     1      -2.325   3.666  -7.440  1.00  0.00    -0.014 A 
BRANCH  34  35
ATOM     35  C   UNL     1      -3.206   4.828  -7.304  1.00  0.00     0.031 A 
ATOM     36  C   UNL     1      -4.653   4.535  -7.275  1.00  0.00     0.074 A 
ATOM     37  C   UNL     1      -2.850   6.125  -7.111  1.00  0.00     0.049 A 
ATOM     38  N   UNL     1      -5.469   4.663  -8.265  1.00  0.00    -0.248 NA
ATOM     39  C   UNL     1      -5.253   3.988  -6.055  1.00  0.00     0.031 C 
ATOM     40  C   UNL     1      -1.552   6.754  -6.807  1.00  0.00     0.029 A 
ATOM     41  N   UNL     1      -3.687   7.206  -7.165  1.00  0.00    -0.354 N 
ATOM     42  C   UNL     1      -6.725   4.338  -7.781  1.00  0.00     0.074 A 
ATOM     43  C   UNL     1      -6.525   3.844  -6.438  1.00  0.00     0.031 C 
ATOM     44  C   UNL     1      -1.722   8.066  -6.534  1.00  0.00     0.029 A 
ATOM     45  C   UNL     1      -3.085   8.415  -6.868  1.00  0.00     0.049 A 
ATOM     46  H   UNL     1      -4.641   7.130  -7.397  1.00  0.00     0.167 HD
ATOM     47  C   UNL     1      -7.845   4.637  -8.493  1.00  0.00     0.037 A 
ATOM     48  C   UNL     1      -3.620   9.647  -6.992  1.00  0.00     0.037 A 
ATOM     49  C   UNL     1      -7.525   5.005  -9.851  1.00  0.00     0.049 A 
ATOM     50  C   UNL     1      -4.682   9.554  -8.018  1.00  0.00     0.074 A 
ATOM     51  C   UNL     1      -6.936   4.355 -10.919  1.00  0.00     0.029 A 
ATOM     52  N   UNL     1      -7.468   6.342 -10.160  1.00  0.00    -0.354 N 
ATOM     53  N   UNL     1      -4.463   9.331  -9.284  1.00  0.00    -0.248 NA
ATOM     54  C   UNL     1      -6.056   9.379  -7.580  1.00  0.00     0.031 C 
ATOM     55  C   UNL     1      -6.146   5.348 -11.576  1.00  0.00     0.029 A 
ATOM     56  C   UNL     1      -6.319   6.548 -10.885  1.00  0.00     0.049 A 
ATOM     57  H   UNL     1      -8.130   7.027  -9.909  1.00  0.00     0.167 HD
ATOM     58  C   UNL     1      -5.564   8.605  -9.710  1.00  0.00     0.074 A 
ATOM     59  C   UNL     1      -6.562   8.791  -8.665  1.00  0.00     0.031 C 
ATOM     60  C   UNL     1      -5.467   7.709 -10.735  1.00  0.00     0.037 A 
BRANCH  47  61
ATOM     61  C   UNL     1      -9.212   4.838  -7.908  1.00  0.00     0.064 A 
ATOM     62  C   UNL     1     -10.339   4.840  -8.752  1.00  0.00     0.173 A 
ATOM     63  C   UNL     1      -9.433   5.273  -6.586  1.00  0.00     0.173 A 
ATOM     64  F   UNL     1     -10.230   4.479 -10.040  1.00  0.00    -0.203 F 
ATOM     65  C   UNL     1     -11.590   5.279  -8.311  1.00  0.00     0.198 A 
ATOM     66  C   UNL     1     -10.694   5.660  -6.133  1.00  0.00     0.198 A 
ATOM     67  F   UNL     1      -8.423   5.435  -5.721  1.00  0.00    -0.203 F 
ATOM     68  F   UNL     1     -12.611   5.356  -9.175  1.00  0.00    -0.200 F 
ATOM     69  C   UNL     1     -11.767   5.686  -7.001  1.00  0.00     0.200 A 
ATOM     70  F   UNL     1     -10.844   6.073  -4.867  1.00  0.00    -0.200 F 
ATOM     71  F   UNL     1     -12.955   6.145  -6.587  1.00  0.00    -0.200 F 
ENDBRANCH  47  61
BRANCH  48  72
ATOM     72  C   UNL     1      -3.422  10.833  -6.136  1.00  0.00     0.064 A 
ATOM     73  C   UNL     1      -3.851  12.100  -6.561  1.00  0.00     0.173 A 
ATOM     74  C   UNL     1      -3.103  10.695  -4.772  1.00  0.00     0.173 A 
ATOM     75  F   UNL     1      -4.190  12.303  -7.842  1.00  0.00    -0.203 F 
ATOM     76  C   UNL     1      -4.021  13.151  -5.658  1.00  0.00     0.198 A 
ATOM     77  C   UNL     1      -3.268  11.748  -3.873  1.00  0.00     0.198 A 
ATOM     78  F   UNL     1      -2.728   9.509  -4.269  1.00  0.00    -0.203 F 
ATOM     79  F   UNL     1      -4.518  14.320  -6.084  1.00  0.00    -0.200 F 
ATOM     80  C   UNL     1      -3.749  12.969  -4.312  1.00  0.00     0.200 A 
ATOM     81  F   UNL     1      -3.030  11.553  -2.568  1.00  0.00    -0.200 F 
ATOM     82  F   UNL     1      -3.994  13.951  -3.434  1.00  0.00    -0.200 F 
ENDBRANCH  48  72
BRANCH  60  83
ATOM     83  C   UNL     1      -4.243   7.783 -11.610  1.00  0.00     0.064 A 
ATOM     84  C   UNL     1      -2.936   7.537 -11.157  1.00  0.00     0.173 A 
ATOM     85  C   UNL     1      -4.414   7.996 -12.985  1.00  0.00     0.173 A 
ATOM     86  F   UNL     1      -2.697   7.231  -9.877  1.00  0.00    -0.203 F 
ATOM     87  C   UNL     1      -1.849   7.549 -12.031  1.00  0.00     0.198 A 
ATOM     88  C   UNL     1      -3.332   7.974 -13.863  1.00  0.00     0.198 A 
ATOM     89  F   UNL     1      -5.644   8.185 -13.488  1.00  0.00    -0.203 F 
ATOM     90  F   UNL     1      -0.610   7.324 -11.569  1.00  0.00    -0.200 F 
ATOM     91  C   UNL     1      -2.049   7.762 -13.384  1.00  0.00     0.200 A 
ATOM     92  F   UNL     1      -3.536   8.134 -15.178  1.00  0.00    -0.200 F 
ATOM     93  F   UNL     1      -1.010   7.736 -14.232  1.00  0.00    -0.200 F 
ENDBRANCH  60  83
ENDBRANCH  34  35
ENDBRANCH  27  29
ENDBRANCH  26  27
ENDBRANCH  25  26
ENDBRANCH   1  25
TORSDOF 15
