REMARK SMILES O=C(OCCOC(=O)[C@@H](NC(=O)c1cscn1)c1ccccc1C(F)(F)F)c1ccc(-c2c3nc(c(-c4c(F)c(F)c(F)c(F)c4F)c4ccc([nH]4)c(-c4c(F)c(F)c(F)c(F)c4F)c4nc(c(-c5c(F)c(F)c(F)c(F)c5F)c5ccc2[nH]5)C=C4)C=C3)cc1
REMARK SMILES IDX 4 1 3 2 2 3 1 4 28 5 29 6 90 7 30 8 89 9 31 10 32 11 33 12
REMARK SMILES IDX 83 13 34 14 88 15 82 16 84 17 35 18 87 19 81 20 80 21 36 23
REMARK SMILES IDX 68 24 48 25 67 26 49 27 52 28 66 29 85 30 50 31 51 32 65 34
REMARK SMILES IDX 86 35 53 36 37 37 38 38 46 39 39 40 40 41 44 42 47 43 41 44
REMARK SMILES IDX 42 45 45 46 43 47 69 48 70 49 78 50 71 51 72 52 76 53 79 54
REMARK SMILES IDX 73 55 74 56 77 57 75 58 54 59 55 60 63 61 56 62 57 63 61 64
REMARK SMILES IDX 64 65 58 66 59 67 62 68 60 69 5 70 6 71 7 72 8 73 9 74 10 75
REMARK SMILES IDX 11 76 12 78 13 79 14 80 17 81 15 82 16 83 18 84 19 85 23 86
REMARK SMILES IDX 20 87 22 88 21 89 24 90 25 91 26 92 27 93
REMARK H PARENT 84 22 52 33 10 77
REMARK Flexibility Score: inf
ROOT
ATOM      1  C   UNL     1       4.641  -1.039   0.655  1.00  0.00     0.275 C 
ENDROOT
BRANCH   1   2
ATOM      2  O   UNL     1       3.553  -0.179   1.021  1.00  0.00    -0.458 OA
BRANCH   2   3
ATOM      3  C   UNL     1       3.095   0.936   0.411  1.00  0.00     0.338 C 
ATOM      4  O   UNL     1       1.913   1.232   0.598  1.00  0.00    -0.246 OA
BRANCH   3   5
ATOM      5  C   UNL     1       3.900   1.863  -0.466  1.00  0.00     0.060 A 
ATOM      6  C   UNL     1       5.141   1.627  -1.073  1.00  0.00     0.016 A 
ATOM      7  C   UNL     1       3.262   3.076  -0.784  1.00  0.00     0.016 A 
ATOM      8  C   UNL     1       5.694   2.531  -2.013  1.00  0.00     0.010 A 
ATOM      9  C   UNL     1       3.789   3.958  -1.735  1.00  0.00     0.010 A 
ATOM     10  C   UNL     1       5.004   3.687  -2.384  1.00  0.00    -0.014 A 
BRANCH  10  11
ATOM     11  C   UNL     1       5.511   4.685  -3.378  1.00  0.00     0.031 A 
ATOM     12  C   UNL     1       5.970   5.991  -2.862  1.00  0.00     0.074 A 
ATOM     13  C   UNL     1       5.389   4.537  -4.714  1.00  0.00     0.049 A 
ATOM     14  N   UNL     1       6.336   7.044  -3.535  1.00  0.00    -0.248 NA
ATOM     15  C   UNL     1       6.010   6.136  -1.401  1.00  0.00     0.031 C 
ATOM     16  C   UNL     1       4.975   3.305  -5.317  1.00  0.00     0.029 A 
ATOM     17  N   UNL     1       5.513   5.366  -5.801  1.00  0.00    -0.354 N 
ATOM     18  C   UNL     1       6.664   7.977  -2.579  1.00  0.00     0.074 A 
ATOM     19  C   UNL     1       6.346   7.407  -1.286  1.00  0.00     0.031 C 
ATOM     20  C   UNL     1       4.659   3.464  -6.604  1.00  0.00     0.029 A 
ATOM     21  C   UNL     1       5.058   4.798  -6.979  1.00  0.00     0.049 A 
ATOM     22  H   UNL     1       5.888   6.275  -5.748  1.00  0.00     0.167 HD
ATOM     23  C   UNL     1       7.240   9.181  -2.780  1.00  0.00     0.037 A 
ATOM     24  C   UNL     1       5.034   5.250  -8.246  1.00  0.00     0.037 A 
ATOM     25  C   UNL     1       7.503   9.721  -4.085  1.00  0.00     0.049 A 
ATOM     26  C   UNL     1       5.699   6.564  -8.468  1.00  0.00     0.074 A 
ATOM     27  C   UNL     1       8.106  10.913  -4.426  1.00  0.00     0.029 A 
ATOM     28  N   UNL     1       7.146   9.094  -5.280  1.00  0.00    -0.354 N 
ATOM     29  N   UNL     1       6.148   7.397  -7.561  1.00  0.00    -0.248 NA
ATOM     30  C   UNL     1       5.931   6.982  -9.853  1.00  0.00     0.031 C 
ATOM     31  C   UNL     1       8.087  11.023  -5.823  1.00  0.00     0.029 A 
ATOM     32  C   UNL     1       7.508   9.882  -6.361  1.00  0.00     0.049 A 
ATOM     33  H   UNL     1       6.702   8.218  -5.345  1.00  0.00     0.167 HD
ATOM     34  C   UNL     1       6.732   8.434  -8.252  1.00  0.00     0.074 A 
ATOM     35  C   UNL     1       6.600   8.113  -9.665  1.00  0.00     0.031 C 
ATOM     36  C   UNL     1       7.321   9.547  -7.756  1.00  0.00     0.037 A 
BRANCH  23  37
ATOM     37  C   UNL     1       7.573   9.922  -1.524  1.00  0.00     0.064 A 
ATOM     38  C   UNL     1       8.539   9.421  -0.630  1.00  0.00     0.173 A 
ATOM     39  C   UNL     1       6.770  10.987  -1.101  1.00  0.00     0.173 A 
ATOM     40  F   UNL     1       9.295   8.366  -0.974  1.00  0.00    -0.203 F 
ATOM     41  C   UNL     1       8.620   9.900   0.673  1.00  0.00     0.198 A 
ATOM     42  C   UNL     1       6.883  11.489   0.193  1.00  0.00     0.198 A 
ATOM     43  F   UNL     1       5.826  11.486  -1.911  1.00  0.00    -0.203 F 
ATOM     44  F   UNL     1       9.443   9.310   1.552  1.00  0.00    -0.200 F 
ATOM     45  C   UNL     1       7.785  10.927   1.086  1.00  0.00     0.200 A 
ATOM     46  F   UNL     1       6.072  12.475   0.598  1.00  0.00    -0.200 F 
ATOM     47  F   UNL     1       7.822  11.348   2.357  1.00  0.00    -0.200 F 
ENDBRANCH  23  37
BRANCH  24  48
ATOM     48  C   UNL     1       4.572   4.367  -9.356  1.00  0.00     0.064 A 
ATOM     49  C   UNL     1       5.500   3.704 -10.175  1.00  0.00     0.173 A 
ATOM     50  C   UNL     1       3.213   4.077  -9.563  1.00  0.00     0.173 A 
ATOM     51  F   UNL     1       6.812   3.933 -10.018  1.00  0.00    -0.203 F 
ATOM     52  C   UNL     1       5.092   2.802 -11.159  1.00  0.00     0.198 A 
ATOM     53  C   UNL     1       2.806   3.159 -10.536  1.00  0.00     0.198 A 
ATOM     54  F   UNL     1       2.278   4.665  -8.804  1.00  0.00    -0.203 F 
ATOM     55  F   UNL     1       6.005   2.195 -11.929  1.00  0.00    -0.200 F 
ATOM     56  C   UNL     1       3.746   2.525 -11.334  1.00  0.00     0.200 A 
ATOM     57  F   UNL     1       1.505   2.878 -10.695  1.00  0.00    -0.200 F 
ATOM     58  F   UNL     1       3.357   1.643 -12.266  1.00  0.00    -0.200 F 
ENDBRANCH  24  48
BRANCH  36  59
ATOM     59  C   UNL     1       7.823  10.519  -8.770  1.00  0.00     0.064 A 
ATOM     60  C   UNL     1       6.934  11.322  -9.499  1.00  0.00     0.173 A 
ATOM     61  C   UNL     1       9.198  10.681  -8.978  1.00  0.00     0.173 A 
ATOM     62  F   UNL     1       5.609  11.172  -9.351  1.00  0.00    -0.203 F 
ATOM     63  C   UNL     1       7.410  12.258 -10.408  1.00  0.00     0.198 A 
ATOM     64  C   UNL     1       9.670  11.637  -9.868  1.00  0.00     0.198 A 
ATOM     65  F   UNL     1      10.078   9.921  -8.310  1.00  0.00    -0.203 F 
ATOM     66  F   UNL     1       6.547  12.994 -11.121  1.00  0.00    -0.200 F 
ATOM     67  C   UNL     1       8.777  12.424 -10.582  1.00  0.00     0.200 A 
ATOM     68  F   UNL     1      10.989  11.801 -10.033  1.00  0.00    -0.200 F 
ATOM     69  F   UNL     1       9.234  13.341 -11.444  1.00  0.00    -0.200 F 
ENDBRANCH  36  59
ENDBRANCH  10  11
ENDBRANCH   3   5
ENDBRANCH   2   3
ENDBRANCH   1   2
BRANCH   1  70
ATOM     70  C   UNL     1       4.333  -1.914  -0.563  1.00  0.00     0.274 C 
BRANCH  70  71
ATOM     71  O   UNL     1       3.577  -1.204  -1.560  1.00  0.00    -0.460 OA
BRANCH  71  72
ATOM     72  C   UNL     1       2.338  -1.704  -1.867  1.00  0.00     0.333 C 
ATOM     73  O   UNL     1       1.893  -2.755  -1.405  1.00  0.00    -0.249 OA
BRANCH  72  74
ATOM     74  C   UNL     1       1.598  -0.871  -2.943  1.00  0.00     0.224 C 
BRANCH  74  75
ATOM     75  N   UNL     1       2.126   0.477  -2.960  1.00  0.00    -0.334 N 
ATOM     76  C   UNL     1       3.011   1.055  -3.798  1.00  0.00     0.271 C 
ATOM     77  H   UNL     1       1.785   1.065  -2.248  1.00  0.00     0.165 HD
ATOM     78  O   UNL     1       2.846   2.287  -3.905  1.00  0.00    -0.267 OA
BRANCH  76  79
ATOM     79  C   UNL     1       3.982   0.318  -4.623  1.00  0.00     0.139 A 
ATOM     80  C   UNL     1       5.163  -0.252  -4.174  1.00  0.00     0.100 A 
ATOM     81  N   UNL     1       3.917   0.403  -6.023  1.00  0.00    -0.240 NA
ATOM     82  S   UNL     1       6.198  -0.643  -5.494  1.00  0.00    -0.130 S 
ATOM     83  C   UNL     1       5.014  -0.058  -6.576  1.00  0.00     0.176 A 
ENDBRANCH  76  79
ENDBRANCH  74  75
BRANCH  74  84
ATOM     84  C   UNL     1       1.539  -1.459  -4.358  1.00  0.00    -0.002 A 
ATOM     85  C   UNL     1       2.092  -2.737  -4.577  1.00  0.00     0.007 A 
ATOM     86  C   UNL     1       1.094  -0.715  -5.497  1.00  0.00     0.061 A 
ATOM     87  C   UNL     1       2.357  -3.205  -5.861  1.00  0.00     0.000 A 
ATOM     88  C   UNL     1       1.406  -1.203  -6.785  1.00  0.00     0.013 A 
ATOM     89  C   UNL     1       2.059  -2.419  -6.963  1.00  0.00     0.001 A 
BRANCH  86  90
ATOM     90  C   UNL     1       0.404   0.647  -5.476  1.00  0.00     0.416 C 
ATOM     91  F   UNL     1       1.185   1.650  -5.963  1.00  0.00    -0.166 F 
ATOM     92  F   UNL     1      -0.709   0.658  -6.267  1.00  0.00    -0.166 F 
ATOM     93  F   UNL     1      -0.034   1.050  -4.251  1.00  0.00    -0.166 F 
ENDBRANCH  86  90
ENDBRANCH  74  84
ENDBRANCH  72  74
ENDBRANCH  71  72
ENDBRANCH  70  71
ENDBRANCH   1  70
TORSDOF 15
