REMARK SMILES COc1ccc(NC(=O)[C@@H]2[C@@H](C(=O)OCCOC(=O)c3ccc(-c4c5nc(c(-c6c(F)c(F)c(F)c(F)c6F)c6ccc([nH]6)c(-c6c(F)c(F)c(F)c(F)c6F)c6nc(c(-c7c(F)c(F)c(F)c(F)c7F)c7ccc4[nH]7)C=C6)C=C5)cc3)[C@H]3C=C[C@@H]2C3)cc1O
REMARK SMILES IDX 15 1 14 2 12 3 13 4 11 5 10 6 86 7 83 8 85 9 87 10 84 11
REMARK SMILES IDX 8 12 7 13 9 15 6 16 3 17 4 18 89 19 5 20 88 21 2 22 1 23
REMARK SMILES IDX 90 24 16 26 17 27 18 28 19 29 20 30 21 31 82 32 22 33 81 34
REMARK SMILES IDX 23 35 24 36 25 37 75 38 26 39 80 40 74 41 76 42 27 43 79 44
REMARK SMILES IDX 73 45 72 46 28 48 60 49 40 50 59 51 41 52 44 53 58 54 77 55
REMARK SMILES IDX 42 56 43 57 57 59 78 60 45 61 29 62 30 63 38 64 31 65 32 66
REMARK SMILES IDX 36 67 39 68 33 69 34 70 37 71 35 72 61 73 62 74 70 75 63 76
REMARK SMILES IDX 64 77 68 78 71 79 65 80 66 81 69 82 67 83 46 84 47 85 55 86
REMARK SMILES IDX 48 87 49 88 53 89 56 90 50 91 51 92 54 93 52 94
REMARK H PARENT 7 14 90 25 76 47 44 58
REMARK Flexibility Score: inf
ROOT
ATOM      1  C   UNL     1       2.558   0.038  -7.515  1.00  0.00     0.274 C 
ENDROOT
BRANCH   1   2
ATOM      2  O   UNL     1       1.186  -0.154  -7.100  1.00  0.00    -0.462 OA
BRANCH   2   3
ATOM      3  C   UNL     1       0.656   0.746  -6.226  1.00  0.00     0.310 C 
ATOM      4  O   UNL     1       1.232   1.749  -5.821  1.00  0.00    -0.252 OA
BRANCH   3   5
ATOM      5  C   UNL     1      -0.642   0.253  -5.611  1.00  0.00     0.119 C 
ATOM      6  C   UNL     1      -1.450  -0.776  -6.413  1.00  0.00     0.100 C 
ATOM      7  C   UNL     1      -2.826  -0.089  -6.629  1.00  0.00     0.025 C 
ATOM      8  C   UNL     1      -1.717   1.342  -5.318  1.00  0.00     0.027 C 
ATOM      9  C   UNL     1      -2.657   1.195  -7.410  1.00  0.00    -0.027 C 
ATOM     10  C   UNL     1      -3.039   0.548  -5.259  1.00  0.00     0.017 C 
ATOM     11  C   UNL     1      -2.053   2.065  -6.590  1.00  0.00    -0.027 C 
BRANCH   6  12
ATOM     12  C   UNL     1      -1.634  -2.166  -5.808  1.00  0.00     0.228 C 
ATOM     13  N   UNL     1      -1.297  -2.630  -4.577  1.00  0.00    -0.326 N 
ATOM     14  H   UNL     1      -1.308  -3.615  -4.591  1.00  0.00     0.169 HD
ATOM     15  O   UNL     1      -2.109  -3.034  -6.561  1.00  0.00    -0.274 OA
BRANCH  13  16
ATOM     16  C   UNL     1      -0.937  -2.192  -3.281  1.00  0.00     0.045 A 
ATOM     17  C   UNL     1      -0.141  -1.573  -0.636  1.00  0.00     0.160 A 
ATOM     18  C   UNL     1      -0.773  -0.615  -1.404  1.00  0.00     0.052 A 
ATOM     19  C   UNL     1       0.041  -2.849  -1.154  1.00  0.00     0.159 A 
ATOM     20  C   UNL     1      -1.182  -0.941  -2.705  1.00  0.00     0.030 A 
ATOM     21  C   UNL     1      -0.337  -3.158  -2.460  1.00  0.00     0.076 A 
BRANCH  17  22
ATOM     22  O   UNL     1       0.230  -1.321   0.654  1.00  0.00    -0.493 OA
ATOM     23  C   UNL     1       1.448  -0.575   0.701  1.00  0.00     0.278 C 
ENDBRANCH  17  22
BRANCH  19  24
ATOM     24  O   UNL     1       0.594  -3.829  -0.379  1.00  0.00    -0.504 OA
ATOM     25  H   UNL     1       0.854  -3.639   0.501  1.00  0.00     0.293 HD
ENDBRANCH  19  24
ENDBRANCH  13  16
ENDBRANCH   6  12
ENDBRANCH   3   5
ENDBRANCH   2   3
ENDBRANCH   1   2
BRANCH   1  26
ATOM     26  C   UNL     1       2.641   0.538  -8.957  1.00  0.00     0.275 C 
BRANCH  26  27
ATOM     27  O   UNL     1       2.094   1.863  -9.009  1.00  0.00    -0.458 OA
BRANCH  27  28
ATOM     28  C   UNL     1       1.074   2.077  -9.873  1.00  0.00     0.338 C 
ATOM     29  O   UNL     1       0.698   1.334 -10.762  1.00  0.00    -0.246 OA
BRANCH  28  30
ATOM     30  C   UNL     1       0.387   3.343  -9.516  1.00  0.00     0.060 A 
ATOM     31  C   UNL     1       0.421   3.809  -8.208  1.00  0.00     0.016 A 
ATOM     32  C   UNL     1      -0.433   3.991 -10.438  1.00  0.00     0.016 A 
ATOM     33  C   UNL     1      -0.475   4.791  -7.789  1.00  0.00     0.010 A 
ATOM     34  C   UNL     1      -1.242   5.068 -10.030  1.00  0.00     0.010 A 
ATOM     35  C   UNL     1      -1.345   5.439  -8.675  1.00  0.00    -0.014 A 
BRANCH  35  36
ATOM     36  C   UNL     1      -2.409   6.397  -8.194  1.00  0.00     0.031 A 
ATOM     37  C   UNL     1      -3.793   6.372  -8.816  1.00  0.00     0.074 A 
ATOM     38  C   UNL     1      -2.225   7.266  -7.173  1.00  0.00     0.049 A 
ATOM     39  N   UNL     1      -4.694   7.323  -8.874  1.00  0.00    -0.248 NA
ATOM     40  C   UNL     1      -4.210   5.125  -9.477  1.00  0.00     0.031 C 
ATOM     41  C   UNL     1      -1.027   7.396  -6.345  1.00  0.00     0.029 A 
ATOM     42  N   UNL     1      -3.079   8.212  -6.640  1.00  0.00    -0.354 N 
ATOM     43  C   UNL     1      -5.710   6.839  -9.692  1.00  0.00     0.074 A 
ATOM     44  C   UNL     1      -5.344   5.489 -10.063  1.00  0.00     0.031 C 
ATOM     45  C   UNL     1      -1.252   8.276  -5.362  1.00  0.00     0.029 A 
ATOM     46  C   UNL     1      -2.529   8.930  -5.604  1.00  0.00     0.049 A 
ATOM     47  H   UNL     1      -3.995   8.359  -6.971  1.00  0.00     0.167 HD
ATOM     48  C   UNL     1      -6.830   7.479 -10.110  1.00  0.00     0.037 A 
ATOM     49  C   UNL     1      -2.931  10.054  -4.978  1.00  0.00     0.037 A 
ATOM     50  C   UNL     1      -7.270   8.757  -9.612  1.00  0.00     0.049 A 
ATOM     51  C   UNL     1      -4.165  10.763  -5.454  1.00  0.00     0.074 A 
ATOM     52  C   UNL     1      -8.392   9.487  -9.969  1.00  0.00     0.029 A 
ATOM     53  N   UNL     1      -6.639   9.468  -8.604  1.00  0.00    -0.354 N 
ATOM     54  N   UNL     1      -5.010  10.414  -6.391  1.00  0.00    -0.248 NA
ATOM     55  C   UNL     1      -4.468  12.056  -4.823  1.00  0.00     0.031 C 
ATOM     56  C   UNL     1      -8.430  10.648  -9.190  1.00  0.00     0.029 A 
ATOM     57  C   UNL     1      -7.351  10.623  -8.323  1.00  0.00     0.049 A 
ATOM     58  H   UNL     1      -5.807   9.193  -8.154  1.00  0.00     0.167 HD
ATOM     59  C   UNL     1      -5.938  11.443  -6.467  1.00  0.00     0.074 A 
ATOM     60  C   UNL     1      -5.573  12.416  -5.460  1.00  0.00     0.031 C 
ATOM     61  C   UNL     1      -6.987  11.578  -7.313  1.00  0.00     0.037 A 
BRANCH  48  62
ATOM     62  C   UNL     1      -7.646   6.850 -11.202  1.00  0.00     0.064 A 
ATOM     63  C   UNL     1      -8.502   5.765 -10.980  1.00  0.00     0.173 A 
ATOM     64  C   UNL     1      -7.633   7.424 -12.486  1.00  0.00     0.173 A 
ATOM     65  F   UNL     1      -8.545   5.175  -9.776  1.00  0.00    -0.203 F 
ATOM     66  C   UNL     1      -9.310   5.271 -12.004  1.00  0.00     0.198 A 
ATOM     67  C   UNL     1      -8.461   6.947 -13.498  1.00  0.00     0.198 A 
ATOM     68  F   UNL     1      -6.839   8.474 -12.748  1.00  0.00    -0.203 F 
ATOM     69  F   UNL     1     -10.105   4.217 -11.777  1.00  0.00    -0.200 F 
ATOM     70  C   UNL     1      -9.297   5.869 -13.256  1.00  0.00     0.200 A 
ATOM     71  F   UNL     1      -8.459   7.539 -14.700  1.00  0.00    -0.200 F 
ATOM     72  F   UNL     1     -10.093   5.407 -14.231  1.00  0.00    -0.200 F 
ENDBRANCH  48  62
BRANCH  49  73
ATOM     73  C   UNL     1      -2.075  10.659  -3.920  1.00  0.00     0.064 A 
ATOM     74  C   UNL     1      -2.514  10.743  -2.592  1.00  0.00     0.173 A 
ATOM     75  C   UNL     1      -0.801  11.171  -4.218  1.00  0.00     0.173 A 
ATOM     76  F   UNL     1      -3.738  10.306  -2.262  1.00  0.00    -0.203 F 
ATOM     77  C   UNL     1      -1.712  11.313  -1.605  1.00  0.00     0.198 A 
ATOM     78  C   UNL     1       0.016  11.700  -3.224  1.00  0.00     0.198 A 
ATOM     79  F   UNL     1      -0.337  11.129  -5.476  1.00  0.00    -0.203 F 
ATOM     80  F   UNL     1      -2.172  11.424  -0.351  1.00  0.00    -0.200 F 
ATOM     81  C   UNL     1      -0.443  11.778  -1.919  1.00  0.00     0.200 A 
ATOM     82  F   UNL     1       1.248  12.129  -3.530  1.00  0.00    -0.200 F 
ATOM     83  F   UNL     1       0.335  12.309  -0.965  1.00  0.00    -0.200 F 
ENDBRANCH  49  73
BRANCH  61  84
ATOM     84  C   UNL     1      -7.835  12.803  -7.160  1.00  0.00     0.064 A 
ATOM     85  C   UNL     1      -7.393  14.058  -7.603  1.00  0.00     0.173 A 
ATOM     86  C   UNL     1      -9.110  12.718  -6.582  1.00  0.00     0.173 A 
ATOM     87  F   UNL     1      -6.173  14.191  -8.145  1.00  0.00    -0.203 F 
ATOM     88  C   UNL     1      -8.191  15.189  -7.453  1.00  0.00     0.198 A 
ATOM     89  C   UNL     1      -9.913  13.847  -6.454  1.00  0.00     0.198 A 
ATOM     90  F   UNL     1      -9.576  11.538  -6.145  1.00  0.00    -0.203 F 
ATOM     91  F   UNL     1      -7.732  16.387  -7.843  1.00  0.00    -0.200 F 
ATOM     92  C   UNL     1      -9.451  15.082  -6.883  1.00  0.00     0.200 A 
ATOM     93  F   UNL     1     -11.133  13.741  -5.910  1.00  0.00    -0.200 F 
ATOM     94  F   UNL     1     -10.217  16.172  -6.739  1.00  0.00    -0.200 F 
ENDBRANCH  61  84
ENDBRANCH  35  36
ENDBRANCH  28  30
ENDBRANCH  27  28
ENDBRANCH  26  27
ENDBRANCH   1  26
TORSDOF 15
