REMARK SMILES O=C(OCCOC(=O)[C@@H]1C[C@@H]2CC(=O)[C@H]1C2)c1ccc(-c2c3nc(c(-c4c(F)c(F)c(F)c(F)c4F)c4ccc([nH]4)c(-c4c(F)c(F)c(F)c(F)c4F)c4nc(c(-c5c(F)c(F)c(F)c(F)c5F)c5ccc2[nH]5)C=C4)C=C3)cc1
REMARK SMILES IDX 4 1 3 2 2 3 1 4 17 5 18 6 79 7 19 8 78 9 20 10 21 11 22 12
REMARK SMILES IDX 72 13 23 14 77 15 71 16 73 17 24 18 76 19 70 20 69 21 25 23
REMARK SMILES IDX 57 24 37 25 56 26 38 27 41 28 55 29 74 30 39 31 40 32 54 34
REMARK SMILES IDX 75 35 42 36 26 37 27 38 35 39 28 40 29 41 33 42 36 43 30 44
REMARK SMILES IDX 31 45 34 46 32 47 58 48 59 49 67 50 60 51 61 52 65 53 68 54
REMARK SMILES IDX 62 55 63 56 66 57 64 58 43 59 44 60 52 61 45 62 46 63 50 64
REMARK SMILES IDX 53 65 47 66 48 67 51 68 49 69 5 70 6 71 7 72 8 73 9 74 10 75
REMARK SMILES IDX 15 76 11 77 13 78 16 79 12 80 14 81
REMARK H PARENT 73 22 41 33
REMARK Flexibility Score: inf
ROOT
ATOM      1  C   UNL     1       3.836  -0.215  -1.519  1.00  0.00     0.275 C 
ENDROOT
BRANCH   1   2
ATOM      2  O   UNL     1       2.974  -0.641  -0.462  1.00  0.00    -0.458 OA
BRANCH   2   3
ATOM      3  C   UNL     1       3.473  -1.431   0.526  1.00  0.00     0.338 C 
ATOM      4  O   UNL     1       2.987  -2.514   0.823  1.00  0.00    -0.246 OA
BRANCH   3   5
ATOM      5  C   UNL     1       4.361  -0.706   1.470  1.00  0.00     0.060 A 
ATOM      6  C   UNL     1       5.597  -0.146   1.132  1.00  0.00     0.016 A 
ATOM      7  C   UNL     1       3.859  -0.516   2.752  1.00  0.00     0.016 A 
ATOM      8  C   UNL     1       6.255   0.712   2.024  1.00  0.00     0.010 A 
ATOM      9  C   UNL     1       4.450   0.429   3.585  1.00  0.00     0.010 A 
ATOM     10  C   UNL     1       5.665   1.048   3.244  1.00  0.00    -0.014 A 
BRANCH  10  11
ATOM     11  C   UNL     1       6.317   1.949   4.235  1.00  0.00     0.031 A 
ATOM     12  C   UNL     1       6.568   1.414   5.622  1.00  0.00     0.074 A 
ATOM     13  C   UNL     1       6.578   3.248   3.973  1.00  0.00     0.049 A 
ATOM     14  N   UNL     1       7.035   2.030   6.679  1.00  0.00    -0.248 NA
ATOM     15  C   UNL     1       6.192   0.009   5.871  1.00  0.00     0.031 C 
ATOM     16  C   UNL     1       6.340   3.948   2.709  1.00  0.00     0.029 A 
ATOM     17  N   UNL     1       7.055   4.239   4.801  1.00  0.00    -0.354 N 
ATOM     18  C   UNL     1       7.035   1.070   7.679  1.00  0.00     0.074 A 
ATOM     19  C   UNL     1       6.302  -0.069   7.184  1.00  0.00     0.031 C 
ATOM     20  C   UNL     1       6.582   5.262   2.872  1.00  0.00     0.029 A 
ATOM     21  C   UNL     1       7.045   5.493   4.236  1.00  0.00     0.049 A 
ATOM     22  H   UNL     1       7.374   4.066   5.716  1.00  0.00     0.167 HD
ATOM     23  C   UNL     1       7.725   1.054   8.842  1.00  0.00     0.037 A 
ATOM     24  C   UNL     1       7.391   6.686   4.761  1.00  0.00     0.037 A 
ATOM     25  C   UNL     1       8.500   2.158   9.316  1.00  0.00     0.049 A 
ATOM     26  C   UNL     1       8.039   6.719   6.123  1.00  0.00     0.074 A 
ATOM     27  C   UNL     1       9.331   2.233  10.415  1.00  0.00     0.029 A 
ATOM     28  N   UNL     1       8.524   3.399   8.700  1.00  0.00    -0.354 N 
ATOM     29  N   UNL     1       8.244   5.738   6.968  1.00  0.00    -0.248 NA
ATOM     30  C   UNL     1       8.581   8.012   6.568  1.00  0.00     0.031 C 
ATOM     31  C   UNL     1       9.834   3.539  10.484  1.00  0.00     0.029 A 
ATOM     32  C   UNL     1       9.341   4.260   9.407  1.00  0.00     0.049 A 
ATOM     33  H   UNL     1       8.033   3.633   7.879  1.00  0.00     0.167 HD
ATOM     34  C   UNL     1       9.031   6.267   7.983  1.00  0.00     0.074 A 
ATOM     35  C   UNL     1       9.223   7.668   7.675  1.00  0.00     0.031 C 
ATOM     36  C   UNL     1       9.576   5.635   9.052  1.00  0.00     0.037 A 
BRANCH  23  37
ATOM     37  C   UNL     1       7.737  -0.254   9.575  1.00  0.00     0.064 A 
ATOM     38  C   UNL     1       8.354  -1.383   9.004  1.00  0.00     0.173 A 
ATOM     39  C   UNL     1       7.053  -0.419  10.784  1.00  0.00     0.173 A 
ATOM     40  F   UNL     1       9.006  -1.278   7.834  1.00  0.00    -0.203 F 
ATOM     41  C   UNL     1       8.214  -2.643   9.573  1.00  0.00     0.198 A 
ATOM     42  C   UNL     1       6.950  -1.678  11.373  1.00  0.00     0.198 A 
ATOM     43  F   UNL     1       6.453   0.626  11.372  1.00  0.00    -0.203 F 
ATOM     44  F   UNL     1       8.715  -3.718   8.950  1.00  0.00    -0.200 F 
ATOM     45  C   UNL     1       7.509  -2.790  10.757  1.00  0.00     0.200 A 
ATOM     46  F   UNL     1       6.275  -1.823  12.522  1.00  0.00    -0.200 F 
ATOM     47  F   UNL     1       7.350  -4.007  11.294  1.00  0.00    -0.200 F 
ENDBRANCH  23  37
BRANCH  24  48
ATOM     48  C   UNL     1       7.250   7.942   3.977  1.00  0.00     0.064 A 
ATOM     49  C   UNL     1       8.370   8.563   3.407  1.00  0.00     0.173 A 
ATOM     50  C   UNL     1       6.013   8.592   3.859  1.00  0.00     0.173 A 
ATOM     51  F   UNL     1       9.578   7.991   3.516  1.00  0.00    -0.203 F 
ATOM     52  C   UNL     1       8.268   9.806   2.785  1.00  0.00     0.198 A 
ATOM     53  C   UNL     1       5.910   9.829   3.221  1.00  0.00     0.198 A 
ATOM     54  F   UNL     1       4.911   8.041   4.386  1.00  0.00    -0.203 F 
ATOM     55  F   UNL     1       9.367  10.405   2.304  1.00  0.00    -0.200 F 
ATOM     56  C   UNL     1       7.039  10.441   2.696  1.00  0.00     0.200 A 
ATOM     57  F   UNL     1       4.720  10.441   3.136  1.00  0.00    -0.200 F 
ATOM     58  F   UNL     1       6.945  11.647   2.119  1.00  0.00    -0.200 F 
ENDBRANCH  24  48
BRANCH  36  59
ATOM     59  C   UNL     1      10.538   6.405   9.904  1.00  0.00     0.064 A 
ATOM     60  C   UNL     1      10.118   7.413  10.780  1.00  0.00     0.173 A 
ATOM     61  C   UNL     1      11.901   6.067   9.890  1.00  0.00     0.173 A 
ATOM     62  F   UNL     1       8.830   7.784  10.815  1.00  0.00    -0.203 F 
ATOM     63  C   UNL     1      11.031   8.065  11.605  1.00  0.00     0.198 A 
ATOM     64  C   UNL     1      12.804   6.696  10.739  1.00  0.00     0.198 A 
ATOM     65  F   UNL     1      12.351   5.105   9.069  1.00  0.00    -0.203 F 
ATOM     66  F   UNL     1      10.616   9.053  12.409  1.00  0.00    -0.200 F 
ATOM     67  C   UNL     1      12.369   7.697  11.593  1.00  0.00     0.200 A 
ATOM     68  F   UNL     1      14.093   6.327  10.737  1.00  0.00    -0.200 F 
ATOM     69  F   UNL     1      13.241   8.312  12.404  1.00  0.00    -0.200 F 
ENDBRANCH  36  59
ENDBRANCH  10  11
ENDBRANCH   3   5
ENDBRANCH   2   3
ENDBRANCH   1   2
BRANCH   1  70
ATOM     70  C   UNL     1       3.796   1.299  -1.781  1.00  0.00     0.274 C 
BRANCH  70  71
ATOM     71  O   UNL     1       3.244   2.124  -0.733  1.00  0.00    -0.462 OA
BRANCH  71  72
ATOM     72  C   UNL     1       1.925   2.424  -0.895  1.00  0.00     0.309 C 
ATOM     73  O   UNL     1       1.196   1.895  -1.729  1.00  0.00    -0.252 OA
BRANCH  72  74
ATOM     74  C   UNL     1       1.408   3.533   0.015  1.00  0.00     0.110 C 
ATOM     75  C   UNL     1       2.383   4.620   0.527  1.00  0.00     0.020 C 
ATOM     76  C   UNL     1       0.762   3.028   1.303  1.00  0.00     0.070 C 
ATOM     77  C   UNL     1       2.119   4.646   2.057  1.00  0.00    -0.002 C 
ATOM     78  C   UNL     1       1.849   2.367   2.091  1.00  0.00     0.137 C 
ATOM     79  C   UNL     1       0.631   4.291   2.149  1.00  0.00     0.016 C 
ATOM     80  C   UNL     1       2.770   3.405   2.691  1.00  0.00     0.079 C 
ATOM     81  O   UNL     1       1.947   1.162   2.178  1.00  0.00    -0.299 OA
ENDBRANCH  72  74
ENDBRANCH  71  72
ENDBRANCH  70  71
ENDBRANCH   1  70
TORSDOF 11
