REMARK SMILES O=C(NCc1ccc(C(=O)OCCOC(=O)c2ccc(-c3c4nc(c(-c5c(F)c(F)c(F)c(F)c5F)c5ccc([nH]5)c(-c5c(F)c(F)c(F)c(F)c5F)c5nc(c(-c6c(F)c(F)c(F)c(F)c6F)c6ccc3[nH]6)C=C5)C=C4)cc2)cc1)Nc1ccccc1Br
REMARK SMILES IDX 12 1 11 2 9 3 10 4 8 5 5 6 6 7 81 8 7 9 80 10 4 11 3 12 1 13
REMARK SMILES IDX 2 14 82 15 83 18 84 19 88 20 85 21 87 22 89 23 86 24 13 25
REMARK SMILES IDX 14 26 15 27 16 28 17 29 18 30 79 31 19 32 78 33 20 34 21 35
REMARK SMILES IDX 22 36 72 37 23 38 77 39 71 40 73 41 24 42 76 43 70 44 69 45
REMARK SMILES IDX 25 47 57 48 37 49 56 50 38 51 41 52 55 53 74 54 39 55 40 56
REMARK SMILES IDX 54 58 75 59 42 60 26 61 27 62 35 63 28 64 29 65 33 66 36 67
REMARK SMILES IDX 30 68 31 69 34 70 32 71 58 72 59 73 67 74 60 75 61 76 65 77
REMARK SMILES IDX 68 78 62 79 63 80 66 81 64 82 43 83 44 84 52 85 45 86 46 87
REMARK SMILES IDX 50 88 53 89 47 90 48 91 51 92 49 93
REMARK H PARENT 3 16 82 17 73 46 41 57
REMARK Flexibility Score: inf
ROOT
ATOM      1  C   UNL     1       6.838  -1.491   7.636  1.00  0.00     0.275 C 
ENDROOT
BRANCH   1   2
ATOM      2  O   UNL     1       6.352  -1.171   6.317  1.00  0.00    -0.458 OA
BRANCH   2   3
ATOM      3  C   UNL     1       6.753  -2.006   5.330  1.00  0.00     0.338 C 
ATOM      4  O   UNL     1       7.476  -2.984   5.457  1.00  0.00    -0.246 OA
BRANCH   3   5
ATOM      5  C   UNL     1       6.136  -1.645   4.030  1.00  0.00     0.060 A 
ATOM      6  C   UNL     1       5.082  -1.075   1.489  1.00  0.00    -0.029 A 
ATOM      7  C   UNL     1       5.375  -2.393   1.848  1.00  0.00     0.006 A 
ATOM      8  C   UNL     1       5.285  -0.048   2.425  1.00  0.00     0.006 A 
ATOM      9  C   UNL     1       5.927  -2.668   3.096  1.00  0.00     0.016 A 
ATOM     10  C   UNL     1       5.806  -0.330   3.695  1.00  0.00     0.016 A 
BRANCH   6  11
ATOM     11  C   UNL     1       4.573  -0.777   0.106  1.00  0.00     0.153 C 
BRANCH  11  12
ATOM     12  N   UNL     1       3.131  -0.808   0.052  1.00  0.00    -0.334 N 
ATOM     13  O   UNL     1       1.050  -0.073  -0.217  1.00  0.00    -0.248 OA
ATOM     14  C   UNL     1       2.249   0.177  -0.270  1.00  0.00     0.319 C 
ATOM     15  N   UNL     1       2.802   1.353  -0.686  1.00  0.00    -0.307 N 
ATOM     16  H   UNL     1       2.724  -1.673   0.284  1.00  0.00     0.165 HD
ATOM     17  H   UNL     1       3.760   1.334  -0.914  1.00  0.00     0.171 HD
BRANCH  15  18
ATOM     18  C   UNL     1       2.144   2.595  -0.825  1.00  0.00     0.057 A 
ATOM     19  C   UNL     1       2.620   3.406  -1.870  1.00  0.00     0.027 A 
ATOM     20  C   UNL     1       1.117   3.091  -0.004  1.00  0.00     0.041 A 
ATOM     21  C   UNL     1       2.036   4.643  -2.147  1.00  0.00     0.002 A 
ATOM     22  C   UNL     1       0.526   4.329  -0.298  1.00  0.00     0.018 A 
ATOM     23  Br  UNL     1       0.595   2.313   1.653  1.00  0.00    -0.049 Br
ATOM     24  C   UNL     1       0.976   5.096  -1.372  1.00  0.00     0.001 A 
ENDBRANCH  15  18
ENDBRANCH  11  12
ENDBRANCH   6  11
ENDBRANCH   3   5
ENDBRANCH   2   3
ENDBRANCH   1   2
BRANCH   1  25
ATOM     25  C   UNL     1       5.795  -2.260   8.447  1.00  0.00     0.275 C 
BRANCH  25  26
ATOM     26  O   UNL     1       5.563  -3.561   7.876  1.00  0.00    -0.458 OA
BRANCH  26  27
ATOM     27  C   UNL     1       4.347  -3.740   7.315  1.00  0.00     0.338 C 
ATOM     28  O   UNL     1       3.423  -2.948   7.262  1.00  0.00    -0.246 OA
BRANCH  27  29
ATOM     29  C   UNL     1       4.263  -5.084   6.724  1.00  0.00     0.060 A 
ATOM     30  C   UNL     1       4.922  -5.339   5.525  1.00  0.00     0.016 A 
ATOM     31  C   UNL     1       3.405  -6.036   7.269  1.00  0.00     0.016 A 
ATOM     32  C   UNL     1       4.660  -6.508   4.813  1.00  0.00     0.010 A 
ATOM     33  C   UNL     1       3.213  -7.249   6.599  1.00  0.00     0.010 A 
ATOM     34  C   UNL     1       3.808  -7.485   5.344  1.00  0.00    -0.014 A 
BRANCH  34  35
ATOM     35  C   UNL     1       3.490  -8.729   4.587  1.00  0.00     0.031 A 
ATOM     36  C   UNL     1       2.056  -9.059   4.262  1.00  0.00     0.074 A 
ATOM     37  C   UNL     1       4.463  -9.577   4.201  1.00  0.00     0.049 A 
ATOM     38  N   UNL     1       1.531 -10.192   3.869  1.00  0.00    -0.248 NA
ATOM     39  C   UNL     1       1.081  -7.967   4.414  1.00  0.00     0.031 C 
ATOM     40  C   UNL     1       5.899  -9.362   4.380  1.00  0.00     0.029 A 
ATOM     41  N   UNL     1       4.388 -10.803   3.583  1.00  0.00    -0.354 N 
ATOM     42  C   UNL     1       0.161  -9.970   3.800  1.00  0.00     0.074 A 
ATOM     43  C   UNL     1      -0.064  -8.591   4.176  1.00  0.00     0.031 C 
ATOM     44  C   UNL     1       6.569 -10.407   3.870  1.00  0.00     0.029 A 
ATOM     45  C   UNL     1       5.609 -11.409   3.418  1.00  0.00     0.049 A 
ATOM     46  H   UNL     1       3.540 -11.208   3.288  1.00  0.00     0.167 HD
ATOM     47  C   UNL     1      -0.818 -10.845   3.462  1.00  0.00     0.037 A 
ATOM     48  C   UNL     1       5.925 -12.652   3.007  1.00  0.00     0.037 A 
ATOM     49  C   UNL     1      -0.581 -12.197   3.025  1.00  0.00     0.049 A 
ATOM     50  C   UNL     1       4.824 -13.616   2.662  1.00  0.00     0.074 A 
ATOM     51  C   UNL     1      -1.503 -13.161   2.656  1.00  0.00     0.029 A 
ATOM     52  N   UNL     1       0.675 -12.767   2.877  1.00  0.00    -0.354 N 
ATOM     53  N   UNL     1       3.527 -13.429   2.680  1.00  0.00    -0.248 NA
ATOM     54  C   UNL     1       5.229 -14.970   2.262  1.00  0.00     0.031 C 
ATOM     55  C   UNL     1      -0.806 -14.324   2.311  1.00  0.00     0.029 A 
ATOM     56  C   UNL     1       0.551 -14.071   2.425  1.00  0.00     0.049 A 
ATOM     57  H   UNL     1       1.528 -12.313   3.066  1.00  0.00     0.167 HD
ATOM     58  C   UNL     1       2.963 -14.630   2.277  1.00  0.00     0.074 A 
ATOM     59  C   UNL     1       4.058 -15.539   2.010  1.00  0.00     0.031 C 
ATOM     60  C   UNL     1       1.653 -14.953   2.144  1.00  0.00     0.037 A 
BRANCH  47  61
ATOM     61  C   UNL     1      -2.240 -10.385   3.590  1.00  0.00     0.064 A 
ATOM     62  C   UNL     1      -2.814  -9.476   2.690  1.00  0.00     0.173 A 
ATOM     63  C   UNL     1      -3.055 -10.899   4.612  1.00  0.00     0.173 A 
ATOM     64  F   UNL     1      -2.076  -8.947   1.703  1.00  0.00    -0.203 F 
ATOM     65  C   UNL     1      -4.144  -9.082   2.821  1.00  0.00     0.198 A 
ATOM     66  C   UNL     1      -4.391 -10.524   4.724  1.00  0.00     0.198 A 
ATOM     67  F   UNL     1      -2.557 -11.777   5.496  1.00  0.00    -0.203 F 
ATOM     68  F   UNL     1      -4.662  -8.183   1.973  1.00  0.00    -0.200 F 
ATOM     69  C   UNL     1      -4.933  -9.611   3.833  1.00  0.00     0.200 A 
ATOM     70  F   UNL     1      -5.153 -11.047   5.694  1.00  0.00    -0.200 F 
ATOM     71  F   UNL     1      -6.214  -9.238   3.952  1.00  0.00    -0.200 F 
ENDBRANCH  47  61
BRANCH  48  72
ATOM     72  C   UNL     1       7.350 -13.070   2.951  1.00  0.00     0.064 A 
ATOM     73  C   UNL     1       7.985 -13.302   1.723  1.00  0.00     0.173 A 
ATOM     74  C   UNL     1       8.109 -13.232   4.120  1.00  0.00     0.173 A 
ATOM     75  F   UNL     1       7.294 -13.187   0.580  1.00  0.00    -0.203 F 
ATOM     76  C   UNL     1       9.324 -13.685   1.667  1.00  0.00     0.198 A 
ATOM     77  C   UNL     1       9.455 -13.585   4.061  1.00  0.00     0.198 A 
ATOM     78  F   UNL     1       7.548 -13.025   5.320  1.00  0.00    -0.203 F 
ATOM     79  F   UNL     1       9.898 -13.935   0.483  1.00  0.00    -0.200 F 
ATOM     80  C   UNL     1      10.060 -13.816   2.836  1.00  0.00     0.200 A 
ATOM     81  F   UNL     1      10.166 -13.697   5.192  1.00  0.00    -0.200 F 
ATOM     82  F   UNL     1      11.351 -14.172   2.780  1.00  0.00    -0.200 F 
ENDBRANCH  48  72
BRANCH  60  83
ATOM     83  C   UNL     1       1.333 -16.327   1.638  1.00  0.00     0.064 A 
ATOM     84  C   UNL     1       1.449 -17.458   2.457  1.00  0.00     0.173 A 
ATOM     85  C   UNL     1       0.859 -16.504   0.330  1.00  0.00     0.173 A 
ATOM     86  F   UNL     1       1.914 -17.340   3.710  1.00  0.00    -0.203 F 
ATOM     87  C   UNL     1       1.118 -18.723   1.977  1.00  0.00     0.198 A 
ATOM     88  C   UNL     1       0.507 -17.766  -0.139  1.00  0.00     0.198 A 
ATOM     89  F   UNL     1       0.727 -15.450  -0.490  1.00  0.00    -0.203 F 
ATOM     90  F   UNL     1       1.271 -19.797   2.764  1.00  0.00    -0.200 F 
ATOM     91  C   UNL     1       0.641 -18.874   0.683  1.00  0.00     0.200 A 
ATOM     92  F   UNL     1       0.038 -17.909  -1.386  1.00  0.00    -0.200 F 
ATOM     93  F   UNL     1       0.316 -20.091   0.226  1.00  0.00    -0.200 F 
ENDBRANCH  60  83
ENDBRANCH  34  35
ENDBRANCH  27  29
ENDBRANCH  26  27
ENDBRANCH  25  26
ENDBRANCH   1  25
TORSDOF 14
