REMARK SMILES O=C(C[C@@H]1CN(C(=O)NCc2cccs2)CCO1)OCCOC(=O)c1ccc(-c2c3nc(c(-c4c(F)c(F)c(F)c(F)c4F)c4ccc([nH]4)c(-c4c(F)c(F)c(F)c(F)c4F)c4nc(c(-c5c(F)c(F)c(F)c(F)c5F)c5ccc2[nH]5)C=C4)C=C3)cc1
REMARK SMILES IDX 20 1 19 2 2 3 1 4 3 5 4 6 5 7 18 8 6 9 17 10 16 11 7 12 8 13
REMARK SMILES IDX 9 14 10 16 11 17 12 18 15 19 13 20 14 21 21 22 22 23 23 24
REMARK SMILES IDX 24 25 25 26 26 27 87 28 27 29 86 30 28 31 29 32 30 33 80 34
REMARK SMILES IDX 31 35 85 36 79 37 81 38 32 39 84 40 78 41 77 42 33 44 65 45
REMARK SMILES IDX 45 46 64 47 46 48 49 49 63 50 82 51 47 52 48 53 62 55 83 56
REMARK SMILES IDX 50 57 34 58 35 59 43 60 36 61 37 62 41 63 44 64 38 65 39 66
REMARK SMILES IDX 42 67 40 68 66 69 67 70 75 71 68 72 69 73 73 74 76 75 70 76
REMARK SMILES IDX 71 77 74 78 72 79 51 80 52 81 60 82 53 83 54 84 58 85 61 86
REMARK SMILES IDX 55 87 56 88 59 89 57 90
REMARK H PARENT 9 15 81 43 49 54
REMARK Flexibility Score: inf
ROOT
ATOM      1  C   UNL     1       4.087  -0.547  -1.062  1.00  0.00     0.274 C 
ENDROOT
BRANCH   1   2
ATOM      2  O   UNL     1       2.718  -0.661  -0.621  1.00  0.00    -0.462 OA
BRANCH   2   3
ATOM      3  C   UNL     1       2.175  -0.039   0.447  1.00  0.00     0.308 C 
ATOM      4  O   UNL     1       1.078  -0.392   0.875  1.00  0.00    -0.252 OA
BRANCH   3   5
ATOM      5  C   UNL     1       2.918   1.079   1.119  1.00  0.00     0.156 C 
BRANCH   5   6
ATOM      6  C   UNL     1       3.858   0.652   2.233  1.00  0.00     0.149 C 
ATOM      7  C   UNL     1       3.383  -0.547   3.073  1.00  0.00     0.154 C 
ATOM      8  O   UNL     1       4.022   1.807   3.102  1.00  0.00    -0.374 OA
ATOM      9  N   UNL     1       4.438  -0.827   4.045  1.00  0.00    -0.320 N 
ATOM     10  C   UNL     1       4.949   1.554   4.178  1.00  0.00     0.182 C 
ATOM     11  C   UNL     1       4.571   0.298   4.979  1.00  0.00     0.150 C 
BRANCH   9  12
ATOM     12  C   UNL     1       5.453  -1.733   4.013  1.00  0.00     0.317 C 
ATOM     13  O   UNL     1       6.314  -1.754   4.901  1.00  0.00    -0.249 OA
ATOM     14  N   UNL     1       5.654  -2.626   3.038  1.00  0.00    -0.333 N 
ATOM     15  H   UNL     1       6.451  -3.169   3.233  1.00  0.00     0.165 HD
BRANCH  14  16
ATOM     16  C   UNL     1       5.060  -3.041   1.786  1.00  0.00     0.164 C 
BRANCH  16  17
ATOM     17  C   UNL     1       6.083  -2.935   0.690  1.00  0.00     0.024 A 
ATOM     18  C   UNL     1       6.955  -1.898   0.408  1.00  0.00     0.017 A 
ATOM     19  S   UNL     1       6.204  -4.183  -0.482  1.00  0.00    -0.147 S 
ATOM     20  C   UNL     1       7.681  -2.110  -0.800  1.00  0.00     0.012 A 
ATOM     21  C   UNL     1       7.367  -3.316  -1.385  1.00  0.00     0.065 A 
ENDBRANCH  16  17
ENDBRANCH  14  16
ENDBRANCH   9  12
ENDBRANCH   5   6
ENDBRANCH   3   5
ENDBRANCH   2   3
ENDBRANCH   1   2
BRANCH   1  22
ATOM     22  C   UNL     1       4.218   0.249  -2.357  1.00  0.00     0.275 C 
BRANCH  22  23
ATOM     23  O   UNL     1       3.851   1.613  -2.113  1.00  0.00    -0.458 OA
BRANCH  23  24
ATOM     24  C   UNL     1       2.559   1.912  -2.393  1.00  0.00     0.338 C 
ATOM     25  O   UNL     1       1.758   1.218  -2.993  1.00  0.00    -0.246 OA
BRANCH  24  26
ATOM     26  C   UNL     1       2.193   3.140  -1.659  1.00  0.00     0.060 A 
ATOM     27  C   UNL     1       0.925   3.186  -1.068  1.00  0.00     0.016 A 
ATOM     28  C   UNL     1       3.086   4.207  -1.509  1.00  0.00     0.016 A 
ATOM     29  C   UNL     1       0.530   4.318  -0.359  1.00  0.00     0.010 A 
ATOM     30  C   UNL     1       2.689   5.342  -0.801  1.00  0.00     0.010 A 
ATOM     31  C   UNL     1       1.397   5.413  -0.254  1.00  0.00    -0.014 A 
BRANCH  31  32
ATOM     32  C   UNL     1       0.880   6.699   0.264  1.00  0.00     0.031 A 
ATOM     33  C   UNL     1       0.362   7.705  -0.725  1.00  0.00     0.074 A 
ATOM     34  C   UNL     1       0.845   6.953   1.583  1.00  0.00     0.049 A 
ATOM     35  N   UNL     1      -0.172   8.880  -0.514  1.00  0.00    -0.248 NA
ATOM     36  C   UNL     1       0.460   7.334  -2.147  1.00  0.00     0.031 C 
ATOM     37  C   UNL     1       1.309   6.050   2.634  1.00  0.00     0.029 A 
ATOM     38  N   UNL     1       0.395   8.059   2.260  1.00  0.00    -0.354 N 
ATOM     39  C   UNL     1      -0.490   9.377  -1.770  1.00  0.00     0.074 A 
ATOM     40  C   UNL     1      -0.046   8.402  -2.742  1.00  0.00     0.031 C 
ATOM     41  C   UNL     1       1.126   6.643   3.827  1.00  0.00     0.029 A 
ATOM     42  C   UNL     1       0.546   7.969   3.621  1.00  0.00     0.049 A 
ATOM     43  H   UNL     1       0.002   8.842   1.812  1.00  0.00     0.167 HD
ATOM     44  C   UNL     1      -1.115  10.535  -2.084  1.00  0.00     0.037 A 
ATOM     45  C   UNL     1       0.251   8.864   4.583  1.00  0.00     0.037 A 
ATOM     46  C   UNL     1      -1.540  11.512  -1.120  1.00  0.00     0.049 A 
ATOM     47  C   UNL     1      -0.383  10.178   4.199  1.00  0.00     0.074 A 
ATOM     48  C   UNL     1      -2.185  12.716  -1.336  1.00  0.00     0.029 A 
ATOM     49  N   UNL     1      -1.350  11.397   0.249  1.00  0.00    -0.354 N 
ATOM     50  N   UNL     1      -0.730  10.618   3.013  1.00  0.00    -0.248 NA
ATOM     51  C   UNL     1      -0.674  11.117   5.292  1.00  0.00     0.031 C 
ATOM     52  C   UNL     1      -2.347  13.351  -0.100  1.00  0.00     0.029 A 
ATOM     53  C   UNL     1      -1.845  12.521   0.889  1.00  0.00     0.049 A 
ATOM     54  H   UNL     1      -0.926  10.631   0.699  1.00  0.00     0.167 HD
ATOM     55  C   UNL     1      -1.307  11.865   3.220  1.00  0.00     0.074 A 
ATOM     56  C   UNL     1      -1.277  12.106   4.647  1.00  0.00     0.031 C 
ATOM     57  C   UNL     1      -1.815  12.735   2.313  1.00  0.00     0.037 A 
BRANCH  44  58
ATOM     58  C   UNL     1      -1.369  10.807  -3.536  1.00  0.00     0.064 A 
ATOM     59  C   UNL     1      -2.350  10.103  -4.250  1.00  0.00     0.173 A 
ATOM     60  C   UNL     1      -0.645  11.798  -4.213  1.00  0.00     0.173 A 
ATOM     61  F   UNL     1      -3.055   9.131  -3.650  1.00  0.00    -0.203 F 
ATOM     62  C   UNL     1      -2.586  10.370  -5.596  1.00  0.00     0.198 A 
ATOM     63  C   UNL     1      -0.900  12.080  -5.553  1.00  0.00     0.198 A 
ATOM     64  F   UNL     1       0.306  12.496  -3.575  1.00  0.00    -0.203 F 
ATOM     65  F   UNL     1      -3.500   9.659  -6.269  1.00  0.00    -0.200 F 
ATOM     66  C   UNL     1      -1.866  11.363  -6.244  1.00  0.00     0.200 A 
ATOM     67  F   UNL     1      -0.209  13.044  -6.176  1.00  0.00    -0.200 F 
ATOM     68  F   UNL     1      -2.098  11.624  -7.537  1.00  0.00    -0.200 F 
ENDBRANCH  44  58
BRANCH  45  69
ATOM     69  C   UNL     1       0.545   8.559   6.008  1.00  0.00     0.064 A 
ATOM     70  C   UNL     1      -0.488   8.372   6.937  1.00  0.00     0.173 A 
ATOM     71  C   UNL     1       1.865   8.500   6.479  1.00  0.00     0.173 A 
ATOM     72  F   UNL     1      -1.767   8.447   6.541  1.00  0.00    -0.203 F 
ATOM     73  C   UNL     1      -0.212   8.166   8.288  1.00  0.00     0.198 A 
ATOM     74  C   UNL     1       2.139   8.267   7.825  1.00  0.00     0.198 A 
ATOM     75  F   UNL     1       2.889   8.677   5.632  1.00  0.00    -0.203 F 
ATOM     76  F   UNL     1      -1.220   8.050   9.164  1.00  0.00    -0.200 F 
ATOM     77  C   UNL     1       1.101   8.111   8.730  1.00  0.00     0.200 A 
ATOM     78  F   UNL     1       3.410   8.207   8.247  1.00  0.00    -0.200 F 
ATOM     79  F   UNL     1       1.365   7.923  10.030  1.00  0.00    -0.200 F 
ENDBRANCH  45  69
BRANCH  57  80
ATOM     80  C   UNL     1      -2.407  14.010   2.838  1.00  0.00     0.064 A 
ATOM     81  C   UNL     1      -1.603  15.038   3.351  1.00  0.00     0.173 A 
ATOM     82  C   UNL     1      -3.793  14.222   2.789  1.00  0.00     0.173 A 
ATOM     83  F   UNL     1      -0.273  14.878   3.431  1.00  0.00    -0.203 F 
ATOM     84  C   UNL     1      -2.167  16.220   3.823  1.00  0.00     0.198 A 
ATOM     85  C   UNL     1      -4.351  15.417   3.234  1.00  0.00     0.198 A 
ATOM     86  F   UNL     1      -4.606  13.274   2.297  1.00  0.00    -0.203 F 
ATOM     87  F   UNL     1      -1.384  17.168   4.355  1.00  0.00    -0.200 F 
ATOM     88  C   UNL     1      -3.539  16.411   3.758  1.00  0.00     0.200 A 
ATOM     89  F   UNL     1      -5.676  15.606   3.157  1.00  0.00    -0.200 F 
ATOM     90  F   UNL     1      -4.080  17.552   4.208  1.00  0.00    -0.200 F 
ENDBRANCH  57  80
ENDBRANCH  31  32
ENDBRANCH  24  26
ENDBRANCH  23  24
ENDBRANCH  22  23
ENDBRANCH   1  22
TORSDOF 15
