REMARK SMILES Cc1ccc(-c2nn(CCC(=O)OCCOC(=O)c3ccc(-c4c5nc(c(-c6c(F)c(F)c(F)c(F)c6F)c6ccc([nH]6)c(-c6c(F)c(F)c(F)c(F)c6F)c6nc(c(-c7c(F)c(F)c(F)c(F)c7F)c7ccc4[nH]7)C=C6)C=C5)cc3)c(=O)c3noc(C)c23)cc1C
REMARK SMILES IDX 14 1 13 2 11 3 12 4 10 5 9 6 8 7 6 8 7 9 89 10 84 11 87 12
REMARK SMILES IDX 82 13 85 14 86 15 88 16 83 17 5 18 1 19 2 20 3 21 91 22 4 23
REMARK SMILES IDX 90 24 92 25 15 26 16 27 17 28 18 29 19 30 20 31 81 32 21 33
REMARK SMILES IDX 80 34 22 35 23 36 24 37 74 38 25 39 79 40 73 41 75 42 26 43
REMARK SMILES IDX 78 44 72 45 71 46 27 48 59 49 39 50 58 51 40 52 43 53 57 54
REMARK SMILES IDX 76 55 41 56 42 57 56 59 77 60 44 61 28 62 29 63 37 64 30 65
REMARK SMILES IDX 31 66 35 67 38 68 32 69 33 70 36 71 34 72 60 73 61 74 69 75
REMARK SMILES IDX 62 76 63 77 67 78 70 79 64 80 65 81 68 82 66 83 45 84 46 85
REMARK SMILES IDX 54 86 47 87 48 88 52 89 55 90 49 91 50 92 53 93 51 94
REMARK H PARENT 75 47 43 58
REMARK Flexibility Score: inf
ROOT
ATOM      1  C   UNL     1      -7.270  -5.633  -0.719  1.00  0.00     0.274 C 
ENDROOT
BRANCH   1   2
ATOM      2  O   UNL     1      -6.385  -4.631  -1.251  1.00  0.00    -0.462 OA
BRANCH   2   3
ATOM      3  C   UNL     1      -6.472  -4.359  -2.571  1.00  0.00     0.307 C 
ATOM      4  O   UNL     1      -7.098  -5.027  -3.386  1.00  0.00    -0.252 OA
BRANCH   3   5
ATOM      5  C   UNL     1      -5.652  -3.154  -2.963  1.00  0.00     0.146 C 
BRANCH   5   6
ATOM      6  C   UNL     1      -5.809  -1.930  -2.059  1.00  0.00     0.160 C 
BRANCH   6   7
ATOM      7  N   UNL     1      -4.997  -1.998  -0.846  1.00  0.00    -0.227 N 
ATOM      8  C   UNL     1      -2.874  -1.538   0.042  1.00  0.00     0.104 A 
ATOM      9  N   UNL     1      -3.713  -1.450  -0.953  1.00  0.00    -0.169 NA
ATOM     10  C   UNL     1      -3.220  -2.308   1.203  1.00  0.00     0.078 A 
ATOM     11  C   UNL     1      -4.529  -2.780   1.347  1.00  0.00     0.183 A 
ATOM     12  C   UNL     1      -2.589  -2.718   2.352  1.00  0.00     0.143 A 
ATOM     13  C   UNL     1      -5.543  -2.499   0.360  1.00  0.00     0.296 A 
ATOM     14  N   UNL     1      -4.697  -3.495   2.463  1.00  0.00    -0.074 NA
ATOM     15  O   UNL     1      -3.466  -3.460   3.093  1.00  0.00    -0.360 OA
ATOM     16  C   UNL     1      -1.259  -2.547   2.959  1.00  0.00     0.091 C 
ATOM     17  O   UNL     1      -6.724  -2.704   0.577  1.00  0.00    -0.265 OA
BRANCH   8  18
ATOM     18  C   UNL     1      -1.620  -0.782  -0.010  1.00  0.00     0.003 A 
ATOM     19  C   UNL     1       1.967   1.580   0.001  1.00  0.00     0.044 C 
ATOM     20  C   UNL     1       0.730   0.724  -0.015  1.00  0.00    -0.048 A 
ATOM     21  C   UNL     1      -0.524   1.358  -0.007  1.00  0.00     0.004 A 
ATOM     22  C   UNL     1       0.798  -0.686  -0.041  1.00  0.00    -0.048 A 
ATOM     23  C   UNL     1      -1.697   0.610  -0.006  1.00  0.00     0.011 A 
ATOM     24  C   UNL     1      -0.391  -1.432  -0.057  1.00  0.00     0.014 A 
ATOM     25  C   UNL     1       2.092  -1.452  -0.035  1.00  0.00     0.044 C 
ENDBRANCH   8  18
ENDBRANCH   6   7
ENDBRANCH   5   6
ENDBRANCH   3   5
ENDBRANCH   2   3
ENDBRANCH   1   2
BRANCH   1  26
ATOM     26  C   UNL     1      -8.672  -5.093  -0.411  1.00  0.00     0.275 C 
BRANCH  26  27
ATOM     27  O   UNL     1      -9.342  -4.588  -1.588  1.00  0.00    -0.458 OA
BRANCH  27  28
ATOM     28  C   UNL     1      -9.381  -3.241  -1.650  1.00  0.00     0.338 C 
ATOM     29  O   UNL     1      -8.930  -2.442  -0.846  1.00  0.00    -0.246 OA
BRANCH  28  30
ATOM     30  C   UNL     1     -10.105  -2.690  -2.790  1.00  0.00     0.060 A 
ATOM     31  C   UNL     1      -9.438  -2.393  -3.984  1.00  0.00     0.016 A 
ATOM     32  C   UNL     1     -11.311  -2.067  -2.472  1.00  0.00     0.016 A 
ATOM     33  C   UNL     1      -9.972  -1.432  -4.851  1.00  0.00     0.010 A 
ATOM     34  C   UNL     1     -11.826  -1.102  -3.326  1.00  0.00     0.010 A 
ATOM     35  C   UNL     1     -11.164  -0.771  -4.521  1.00  0.00    -0.014 A 
BRANCH  35  36
ATOM     36  C   UNL     1     -11.815   0.108  -5.524  1.00  0.00     0.031 A 
ATOM     37  C   UNL     1     -13.220  -0.337  -5.798  1.00  0.00     0.074 A 
ATOM     38  C   UNL     1     -11.495   1.405  -5.751  1.00  0.00     0.049 A 
ATOM     39  N   UNL     1     -14.199  -0.020  -4.999  1.00  0.00    -0.248 NA
ATOM     40  C   UNL     1     -13.546  -1.425  -6.718  1.00  0.00     0.031 C 
ATOM     41  C   UNL     1     -10.837   2.280  -4.775  1.00  0.00     0.029 A 
ATOM     42  N   UNL     1     -11.838   2.264  -6.783  1.00  0.00    -0.354 N 
ATOM     43  C   UNL     1     -15.233  -0.901  -5.239  1.00  0.00     0.074 A 
ATOM     44  C   UNL     1     -14.804  -1.725  -6.347  1.00  0.00     0.031 C 
ATOM     45  C   UNL     1     -10.979   3.563  -5.173  1.00  0.00     0.029 A 
ATOM     46  C   UNL     1     -11.623   3.615  -6.491  1.00  0.00     0.049 A 
ATOM     47  H   UNL     1     -12.200   1.951  -7.643  1.00  0.00     0.167 HD
ATOM     48  C   UNL     1     -16.359  -0.916  -4.478  1.00  0.00     0.037 A 
ATOM     49  C   UNL     1     -12.445   4.645  -6.858  1.00  0.00     0.037 A 
ATOM     50  C   UNL     1     -16.366  -0.024  -3.355  1.00  0.00     0.049 A 
ATOM     51  C   UNL     1     -13.699   4.321  -6.085  1.00  0.00     0.074 A 
ATOM     52  C   UNL     1     -16.159  -0.099  -1.994  1.00  0.00     0.029 A 
ATOM     53  N   UNL     1     -16.581   1.310  -3.597  1.00  0.00    -0.354 N 
ATOM     54  N   UNL     1     -13.905   4.526  -4.813  1.00  0.00    -0.248 NA
ATOM     55  C   UNL     1     -14.645   3.409  -6.729  1.00  0.00     0.031 C 
ATOM     56  C   UNL     1     -15.779   1.223  -1.595  1.00  0.00     0.029 A 
ATOM     57  C   UNL     1     -15.764   2.008  -2.746  1.00  0.00     0.049 A 
ATOM     58  H   UNL     1     -17.204   1.692  -4.257  1.00  0.00     0.167 HD
ATOM     59  C   UNL     1     -14.838   3.559  -4.438  1.00  0.00     0.074 A 
ATOM     60  C   UNL     1     -15.259   2.915  -5.665  1.00  0.00     0.031 C 
ATOM     61  C   UNL     1     -15.087   3.217  -3.143  1.00  0.00     0.037 A 
BRANCH  48  62
ATOM     62  C   UNL     1     -17.613  -1.593  -4.844  1.00  0.00     0.064 A 
ATOM     63  C   UNL     1     -18.580  -0.807  -5.491  1.00  0.00     0.173 A 
ATOM     64  C   UNL     1     -17.989  -2.849  -4.367  1.00  0.00     0.173 A 
ATOM     65  F   UNL     1     -18.256   0.421  -5.932  1.00  0.00    -0.203 F 
ATOM     66  C   UNL     1     -19.892  -1.239  -5.616  1.00  0.00     0.198 A 
ATOM     67  C   UNL     1     -19.307  -3.288  -4.507  1.00  0.00     0.198 A 
ATOM     68  F   UNL     1     -17.105  -3.623  -3.721  1.00  0.00    -0.203 F 
ATOM     69  F   UNL     1     -20.805  -0.436  -6.180  1.00  0.00    -0.200 F 
ATOM     70  C   UNL     1     -20.259  -2.477  -5.116  1.00  0.00     0.200 A 
ATOM     71  F   UNL     1     -19.671  -4.482  -4.018  1.00  0.00    -0.200 F 
ATOM     72  F   UNL     1     -21.534  -2.879  -5.201  1.00  0.00    -0.200 F 
ENDBRANCH  48  62
BRANCH  49  73
ATOM     73  C   UNL     1     -12.515   5.068  -8.299  1.00  0.00     0.064 A 
ATOM     74  C   UNL     1     -11.332   5.176  -9.054  1.00  0.00     0.173 A 
ATOM     75  C   UNL     1     -13.700   5.427  -8.970  1.00  0.00     0.173 A 
ATOM     76  F   UNL     1     -10.139   4.996  -8.468  1.00  0.00    -0.203 F 
ATOM     77  C   UNL     1     -11.350   5.477 -10.419  1.00  0.00     0.198 A 
ATOM     78  C   UNL     1     -13.724   5.692 -10.342  1.00  0.00     0.198 A 
ATOM     79  F   UNL     1     -14.866   5.518  -8.315  1.00  0.00    -0.203 F 
ATOM     80  F   UNL     1     -10.200   5.538 -11.104  1.00  0.00    -0.200 F 
ATOM     81  C   UNL     1     -12.550   5.696 -11.071  1.00  0.00     0.200 A 
ATOM     82  F   UNL     1     -14.893   5.924 -10.957  1.00  0.00    -0.200 F 
ATOM     83  F   UNL     1     -12.575   5.919 -12.392  1.00  0.00    -0.200 F 
ENDBRANCH  49  73
BRANCH  61  84
ATOM     84  C   UNL     1     -14.428   4.060  -2.110  1.00  0.00     0.064 A 
ATOM     85  C   UNL     1     -14.906   5.351  -1.857  1.00  0.00     0.173 A 
ATOM     86  C   UNL     1     -13.377   3.574  -1.318  1.00  0.00     0.173 A 
ATOM     87  F   UNL     1     -15.914   5.854  -2.588  1.00  0.00    -0.203 F 
ATOM     88  C   UNL     1     -14.379   6.115  -0.822  1.00  0.00     0.198 A 
ATOM     89  C   UNL     1     -12.867   4.334  -0.269  1.00  0.00     0.198 A 
ATOM     90  F   UNL     1     -12.866   2.351  -1.530  1.00  0.00    -0.203 F 
ATOM     91  F   UNL     1     -14.868   7.340  -0.581  1.00  0.00    -0.200 F 
ATOM     92  C   UNL     1     -13.374   5.600  -0.018  1.00  0.00     0.200 A 
ATOM     93  F   UNL     1     -11.905   3.831   0.519  1.00  0.00    -0.200 F 
ATOM     94  F   UNL     1     -12.905   6.319   1.012  1.00  0.00    -0.200 F 
ENDBRANCH  61  84
ENDBRANCH  35  36
ENDBRANCH  28  30
ENDBRANCH  27  28
ENDBRANCH  26  27
ENDBRANCH   1  26
TORSDOF 14
