REMARK SMILES C[NH2+][C@]1(C(=O)OCCOC(=O)c2ccc(-c3c4nc(c(-c5c(F)c(F)c(F)c(F)c5F)c5ccc([nH]5)c(-c5c(F)c(F)c(F)c(F)c5F)c5nc(c(-c6c(F)c(F)c(F)c(F)c6F)c6ccc3[nH]6)C=C5)C=C4)cc2)CCC[C@@H]1CCSc1cccc(Cl)c1
REMARK SMILES IDX 7 1 6 2 4 3 5 4 3 5 75 6 78 7 76 8 77 9 2 10 1 11 79 14
REMARK SMILES IDX 80 15 81 16 82 17 83 18 88 19 84 20 86 21 85 22 87 23 8 24
REMARK SMILES IDX 9 25 10 26 11 27 12 28 13 29 74 30 14 31 73 32 15 33 16 34
REMARK SMILES IDX 17 35 67 36 18 37 72 38 66 39 68 40 19 41 71 42 65 43 64 44
REMARK SMILES IDX 20 46 52 47 32 48 51 49 33 50 36 51 50 52 69 53 34 54 35 55
REMARK SMILES IDX 49 57 70 58 37 59 21 60 22 61 30 62 23 63 24 64 28 65 31 66
REMARK SMILES IDX 25 67 26 68 29 69 27 70 53 71 54 72 62 73 55 74 56 75 60 76
REMARK SMILES IDX 63 77 57 78 58 79 61 80 59 81 38 82 39 83 47 84 40 85 41 86
REMARK SMILES IDX 45 87 48 88 42 89 43 90 46 91 44 92
REMARK H PARENT 2 12 2 13 68 45 36 56
REMARK Flexibility Score: inf
ROOT
ATOM      1  C   UNL     1       2.498   2.563  -0.346  1.00  0.00     0.274 C 
ENDROOT
BRANCH   1   2
ATOM      2  O   UNL     1       1.073   2.733  -0.212  1.00  0.00    -0.457 OA
BRANCH   2   3
ATOM      3  C   UNL     1       0.371   1.572  -0.074  1.00  0.00     0.368 C 
ATOM      4  O   UNL     1       0.901   0.469   0.010  1.00  0.00    -0.245 OA
BRANCH   3   5
ATOM      5  C   UNL     1      -1.161   1.824   0.095  1.00  0.00     0.197 C 
ATOM      6  C   UNL     1      -1.656   2.957  -0.834  1.00  0.00     0.081 C 
ATOM      7  C   UNL     1      -1.898   0.621  -0.563  1.00  0.00     0.063 C 
ATOM      8  C   UNL     1      -3.102   2.611  -1.216  1.00  0.00     0.008 C 
ATOM      9  C   UNL     1      -3.304   1.136  -0.869  1.00  0.00     0.011 C 
BRANCH   5  10
ATOM     10  N   UNL     1      -1.427   2.007   1.544  1.00  0.00    -0.334 N 
ATOM     11  C   UNL     1      -2.562   2.821   1.949  1.00  0.00     0.331 C 
ATOM     12  H   UNL     1      -1.566   1.079   1.944  1.00  0.00     0.347 HD
ATOM     13  H   UNL     1      -0.617   2.528   1.881  1.00  0.00     0.347 HD
ENDBRANCH   5  10
BRANCH   7  14
ATOM     14  C   UNL     1      -1.885  -0.740   0.152  1.00  0.00     0.022 C 
BRANCH  14  15
ATOM     15  C   UNL     1      -2.122  -1.927  -0.801  1.00  0.00     0.075 C 
BRANCH  15  16
ATOM     16  S   UNL     1      -0.622  -2.545  -1.680  1.00  0.00    -0.126 SA
BRANCH  16  17
ATOM     17  C   UNL     1      -0.329  -1.291  -2.916  1.00  0.00     0.009 A 
ATOM     18  C   UNL     1      -1.326  -0.877  -3.807  1.00  0.00     0.015 A 
ATOM     19  C   UNL     1       0.934  -0.687  -2.977  1.00  0.00     0.035 A 
ATOM     20  C   UNL     1      -1.088   0.172  -4.700  1.00  0.00     0.003 A 
ATOM     21  C   UNL     1       1.168   0.355  -3.874  1.00  0.00     0.042 A 
ATOM     22  C   UNL     1       0.159   0.795  -4.728  1.00  0.00     0.020 A 
ATOM     23  Cl  UNL     1       2.708   1.125  -3.913  1.00  0.00    -0.084 Cl
ENDBRANCH  16  17
ENDBRANCH  15  16
ENDBRANCH  14  15
ENDBRANCH   7  14
ENDBRANCH   3   5
ENDBRANCH   2   3
ENDBRANCH   1   2
BRANCH   1  24
ATOM     24  C   UNL     1       3.233   2.804   0.973  1.00  0.00     0.275 C 
BRANCH  24  25
ATOM     25  O   UNL     1       2.845   1.869   1.997  1.00  0.00    -0.458 OA
BRANCH  25  26
ATOM     26  C   UNL     1       1.930   2.336   2.873  1.00  0.00     0.338 C 
ATOM     27  O   UNL     1       1.391   3.435   2.870  1.00  0.00    -0.246 OA
BRANCH  26  28
ATOM     28  C   UNL     1       1.567   1.313   3.861  1.00  0.00     0.060 A 
ATOM     29  C   UNL     1       0.573   0.394   3.535  1.00  0.00     0.016 A 
ATOM     30  C   UNL     1       2.030   1.417   5.174  1.00  0.00     0.016 A 
ATOM     31  C   UNL     1      -0.040  -0.351   4.538  1.00  0.00     0.010 A 
ATOM     32  C   UNL     1       1.472   0.603   6.167  1.00  0.00     0.010 A 
ATOM     33  C   UNL     1       0.400  -0.257   5.866  1.00  0.00    -0.014 A 
BRANCH  33  34
ATOM     34  C   UNL     1      -0.295  -1.017   6.939  1.00  0.00     0.031 A 
ATOM     35  C   UNL     1      -0.993  -0.290   8.057  1.00  0.00     0.074 A 
ATOM     36  C   UNL     1      -0.335  -2.362   6.900  1.00  0.00     0.049 A 
ATOM     37  N   UNL     1      -1.504  -0.769   9.165  1.00  0.00    -0.248 NA
ATOM     38  C   UNL     1      -1.130   1.168   7.917  1.00  0.00     0.031 C 
ATOM     39  C   UNL     1       0.248  -3.196   5.848  1.00  0.00     0.029 A 
ATOM     40  N   UNL     1      -0.906  -3.265   7.762  1.00  0.00    -0.354 N 
ATOM     41  C   UNL     1      -1.963   0.331   9.878  1.00  0.00     0.074 A 
ATOM     42  C   UNL     1      -1.690   1.502   9.072  1.00  0.00     0.031 C 
ATOM     43  C   UNL     1      -0.031  -4.483   6.103  1.00  0.00     0.029 A 
ATOM     44  C   UNL     1      -0.745  -4.571   7.374  1.00  0.00     0.049 A 
ATOM     45  H   UNL     1      -1.384  -3.001   8.581  1.00  0.00     0.167 HD
ATOM     46  C   UNL     1      -2.550   0.358  11.099  1.00  0.00     0.037 A 
ATOM     47  C   UNL     1      -1.100  -5.716   7.986  1.00  0.00     0.037 A 
ATOM     48  C   UNL     1      -2.879  -0.809  11.874  1.00  0.00     0.049 A 
ATOM     49  C   UNL     1      -1.758  -5.661   9.333  1.00  0.00     0.074 A 
ATOM     50  C   UNL     1      -3.460  -0.880  13.129  1.00  0.00     0.029 A 
ATOM     51  N   UNL     1      -2.679  -2.114  11.452  1.00  0.00    -0.354 N 
ATOM     52  N   UNL     1      -2.093  -4.614  10.045  1.00  0.00    -0.248 NA
ATOM     53  C   UNL     1      -2.060  -6.948   9.975  1.00  0.00     0.031 C 
ATOM     54  C   UNL     1      -3.603  -2.231  13.470  1.00  0.00     0.029 A 
ATOM     55  C   UNL     1      -3.129  -2.998  12.419  1.00  0.00     0.049 A 
ATOM     56  H   UNL     1      -2.277  -2.374  10.592  1.00  0.00     0.167 HD
ATOM     57  C   UNL     1      -2.631  -5.111  11.222  1.00  0.00     0.074 A 
ATOM     58  C   UNL     1      -2.607  -6.556  11.118  1.00  0.00     0.031 C 
ATOM     59  C   UNL     1      -3.089  -4.431  12.300  1.00  0.00     0.037 A 
BRANCH  46  60
ATOM     60  C   UNL     1      -2.843   1.700  11.695  1.00  0.00     0.064 A 
ATOM     61  C   UNL     1      -3.954   2.457  11.301  1.00  0.00     0.173 A 
ATOM     62  C   UNL     1      -2.020   2.214  12.709  1.00  0.00     0.173 A 
ATOM     63  F   UNL     1      -4.761   2.014  10.326  1.00  0.00    -0.203 F 
ATOM     64  C   UNL     1      -4.225   3.689  11.893  1.00  0.00     0.198 A 
ATOM     65  C   UNL     1      -2.303   3.436  13.310  1.00  0.00     0.198 A 
ATOM     66  F   UNL     1      -0.946   1.523  13.121  1.00  0.00    -0.203 F 
ATOM     67  F   UNL     1      -5.277   4.411  11.484  1.00  0.00    -0.200 F 
ATOM     68  C   UNL     1      -3.403   4.174  12.900  1.00  0.00     0.200 A 
ATOM     69  F   UNL     1      -1.511   3.901  14.287  1.00  0.00    -0.200 F 
ATOM     70  F   UNL     1      -3.668   5.356  13.473  1.00  0.00    -0.200 F 
ENDBRANCH  46  60
BRANCH  47  71
ATOM     71  C   UNL     1      -0.799  -7.014   7.335  1.00  0.00     0.064 A 
ATOM     72  C   UNL     1      -1.820  -7.781   6.760  1.00  0.00     0.173 A 
ATOM     73  C   UNL     1       0.514  -7.497   7.251  1.00  0.00     0.173 A 
ATOM     74  F   UNL     1      -3.094  -7.368   6.840  1.00  0.00    -0.203 F 
ATOM     75  C   UNL     1      -1.537  -8.986   6.121  1.00  0.00     0.198 A 
ATOM     76  C   UNL     1       0.798  -8.691   6.593  1.00  0.00     0.198 A 
ATOM     77  F   UNL     1       1.523  -6.797   7.790  1.00  0.00    -0.203 F 
ATOM     78  F   UNL     1      -2.533  -9.715   5.599  1.00  0.00    -0.200 F 
ATOM     79  C   UNL     1      -0.228  -9.435   6.031  1.00  0.00     0.200 A 
ATOM     80  F   UNL     1       2.065  -9.117   6.500  1.00  0.00    -0.200 F 
ATOM     81  F   UNL     1       0.045 -10.589   5.407  1.00  0.00    -0.200 F 
ENDBRANCH  47  71
BRANCH  59  82
ATOM     82  C   UNL     1      -3.593  -5.244  13.450  1.00  0.00     0.064 A 
ATOM     83  C   UNL     1      -2.705  -5.837  14.359  1.00  0.00     0.173 A 
ATOM     84  C   UNL     1      -4.968  -5.410  13.661  1.00  0.00     0.173 A 
ATOM     85  F   UNL     1      -1.381  -5.715  14.186  1.00  0.00    -0.203 F 
ATOM     86  C   UNL     1      -3.179  -6.582  15.434  1.00  0.00     0.198 A 
ATOM     87  C   UNL     1      -5.439  -6.145  14.745  1.00  0.00     0.198 A 
ATOM     88  F   UNL     1      -5.853  -4.861  12.815  1.00  0.00    -0.203 F 
ATOM     89  F   UNL     1      -2.315  -7.165  16.276  1.00  0.00    -0.200 F 
ATOM     90  C   UNL     1      -4.545  -6.732  15.629  1.00  0.00     0.200 A 
ATOM     91  F   UNL     1      -6.758  -6.290  14.933  1.00  0.00    -0.200 F 
ATOM     92  F   UNL     1      -5.000  -7.452  16.663  1.00  0.00    -0.200 F 
ENDBRANCH  59  82
ENDBRANCH  33  34
ENDBRANCH  26  28
ENDBRANCH  25  26
ENDBRANCH  24  25
ENDBRANCH   1  24
TORSDOF 16
