REMARK SMILES CCOc1ccc(N2C[C@H](C(=O)OCCOC(=O)c3ccc(-c4c5nc(c(-c6c(F)c(F)c(F)c(F)c6F)c6ccc([nH]6)c(-c6c(F)c(F)c(F)c(F)c6F)c6nc(c(-c7c(F)c(F)c(F)c(F)c7F)c7ccc4[nH]7)C=C6)C=C5)cc3)CC2=O)cc1C(F)(F)F
REMARK SMILES IDX 14 1 13 2 11 3 12 4 10 5 8 6 9 7 83 8 82 9 84 10 7 11 4 12
REMARK SMILES IDX 5 13 86 14 6 15 85 16 3 17 2 18 1 19 87 20 88 21 89 22 90 23
REMARK SMILES IDX 15 24 16 25 17 26 18 27 19 28 20 29 81 30 21 31 80 32 22 33
REMARK SMILES IDX 23 34 24 35 74 36 25 37 79 38 73 39 75 40 26 41 78 42 72 43
REMARK SMILES IDX 71 44 27 46 59 47 39 48 58 49 40 50 43 51 57 52 76 53 41 54
REMARK SMILES IDX 42 55 56 57 77 58 44 59 28 60 29 61 37 62 30 63 31 64 35 65
REMARK SMILES IDX 38 66 32 67 33 68 36 69 34 70 60 71 61 72 69 73 62 74 63 75
REMARK SMILES IDX 67 76 70 77 64 78 65 79 68 80 66 81 45 82 46 83 54 84 47 85
REMARK SMILES IDX 48 86 52 87 55 88 49 89 50 90 53 91 51 92
REMARK H PARENT 75 45 43 56
REMARK Flexibility Score: inf
ROOT
ATOM      1  C   UNL     1       8.350  -4.064  -6.373  1.00  0.00     0.274 C 
ENDROOT
BRANCH   1   2
ATOM      2  O   UNL     1       8.158  -3.316  -5.155  1.00  0.00    -0.462 OA
BRANCH   2   3
ATOM      3  C   UNL     1       9.092  -2.370  -4.885  1.00  0.00     0.311 C 
ATOM      4  O   UNL     1      10.060  -2.110  -5.588  1.00  0.00    -0.252 OA
BRANCH   3   5
ATOM      5  C   UNL     1       8.802  -1.619  -3.609  1.00  0.00     0.128 C 
ATOM      6  N   UNL     1       6.635  -1.694  -2.682  1.00  0.00    -0.312 N 
ATOM      7  C   UNL     1       7.438  -0.960  -3.624  1.00  0.00     0.141 C 
ATOM      8  C   UNL     1       7.384  -2.639  -1.980  1.00  0.00     0.227 C 
ATOM      9  C   UNL     1       8.826  -2.522  -2.393  1.00  0.00     0.117 C 
ATOM     10  O   UNL     1       7.004  -3.443  -1.142  1.00  0.00    -0.274 OA
BRANCH   6  11
ATOM     11  C   UNL     1       5.265  -1.402  -2.462  1.00  0.00     0.044 A 
ATOM     12  C   UNL     1       2.544  -0.847  -1.979  1.00  0.00     0.131 A 
ATOM     13  C   UNL     1       3.107  -0.575  -3.227  1.00  0.00     0.049 A 
ATOM     14  C   UNL     1       3.321  -1.400  -0.961  1.00  0.00     0.100 A 
ATOM     15  C   UNL     1       4.466  -0.827  -3.458  1.00  0.00     0.030 A 
ATOM     16  C   UNL     1       4.677  -1.670  -1.220  1.00  0.00     0.043 A 
BRANCH  12  17
ATOM     17  O   UNL     1       1.201  -0.702  -1.790  1.00  0.00    -0.493 OA
BRANCH  17  18
ATOM     18  C   UNL     1       0.759   0.658  -1.757  1.00  0.00     0.226 C 
ATOM     19  C   UNL     1       0.321   0.991  -0.341  1.00  0.00     0.049 C 
ENDBRANCH  17  18
ENDBRANCH  12  17
BRANCH  14  20
ATOM     20  C   UNL     1       2.781  -1.636   0.424  1.00  0.00     0.420 C 
ATOM     21  F   UNL     1       3.483  -2.579   1.118  1.00  0.00    -0.166 F 
ATOM     22  F   UNL     1       2.851  -0.507   1.189  1.00  0.00    -0.166 F 
ATOM     23  F   UNL     1       1.484  -2.044   0.476  1.00  0.00    -0.166 F 
ENDBRANCH  14  20
ENDBRANCH   6  11
ENDBRANCH   3   5
ENDBRANCH   2   3
ENDBRANCH   1   2
BRANCH   1  24
ATOM     24  C   UNL     1       7.490  -3.507  -7.507  1.00  0.00     0.275 C 
BRANCH  24  25
ATOM     25  O   UNL     1       7.893  -2.166  -7.839  1.00  0.00    -0.458 OA
BRANCH  25  26
ATOM     26  C   UNL     1       7.040  -1.189  -7.464  1.00  0.00     0.338 C 
ATOM     27  O   UNL     1       5.962  -1.301  -6.907  1.00  0.00    -0.246 OA
BRANCH  26  28
ATOM     28  C   UNL     1       7.634   0.118  -7.764  1.00  0.00     0.060 A 
ATOM     29  C   UNL     1       8.433   0.742  -6.803  1.00  0.00     0.016 A 
ATOM     30  C   UNL     1       7.297   0.772  -8.948  1.00  0.00     0.016 A 
ATOM     31  C   UNL     1       8.876   2.045  -7.008  1.00  0.00     0.010 A 
ATOM     32  C   UNL     1       7.775   2.064  -9.170  1.00  0.00     0.010 A 
ATOM     33  C   UNL     1       8.552   2.714  -8.195  1.00  0.00    -0.014 A 
BRANCH  33  34
ATOM     34  C   UNL     1       9.000   4.107  -8.418  1.00  0.00     0.031 A 
ATOM     35  C   UNL     1       8.000   5.224  -8.410  1.00  0.00     0.074 A 
ATOM     36  C   UNL     1      10.301   4.361  -8.646  1.00  0.00     0.049 A 
ATOM     37  N   UNL     1       8.155   6.480  -8.741  1.00  0.00    -0.248 NA
ATOM     38  C   UNL     1       6.638   4.879  -7.973  1.00  0.00     0.031 C 
ATOM     39  C   UNL     1      11.372   3.365  -8.620  1.00  0.00     0.029 A 
ATOM     40  N   UNL     1      10.939   5.534  -8.957  1.00  0.00    -0.354 N 
ATOM     41  C   UNL     1       6.908   7.069  -8.584  1.00  0.00     0.074 A 
ATOM     42  C   UNL     1       6.003   6.031  -8.135  1.00  0.00     0.031 C 
ATOM     43  C   UNL     1      12.537   3.971  -8.899  1.00  0.00     0.029 A 
ATOM     44  C   UNL     1      12.283   5.380  -9.184  1.00  0.00     0.049 A 
ATOM     45  H   UNL     1      10.477   6.402  -9.011  1.00  0.00     0.167 HD
ATOM     46  C   UNL     1       6.555   8.358  -8.799  1.00  0.00     0.037 A 
ATOM     47  C   UNL     1      13.198   6.269  -9.611  1.00  0.00     0.037 A 
ATOM     48  C   UNL     1       7.466   9.385  -9.232  1.00  0.00     0.049 A 
ATOM     49  C   UNL     1      12.764   7.673  -9.923  1.00  0.00     0.074 A 
ATOM     50  C   UNL     1       7.213  10.725  -9.467  1.00  0.00     0.029 A 
ATOM     51  N   UNL     1       8.813   9.181  -9.496  1.00  0.00    -0.354 N 
ATOM     52  N   UNL     1      11.579   8.219  -9.799  1.00  0.00    -0.248 NA
ATOM     53  C   UNL     1      13.793   8.579 -10.451  1.00  0.00     0.031 C 
ATOM     54  C   UNL     1       8.399  11.324  -9.910  1.00  0.00     0.029 A 
ATOM     55  C   UNL     1       9.400  10.366  -9.912  1.00  0.00     0.049 A 
ATOM     56  H   UNL     1       9.283   8.321  -9.402  1.00  0.00     0.167 HD
ATOM     57  C   UNL     1      11.722   9.536 -10.211  1.00  0.00     0.074 A 
ATOM     58  C   UNL     1      13.112   9.709 -10.584  1.00  0.00     0.031 C 
ATOM     59  C   UNL     1      10.786  10.515 -10.273  1.00  0.00     0.037 A 
BRANCH  46  60
ATOM     60  C   UNL     1       5.111   8.716  -8.606  1.00  0.00     0.064 A 
ATOM     61  C   UNL     1       4.535   8.802  -7.330  1.00  0.00     0.173 A 
ATOM     62  C   UNL     1       4.294   8.982  -9.715  1.00  0.00     0.173 A 
ATOM     63  F   UNL     1       5.270   8.539  -6.239  1.00  0.00    -0.203 F 
ATOM     64  C   UNL     1       3.187   9.113  -7.173  1.00  0.00     0.198 A 
ATOM     65  C   UNL     1       2.953   9.317  -9.553  1.00  0.00     0.198 A 
ATOM     66  F   UNL     1       4.797   8.914 -10.957  1.00  0.00    -0.203 F 
ATOM     67  F   UNL     1       2.645   9.139  -5.947  1.00  0.00    -0.200 F 
ATOM     68  C   UNL     1       2.398   9.374  -8.284  1.00  0.00     0.200 A 
ATOM     69  F   UNL     1       2.193   9.575 -10.627  1.00  0.00    -0.200 F 
ATOM     70  F   UNL     1       1.099   9.669  -8.131  1.00  0.00    -0.200 F 
ENDBRANCH  46  60
BRANCH  47  71
ATOM     71  C   UNL     1      14.610   5.846  -9.782  1.00  0.00     0.064 A 
ATOM     72  C   UNL     1      15.602   6.298  -8.902  1.00  0.00     0.173 A 
ATOM     73  C   UNL     1      14.994   4.973 -10.809  1.00  0.00     0.173 A 
ATOM     74  F   UNL     1      15.284   7.154  -7.919  1.00  0.00    -0.203 F 
ATOM     75  C   UNL     1      16.927   5.894  -9.044  1.00  0.00     0.198 A 
ATOM     76  C   UNL     1      16.315   4.550 -10.937  1.00  0.00     0.198 A 
ATOM     77  F   UNL     1      14.080   4.514 -11.678  1.00  0.00    -0.203 F 
ATOM     78  F   UNL     1      17.861   6.361  -8.206  1.00  0.00    -0.200 F 
ATOM     79  C   UNL     1      17.281   5.014 -10.057  1.00  0.00     0.200 A 
ATOM     80  F   UNL     1      16.651   3.692 -11.910  1.00  0.00    -0.200 F 
ATOM     81  F   UNL     1      18.554   4.617 -10.187  1.00  0.00    -0.200 F 
ENDBRANCH  47  71
BRANCH  59  82
ATOM     82  C   UNL     1      11.247  11.868 -10.726  1.00  0.00     0.064 A 
ATOM     83  C   UNL     1      11.524  12.136 -12.074  1.00  0.00     0.173 A 
ATOM     84  C   UNL     1      11.386  12.915  -9.802  1.00  0.00     0.173 A 
ATOM     85  F   UNL     1      11.424  11.161 -12.990  1.00  0.00    -0.203 F 
ATOM     86  C   UNL     1      11.943  13.400 -12.479  1.00  0.00     0.198 A 
ATOM     87  C   UNL     1      11.782  14.183 -10.214  1.00  0.00     0.198 A 
ATOM     88  F   UNL     1      11.130  12.707  -8.502  1.00  0.00    -0.203 F 
ATOM     89  F   UNL     1      12.242  13.625 -13.766  1.00  0.00    -0.200 F 
ATOM     90  C   UNL     1      12.066  14.424 -11.550  1.00  0.00     0.200 A 
ATOM     91  F   UNL     1      11.893  15.173  -9.317  1.00  0.00    -0.200 F 
ATOM     92  F   UNL     1      12.466  15.641 -11.942  1.00  0.00    -0.200 F 
ENDBRANCH  59  82
ENDBRANCH  33  34
ENDBRANCH  26  28
ENDBRANCH  25  26
ENDBRANCH  24  25
ENDBRANCH   1  24
TORSDOF 15
