REMARK SMILES Cc1ccc([C@@H]2[C@H](C(=O)OCCOC(=O)c3ccc(-c4c5nc(c(-c6c(F)c(F)c(F)c(F)c6F)c6ccc([nH]6)c(-c6c(F)c(F)c(F)c(F)c6F)c6nc(c(-c7c(F)c(F)c(F)c(F)c7F)c7ccc4[nH]7)C=C6)C=C5)cc3)c3ccccc3C(=O)N2c2ccccc2)cc1
REMARK SMILES IDX 12 1 11 2 10 3 8 4 9 5 7 6 6 7 87 8 79 9 85 10 80 11 84 12
REMARK SMILES IDX 86 13 81 14 83 15 82 16 5 17 1 18 2 19 3 20 95 21 4 22 94 23
REMARK SMILES IDX 88 24 89 25 93 26 90 27 92 28 91 29 13 30 14 31 15 32 16 33
REMARK SMILES IDX 17 34 78 35 18 36 77 37 19 38 20 39 21 40 71 41 22 42 76 43
REMARK SMILES IDX 70 44 72 45 23 46 75 47 69 48 68 49 24 51 56 52 36 53 55 54
REMARK SMILES IDX 37 55 40 56 54 57 73 58 38 59 39 60 53 62 74 63 41 64 25 65
REMARK SMILES IDX 26 66 34 67 27 68 28 69 32 70 35 71 29 72 30 73 33 74 31 75
REMARK SMILES IDX 57 76 58 77 66 78 59 79 60 80 64 81 67 82 61 83 62 84 65 85
REMARK SMILES IDX 63 86 42 87 43 88 51 89 44 90 45 91 49 92 52 93 46 94 47 95
REMARK SMILES IDX 50 96 48 97
REMARK H PARENT 72 50 40 61
REMARK Flexibility Score: inf
ROOT
ATOM      1  C   UNL     1      -5.326  -6.274   3.608  1.00  0.00     0.275 C 
ENDROOT
BRANCH   1   2
ATOM      2  C   UNL     1      -4.624  -5.124   4.978  1.00  0.00     0.274 C 
BRANCH   2   3
ATOM      3  O   UNL     1      -4.588  -3.406   4.791  1.00  0.00    -0.462 OA
BRANCH   3   4
ATOM      4  C   UNL     1      -3.463  -2.508   4.666  1.00  0.00     0.316 C 
ATOM      5  O   UNL     1      -2.485  -2.745   5.369  1.00  0.00    -0.251 OA
BRANCH   4   6
ATOM      6  C   UNL     1      -3.561  -0.927   3.780  1.00  0.00     0.157 C 
ATOM      7  C   UNL     1      -3.312  -0.282   2.163  1.00  0.00     0.140 C 
ATOM      8  N   UNL     1      -4.331  -0.782   1.173  1.00  0.00    -0.300 N 
ATOM      9  C   UNL     1      -4.978  -0.453   4.112  1.00  0.00    -0.019 A 
ATOM     10  C   UNL     1      -5.606  -0.250   1.567  1.00  0.00     0.259 C 
ATOM     11  C   UNL     1      -5.370  -0.548   5.462  1.00  0.00     0.005 A 
ATOM     12  C   UNL     1      -5.927  -0.201   3.084  1.00  0.00     0.044 A 
ATOM     13  O   UNL     1      -6.444   0.129   0.755  1.00  0.00    -0.269 OA
ATOM     14  C   UNL     1      -6.714  -0.607   5.778  1.00  0.00     0.000 A 
ATOM     15  C   UNL     1      -7.276  -0.172   3.451  1.00  0.00     0.014 A 
ATOM     16  C   UNL     1      -7.663  -0.430   4.775  1.00  0.00     0.001 A 
BRANCH   7  17
ATOM     17  C   UNL     1      -2.066   0.352   1.418  1.00  0.00    -0.024 A 
ATOM     18  C   UNL     1       1.826   0.961  -0.303  1.00  0.00     0.044 C 
ATOM     19  C   UNL     1       0.389   1.072   0.132  1.00  0.00    -0.051 A 
ATOM     20  C   UNL     1      -0.644   0.524  -0.612  1.00  0.00     0.004 A 
ATOM     21  C   UNL     1       0.052   1.594   1.380  1.00  0.00     0.004 A 
ATOM     22  C   UNL     1      -1.859   0.185   0.022  1.00  0.00     0.006 A 
ATOM     23  C   UNL     1      -1.161   1.238   2.018  1.00  0.00     0.006 A 
ENDBRANCH   7  17
BRANCH   8  24
ATOM     24  C   UNL     1      -4.300  -2.232   0.911  1.00  0.00     0.045 A 
ATOM     25  C   UNL     1      -4.803  -2.880   2.288  1.00  0.00     0.026 A 
ATOM     26  C   UNL     1      -3.369  -3.235  -0.251  1.00  0.00     0.026 A 
ATOM     27  C   UNL     1      -4.354  -4.474   2.784  1.00  0.00     0.002 A 
ATOM     28  C   UNL     1      -2.922  -4.968   0.056  1.00  0.00     0.002 A 
ATOM     29  C   UNL     1      -3.437  -5.708   1.622  1.00  0.00     0.000 A 
ENDBRANCH   8  24
ENDBRANCH   4   6
ENDBRANCH   3   4
ENDBRANCH   2   3
ENDBRANCH   1   2
BRANCH   1  30
ATOM     30  O   UNL     1      -5.577  -5.716   1.878  1.00  0.00    -0.458 OA
BRANCH  30  31
ATOM     31  C   UNL     1      -4.682  -4.460   0.966  1.00  0.00     0.338 C 
ATOM     32  O   UNL     1      -5.414  -4.251  -0.028  1.00  0.00    -0.246 OA
BRANCH  31  33
ATOM     33  C   UNL     1      -2.807  -3.804   1.821  1.00  0.00     0.060 A 
ATOM     34  C   UNL     1      -1.826  -2.749   1.636  1.00  0.00     0.016 A 
ATOM     35  C   UNL     1      -2.083  -4.588   3.020  1.00  0.00     0.016 A 
ATOM     36  C   UNL     1      -0.607  -2.493   2.349  1.00  0.00     0.010 A 
ATOM     37  C   UNL     1      -0.950  -4.387   3.739  1.00  0.00     0.010 A 
ATOM     38  C   UNL     1      -0.175  -3.351   3.332  1.00  0.00    -0.014 A 
BRANCH  38  39
ATOM     39  C   UNL     1       1.168  -3.553   3.805  1.00  0.00     0.031 A 
ATOM     40  C   UNL     1       1.465  -3.125   5.184  1.00  0.00     0.074 A 
ATOM     41  C   UNL     1       1.712  -4.572   3.085  1.00  0.00     0.049 A 
ATOM     42  N   UNL     1       2.643  -2.999   5.672  1.00  0.00    -0.248 NA
ATOM     43  C   UNL     1       0.452  -2.715   6.160  1.00  0.00     0.031 C 
ATOM     44  C   UNL     1       2.613  -5.648   3.451  1.00  0.00     0.029 A 
ATOM     45  N   UNL     1       1.431  -4.857   1.730  1.00  0.00    -0.354 N 
ATOM     46  C   UNL     1       2.481  -3.049   7.047  1.00  0.00     0.074 A 
ATOM     47  C   UNL     1       1.151  -2.586   7.289  1.00  0.00     0.031 C 
ATOM     48  C   UNL     1       3.080  -6.225   2.323  1.00  0.00     0.029 A 
ATOM     49  C   UNL     1       2.556  -5.495   1.175  1.00  0.00     0.049 A 
ATOM     50  H   UNL     1       0.594  -4.647   1.256  1.00  0.00     0.167 HD
ATOM     51  C   UNL     1       3.392  -3.761   7.771  1.00  0.00     0.037 A 
ATOM     52  C   UNL     1       3.316  -4.744   0.316  1.00  0.00     0.037 A 
ATOM     53  C   UNL     1       4.365  -4.353   6.843  1.00  0.00     0.049 A 
ATOM     54  C   UNL     1       4.426  -3.992   1.042  1.00  0.00     0.074 A 
ATOM     55  C   UNL     1       4.570  -5.610   6.308  1.00  0.00     0.029 A 
ATOM     56  N   UNL     1       5.053  -3.490   6.023  1.00  0.00    -0.354 N 
ATOM     57  N   UNL     1       4.774  -4.198   2.283  1.00  0.00    -0.248 NA
ATOM     58  C   UNL     1       5.184  -2.899   0.433  1.00  0.00     0.031 C 
ATOM     59  C   UNL     1       5.366  -5.455   5.121  1.00  0.00     0.029 A 
ATOM     60  C   UNL     1       5.630  -4.108   4.941  1.00  0.00     0.049 A 
ATOM     61  H   UNL     1       5.125  -2.524   6.195  1.00  0.00     0.167 HD
ATOM     62  C   UNL     1       5.706  -3.277   2.670  1.00  0.00     0.074 A 
ATOM     63  C   UNL     1       5.920  -2.474   1.474  1.00  0.00     0.031 C 
ATOM     64  C   UNL     1       6.228  -3.237   3.936  1.00  0.00     0.037 A 
BRANCH  51  65
ATOM     65  C   UNL     1       3.338  -4.141   9.233  1.00  0.00     0.064 A 
ATOM     66  C   UNL     1       4.313  -5.034   9.735  1.00  0.00     0.173 A 
ATOM     67  C   UNL     1       2.424  -3.675  10.200  1.00  0.00     0.173 A 
ATOM     68  F   UNL     1       5.290  -5.516   8.956  1.00  0.00    -0.203 F 
ATOM     69  C   UNL     1       4.345  -5.455  11.064  1.00  0.00     0.198 A 
ATOM     70  C   UNL     1       2.454  -4.103  11.534  1.00  0.00     0.198 A 
ATOM     71  F   UNL     1       1.487  -2.766   9.921  1.00  0.00    -0.203 F 
ATOM     72  F   UNL     1       5.298  -6.308  11.462  1.00  0.00    -0.200 F 
ATOM     73  C   UNL     1       3.413  -4.994  11.965  1.00  0.00     0.200 A 
ATOM     74  F   UNL     1       1.548  -3.630  12.404  1.00  0.00    -0.200 F 
ATOM     75  F   UNL     1       3.451  -5.389  13.244  1.00  0.00    -0.200 F 
ENDBRANCH  51  65
BRANCH  52  76
ATOM     76  C   UNL     1       2.451  -4.137  -0.743  1.00  0.00     0.064 A 
ATOM     77  C   UNL     1       1.956  -4.942  -1.793  1.00  0.00     0.173 A 
ATOM     78  C   UNL     1       1.746  -2.975  -0.447  1.00  0.00     0.173 A 
ATOM     79  F   UNL     1       2.569  -6.095  -2.095  1.00  0.00    -0.203 F 
ATOM     80  C   UNL     1       0.763  -4.638  -2.458  1.00  0.00     0.198 A 
ATOM     81  C   UNL     1       0.521  -2.753  -1.053  1.00  0.00     0.198 A 
ATOM     82  F   UNL     1       2.120  -2.179   0.566  1.00  0.00    -0.203 F 
ATOM     83  F   UNL     1       0.264  -5.463  -3.388  1.00  0.00    -0.200 F 
ATOM     84  C   UNL     1       0.027  -3.550  -2.062  1.00  0.00     0.200 A 
ATOM     85  F   UNL     1      -0.288  -1.855  -0.527  1.00  0.00    -0.200 F 
ATOM     86  F   UNL     1      -1.182  -3.302  -2.582  1.00  0.00    -0.200 F 
ENDBRANCH  52  76
BRANCH  64  87
ATOM     87  C   UNL     1       7.363  -2.320   4.340  1.00  0.00     0.064 A 
ATOM     88  C   UNL     1       8.428  -2.060   3.467  1.00  0.00     0.173 A 
ATOM     89  C   UNL     1       7.514  -1.784   5.645  1.00  0.00     0.173 A 
ATOM     90  F   UNL     1       8.481  -2.626   2.253  1.00  0.00    -0.203 F 
ATOM     91  C   UNL     1       9.498  -1.241   3.831  1.00  0.00     0.198 A 
ATOM     92  C   UNL     1       8.621  -1.039   6.031  1.00  0.00     0.198 A 
ATOM     93  F   UNL     1       6.595  -1.928   6.607  1.00  0.00    -0.203 F 
ATOM     94  F   UNL     1      10.442  -0.953   2.927  1.00  0.00    -0.200 F 
ATOM     95  C   UNL     1       9.599  -0.739   5.114  1.00  0.00     0.200 A 
ATOM     96  F   UNL     1       8.719  -0.611   7.298  1.00  0.00    -0.200 F 
ATOM     97  F   UNL     1      10.638   0.026   5.468  1.00  0.00    -0.200 F 
ENDBRANCH  64  87
ENDBRANCH  38  39
ENDBRANCH  31  33
ENDBRANCH  30  31
ENDBRANCH   1  30
TORSDOF 13
