REMARK SMILES COc1ccc(-n2nc(C(=O)OCCOC(=O)c3ccc(-c4c5nc(c(-c6c(F)c(F)c(F)c(F)c6F)c6ccc([nH]6)c(-c6c(F)c(F)c(F)c(F)c6F)c6nc(c(-c7c(F)c(F)c(F)c(F)c7F)c7ccc4[nH]7)C=C6)C=C5)cc3)c(=O)cc2C)cc1
REMARK SMILES IDX 13 1 12 2 10 3 11 4 9 5 7 6 8 7 84 8 83 9 85 10 81 11 82 12
REMARK SMILES IDX 6 13 3 14 4 15 87 16 5 17 86 18 2 19 1 20 14 21 15 22 16 23
REMARK SMILES IDX 17 24 18 25 19 26 80 27 20 28 79 29 21 30 22 31 23 32 73 33
REMARK SMILES IDX 24 34 78 35 72 36 74 37 25 38 77 39 71 40 70 41 26 43 58 44
REMARK SMILES IDX 38 45 57 46 39 47 42 48 56 49 75 50 40 51 41 52 55 54 76 55
REMARK SMILES IDX 43 56 27 57 28 58 36 59 29 60 30 61 34 62 37 63 31 64 32 65
REMARK SMILES IDX 35 66 33 67 59 68 60 69 68 70 61 71 62 72 66 73 69 74 63 75
REMARK SMILES IDX 64 76 67 77 65 78 44 79 45 80 53 81 46 82 47 83 51 84 54 85
REMARK SMILES IDX 48 86 49 87 52 88 50 89
REMARK H PARENT 74 42 42 53
REMARK Flexibility Score: inf
ROOT
ATOM      1  C   UNL     1       1.034   1.659  11.281  1.00  0.00     0.275 C 
ENDROOT
BRANCH   1   2
ATOM      2  O   UNL     1       1.633   2.398  10.200  1.00  0.00    -0.457 OA
BRANCH   2   3
ATOM      3  C   UNL     1       2.114   1.675   9.170  1.00  0.00     0.363 C 
ATOM      4  O   UNL     1       2.138   0.464   9.068  1.00  0.00    -0.244 OA
BRANCH   3   5
ATOM      5  C   UNL     1       2.568   2.579   8.037  1.00  0.00     0.216 A 
ATOM      6  N   UNL     1       2.558   3.026   5.780  1.00  0.00    -0.237 N 
ATOM      7  N   UNL     1       2.154   2.264   6.840  1.00  0.00    -0.156 NA
ATOM      8  C   UNL     1       3.402   4.131   5.896  1.00  0.00     0.044 A 
ATOM      9  C   UNL     1       3.864   4.540   7.088  1.00  0.00     0.078 A 
ATOM     10  C   UNL     1       3.807   4.902   4.663  1.00  0.00     0.067 C 
ATOM     11  C   UNL     1       3.483   3.747   8.265  1.00  0.00     0.215 A 
ATOM     12  O   UNL     1       3.925   3.995   9.377  1.00  0.00    -0.287 OA
BRANCH   6  13
ATOM     13  C   UNL     1       2.031   2.573   4.538  1.00  0.00     0.065 A 
ATOM     14  C   UNL     1       0.989   1.669   2.078  1.00  0.00     0.119 A 
ATOM     15  C   UNL     1       0.206   2.442   2.938  1.00  0.00     0.048 A 
ATOM     16  C   UNL     1       2.297   1.353   2.444  1.00  0.00     0.048 A 
ATOM     17  C   UNL     1       0.717   2.881   4.163  1.00  0.00     0.032 A 
ATOM     18  C   UNL     1       2.814   1.803   3.667  1.00  0.00     0.032 A 
BRANCH  14  19
ATOM     19  O   UNL     1       0.379   1.313   0.907  1.00  0.00    -0.497 OA
ATOM     20  C   UNL     1       0.952   0.222   0.196  1.00  0.00     0.278 C 
ENDBRANCH  14  19
ENDBRANCH   6  13
ENDBRANCH   3   5
ENDBRANCH   2   3
ENDBRANCH   1   2
BRANCH   1  21
ATOM     21  C   UNL     1      -0.459   1.981  11.384  1.00  0.00     0.275 C 
BRANCH  21  22
ATOM     22  O   UNL     1      -1.181   1.454  10.254  1.00  0.00    -0.458 OA
BRANCH  22  23
ATOM     23  C   UNL     1      -1.260   2.285   9.193  1.00  0.00     0.338 C 
ATOM     24  O   UNL     1      -0.830   3.426   9.101  1.00  0.00    -0.246 OA
BRANCH  23  25
ATOM     25  C   UNL     1      -1.845   1.571   8.055  1.00  0.00     0.060 A 
ATOM     26  C   UNL     1      -0.987   1.164   7.037  1.00  0.00     0.016 A 
ATOM     27  C   UNL     1      -3.222   1.408   7.928  1.00  0.00     0.016 A 
ATOM     28  C   UNL     1      -1.497   0.656   5.851  1.00  0.00     0.010 A 
ATOM     29  C   UNL     1      -3.734   0.845   6.754  1.00  0.00     0.010 A 
ATOM     30  C   UNL     1      -2.876   0.491   5.695  1.00  0.00    -0.014 A 
BRANCH  30  31
ATOM     31  C   UNL     1      -3.417  -0.014   4.409  1.00  0.00     0.031 A 
ATOM     32  C   UNL     1      -4.300   0.867   3.573  1.00  0.00     0.074 A 
ATOM     33  C   UNL     1      -3.103  -1.253   3.985  1.00  0.00     0.049 A 
ATOM     34  N   UNL     1      -5.026   0.563   2.528  1.00  0.00    -0.248 NA
ATOM     35  C   UNL     1      -4.386   2.280   3.974  1.00  0.00     0.031 C 
ATOM     36  C   UNL     1      -2.194  -2.175   4.666  1.00  0.00     0.029 A 
ATOM     37  N   UNL     1      -3.521  -1.952   2.880  1.00  0.00    -0.354 N 
ATOM     38  C   UNL     1      -5.688   1.732   2.175  1.00  0.00     0.074 A 
ATOM     39  C   UNL     1      -5.284   2.750   3.120  1.00  0.00     0.031 C 
ATOM     40  C   UNL     1      -2.115  -3.314   3.962  1.00  0.00     0.029 A 
ATOM     41  C   UNL     1      -3.029  -3.233   2.829  1.00  0.00     0.049 A 
ATOM     42  H   UNL     1      -4.114  -1.573   2.192  1.00  0.00     0.167 HD
ATOM     43  C   UNL     1      -6.557   1.927   1.154  1.00  0.00     0.037 A 
ATOM     44  C   UNL     1      -3.323  -4.247   1.993  1.00  0.00     0.037 A 
ATOM     45  C   UNL     1      -6.918   0.913   0.197  1.00  0.00     0.049 A 
ATOM     46  C   UNL     1      -4.340  -4.024   0.909  1.00  0.00     0.074 A 
ATOM     47  C   UNL     1      -7.783   1.008  -0.878  1.00  0.00     0.029 A 
ATOM     48  N   UNL     1      -6.420  -0.382   0.197  1.00  0.00    -0.354 N 
ATOM     49  N   UNL     1      -5.003  -2.934   0.608  1.00  0.00    -0.248 NA
ATOM     50  C   UNL     1      -4.663  -5.177   0.057  1.00  0.00     0.031 C 
ATOM     51  C   UNL     1      -7.842  -0.242  -1.503  1.00  0.00     0.029 A 
ATOM     52  C   UNL     1      -6.974  -1.102  -0.849  1.00  0.00     0.049 A 
ATOM     53  H   UNL     1      -5.768  -0.738   0.844  1.00  0.00     0.167 HD
ATOM     54  C   UNL     1      -5.802  -3.259  -0.478  1.00  0.00     0.074 A 
ATOM     55  C   UNL     1      -5.534  -4.648  -0.792  1.00  0.00     0.031 C 
ATOM     56  C   UNL     1      -6.680  -2.479  -1.154  1.00  0.00     0.037 A 
BRANCH  43  57
ATOM     57  C   UNL     1      -7.211   3.274   1.042  1.00  0.00     0.064 A 
ATOM     58  C   UNL     1      -6.506   4.412   0.627  1.00  0.00     0.173 A 
ATOM     59  C   UNL     1      -8.580   3.416   1.321  1.00  0.00     0.173 A 
ATOM     60  F   UNL     1      -5.194   4.335   0.361  1.00  0.00    -0.203 F 
ATOM     61  C   UNL     1      -7.141   5.648   0.518  1.00  0.00     0.198 A 
ATOM     62  C   UNL     1      -9.217   4.646   1.183  1.00  0.00     0.198 A 
ATOM     63  F   UNL     1      -9.304   2.358   1.716  1.00  0.00    -0.203 F 
ATOM     64  F   UNL     1      -6.437   6.732   0.163  1.00  0.00    -0.200 F 
ATOM     65  C   UNL     1      -8.496   5.763   0.789  1.00  0.00     0.200 A 
ATOM     66  F   UNL     1     -10.530   4.751   1.433  1.00  0.00    -0.200 F 
ATOM     67  F   UNL     1      -9.107   6.950   0.677  1.00  0.00    -0.200 F 
ENDBRANCH  43  57
BRANCH  44  68
ATOM     68  C   UNL     1      -2.678  -5.571   2.183  1.00  0.00     0.064 A 
ATOM     69  C   UNL     1      -1.766  -6.071   1.244  1.00  0.00     0.173 A 
ATOM     70  C   UNL     1      -2.954  -6.361   3.310  1.00  0.00     0.173 A 
ATOM     71  F   UNL     1      -1.487  -5.365   0.139  1.00  0.00    -0.203 F 
ATOM     72  C   UNL     1      -1.163  -7.315   1.420  1.00  0.00     0.198 A 
ATOM     73  C   UNL     1      -2.326  -7.590   3.501  1.00  0.00     0.198 A 
ATOM     74  F   UNL     1      -3.821  -5.929   4.238  1.00  0.00    -0.203 F 
ATOM     75  F   UNL     1      -0.325  -7.789   0.487  1.00  0.00    -0.200 F 
ATOM     76  C   UNL     1      -1.437  -8.069   2.552  1.00  0.00     0.200 A 
ATOM     77  F   UNL     1      -2.583  -8.307   4.602  1.00  0.00    -0.200 F 
ATOM     78  F   UNL     1      -0.849  -9.261   2.724  1.00  0.00    -0.200 F 
ENDBRANCH  44  68
BRANCH  56  79
ATOM     79  C   UNL     1      -7.379  -3.092  -2.330  1.00  0.00     0.064 A 
ATOM     80  C   UNL     1      -8.413  -4.025  -2.168  1.00  0.00     0.173 A 
ATOM     81  C   UNL     1      -7.045  -2.696  -3.634  1.00  0.00     0.173 A 
ATOM     82  F   UNL     1      -8.755  -4.446  -0.941  1.00  0.00    -0.203 F 
ATOM     83  C   UNL     1      -9.077  -4.552  -3.272  1.00  0.00     0.198 A 
ATOM     84  C   UNL     1      -7.729  -3.205  -4.733  1.00  0.00     0.198 A 
ATOM     85  F   UNL     1      -6.066  -1.803  -3.840  1.00  0.00    -0.203 F 
ATOM     86  F   UNL     1     -10.037  -5.471  -3.098  1.00  0.00    -0.200 F 
ATOM     87  C   UNL     1      -8.741  -4.136  -4.552  1.00  0.00     0.200 A 
ATOM     88  F   UNL     1      -7.412  -2.792  -5.968  1.00  0.00    -0.200 F 
ATOM     89  F   UNL     1      -9.390  -4.636  -5.612  1.00  0.00    -0.200 F 
ENDBRANCH  56  79
ENDBRANCH  30  31
ENDBRANCH  23  25
ENDBRANCH  22  23
ENDBRANCH  21  22
ENDBRANCH   1  21
TORSDOF 13
