REMARK SMILES Cc1nsc(N(C)C(=O)Nc2cccc(Cl)c2)c1C(=O)OCCOC(=O)c1ccc(-c2c3nc(c(-c4c(F)c(F)c(F)c(F)c4F)c4ccc([nH]4)c(-c4c(F)c(F)c(F)c(F)c4F)c4nc(c(-c5c(F)c(F)c(F)c(F)c5F)c5ccc2[nH]5)C=C4)C=C3)cc1
REMARK SMILES IDX 22 1 21 2 19 3 20 4 18 5 1 6 2 7 3 8 4 9 5 10 6 11 7 12 8 13
REMARK SMILES IDX 9 14 10 15 11 17 12 18 17 19 13 20 15 21 14 22 16 23 23 24
REMARK SMILES IDX 24 25 25 26 26 27 27 28 28 29 89 30 29 31 88 32 30 33 31 34
REMARK SMILES IDX 32 35 82 36 33 37 87 38 81 39 83 40 34 41 86 42 80 43 79 44
REMARK SMILES IDX 35 46 67 47 47 48 66 49 48 50 51 51 65 52 84 53 49 54 50 55
REMARK SMILES IDX 64 57 85 58 52 59 36 60 37 61 45 62 38 63 39 64 43 65 46 66
REMARK SMILES IDX 40 67 41 68 44 69 42 70 68 71 69 72 77 73 70 74 71 75 75 76
REMARK SMILES IDX 78 77 72 78 73 79 76 80 74 81 53 82 54 83 62 84 55 85 56 86
REMARK SMILES IDX 60 87 63 88 57 89 58 90 61 91 59 92
REMARK H PARENT 10 16 83 45 51 56
REMARK Flexibility Score: inf
ROOT
ATOM      1  C   UNL     1       2.852   2.708  -2.232  1.00  0.00     0.275 C 
ENDROOT
BRANCH   1   2
ATOM      2  O   UNL     1       2.223   2.112  -1.089  1.00  0.00    -0.458 OA
BRANCH   2   3
ATOM      3  C   UNL     1       2.598   2.539   0.151  1.00  0.00     0.343 C 
ATOM      4  O   UNL     1       3.697   3.024   0.405  1.00  0.00    -0.246 OA
BRANCH   3   5
ATOM      5  C   UNL     1       1.592   2.220   1.157  1.00  0.00     0.118 A 
ATOM      6  C   UNL     1       1.062  -0.172   0.166  1.00  0.00     0.069 C 
ATOM      7  C   UNL     1       0.937   0.914   1.183  1.00  0.00     0.068 A 
ATOM      8  N   UNL     1       0.164   0.659   2.231  1.00  0.00    -0.195 NA
ATOM      9  S   UNL     1       0.170   1.964   3.207  1.00  0.00    -0.017 S 
ATOM     10  C   UNL     1       1.037   3.041   2.152  1.00  0.00     0.134 A 
BRANCH  10  11
ATOM     11  N   UNL     1       0.983   4.438   2.502  1.00  0.00    -0.286 N 
ATOM     12  C   UNL     1       0.055   4.877   3.565  1.00  0.00     0.156 C 
BRANCH  11  13
ATOM     13  C   UNL     1       1.624   5.373   1.685  1.00  0.00     0.326 C 
ATOM     14  O   UNL     1       2.137   5.109   0.596  1.00  0.00    -0.248 OA
ATOM     15  N   UNL     1       1.562   6.721   1.942  1.00  0.00    -0.307 N 
ATOM     16  H   UNL     1       1.722   7.275   1.144  1.00  0.00     0.171 HD
BRANCH  15  17
ATOM     17  C   UNL     1       1.319   7.473   3.095  1.00  0.00     0.044 A 
ATOM     18  C   UNL     1       1.891   7.151   4.327  1.00  0.00     0.026 A 
ATOM     19  C   UNL     1       0.397   8.520   3.000  1.00  0.00     0.046 A 
ATOM     20  C   UNL     1       1.451   7.794   5.485  1.00  0.00     0.004 A 
ATOM     21  C   UNL     1      -0.066   9.130   4.165  1.00  0.00     0.043 A 
ATOM     22  C   UNL     1       0.445   8.760   5.408  1.00  0.00     0.020 A 
ATOM     23  Cl  UNL     1      -1.333  10.292   4.073  1.00  0.00    -0.084 Cl
ENDBRANCH  15  17
ENDBRANCH  11  13
ENDBRANCH  10  11
ENDBRANCH   3   5
ENDBRANCH   2   3
ENDBRANCH   1   2
BRANCH   1  24
ATOM     24  C   UNL     1       1.787   3.449  -3.028  1.00  0.00     0.275 C 
BRANCH  24  25
ATOM     25  O   UNL     1       1.227   4.487  -2.231  1.00  0.00    -0.458 OA
BRANCH  25  26
ATOM     26  C   UNL     1       0.177   4.153  -1.441  1.00  0.00     0.338 C 
ATOM     27  O   UNL     1      -0.317   3.051  -1.281  1.00  0.00    -0.246 OA
BRANCH  26  28
ATOM     28  C   UNL     1      -0.452   5.403  -0.993  1.00  0.00     0.060 A 
ATOM     29  C   UNL     1      -1.750   5.315  -0.481  1.00  0.00     0.016 A 
ATOM     30  C   UNL     1       0.107   6.621  -1.402  1.00  0.00     0.016 A 
ATOM     31  C   UNL     1      -2.585   6.396  -0.651  1.00  0.00     0.010 A 
ATOM     32  C   UNL     1      -0.732   7.678  -1.613  1.00  0.00     0.010 A 
ATOM     33  C   UNL     1      -2.083   7.510  -1.327  1.00  0.00    -0.014 A 
BRANCH  33  34
ATOM     34  C   UNL     1      -2.995   8.521  -1.790  1.00  0.00     0.031 A 
ATOM     35  C   UNL     1      -3.178   9.640  -0.849  1.00  0.00     0.074 A 
ATOM     36  C   UNL     1      -3.477   8.508  -3.044  1.00  0.00     0.049 A 
ATOM     37  N   UNL     1      -4.184   9.842  -0.068  1.00  0.00    -0.248 NA
ATOM     38  C   UNL     1      -2.024  10.511  -0.589  1.00  0.00     0.031 C 
ATOM     39  C   UNL     1      -3.132   7.644  -4.173  1.00  0.00     0.029 A 
ATOM     40  N   UNL     1      -4.360   9.385  -3.580  1.00  0.00    -0.354 N 
ATOM     41  C   UNL     1      -3.857  10.973   0.671  1.00  0.00     0.074 A 
ATOM     42  C   UNL     1      -2.444  11.166   0.493  1.00  0.00     0.031 C 
ATOM     43  C   UNL     1      -3.638   8.181  -5.310  1.00  0.00     0.029 A 
ATOM     44  C   UNL     1      -4.431   9.347  -4.964  1.00  0.00     0.049 A 
ATOM     45  H   UNL     1      -4.904   9.997  -3.033  1.00  0.00     0.167 HD
ATOM     46  C   UNL     1      -4.814  11.804   1.166  1.00  0.00     0.037 A 
ATOM     47  C   UNL     1      -5.006  10.323  -5.710  1.00  0.00     0.037 A 
ATOM     48  C   UNL     1      -6.121  11.202   1.056  1.00  0.00     0.049 A 
ATOM     49  C   UNL     1      -5.944  11.060  -4.804  1.00  0.00     0.074 A 
ATOM     50  C   UNL     1      -6.708  10.068   1.585  1.00  0.00     0.029 A 
ATOM     51  N   UNL     1      -6.899  11.555  -0.023  1.00  0.00    -0.354 N 
ATOM     52  N   UNL     1      -7.014  10.509  -4.286  1.00  0.00    -0.248 NA
ATOM     53  C   UNL     1      -5.417  12.199  -4.059  1.00  0.00     0.031 C 
ATOM     54  C   UNL     1      -7.489   9.526   0.520  1.00  0.00     0.029 A 
ATOM     55  C   UNL     1      -7.390  10.393  -0.568  1.00  0.00     0.049 A 
ATOM     56  H   UNL     1      -7.073  12.469  -0.345  1.00  0.00     0.167 HD
ATOM     57  C   UNL     1      -7.055  10.958  -2.970  1.00  0.00     0.074 A 
ATOM     58  C   UNL     1      -6.075  12.040  -2.905  1.00  0.00     0.031 C 
ATOM     59  C   UNL     1      -7.643  10.220  -1.980  1.00  0.00     0.037 A 
BRANCH  46  60
ATOM     60  C   UNL     1      -4.629  13.278   1.434  1.00  0.00     0.064 A 
ATOM     61  C   UNL     1      -5.663  13.984   2.080  1.00  0.00     0.173 A 
ATOM     62  C   UNL     1      -3.610  14.081   0.875  1.00  0.00     0.173 A 
ATOM     63  F   UNL     1      -6.691  13.331   2.642  1.00  0.00    -0.203 F 
ATOM     64  C   UNL     1      -5.711  15.380   2.094  1.00  0.00     0.198 A 
ATOM     65  C   UNL     1      -3.629  15.472   0.946  1.00  0.00     0.198 A 
ATOM     66  F   UNL     1      -2.615  13.578   0.138  1.00  0.00    -0.203 F 
ATOM     67  F   UNL     1      -6.779  16.003   2.609  1.00  0.00    -0.200 F 
ATOM     68  C   UNL     1      -4.695  16.123   1.523  1.00  0.00     0.200 A 
ATOM     69  F   UNL     1      -2.638  16.172   0.374  1.00  0.00    -0.200 F 
ATOM     70  F   UNL     1      -4.765  17.460   1.484  1.00  0.00    -0.200 F 
ENDBRANCH  46  60
BRANCH  47  71
ATOM     71  C   UNL     1      -4.481  10.868  -6.986  1.00  0.00     0.064 A 
ATOM     72  C   UNL     1      -5.270  11.668  -7.826  1.00  0.00     0.173 A 
ATOM     73  C   UNL     1      -3.107  10.803  -7.301  1.00  0.00     0.173 A 
ATOM     74  F   UNL     1      -6.575  11.834  -7.567  1.00  0.00    -0.203 F 
ATOM     75  C   UNL     1      -4.717  12.359  -8.913  1.00  0.00     0.198 A 
ATOM     76  C   UNL     1      -2.559  11.482  -8.389  1.00  0.00     0.198 A 
ATOM     77  F   UNL     1      -2.245  10.151  -6.508  1.00  0.00    -0.203 F 
ATOM     78  F   UNL     1      -5.491  13.152  -9.667  1.00  0.00    -0.200 F 
ATOM     79  C   UNL     1      -3.362  12.268  -9.191  1.00  0.00     0.200 A 
ATOM     80  F   UNL     1      -1.240  11.413  -8.618  1.00  0.00    -0.200 F 
ATOM     81  F   UNL     1      -2.824  12.964 -10.202  1.00  0.00    -0.200 F 
ENDBRANCH  47  71
BRANCH  59  82
ATOM     82  C   UNL     1      -8.405   8.985  -2.379  1.00  0.00     0.064 A 
ATOM     83  C   UNL     1      -7.804   7.862  -2.976  1.00  0.00     0.173 A 
ATOM     84  C   UNL     1      -9.742   8.858  -1.985  1.00  0.00     0.173 A 
ATOM     85  F   UNL     1      -6.500   7.860  -3.271  1.00  0.00    -0.203 F 
ATOM     86  C   UNL     1      -8.519   6.690  -3.213  1.00  0.00     0.198 A 
ATOM     87  C   UNL     1     -10.447   7.673  -2.189  1.00  0.00     0.198 A 
ATOM     88  F   UNL     1     -10.352   9.868  -1.346  1.00  0.00    -0.203 F 
ATOM     89  F   UNL     1      -7.916   5.639  -3.789  1.00  0.00    -0.200 F 
ATOM     90  C   UNL     1      -9.839   6.594  -2.813  1.00  0.00     0.200 A 
ATOM     91  F   UNL     1     -11.708   7.565  -1.748  1.00  0.00    -0.200 F 
ATOM     92  F   UNL     1     -10.517   5.453  -2.998  1.00  0.00    -0.200 F 
ENDBRANCH  59  82
ENDBRANCH  33  34
ENDBRANCH  26  28
ENDBRANCH  25  26
ENDBRANCH  24  25
ENDBRANCH   1  24
TORSDOF 14
