REMARK SMILES CCOc1cnc(C(=O)c2[nH]c3cc(Cl)ccc3c2CC(=O)OCCOC(=O)c2ccc(-c3c4nc(c(-c5c(F)c(F)c(F)c(F)c5F)c5ccc([nH]5)c(-c5c(F)c(F)c(F)c(F)c5F)c5nc(c(-c6c(F)c(F)c(F)c(F)c6F)c6ccc3[nH]6)C=C5)C=C4)cc2)cc1CC
REMARK SMILES IDX 23 1 21 2 22 3 20 4 19 5 10 6 11 7 12 8 18 10 13 11 17 12
REMARK SMILES IDX 14 13 16 14 15 15 8 16 9 17 7 18 4 19 5 20 93 21 6 22 92 23
REMARK SMILES IDX 3 24 2 25 1 26 94 27 95 28 24 29 25 30 26 31 27 32 28 33
REMARK SMILES IDX 29 34 30 35 91 36 31 37 90 38 32 39 33 40 34 41 84 42 35 43
REMARK SMILES IDX 89 44 83 45 85 46 36 47 88 48 82 49 81 50 37 52 69 53 49 54
REMARK SMILES IDX 68 55 50 56 53 57 67 58 86 59 51 60 52 61 66 63 87 64 54 65
REMARK SMILES IDX 38 66 39 67 47 68 40 69 41 70 45 71 48 72 42 73 43 74 46 75
REMARK SMILES IDX 44 76 70 77 71 78 79 79 72 80 73 81 77 82 80 83 74 84 75 85
REMARK SMILES IDX 78 86 76 87 55 88 56 89 64 90 57 91 58 92 62 93 65 94 59 95
REMARK SMILES IDX 60 96 63 97 61 98
REMARK H PARENT 11 9 85 51 53 62
REMARK Flexibility Score: inf
ROOT
ATOM      1  O   UNL     1      10.005   4.115  -0.358  1.00  0.00    -0.462 OA
ENDROOT
BRANCH   1   2
ATOM      2  C   UNL     1       9.694   3.331   0.703  1.00  0.00     0.310 C 
ATOM      3  O   UNL     1      10.040   3.570   1.859  1.00  0.00    -0.252 OA
BRANCH   2   4
ATOM      4  C   UNL     1       8.752   2.184   0.400  1.00  0.00     0.161 C 
BRANCH   4   5
ATOM      5  C   UNL     1       8.632   1.705  -1.013  1.00  0.00     0.000 A 
ATOM      6  C   UNL     1       7.718   2.106  -1.986  1.00  0.00     0.093 A 
ATOM      7  N   UNL     1       8.015   1.405  -3.132  1.00  0.00    -0.351 N 
ATOM      8  C   UNL     1       8.875   0.375  -2.853  1.00  0.00     0.048 A 
ATOM      9  H   UNL     1       7.660   1.613  -4.026  1.00  0.00     0.167 HD
ATOM     10  C   UNL     1       9.350   0.585  -1.560  1.00  0.00     0.004 A 
ATOM     11  C   UNL     1       9.261  -0.712  -3.644  1.00  0.00     0.047 A 
ATOM     12  C   UNL     1      10.313  -0.311  -1.049  1.00  0.00     0.012 A 
ATOM     13  C   UNL     1      10.179  -1.608  -3.093  1.00  0.00     0.043 A 
ATOM     14  C   UNL     1      10.715  -1.407  -1.824  1.00  0.00     0.021 A 
ATOM     15  Cl  UNL     1      10.646  -2.993  -4.003  1.00  0.00    -0.084 Cl
BRANCH   6  16
ATOM     16  C   UNL     1       6.592   3.033  -1.989  1.00  0.00     0.227 C 
ATOM     17  O   UNL     1       6.568   3.998  -2.750  1.00  0.00    -0.285 OA
BRANCH  16  18
ATOM     18  C   UNL     1       5.307   2.595  -1.319  1.00  0.00     0.113 A 
ATOM     19  C   UNL     1       2.702   1.810  -0.901  1.00  0.00     0.140 A 
ATOM     20  C   UNL     1       3.108   3.139  -0.848  1.00  0.00     0.158 A 
ATOM     21  C   UNL     1       3.659   0.832  -1.167  1.00  0.00    -0.002 A 
ATOM     22  N   UNL     1       4.381   3.556  -1.056  1.00  0.00    -0.249 NA
ATOM     23  C   UNL     1       4.995   1.234  -1.306  1.00  0.00     0.040 A 
BRANCH  19  24
ATOM     24  O   UNL     1       1.373   1.497  -0.881  1.00  0.00    -0.492 OA
BRANCH  24  25
ATOM     25  C   UNL     1       0.853   1.364   0.446  1.00  0.00     0.226 C 
ATOM     26  C   UNL     1       0.376  -0.062   0.659  1.00  0.00     0.049 C 
ENDBRANCH  24  25
ENDBRANCH  19  24
BRANCH  21  27
ATOM     27  C   UNL     1       3.294  -0.604  -1.454  1.00  0.00     0.036 C 
ATOM     28  C   UNL     1       3.609  -0.985  -2.897  1.00  0.00     0.009 C 
ENDBRANCH  21  27
ENDBRANCH  16  18
ENDBRANCH   6  16
ENDBRANCH   4   5
ENDBRANCH   2   4
ENDBRANCH   1   2
BRANCH   1  29
ATOM     29  C   UNL     1      10.623   5.386  -0.058  1.00  0.00     0.274 C 
BRANCH  29  30
ATOM     30  C   UNL     1       9.619   6.546  -0.139  1.00  0.00     0.275 C 
BRANCH  30  31
ATOM     31  O   UNL     1       8.652   6.534   0.941  1.00  0.00    -0.458 OA
BRANCH  31  32
ATOM     32  C   UNL     1       7.597   5.744   0.705  1.00  0.00     0.338 C 
ATOM     33  O   UNL     1       7.422   5.023  -0.271  1.00  0.00    -0.246 OA
BRANCH  32  34
ATOM     34  C   UNL     1       6.644   5.685   1.805  1.00  0.00     0.060 A 
ATOM     35  C   UNL     1       6.588   4.500   2.549  1.00  0.00     0.016 A 
ATOM     36  C   UNL     1       5.645   6.655   1.931  1.00  0.00     0.016 A 
ATOM     37  C   UNL     1       5.507   4.257   3.378  1.00  0.00     0.010 A 
ATOM     38  C   UNL     1       4.588   6.431   2.813  1.00  0.00     0.010 A 
ATOM     39  C   UNL     1       4.502   5.223   3.526  1.00  0.00    -0.014 A 
BRANCH  39  40
ATOM     40  C   UNL     1       3.402   4.973   4.484  1.00  0.00     0.031 A 
ATOM     41  C   UNL     1       2.005   4.701   4.017  1.00  0.00     0.074 A 
ATOM     42  C   UNL     1       3.695   4.970   5.797  1.00  0.00     0.049 A 
ATOM     43  N   UNL     1       0.929   4.479   4.729  1.00  0.00    -0.248 NA
ATOM     44  C   UNL     1       1.780   4.666   2.564  1.00  0.00     0.031 C 
ATOM     45  C   UNL     1       5.027   5.203   6.360  1.00  0.00     0.029 A 
ATOM     46  N   UNL     1       2.899   4.765   6.892  1.00  0.00    -0.354 N 
ATOM     47  C   UNL     1      -0.097   4.278   3.818  1.00  0.00     0.074 A 
ATOM     48  C   UNL     1       0.476   4.425   2.497  1.00  0.00     0.031 C 
ATOM     49  C   UNL     1       4.957   5.125   7.696  1.00  0.00     0.029 A 
ATOM     50  C   UNL     1       3.570   4.890   8.082  1.00  0.00     0.049 A 
ATOM     51  H   UNL     1       1.940   4.550   6.832  1.00  0.00     0.167 HD
ATOM     52  C   UNL     1      -1.395   3.986   4.068  1.00  0.00     0.037 A 
ATOM     53  C   UNL     1       3.113   4.856   9.346  1.00  0.00     0.037 A 
ATOM     54  C   UNL     1      -1.964   3.853   5.382  1.00  0.00     0.049 A 
ATOM     55  C   UNL     1       1.653   4.618   9.589  1.00  0.00     0.074 A 
ATOM     56  C   UNL     1      -3.268   3.546   5.731  1.00  0.00     0.029 A 
ATOM     57  N   UNL     1      -1.263   4.031   6.565  1.00  0.00    -0.354 N 
ATOM     58  N   UNL     1       0.699   4.398   8.719  1.00  0.00    -0.248 NA
ATOM     59  C   UNL     1       1.206   4.632  10.987  1.00  0.00     0.031 C 
ATOM     60  C   UNL     1      -3.362   3.567   7.128  1.00  0.00     0.029 A 
ATOM     61  C   UNL     1      -2.113   3.866   7.646  1.00  0.00     0.049 A 
ATOM     62  H   UNL     1      -0.304   4.242   6.627  1.00  0.00     0.167 HD
ATOM     63  C   UNL     1      -0.461   4.240   9.461  1.00  0.00     0.074 A 
ATOM     64  C   UNL     1      -0.089   4.374  10.855  1.00  0.00     0.031 C 
ATOM     65  C   UNL     1      -1.723   4.008   9.024  1.00  0.00     0.037 A 
BRANCH  52  66
ATOM     66  C   UNL     1      -2.298   3.780   2.895  1.00  0.00     0.064 A 
ATOM     67  C   UNL     1      -2.393   2.526   2.277  1.00  0.00     0.173 A 
ATOM     68  C   UNL     1      -3.121   4.812   2.426  1.00  0.00     0.173 A 
ATOM     69  F   UNL     1      -1.622   1.512   2.696  1.00  0.00    -0.203 F 
ATOM     70  C   UNL     1      -3.271   2.314   1.218  1.00  0.00     0.198 A 
ATOM     71  C   UNL     1      -4.008   4.594   1.375  1.00  0.00     0.198 A 
ATOM     72  F   UNL     1      -3.069   6.026   2.993  1.00  0.00    -0.203 F 
ATOM     73  F   UNL     1      -3.327   1.112   0.628  1.00  0.00    -0.200 F 
ATOM     74  C   UNL     1      -4.081   3.346   0.771  1.00  0.00     0.200 A 
ATOM     75  F   UNL     1      -4.794   5.591   0.946  1.00  0.00    -0.200 F 
ATOM     76  F   UNL     1      -4.930   3.141  -0.246  1.00  0.00    -0.200 F 
ENDBRANCH  52  66
BRANCH  53  77
ATOM     77  C   UNL     1       4.059   5.091  10.462  1.00  0.00     0.064 A 
ATOM     78  C   UNL     1       4.465   4.045  11.299  1.00  0.00     0.173 A 
ATOM     79  C   UNL     1       4.611   6.362  10.680  1.00  0.00     0.173 A 
ATOM     80  F   UNL     1       3.949   2.819  11.136  1.00  0.00    -0.203 F 
ATOM     81  C   UNL     1       5.390   4.263  12.317  1.00  0.00     0.198 A 
ATOM     82  C   UNL     1       5.553   6.573  11.683  1.00  0.00     0.198 A 
ATOM     83  F   UNL     1       4.255   7.393   9.899  1.00  0.00    -0.203 F 
ATOM     84  F   UNL     1       5.748   3.252  13.121  1.00  0.00    -0.200 F 
ATOM     85  C   UNL     1       5.940   5.524  12.502  1.00  0.00     0.200 A 
ATOM     86  F   UNL     1       6.092   7.789  11.848  1.00  0.00    -0.200 F 
ATOM     87  F   UNL     1       6.841   5.728  13.473  1.00  0.00    -0.200 F 
ENDBRANCH  53  77
BRANCH  65  88
ATOM     88  C   UNL     1      -2.787   3.879  10.069  1.00  0.00     0.064 A 
ATOM     89  C   UNL     1      -3.313   5.010  10.709  1.00  0.00     0.173 A 
ATOM     90  C   UNL     1      -3.304   2.622  10.409  1.00  0.00     0.173 A 
ATOM     91  F   UNL     1      -2.835   6.230  10.425  1.00  0.00    -0.203 F 
ATOM     92  C   UNL     1      -4.313   4.883  11.669  1.00  0.00     0.198 A 
ATOM     93  C   UNL     1      -4.317   2.501  11.355  1.00  0.00     0.198 A 
ATOM     94  F   UNL     1      -2.831   1.514   9.819  1.00  0.00    -0.203 F 
ATOM     95  F   UNL     1      -4.780   5.972  12.295  1.00  0.00    -0.200 F 
ATOM     96  C   UNL     1      -4.817   3.630  11.987  1.00  0.00     0.200 A 
ATOM     97  F   UNL     1      -4.808   1.291  11.659  1.00  0.00    -0.200 F 
ATOM     98  F   UNL     1      -5.781   3.510  12.910  1.00  0.00    -0.200 F 
ENDBRANCH  65  88
ENDBRANCH  39  40
ENDBRANCH  32  34
ENDBRANCH  31  32
ENDBRANCH  30  31
ENDBRANCH  29  30
ENDBRANCH   1  29
TORSDOF 17
