REMARK SMILES Cc1nc(-c2ccccc2)sc1C(=O)N[C@@H](CC1=c2ccccc2=NC1)C(=O)OCCOC(=O)c1ccc(-c2c3nc(c(-c4c(F)c(F)c(F)c(F)c4F)c4ccc([nH]4)c(-c4c(F)c(F)c(F)c(F)c4F)c4nc(c(-c5c(F)c(F)c(F)c(F)c5F)c5ccc2[nH]5)C=C4)C=C3)cc1
REMARK SMILES IDX 30 1 29 2 27 3 28 4 16 5 15 6 13 7 14 8 12 10 1 11 2 12 3 13
REMARK SMILES IDX 4 14 11 15 5 16 6 17 10 18 7 19 9 20 8 21 17 22 18 23 19 24
REMARK SMILES IDX 26 25 20 26 24 27 25 28 21 29 23 30 22 31 31 32 32 33 33 34
REMARK SMILES IDX 34 35 35 36 36 37 97 38 37 39 96 40 38 41 39 42 40 43 90 44
REMARK SMILES IDX 41 45 95 46 89 47 91 48 42 49 94 50 88 51 87 52 43 54 75 55
REMARK SMILES IDX 55 56 74 57 56 58 59 59 73 60 92 61 57 62 58 63 72 65 93 66
REMARK SMILES IDX 60 67 44 68 45 69 53 70 46 71 47 72 51 73 54 74 48 75 49 76
REMARK SMILES IDX 52 77 50 78 76 79 77 80 85 81 78 82 79 83 83 84 86 85 80 86
REMARK SMILES IDX 81 87 84 88 82 89 61 90 62 91 70 92 63 93 64 94 68 95 71 96
REMARK SMILES IDX 65 97 66 98 69 99 67 100
REMARK H PARENT 15 9 91 53 59 64
REMARK Flexibility Score: inf
ROOT
ATOM      1  C   UNL     1      -4.683  -3.974   3.024  1.00  0.00     0.274 C 
ENDROOT
BRANCH   1   2
ATOM      2  O   UNL     1      -3.817  -3.620   1.927  1.00  0.00    -0.461 OA
BRANCH   2   3
ATOM      3  C   UNL     1      -4.309  -2.700   1.057  1.00  0.00     0.329 C 
ATOM      4  O   UNL     1      -5.439  -2.226   1.093  1.00  0.00    -0.250 OA
BRANCH   3   5
ATOM      5  C   UNL     1      -3.313  -2.331  -0.050  1.00  0.00     0.196 C 
BRANCH   5   6
ATOM      6  N   UNL     1      -1.933  -2.751   0.160  1.00  0.00    -0.338 N 
ATOM      7  C   UNL     1      -0.717  -2.168  -0.096  1.00  0.00     0.264 C 
ATOM      8  O   UNL     1       0.236  -2.946   0.027  1.00  0.00    -0.268 OA
ATOM      9  H   UNL     1      -1.858  -3.641   0.573  1.00  0.00     0.164 HD
BRANCH   7  10
ATOM     10  C   UNL     1      -0.527  -0.756  -0.425  1.00  0.00     0.115 A 
ATOM     11  C   UNL     1      -2.504   0.285  -1.825  1.00  0.00     0.068 C 
ATOM     12  C   UNL     1      -1.226   0.264  -1.071  1.00  0.00     0.062 A 
ATOM     13  N   UNL     1      -0.603   1.504  -1.053  1.00  0.00    -0.241 NA
ATOM     14  C   UNL     1       0.615   1.423  -0.579  1.00  0.00     0.124 A 
ATOM     15  S   UNL     1       1.036  -0.105   0.039  1.00  0.00    -0.108 S 
BRANCH  14  16
ATOM     16  C   UNL     1       1.535   2.557  -0.543  1.00  0.00     0.010 A 
ATOM     17  C   UNL     1       1.153   3.723   0.133  1.00  0.00     0.011 A 
ATOM     18  C   UNL     1       2.740   2.551  -1.258  1.00  0.00     0.011 A 
ATOM     19  C   UNL     1       1.968   4.854   0.121  1.00  0.00     0.001 A 
ATOM     20  C   UNL     1       3.547   3.693  -1.287  1.00  0.00     0.001 A 
ATOM     21  C   UNL     1       3.163   4.840  -0.593  1.00  0.00     0.000 A 
ENDBRANCH  14  16
ENDBRANCH   7  10
ENDBRANCH   5   6
BRANCH   5  22
ATOM     22  C   UNL     1      -3.838  -2.847  -1.406  1.00  0.00     0.070 C 
BRANCH  22  23
ATOM     23  C   UNL     1      -4.031  -4.331  -1.465  1.00  0.00    -0.037 C 
ATOM     24  C   UNL     1      -3.116  -5.272  -1.681  1.00  0.00     0.001 A 
ATOM     25  C   UNL     1      -5.383  -4.946  -1.257  1.00  0.00     0.174 C 
ATOM     26  C   UNL     1      -1.714  -5.284  -1.948  1.00  0.00     0.010 A 
ATOM     27  C   UNL     1      -3.882  -6.515  -1.497  1.00  0.00     0.065 A 
ATOM     28  N   UNL     1      -5.155  -6.409  -1.265  1.00  0.00    -0.280 NA
ATOM     29  C   UNL     1      -1.077  -6.465  -1.990  1.00  0.00     0.001 A 
ATOM     30  C   UNL     1      -3.111  -7.774  -1.559  1.00  0.00     0.028 A 
ATOM     31  C   UNL     1      -1.786  -7.716  -1.780  1.00  0.00     0.002 A 
ENDBRANCH  22  23
ENDBRANCH   5  22
ENDBRANCH   3   5
ENDBRANCH   2   3
ENDBRANCH   1   2
BRANCH   1  32
ATOM     32  C   UNL     1      -4.075  -3.530   4.354  1.00  0.00     0.275 C 
BRANCH  32  33
ATOM     33  O   UNL     1      -3.762  -2.123   4.337  1.00  0.00    -0.458 OA
BRANCH  33  34
ATOM     34  C   UNL     1      -2.472  -1.841   4.046  1.00  0.00     0.338 C 
ATOM     35  O   UNL     1      -1.568  -2.631   3.814  1.00  0.00    -0.246 OA
BRANCH  34  36
ATOM     36  C   UNL     1      -2.286  -0.390   3.943  1.00  0.00     0.060 A 
ATOM     37  C   UNL     1      -2.356   0.194   2.681  1.00  0.00     0.016 A 
ATOM     38  C   UNL     1      -1.889   0.360   5.048  1.00  0.00     0.016 A 
ATOM     39  C   UNL     1      -1.979   1.521   2.502  1.00  0.00     0.010 A 
ATOM     40  C   UNL     1      -1.555   1.710   4.877  1.00  0.00     0.010 A 
ATOM     41  C   UNL     1      -1.569   2.295   3.597  1.00  0.00    -0.014 A 
BRANCH  41  42
ATOM     42  C   UNL     1      -1.086   3.684   3.376  1.00  0.00     0.031 A 
ATOM     43  C   UNL     1       0.360   4.027   3.616  1.00  0.00     0.074 A 
ATOM     44  C   UNL     1      -1.911   4.620   2.867  1.00  0.00     0.049 A 
ATOM     45  N   UNL     1       0.955   5.194   3.559  1.00  0.00    -0.248 NA
ATOM     46  C   UNL     1       1.258   2.910   3.944  1.00  0.00     0.031 C 
ATOM     47  C   UNL     1      -3.311   4.404   2.503  1.00  0.00     0.029 A 
ATOM     48  N   UNL     1      -1.682   5.936   2.546  1.00  0.00    -0.354 N 
ATOM     49  C   UNL     1       2.290   4.951   3.852  1.00  0.00     0.074 A 
ATOM     50  C   UNL     1       2.415   3.534   4.118  1.00  0.00     0.031 C 
ATOM     51  C   UNL     1      -3.808   5.536   1.981  1.00  0.00     0.029 A 
ATOM     52  C   UNL     1      -2.787   6.578   2.041  1.00  0.00     0.049 A 
ATOM     53  H   UNL     1      -0.810   6.377   2.666  1.00  0.00     0.167 HD
ATOM     54  C   UNL     1       3.325   5.824   3.870  1.00  0.00     0.037 A 
ATOM     55  C   UNL     1      -2.971   7.868   1.701  1.00  0.00     0.037 A 
ATOM     56  C   UNL     1       3.223   7.224   3.553  1.00  0.00     0.049 A 
ATOM     57  C   UNL     1      -1.839   8.844   1.862  1.00  0.00     0.074 A 
ATOM     58  C   UNL     1       4.222   8.182   3.542  1.00  0.00     0.029 A 
ATOM     59  N   UNL     1       2.052   7.864   3.176  1.00  0.00    -0.354 N 
ATOM     60  N   UNL     1      -0.599   8.621   2.221  1.00  0.00    -0.248 NA
ATOM     61  C   UNL     1      -2.142  10.258   1.594  1.00  0.00     0.031 C 
ATOM     62  C   UNL     1       3.651   9.408   3.181  1.00  0.00     0.029 A 
ATOM     63  C   UNL     1       2.303   9.206   2.938  1.00  0.00     0.049 A 
ATOM     64  H   UNL     1       1.173   7.429   3.091  1.00  0.00     0.167 HD
ATOM     65  C   UNL     1       0.027   9.859   2.216  1.00  0.00     0.074 A 
ATOM     66  C   UNL     1      -0.963  10.830   1.798  1.00  0.00     0.031 C 
ATOM     67  C   UNL     1       1.308  10.164   2.534  1.00  0.00     0.037 A 
BRANCH  54  68
ATOM     68  C   UNL     1       4.671   5.290   4.254  1.00  0.00     0.064 A 
ATOM     69  C   UNL     1       5.446   4.540   3.359  1.00  0.00     0.173 A 
ATOM     70  C   UNL     1       5.211   5.574   5.517  1.00  0.00     0.173 A 
ATOM     71  F   UNL     1       4.970   4.238   2.143  1.00  0.00    -0.203 F 
ATOM     72  C   UNL     1       6.708   4.076   3.722  1.00  0.00     0.198 A 
ATOM     73  C   UNL     1       6.481   5.126   5.869  1.00  0.00     0.198 A 
ATOM     74  F   UNL     1       4.510   6.295   6.405  1.00  0.00    -0.203 F 
ATOM     75  F   UNL     1       7.421   3.336   2.862  1.00  0.00    -0.200 F 
ATOM     76  C   UNL     1       7.226   4.374   4.973  1.00  0.00     0.200 A 
ATOM     77  F   UNL     1       6.985   5.425   7.074  1.00  0.00    -0.200 F 
ATOM     78  F   UNL     1       8.445   3.935   5.318  1.00  0.00    -0.200 F 
ENDBRANCH  54  68
BRANCH  55  79
ATOM     79  C   UNL     1      -4.303   8.325   1.226  1.00  0.00     0.064 A 
ATOM     80  C   UNL     1      -4.495   8.758  -0.093  1.00  0.00     0.173 A 
ATOM     81  C   UNL     1      -5.410   8.350   2.089  1.00  0.00     0.173 A 
ATOM     82  F   UNL     1      -3.460   8.784  -0.945  1.00  0.00    -0.203 F 
ATOM     83  C   UNL     1      -5.742   9.202  -0.529  1.00  0.00     0.198 A 
ATOM     84  C   UNL     1      -6.661   8.767   1.644  1.00  0.00     0.198 A 
ATOM     85  F   UNL     1      -5.276   7.957   3.364  1.00  0.00    -0.203 F 
ATOM     86  F   UNL     1      -5.890   9.648  -1.784  1.00  0.00    -0.200 F 
ATOM     87  C   UNL     1      -6.825   9.198   0.337  1.00  0.00     0.200 A 
ATOM     88  F   UNL     1      -7.707   8.752   2.483  1.00  0.00    -0.200 F 
ATOM     89  F   UNL     1      -8.025   9.619  -0.085  1.00  0.00    -0.200 F 
ENDBRANCH  55  79
BRANCH  67  90
ATOM     90  C   UNL     1       1.714  11.604   2.434  1.00  0.00     0.064 A 
ATOM     91  C   UNL     1       1.310  12.543   3.394  1.00  0.00     0.173 A 
ATOM     92  C   UNL     1       2.534  12.044   1.385  1.00  0.00     0.173 A 
ATOM     93  F   UNL     1       0.510  12.173   4.405  1.00  0.00    -0.203 F 
ATOM     94  C   UNL     1       1.700  13.876   3.298  1.00  0.00     0.198 A 
ATOM     95  C   UNL     1       2.940  13.374   1.304  1.00  0.00     0.198 A 
ATOM     96  F   UNL     1       2.948  11.184   0.444  1.00  0.00    -0.203 F 
ATOM     97  F   UNL     1       1.270  14.765   4.204  1.00  0.00    -0.200 F 
ATOM     98  C   UNL     1       2.518  14.289   2.257  1.00  0.00     0.200 A 
ATOM     99  F   UNL     1       3.738  13.770   0.303  1.00  0.00    -0.200 F 
ATOM    100  F   UNL     1       2.894  15.572   2.167  1.00  0.00    -0.200 F 
ENDBRANCH  67  90
ENDBRANCH  41  42
ENDBRANCH  34  36
ENDBRANCH  33  34
ENDBRANCH  32  33
ENDBRANCH   1  32
TORSDOF 16
