REMARK SMILES COC(=O)c1c(NC(=O)[C@@H]2C[C@@H]2C(=O)OCCOC(=O)c2ccc(-c3c4nc(c(-c5c(F)c(F)c(F)c(F)c5F)c5ccc([nH]5)c(-c5c(F)c(F)c(F)c(F)c5F)c5nc(c(-c6c(F)c(F)c(F)c(F)c6F)c6ccc3[nH]6)C=C5)C=C4)cc2)sc2c1CC[N@@H+](Cc1ccccc1)C2
REMARK SMILES IDX 16 1 15 2 13 3 14 4 12 5 10 6 11 7 8 8 7 9 9 11 6 12 5 13
REMARK SMILES IDX 86 14 84 15 85 16 87 17 97 18 88 19 89 20 3 22 4 23 2 24
REMARK SMILES IDX 1 25 90 26 91 27 92 28 96 29 93 30 95 31 94 32 17 33 18 34
REMARK SMILES IDX 19 35 20 36 21 37 22 38 83 39 23 40 82 41 24 42 25 43 26 44
REMARK SMILES IDX 76 45 27 46 81 47 75 48 77 49 28 50 80 51 74 52 73 53 29 55
REMARK SMILES IDX 61 56 41 57 60 58 42 59 45 60 59 61 78 62 43 63 44 64 58 66
REMARK SMILES IDX 79 67 46 68 30 69 31 70 39 71 32 72 33 73 37 74 40 75 34 76
REMARK SMILES IDX 35 77 38 78 36 79 62 80 63 81 71 82 64 83 65 84 69 85 72 86
REMARK SMILES IDX 66 87 67 88 70 89 68 90 47 91 48 92 56 93 49 94 50 95 54 96
REMARK SMILES IDX 57 97 51 98 52 99 55 100 53 101
REMARK H PARENT 7 10 89 21 77 54 45 65
REMARK Flexibility Score: inf
ROOT
ATOM      1  C   UNL     1      -3.086  -4.502  -0.151  1.00  0.00     0.274 C 
ENDROOT
BRANCH   1   2
ATOM      2  O   UNL     1      -2.062  -3.536   0.166  1.00  0.00    -0.462 OA
BRANCH   2   3
ATOM      3  C   UNL     1      -2.283  -2.265  -0.272  1.00  0.00     0.309 C 
ATOM      4  O   UNL     1      -3.304  -1.876  -0.824  1.00  0.00    -0.252 OA
BRANCH   3   5
ATOM      5  C   UNL     1      -1.070  -1.410  -0.163  1.00  0.00     0.112 C 
ATOM      6  C   UNL     1      -0.828  -0.227   0.757  1.00  0.00     0.094 C 
ATOM      7  C   UNL     1      -1.209   0.003  -0.686  1.00  0.00     0.030 C 
BRANCH   6   8
ATOM      8  C   UNL     1      -1.721   0.230   1.826  1.00  0.00     0.229 C 
ATOM      9  N   UNL     1      -1.674  -0.267   3.098  1.00  0.00    -0.317 N 
ATOM     10  H   UNL     1      -2.521  -0.154   3.588  1.00  0.00     0.170 HD
ATOM     11  O   UNL     1      -2.497   1.153   1.579  1.00  0.00    -0.274 OA
BRANCH   9  12
ATOM     12  C   UNL     1      -0.701  -0.892   3.841  1.00  0.00     0.110 A 
ATOM     13  C   UNL     1       0.581  -1.391   3.705  1.00  0.00     0.098 A 
ATOM     14  C   UNL     1       1.184  -1.594   5.008  1.00  0.00    -0.006 A 
ATOM     15  S   UNL     1      -1.244  -0.964   5.475  1.00  0.00    -0.116 S 
ATOM     16  C   UNL     1       0.318  -1.282   6.036  1.00  0.00     0.065 A 
ATOM     17  C   UNL     1       2.625  -1.905   5.300  1.00  0.00     0.099 C 
ATOM     18  C   UNL     1       0.709  -1.152   7.476  1.00  0.00     0.310 C 
ATOM     19  C   UNL     1       2.971  -1.774   6.808  1.00  0.00     0.267 C 
ATOM     20  N   UNL     1       2.148  -0.862   7.621  1.00  0.00    -0.326 N 
ATOM     21  H   UNL     1       2.384  -1.075   8.590  1.00  0.00     0.348 HD
BRANCH  13  22
ATOM     22  C   UNL     1       1.312  -1.581   2.462  1.00  0.00     0.341 C 
ATOM     23  O   UNL     1       1.296  -2.604   1.825  1.00  0.00    -0.246 OA
BRANCH  22  24
ATOM     24  O   UNL     1       2.025  -0.457   2.135  1.00  0.00    -0.465 OA
ATOM     25  C   UNL     1       2.652  -0.458   0.848  1.00  0.00     0.282 C 
ENDBRANCH  22  24
ENDBRANCH  13  22
BRANCH  20  26
ATOM     26  C   UNL     1       2.513   0.564   7.563  1.00  0.00     0.299 C 
BRANCH  26  27
ATOM     27  C   UNL     1       2.413   1.281   6.233  1.00  0.00     0.006 A 
ATOM     28  C   UNL     1       3.536   1.411   5.403  1.00  0.00     0.009 A 
ATOM     29  C   UNL     1       1.192   1.814   5.791  1.00  0.00     0.009 A 
ATOM     30  C   UNL     1       3.424   1.991   4.137  1.00  0.00     0.001 A 
ATOM     31  C   UNL     1       1.075   2.375   4.518  1.00  0.00     0.001 A 
ATOM     32  C   UNL     1       2.189   2.456   3.688  1.00  0.00     0.000 A 
ENDBRANCH  26  27
ENDBRANCH  20  26
ENDBRANCH   9  12
ENDBRANCH   6   8
ENDBRANCH   3   5
ENDBRANCH   2   3
ENDBRANCH   1   2
BRANCH   1  33
ATOM     33  C   UNL     1      -4.183  -4.644   0.905  1.00  0.00     0.275 C 
BRANCH  33  34
ATOM     34  O   UNL     1      -5.052  -3.513   0.988  1.00  0.00    -0.458 OA
BRANCH  34  35
ATOM     35  C   UNL     1      -4.559  -2.554   1.795  1.00  0.00     0.338 C 
ATOM     36  O   UNL     1      -3.438  -2.492   2.277  1.00  0.00    -0.246 OA
BRANCH  35  37
ATOM     37  C   UNL     1      -5.599  -1.637   2.236  1.00  0.00     0.060 A 
ATOM     38  C   UNL     1      -5.174  -0.357   2.573  1.00  0.00     0.016 A 
ATOM     39  C   UNL     1      -6.829  -2.135   2.655  1.00  0.00     0.016 A 
ATOM     40  C   UNL     1      -5.864   0.365   3.511  1.00  0.00     0.010 A 
ATOM     41  C   UNL     1      -7.574  -1.375   3.536  1.00  0.00     0.010 A 
ATOM     42  C   UNL     1      -7.047  -0.169   4.019  1.00  0.00    -0.014 A 
BRANCH  42  43
ATOM     43  C   UNL     1      -7.813   0.687   4.916  1.00  0.00     0.031 A 
ATOM     44  C   UNL     1      -8.171   2.003   4.311  1.00  0.00     0.074 A 
ATOM     45  C   UNL     1      -8.270   0.236   6.100  1.00  0.00     0.049 A 
ATOM     46  N   UNL     1      -8.121   3.178   4.847  1.00  0.00    -0.248 NA
ATOM     47  C   UNL     1      -8.523   2.019   2.874  1.00  0.00     0.031 C 
ATOM     48  C   UNL     1      -8.116  -1.123   6.630  1.00  0.00     0.029 A 
ATOM     49  N   UNL     1      -9.110   0.828   6.998  1.00  0.00    -0.354 N 
ATOM     50  C   UNL     1      -8.593   4.055   3.870  1.00  0.00     0.074 A 
ATOM     51  C   UNL     1      -8.676   3.320   2.642  1.00  0.00     0.031 C 
ATOM     52  C   UNL     1      -9.051  -1.331   7.578  1.00  0.00     0.029 A 
ATOM     53  C   UNL     1      -9.785  -0.094   7.789  1.00  0.00     0.049 A 
ATOM     54  H   UNL     1      -9.226   1.803   7.077  1.00  0.00     0.167 HD
ATOM     55  C   UNL     1      -9.164   5.237   4.215  1.00  0.00     0.037 A 
ATOM     56  C   UNL     1     -10.930   0.108   8.481  1.00  0.00     0.037 A 
ATOM     57  C   UNL     1      -8.736   5.664   5.517  1.00  0.00     0.049 A 
ATOM     58  C   UNL     1     -11.117   1.566   8.651  1.00  0.00     0.074 A 
ATOM     59  C   UNL     1      -7.586   6.182   6.067  1.00  0.00     0.029 A 
ATOM     60  N   UNL     1      -9.524   5.234   6.547  1.00  0.00    -0.354 N 
ATOM     61  N   UNL     1     -10.381   2.316   9.422  1.00  0.00    -0.248 NA
ATOM     62  C   UNL     1     -11.979   2.289   7.719  1.00  0.00     0.031 C 
ATOM     63  C   UNL     1      -7.630   5.857   7.455  1.00  0.00     0.029 A 
ATOM     64  C   UNL     1      -8.810   5.160   7.710  1.00  0.00     0.049 A 
ATOM     65  H   UNL     1     -10.479   5.008   6.463  1.00  0.00     0.167 HD
ATOM     66  C   UNL     1     -10.355   3.539   8.781  1.00  0.00     0.074 A 
ATOM     67  C   UNL     1     -11.498   3.523   7.882  1.00  0.00     0.031 C 
ATOM     68  C   UNL     1      -9.225   4.301   8.796  1.00  0.00     0.037 A 
BRANCH  55  69
ATOM     69  C   UNL     1     -10.484   5.707   3.631  1.00  0.00     0.064 A 
ATOM     70  C   UNL     1     -10.992   6.958   4.033  1.00  0.00     0.173 A 
ATOM     71  C   UNL     1     -11.414   4.852   2.994  1.00  0.00     0.173 A 
ATOM     72  F   UNL     1     -10.205   7.845   4.662  1.00  0.00    -0.203 F 
ATOM     73  C   UNL     1     -12.345   7.285   3.895  1.00  0.00     0.198 A 
ATOM     74  C   UNL     1     -12.750   5.204   2.812  1.00  0.00     0.198 A 
ATOM     75  F   UNL     1     -11.110   3.602   2.628  1.00  0.00    -0.203 F 
ATOM     76  F   UNL     1     -12.809   8.429   4.415  1.00  0.00    -0.200 F 
ATOM     77  C   UNL     1     -13.224   6.404   3.294  1.00  0.00     0.200 A 
ATOM     78  F   UNL     1     -13.590   4.324   2.247  1.00  0.00    -0.200 F 
ATOM     79  F   UNL     1     -14.531   6.683   3.224  1.00  0.00    -0.200 F 
ENDBRANCH  55  69
BRANCH  56  80
ATOM     80  C   UNL     1     -11.993  -0.867   8.824  1.00  0.00     0.064 A 
ATOM     81  C   UNL     1     -12.939  -0.572   9.820  1.00  0.00     0.173 A 
ATOM     82  C   UNL     1     -12.259  -1.997   8.026  1.00  0.00     0.173 A 
ATOM     83  F   UNL     1     -12.787   0.509  10.597  1.00  0.00    -0.203 F 
ATOM     84  C   UNL     1     -14.091  -1.344   9.989  1.00  0.00     0.198 A 
ATOM     85  C   UNL     1     -13.399  -2.779   8.209  1.00  0.00     0.198 A 
ATOM     86  F   UNL     1     -11.469  -2.316   6.991  1.00  0.00    -0.203 F 
ATOM     87  F   UNL     1     -15.004  -0.988  10.903  1.00  0.00    -0.200 F 
ATOM     88  C   UNL     1     -14.324  -2.443   9.180  1.00  0.00     0.200 A 
ATOM     89  F   UNL     1     -13.626  -3.823   7.399  1.00  0.00    -0.200 F 
ATOM     90  F   UNL     1     -15.454  -3.152   9.306  1.00  0.00    -0.200 F 
ENDBRANCH  56  80
BRANCH  68  91
ATOM     91  C   UNL     1      -8.273   4.086   9.930  1.00  0.00     0.064 A 
ATOM     92  C   UNL     1      -7.581   2.889  10.176  1.00  0.00     0.173 A 
ATOM     93  C   UNL     1      -8.016   5.172  10.778  1.00  0.00     0.173 A 
ATOM     94  F   UNL     1      -7.703   1.838   9.354  1.00  0.00    -0.203 F 
ATOM     95  C   UNL     1      -6.719   2.772  11.264  1.00  0.00     0.198 A 
ATOM     96  C   UNL     1      -7.121   5.065  11.836  1.00  0.00     0.198 A 
ATOM     97  F   UNL     1      -8.616   6.354  10.561  1.00  0.00    -0.203 F 
ATOM     98  F   UNL     1      -6.097   1.608  11.505  1.00  0.00    -0.200 F 
ATOM     99  C   UNL     1      -6.487   3.860  12.090  1.00  0.00     0.200 A 
ATOM    100  F   UNL     1      -6.866   6.134  12.603  1.00  0.00    -0.200 F 
ATOM    101  F   UNL     1      -5.637   3.755  13.120  1.00  0.00    -0.200 F 
ENDBRANCH  68  91
ENDBRANCH  42  43
ENDBRANCH  35  37
ENDBRANCH  34  35
ENDBRANCH  33  34
ENDBRANCH   1  33
TORSDOF 17
