REMARK SMILES O=C(C[C@@H](C(=O)N(c1ccccc1)c1ccccc1)[NH+]1CCOCC1)OCCOC(=O)c1ccc(-c2c3nc(c(-c4c(F)c(F)c(F)c(F)c4F)c4ccc([nH]4)c(-c4c(F)c(F)c(F)c(F)c4F)c4nc(c(-c5c(F)c(F)c(F)c(F)c5F)c5ccc2[nH]5)C=C4)C=C3)cc1
REMARK SMILES IDX 27 1 26 2 2 3 1 4 3 5 4 6 5 7 6 8 7 9 8 10 9 11 13 12 10 13
REMARK SMILES IDX 12 14 11 15 14 16 15 17 19 18 16 19 18 20 17 21 20 22 21 23
REMARK SMILES IDX 25 24 22 26 24 27 23 28 28 29 29 30 30 31 31 32 32 33 33 34
REMARK SMILES IDX 94 35 34 36 93 37 35 38 36 39 37 40 87 41 38 42 92 43 86 44
REMARK SMILES IDX 88 45 39 46 91 47 85 48 84 49 40 51 72 52 52 53 71 54 53 55
REMARK SMILES IDX 56 56 70 57 89 58 54 59 55 60 69 62 90 63 57 64 41 65 42 66
REMARK SMILES IDX 50 67 43 68 44 69 48 70 51 71 45 72 46 73 49 74 47 75 73 76
REMARK SMILES IDX 74 77 82 78 75 79 76 80 80 81 83 82 77 83 78 84 81 85 79 86
REMARK SMILES IDX 58 87 59 88 67 89 60 90 61 91 65 92 68 93 62 94 63 95 66 96
REMARK SMILES IDX 64 97
REMARK H PARENT 20 25 88 50 56 61
REMARK Flexibility Score: inf
ROOT
ATOM      1  C   UNL     1       4.425   0.352  -1.741  1.00  0.00     0.274 C 
ENDROOT
BRANCH   1   2
ATOM      2  O   UNL     1       3.104  -0.158  -1.458  1.00  0.00    -0.462 OA
BRANCH   2   3
ATOM      3  C   UNL     1       2.419   0.120  -0.331  1.00  0.00     0.312 C 
ATOM      4  O   UNL     1       1.189   0.103  -0.325  1.00  0.00    -0.252 OA
BRANCH   3   5
ATOM      5  C   UNL     1       3.164   0.549   0.902  1.00  0.00     0.198 C 
BRANCH   5   6
ATOM      6  C   UNL     1       3.998  -0.403   1.772  1.00  0.00     0.286 C 
BRANCH   6   7
ATOM      7  C   UNL     1       4.738  -1.532   0.977  1.00  0.00     0.290 C 
ATOM      8  O   UNL     1       5.959  -1.369   0.801  1.00  0.00    -0.267 OA
ATOM      9  N   UNL     1       4.143  -2.653   0.355  1.00  0.00    -0.276 N 
BRANCH   9  10
ATOM     10  C   UNL     1       2.764  -3.124   0.276  1.00  0.00     0.049 A 
ATOM     11  C   UNL     1       2.445  -4.273  -0.491  1.00  0.00     0.027 A 
ATOM     12  C   UNL     1       1.667  -2.496   0.861  1.00  0.00     0.027 A 
ATOM     13  C   UNL     1       1.140  -4.585  -0.890  1.00  0.00     0.002 A 
ATOM     14  C   UNL     1       0.350  -2.789   0.456  1.00  0.00     0.002 A 
ATOM     15  C   UNL     1       0.090  -3.797  -0.461  1.00  0.00     0.000 A 
ENDBRANCH   9  10
BRANCH   9  16
ATOM     16  C   UNL     1       5.058  -3.327  -0.561  1.00  0.00     0.049 A 
ATOM     17  C   UNL     1       4.843  -3.258  -1.951  1.00  0.00     0.027 A 
ATOM     18  C   UNL     1       6.250  -3.903  -0.095  1.00  0.00     0.027 A 
ATOM     19  C   UNL     1       5.787  -3.764  -2.846  1.00  0.00     0.002 A 
ATOM     20  C   UNL     1       7.204  -4.387  -0.994  1.00  0.00     0.002 A 
ATOM     21  C   UNL     1       6.971  -4.318  -2.367  1.00  0.00     0.000 A 
ENDBRANCH   9  16
ENDBRANCH   6   7
BRANCH   6  22
ATOM     22  N   UNL     1       4.865   0.408   2.766  1.00  0.00    -0.320 N 
ATOM     23  C   UNL     1       4.771   1.894   2.783  1.00  0.00     0.291 C 
ATOM     24  C   UNL     1       6.303   0.086   2.920  1.00  0.00     0.291 C 
ATOM     25  H   UNL     1       4.345   0.022   3.554  1.00  0.00     0.348 HD
ATOM     26  C   UNL     1       5.737   2.622   1.815  1.00  0.00     0.221 C 
ATOM     27  C   UNL     1       7.213   0.805   1.893  1.00  0.00     0.221 C 
ATOM     28  O   UNL     1       7.095   2.229   2.035  1.00  0.00    -0.370 OA
ENDBRANCH   6  22
ENDBRANCH   5   6
ENDBRANCH   3   5
ENDBRANCH   2   3
ENDBRANCH   1   2
BRANCH   1  29
ATOM     29  C   UNL     1       4.371   1.748  -2.362  1.00  0.00     0.275 C 
BRANCH  29  30
ATOM     30  O   UNL     1       3.902   2.703  -1.391  1.00  0.00    -0.458 OA
BRANCH  30  31
ATOM     31  C   UNL     1       2.603   3.083  -1.511  1.00  0.00     0.338 C 
ATOM     32  O   UNL     1       1.853   2.836  -2.428  1.00  0.00    -0.246 OA
BRANCH  31  33
ATOM     33  C   UNL     1       2.174   3.703  -0.232  1.00  0.00     0.060 A 
ATOM     34  C   UNL     1       0.898   3.387   0.249  1.00  0.00     0.016 A 
ATOM     35  C   UNL     1       3.005   4.561   0.497  1.00  0.00     0.016 A 
ATOM     36  C   UNL     1       0.431   3.968   1.427  1.00  0.00     0.010 A 
ATOM     37  C   UNL     1       2.539   5.141   1.682  1.00  0.00     0.010 A 
ATOM     38  C   UNL     1       1.231   4.882   2.126  1.00  0.00    -0.014 A 
BRANCH  38  39
ATOM     39  C   UNL     1       0.594   5.735   3.162  1.00  0.00     0.031 A 
ATOM     40  C   UNL     1       0.100   7.095   2.745  1.00  0.00     0.074 A 
ATOM     41  C   UNL     1       0.374   5.286   4.410  1.00  0.00     0.049 A 
ATOM     42  N   UNL     1      -0.573   7.985   3.429  1.00  0.00    -0.248 NA
ATOM     43  C   UNL     1       0.403   7.504   1.363  1.00  0.00     0.031 C 
ATOM     44  C   UNL     1       0.783   3.983   4.927  1.00  0.00     0.029 A 
ATOM     45  N   UNL     1      -0.266   5.883   5.469  1.00  0.00    -0.354 N 
ATOM     46  C   UNL     1      -0.794   9.040   2.553  1.00  0.00     0.074 A 
ATOM     47  C   UNL     1      -0.132   8.712   1.311  1.00  0.00     0.031 C 
ATOM     48  C   UNL     1       0.382   3.877   6.207  1.00  0.00     0.029 A 
ATOM     49  C   UNL     1      -0.304   5.107   6.601  1.00  0.00     0.049 A 
ATOM     50  H   UNL     1      -0.661   6.784   5.420  1.00  0.00     0.167 HD
ATOM     51  C   UNL     1      -1.509  10.172   2.754  1.00  0.00     0.037 A 
ATOM     52  C   UNL     1      -0.835   5.366   7.813  1.00  0.00     0.037 A 
ATOM     53  C   UNL     1      -2.149  10.513   3.994  1.00  0.00     0.049 A 
ATOM     54  C   UNL     1      -1.569   6.667   8.033  1.00  0.00     0.074 A 
ATOM     55  C   UNL     1      -2.872  11.649   4.312  1.00  0.00     0.029 A 
ATOM     56  N   UNL     1      -2.134   9.716   5.130  1.00  0.00    -0.354 N 
ATOM     57  N   UNL     1      -1.800   7.645   7.189  1.00  0.00    -0.248 NA
ATOM     58  C   UNL     1      -2.132   6.892   9.372  1.00  0.00     0.031 C 
ATOM     59  C   UNL     1      -3.259  11.558   5.654  1.00  0.00     0.029 A 
ATOM     60  C   UNL     1      -2.822  10.342   6.155  1.00  0.00     0.049 A 
ATOM     61  H   UNL     1      -1.699   8.835   5.196  1.00  0.00     0.167 HD
ATOM     62  C   UNL     1      -2.550   8.585   7.885  1.00  0.00     0.074 A 
ATOM     63  C   UNL     1      -2.761   8.047   9.213  1.00  0.00     0.031 C 
ATOM     64  C   UNL     1      -3.019   9.788   7.470  1.00  0.00     0.037 A 
BRANCH  51  65
ATOM     65  C   UNL     1      -1.619  11.124   1.599  1.00  0.00     0.064 A 
ATOM     66  C   UNL     1      -2.393  10.816   0.468  1.00  0.00     0.173 A 
ATOM     67  C   UNL     1      -0.951  12.356   1.622  1.00  0.00     0.173 A 
ATOM     68  F   UNL     1      -3.033   9.639   0.389  1.00  0.00    -0.203 F 
ATOM     69  C   UNL     1      -2.470  11.695  -0.608  1.00  0.00     0.198 A 
ATOM     70  C   UNL     1      -1.055  13.246   0.556  1.00  0.00     0.198 A 
ATOM     71  F   UNL     1      -0.197  12.697   2.677  1.00  0.00    -0.203 F 
ATOM     72  F   UNL     1      -3.171  11.357  -1.699  1.00  0.00    -0.200 F 
ATOM     73  C   UNL     1      -1.807  12.912  -0.561  1.00  0.00     0.200 A 
ATOM     74  F   UNL     1      -0.419  14.425   0.605  1.00  0.00    -0.200 F 
ATOM     75  F   UNL     1      -1.883  13.759  -1.597  1.00  0.00    -0.200 F 
ENDBRANCH  51  65
BRANCH  52  76
ATOM     76  C   UNL     1      -0.696   4.381   8.921  1.00  0.00     0.064 A 
ATOM     77  C   UNL     1      -1.810   3.724   9.462  1.00  0.00     0.173 A 
ATOM     78  C   UNL     1       0.555   4.119   9.499  1.00  0.00     0.173 A 
ATOM     79  F   UNL     1      -3.034   3.960   8.965  1.00  0.00    -0.203 F 
ATOM     80  C   UNL     1      -1.683   2.867  10.555  1.00  0.00     0.198 A 
ATOM     81  C   UNL     1       0.686   3.238  10.571  1.00  0.00     0.198 A 
ATOM     82  F   UNL     1       1.654   4.724   9.025  1.00  0.00    -0.203 F 
ATOM     83  F   UNL     1      -2.774   2.302  11.091  1.00  0.00    -0.200 F 
ATOM     84  C   UNL     1      -0.435   2.622  11.106  1.00  0.00     0.200 A 
ATOM     85  F   UNL     1       1.895   2.997  11.095  1.00  0.00    -0.200 F 
ATOM     86  F   UNL     1      -0.314   1.803  12.160  1.00  0.00    -0.200 F 
ENDBRANCH  52  76
BRANCH  64  87
ATOM     87  C   UNL     1      -3.823  10.590   8.455  1.00  0.00     0.064 A 
ATOM     88  C   UNL     1      -3.230  11.182   9.581  1.00  0.00     0.173 A 
ATOM     89  C   UNL     1      -5.198  10.789   8.258  1.00  0.00     0.173 A 
ATOM     90  F   UNL     1      -1.920  11.013   9.821  1.00  0.00    -0.203 F 
ATOM     91  C   UNL     1      -3.991  11.909  10.492  1.00  0.00     0.198 A 
ATOM     92  C   UNL     1      -5.949  11.546   9.153  1.00  0.00     0.198 A 
ATOM     93  F   UNL     1      -5.813  10.256   7.191  1.00  0.00    -0.203 F 
ATOM     94  F   UNL     1      -3.413  12.412  11.592  1.00  0.00    -0.200 F 
ATOM     95  C   UNL     1      -5.348  12.095  10.275  1.00  0.00     0.200 A 
ATOM     96  F   UNL     1      -7.257  11.738   8.933  1.00  0.00    -0.200 F 
ATOM     97  F   UNL     1      -6.078  12.795  11.154  1.00  0.00    -0.200 F 
ENDBRANCH  64  87
ENDBRANCH  38  39
ENDBRANCH  31  33
ENDBRANCH  30  31
ENDBRANCH  29  30
ENDBRANCH   1  29
TORSDOF 16
