REMARK SMILES CCCC[C@H](C(=O)OCCOC(=O)c1ccc(-c2c3nc(c(-c4c(F)c(F)c(F)c(F)c4F)c4ccc([nH]4)c(-c4c(F)c(F)c(F)c(F)c4F)c4nc(c(-c5c(F)c(F)c(F)c(F)c5F)c5ccc2[nH]5)C=C4)C=C3)cc1)c1ccccn1
REMARK SMILES IDX 9 1 8 2 6 3 7 4 5 5 4 6 3 7 2 8 1 9 77 10 78 11 82 12 79 13
REMARK SMILES IDX 81 14 80 15 10 16 11 17 12 18 13 19 14 20 15 21 76 22 16 23
REMARK SMILES IDX 75 24 17 25 18 26 19 27 69 28 20 29 74 30 68 31 70 32 21 33
REMARK SMILES IDX 73 34 67 35 66 36 22 38 54 39 34 40 53 41 35 42 38 43 52 44
REMARK SMILES IDX 71 45 36 46 37 47 51 49 72 50 39 51 23 52 24 53 32 54 25 55
REMARK SMILES IDX 26 56 30 57 33 58 27 59 28 60 31 61 29 62 55 63 56 64 64 65
REMARK SMILES IDX 57 66 58 67 62 68 65 69 59 70 60 71 63 72 61 73 40 74 41 75
REMARK SMILES IDX 49 76 42 77 43 78 47 79 50 80 44 81 45 82 48 83 46 84
REMARK H PARENT 70 37 38 48
REMARK Flexibility Score: inf
ROOT
ATOM      1  C   UNL     1       2.815  -2.833  -1.966  1.00  0.00     0.274 C 
ENDROOT
BRANCH   1   2
ATOM      2  O   UNL     1       1.385  -2.982  -2.053  1.00  0.00    -0.462 OA
BRANCH   2   3
ATOM      3  C   UNL     1       0.792  -3.618  -1.004  1.00  0.00     0.315 C 
ATOM      4  O   UNL     1       1.421  -4.101  -0.070  1.00  0.00    -0.251 OA
BRANCH   3   5
ATOM      5  C   UNL     1      -0.730  -3.531  -1.066  1.00  0.00     0.148 C 
BRANCH   5   6
ATOM      6  C   UNL     1      -1.432  -3.614  -2.437  1.00  0.00     0.022 C 
BRANCH   6   7
ATOM      7  C   UNL     1      -0.857  -4.506  -3.541  1.00  0.00     0.001 C 
BRANCH   7   8
ATOM      8  C   UNL     1      -0.699  -5.985  -3.217  1.00  0.00    -0.003 C 
ATOM      9  C   UNL     1      -2.017  -6.683  -2.921  1.00  0.00     0.004 C 
ENDBRANCH   7   8
ENDBRANCH   6   7
ENDBRANCH   5   6
BRANCH   5  10
ATOM     10  C   UNL     1      -1.409  -4.345   0.029  1.00  0.00     0.055 A 
ATOM     11  C   UNL     1      -1.039  -5.656   0.332  1.00  0.00     0.025 A 
ATOM     12  N   UNL     1      -2.375  -3.701   0.740  1.00  0.00    -0.260 NA
ATOM     13  C   UNL     1      -1.651  -6.315   1.395  1.00  0.00     0.003 A 
ATOM     14  C   UNL     1      -2.947  -4.363   1.773  1.00  0.00     0.111 A 
ATOM     15  C   UNL     1      -2.619  -5.656   2.138  1.00  0.00     0.020 A 
ENDBRANCH   5  10
ENDBRANCH   3   5
ENDBRANCH   2   3
ENDBRANCH   1   2
BRANCH   1  16
ATOM     16  C   UNL     1       3.201  -1.401  -1.585  1.00  0.00     0.275 C 
BRANCH  16  17
ATOM     17  O   UNL     1       2.724  -1.033  -0.276  1.00  0.00    -0.458 OA
BRANCH  17  18
ATOM     18  C   UNL     1       1.486  -0.486  -0.258  1.00  0.00     0.338 C 
ATOM     19  O   UNL     1       0.769  -0.272  -1.231  1.00  0.00    -0.246 OA
BRANCH  18  20
ATOM     20  C   UNL     1       1.022  -0.250   1.120  1.00  0.00     0.060 A 
ATOM     21  C   UNL     1      -0.297  -0.599   1.423  1.00  0.00     0.016 A 
ATOM     22  C   UNL     1       1.810   0.399   2.073  1.00  0.00     0.016 A 
ATOM     23  C   UNL     1      -0.844  -0.288   2.660  1.00  0.00     0.010 A 
ATOM     24  C   UNL     1       1.256   0.729   3.318  1.00  0.00     0.010 A 
ATOM     25  C   UNL     1      -0.083   0.408   3.604  1.00  0.00    -0.014 A 
BRANCH  25  26
ATOM     26  C   UNL     1      -0.769   0.896   4.821  1.00  0.00     0.031 A 
ATOM     27  C   UNL     1      -1.241   2.321   4.875  1.00  0.00     0.074 A 
ATOM     28  C   UNL     1      -1.075   0.039   5.810  1.00  0.00     0.049 A 
ATOM     29  N   UNL     1      -1.911   2.939   5.814  1.00  0.00    -0.248 NA
ATOM     30  C   UNL     1      -0.925   3.160   3.708  1.00  0.00     0.031 C 
ATOM     31  C   UNL     1      -0.727  -1.381   5.830  1.00  0.00     0.029 A 
ATOM     32  N   UNL     1      -1.769   0.234   6.976  1.00  0.00    -0.354 N 
ATOM     33  C   UNL     1      -2.089   4.237   5.357  1.00  0.00     0.074 A 
ATOM     34  C   UNL     1      -1.439   4.327   4.067  1.00  0.00     0.031 C 
ATOM     35  C   UNL     1      -1.221  -1.934   6.950  1.00  0.00     0.029 A 
ATOM     36  C   UNL     1      -1.893  -0.902   7.736  1.00  0.00     0.049 A 
ATOM     37  H   UNL     1      -2.143   1.105   7.242  1.00  0.00     0.167 HD
ATOM     38  C   UNL     1      -2.745   5.259   5.956  1.00  0.00     0.037 A 
ATOM     39  C   UNL     1      -2.479  -1.082   8.934  1.00  0.00     0.037 A 
ATOM     40  C   UNL     1      -3.402   5.163   7.233  1.00  0.00     0.049 A 
ATOM     41  C   UNL     1      -3.155   0.085   9.603  1.00  0.00     0.074 A 
ATOM     42  C   UNL     1      -4.083   6.143   7.932  1.00  0.00     0.029 A 
ATOM     43  N   UNL     1      -3.460   4.009   8.001  1.00  0.00    -0.354 N 
ATOM     44  N   UNL     1      -3.307   1.313   9.171  1.00  0.00    -0.248 NA
ATOM     45  C   UNL     1      -3.743  -0.162  10.927  1.00  0.00     0.031 C 
ATOM     46  C   UNL     1      -4.525   5.591   9.141  1.00  0.00     0.029 A 
ATOM     47  C   UNL     1      -4.153   4.256   9.175  1.00  0.00     0.049 A 
ATOM     48  H   UNL     1      -3.067   3.142   7.749  1.00  0.00     0.167 HD
ATOM     49  C   UNL     1      -4.018   1.981  10.158  1.00  0.00     0.074 A 
ATOM     50  C   UNL     1      -4.288   1.014  11.203  1.00  0.00     0.031 C 
ATOM     51  C   UNL     1      -4.409   3.278  10.201  1.00  0.00     0.037 A 
BRANCH  38  52
ATOM     52  C   UNL     1      -2.752   6.580   5.247  1.00  0.00     0.064 A 
ATOM     53  C   UNL     1      -3.540   6.801   4.107  1.00  0.00     0.173 A 
ATOM     54  C   UNL     1      -1.970   7.643   5.723  1.00  0.00     0.173 A 
ATOM     55  F   UNL     1      -4.291   5.811   3.603  1.00  0.00    -0.203 F 
ATOM     56  C   UNL     1      -3.525   8.033   3.456  1.00  0.00     0.198 A 
ATOM     57  C   UNL     1      -1.977   8.880   5.084  1.00  0.00     0.198 A 
ATOM     58  F   UNL     1      -1.201   7.483   6.810  1.00  0.00    -0.203 F 
ATOM     59  F   UNL     1      -4.250   8.209   2.343  1.00  0.00    -0.200 F 
ATOM     60  C   UNL     1      -2.748   9.071   3.947  1.00  0.00     0.200 A 
ATOM     61  F   UNL     1      -1.231   9.885   5.564  1.00  0.00    -0.200 F 
ATOM     62  F   UNL     1      -2.736  10.256   3.320  1.00  0.00    -0.200 F 
ENDBRANCH  38  52
BRANCH  39  63
ATOM     63  C   UNL     1      -2.443  -2.417   9.584  1.00  0.00     0.064 A 
ATOM     64  C   UNL     1      -3.608  -3.180   9.737  1.00  0.00     0.173 A 
ATOM     65  C   UNL     1      -1.243  -2.947  10.079  1.00  0.00     0.173 A 
ATOM     66  F   UNL     1      -4.784  -2.704   9.302  1.00  0.00    -0.203 F 
ATOM     67  C   UNL     1      -3.576  -4.419  10.375  1.00  0.00     0.198 A 
ATOM     68  C   UNL     1      -1.208  -4.197  10.694  1.00  0.00     0.198 A 
ATOM     69  F   UNL     1      -0.102  -2.253   9.961  1.00  0.00    -0.203 F 
ATOM     70  F   UNL     1      -4.711  -5.111  10.547  1.00  0.00    -0.200 F 
ATOM     71  C   UNL     1      -2.376  -4.928  10.848  1.00  0.00     0.200 A 
ATOM     72  F   UNL     1      -0.045  -4.689  11.140  1.00  0.00    -0.200 F 
ATOM     73  F   UNL     1      -2.346  -6.120  11.460  1.00  0.00    -0.200 F 
ENDBRANCH  39  63
BRANCH  51  74
ATOM     74  C   UNL     1      -5.184   3.716  11.409  1.00  0.00     0.064 A 
ATOM     75  C   UNL     1      -4.563   3.885  12.655  1.00  0.00     0.173 A 
ATOM     76  C   UNL     1      -6.557   3.989  11.313  1.00  0.00     0.173 A 
ATOM     77  F   UNL     1      -3.256   3.622  12.799  1.00  0.00    -0.203 F 
ATOM     78  C   UNL     1      -5.295   4.285  13.769  1.00  0.00     0.198 A 
ATOM     79  C   UNL     1      -7.280   4.413  12.424  1.00  0.00     0.198 A 
ATOM     80  F   UNL     1      -7.195   3.847  10.142  1.00  0.00    -0.203 F 
ATOM     81  F   UNL     1      -4.692   4.393  14.961  1.00  0.00    -0.200 F 
ATOM     82  C   UNL     1      -6.651   4.553  13.652  1.00  0.00     0.200 A 
ATOM     83  F   UNL     1      -8.588   4.681  12.307  1.00  0.00    -0.200 F 
ATOM     84  F   UNL     1      -7.354   4.937  14.726  1.00  0.00    -0.200 F 
ENDBRANCH  51  74
ENDBRANCH  25  26
ENDBRANCH  18  20
ENDBRANCH  17  18
ENDBRANCH  16  17
ENDBRANCH   1  16
TORSDOF 15
