REMARK SMILES CC[C@@H](C)[C@@H](NC(N)=O)C(=O)N1CCC[C@H](C(=O)OCCOC(=O)c2ccc(-c3c4nc(c(-c5c(F)c(F)c(F)c(F)c5F)c5ccc([nH]5)c(-c5c(F)c(F)c(F)c(F)c5F)c5nc(c(-c6c(F)c(F)c(F)c(F)c6F)c6ccc3[nH]6)C=C5)C=C4)cc2)C1
REMARK SMILES IDX 20 1 19 2 17 3 18 4 16 5 12 6 13 7 88 8 14 9 15 10 10 11
REMARK SMILES IDX 11 12 5 13 3 14 4 15 2 16 1 17 6 18 7 19 8 21 9 22 21 25
REMARK SMILES IDX 22 26 23 27 24 28 25 29 26 30 87 31 27 32 86 33 28 34 29 35
REMARK SMILES IDX 30 36 80 37 31 38 85 39 79 40 81 41 32 42 84 43 78 44 77 45
REMARK SMILES IDX 33 47 65 48 45 49 64 50 46 51 49 52 63 53 82 54 47 55 48 56
REMARK SMILES IDX 62 58 83 59 50 60 34 61 35 62 43 63 36 64 37 65 41 66 44 67
REMARK SMILES IDX 38 68 39 69 42 70 40 71 66 72 67 73 75 74 68 75 69 76 73 77
REMARK SMILES IDX 76 78 70 79 71 80 74 81 72 82 51 83 52 84 60 85 53 86 54 87
REMARK SMILES IDX 58 88 61 89 55 90 56 91 59 92 57 93
REMARK H PARENT 6 20 8 23 8 24 81 46 49 57
REMARK Flexibility Score: inf
ROOT
ATOM      1  C   UNL     1       1.385  -3.756   5.590  1.00  0.00     0.274 C 
ENDROOT
BRANCH   1   2
ATOM      2  O   UNL     1       2.429  -4.297   4.758  1.00  0.00    -0.462 OA
BRANCH   2   3
ATOM      3  C   UNL     1       3.021  -3.490   3.848  1.00  0.00     0.310 C 
ATOM      4  O   UNL     1       2.775  -2.298   3.697  1.00  0.00    -0.252 OA
BRANCH   3   5
ATOM      5  C   UNL     1       4.046  -4.219   2.985  1.00  0.00     0.119 C 
ATOM      6  N   UNL     1       2.400  -5.332   1.593  1.00  0.00    -0.340 N 
ATOM      7  C   UNL     1       2.752  -6.673   2.042  1.00  0.00     0.119 C 
ATOM      8  C   UNL     1       3.495  -4.382   1.571  1.00  0.00     0.134 C 
ATOM      9  C   UNL     1       3.471  -6.684   3.389  1.00  0.00     0.022 C 
ATOM     10  C   UNL     1       4.519  -5.574   3.526  1.00  0.00     0.019 C 
BRANCH   6  11
ATOM     11  C   UNL     1       1.060  -4.958   1.520  1.00  0.00     0.245 C 
ATOM     12  O   UNL     1       0.251  -5.348   2.368  1.00  0.00    -0.272 OA
BRANCH  11  13
ATOM     13  C   UNL     1       0.620  -3.971   0.384  1.00  0.00     0.176 C 
BRANCH  13  14
ATOM     14  C   UNL     1       0.688  -2.459   0.746  1.00  0.00     0.018 C 
ATOM     15  C   UNL     1      -0.064  -2.143   2.045  1.00  0.00     0.010 C 
BRANCH  14  16
ATOM     16  C   UNL     1       0.137  -1.570  -0.400  1.00  0.00     0.002 C 
ATOM     17  C   UNL     1       0.560  -0.109  -0.271  1.00  0.00     0.004 C 
ENDBRANCH  14  16
ENDBRANCH  13  14
BRANCH  13  18
ATOM     18  N   UNL     1       1.405  -4.276  -0.822  1.00  0.00    -0.326 N 
ATOM     19  C   UNL     1       1.308  -5.493  -1.427  1.00  0.00     0.312 C 
ATOM     20  H   UNL     1       2.007  -3.593  -1.196  1.00  0.00     0.166 HD
ATOM     21  N   UNL     1       2.071  -5.601  -2.537  1.00  0.00    -0.352 N 
ATOM     22  O   UNL     1       0.642  -6.434  -1.024  1.00  0.00    -0.249 OA
ATOM     23  H   UNL     1       2.601  -4.832  -2.847  1.00  0.00     0.161 HD
ATOM     24  H   UNL     1       2.098  -6.450  -3.035  1.00  0.00     0.161 HD
ENDBRANCH  13  18
ENDBRANCH  11  13
ENDBRANCH   6  11
ENDBRANCH   3   5
ENDBRANCH   2   3
ENDBRANCH   1   2
BRANCH   1  25
ATOM     25  C   UNL     1       1.873  -3.621   7.032  1.00  0.00     0.275 C 
BRANCH  25  26
ATOM     26  O   UNL     1       2.868  -2.585   7.130  1.00  0.00    -0.458 OA
BRANCH  26  27
ATOM     27  C   UNL     1       4.144  -3.002   6.974  1.00  0.00     0.338 C 
ATOM     28  O   UNL     1       4.558  -4.143   6.870  1.00  0.00    -0.246 OA
BRANCH  27  29
ATOM     29  C   UNL     1       5.000  -1.828   6.776  1.00  0.00     0.060 A 
ATOM     30  C   UNL     1       5.544  -1.625   5.506  1.00  0.00     0.016 A 
ATOM     31  C   UNL     1       5.322  -0.982   7.836  1.00  0.00     0.016 A 
ATOM     32  C   UNL     1       6.420  -0.573   5.280  1.00  0.00     0.010 A 
ATOM     33  C   UNL     1       6.206   0.076   7.611  1.00  0.00     0.010 A 
ATOM     34  C   UNL     1       6.766   0.275   6.336  1.00  0.00    -0.014 A 
BRANCH  34  35
ATOM     35  C   UNL     1       7.784   1.323   6.115  1.00  0.00     0.031 A 
ATOM     36  C   UNL     1       9.171   1.116   6.641  1.00  0.00     0.074 A 
ATOM     37  C   UNL     1       7.470   2.425   5.413  1.00  0.00     0.049 A 
ATOM     38  N   UNL     1      10.186   1.941   6.650  1.00  0.00    -0.248 NA
ATOM     39  C   UNL     1       9.455  -0.200   7.235  1.00  0.00     0.031 C 
ATOM     40  C   UNL     1       6.174   2.686   4.788  1.00  0.00     0.029 A 
ATOM     41  N   UNL     1       8.222   3.528   5.106  1.00  0.00    -0.354 N 
ATOM     42  C   UNL     1      11.220   1.255   7.271  1.00  0.00     0.074 A 
ATOM     43  C   UNL     1      10.709  -0.049   7.636  1.00  0.00     0.031 C 
ATOM     44  C   UNL     1       6.221   3.876   4.168  1.00  0.00     0.029 A 
ATOM     45  C   UNL     1       7.530   4.480   4.400  1.00  0.00     0.049 A 
ATOM     46  H   UNL     1       9.166   3.628   5.365  1.00  0.00     0.167 HD
ATOM     47  C   UNL     1      12.482   1.681   7.513  1.00  0.00     0.037 A 
ATOM     48  C   UNL     1       7.907   5.714   4.017  1.00  0.00     0.037 A 
ATOM     49  C   UNL     1      12.978   2.979   7.138  1.00  0.00     0.049 A 
ATOM     50  C   UNL     1       9.286   6.197   4.374  1.00  0.00     0.074 A 
ATOM     51  C   UNL     1      14.234   3.520   7.345  1.00  0.00     0.029 A 
ATOM     52  N   UNL     1      12.232   3.942   6.472  1.00  0.00    -0.354 N 
ATOM     53  N   UNL     1      10.250   5.562   4.995  1.00  0.00    -0.248 NA
ATOM     54  C   UNL     1       9.623   7.574   3.990  1.00  0.00     0.031 C 
ATOM     55  C   UNL     1      14.236   4.825   6.838  1.00  0.00     0.029 A 
ATOM     56  C   UNL     1      12.995   5.081   6.276  1.00  0.00     0.049 A 
ATOM     57  H   UNL     1      11.297   3.832   6.181  1.00  0.00     0.167 HD
ATOM     58  C   UNL     1      11.314   6.450   5.059  1.00  0.00     0.074 A 
ATOM     59  C   UNL     1      10.880   7.667   4.401  1.00  0.00     0.031 C 
ATOM     60  C   UNL     1      12.539   6.278   5.614  1.00  0.00     0.037 A 
BRANCH  47  61
ATOM     61  C   UNL     1      13.391   0.748   8.255  1.00  0.00     0.064 A 
ATOM     62  C   UNL     1      13.915  -0.407   7.654  1.00  0.00     0.173 A 
ATOM     63  C   UNL     1      13.744   1.013   9.586  1.00  0.00     0.173 A 
ATOM     64  F   UNL     1      13.592  -0.716   6.389  1.00  0.00    -0.203 F 
ATOM     65  C   UNL     1      14.734  -1.277   8.370  1.00  0.00     0.198 A 
ATOM     66  C   UNL     1      14.585   0.155  10.290  1.00  0.00     0.198 A 
ATOM     67  F   UNL     1      13.270   2.104  10.207  1.00  0.00    -0.203 F 
ATOM     68  F   UNL     1      15.181  -2.401   7.793  1.00  0.00    -0.200 F 
ATOM     69  C   UNL     1      15.072  -0.993   9.685  1.00  0.00     0.200 A 
ATOM     70  F   UNL     1      14.916   0.435  11.558  1.00  0.00    -0.200 F 
ATOM     71  F   UNL     1      15.860  -1.832  10.372  1.00  0.00    -0.200 F 
ENDBRANCH  47  61
BRANCH  48  72
ATOM     72  C   UNL     1       6.957   6.580   3.273  1.00  0.00     0.064 A 
ATOM     73  C   UNL     1       7.176   6.896   1.926  1.00  0.00     0.173 A 
ATOM     74  C   UNL     1       5.810   7.103   3.890  1.00  0.00     0.173 A 
ATOM     75  F   UNL     1       8.271   6.440   1.301  1.00  0.00    -0.203 F 
ATOM     76  C   UNL     1       6.287   7.708   1.225  1.00  0.00     0.198 A 
ATOM     77  C   UNL     1       4.909   7.893   3.181  1.00  0.00     0.198 A 
ATOM     78  F   UNL     1       5.558   6.832   5.179  1.00  0.00    -0.203 F 
ATOM     79  F   UNL     1       6.537   8.024  -0.053  1.00  0.00    -0.200 F 
ATOM     80  C   UNL     1       5.150   8.200   1.850  1.00  0.00     0.200 A 
ATOM     81  F   UNL     1       3.806   8.356   3.786  1.00  0.00    -0.200 F 
ATOM     82  F   UNL     1       4.292   8.973   1.173  1.00  0.00    -0.200 F 
ENDBRANCH  48  72
BRANCH  60  83
ATOM     83  C   UNL     1      13.503   7.421   5.502  1.00  0.00     0.064 A 
ATOM     84  C   UNL     1      13.361   8.579   6.279  1.00  0.00     0.173 A 
ATOM     85  C   UNL     1      14.601   7.339   4.633  1.00  0.00     0.173 A 
ATOM     86  F   UNL     1      12.317   8.710   7.112  1.00  0.00    -0.203 F 
ATOM     87  C   UNL     1      14.272   9.626   6.172  1.00  0.00     0.198 A 
ATOM     88  C   UNL     1      15.524   8.377   4.548  1.00  0.00     0.198 A 
ATOM     89  F   UNL     1      14.782   6.249   3.873  1.00  0.00    -0.203 F 
ATOM     90  F   UNL     1      14.093  10.744   6.890  1.00  0.00    -0.200 F 
ATOM     91  C   UNL     1      15.356   9.522   5.312  1.00  0.00     0.200 A 
ATOM     92  F   UNL     1      16.576   8.270   3.724  1.00  0.00    -0.200 F 
ATOM     93  F   UNL     1      16.234  10.529   5.214  1.00  0.00    -0.200 F 
ENDBRANCH  60  83
ENDBRANCH  34  35
ENDBRANCH  27  29
ENDBRANCH  26  27
ENDBRANCH  25  26
ENDBRANCH   1  25
TORSDOF 16
