REMARK SMILES CCN(CC(C)(C)O)C(=O)N[C@@H](C(=O)OCCOC(=O)c1ccc(-c2c3nc(c(-c4c(F)c(F)c(F)c(F)c4F)c4ccc([nH]4)c(-c4c(F)c(F)c(F)c(F)c4F)c4nc(c(-c5c(F)c(F)c(F)c(F)c5F)c5ccc2[nH]5)C=C4)C=C3)cc1)C(C)(C)C
REMARK SMILES IDX 15 1 13 2 14 3 12 4 11 5 9 6 10 7 3 9 2 10 1 11 4 12 5 13
REMARK SMILES IDX 6 14 7 15 8 16 84 18 85 19 86 20 87 21 16 22 17 23 18 24
REMARK SMILES IDX 19 25 20 26 21 27 22 28 83 29 23 30 82 31 24 32 25 33 26 34
REMARK SMILES IDX 76 35 27 36 81 37 75 38 77 39 28 40 80 41 74 42 73 43 29 45
REMARK SMILES IDX 61 46 41 47 60 48 42 49 45 50 59 51 78 52 43 53 44 54 58 56
REMARK SMILES IDX 79 57 46 58 30 59 31 60 39 61 32 62 33 63 37 64 40 65 34 66
REMARK SMILES IDX 35 67 38 68 36 69 62 70 63 71 71 72 64 73 65 74 69 75 72 76
REMARK SMILES IDX 66 77 67 78 70 79 68 80 47 81 48 82 56 83 49 84 50 85 54 86
REMARK SMILES IDX 57 87 51 88 52 89 55 90 53 91
REMARK H PARENT 11 8 8 17 77 44 45 55
REMARK Flexibility Score: inf
ROOT
ATOM      1  O   UNL     1       3.077  -1.889   5.937  1.00  0.00    -0.461 OA
ENDROOT
BRANCH   1   2
ATOM      2  C   UNL     1       2.224  -0.857   6.204  1.00  0.00     0.329 C 
ATOM      3  O   UNL     1       1.649  -0.694   7.274  1.00  0.00    -0.250 OA
BRANCH   2   4
ATOM      4  C   UNL     1       1.945   0.026   4.963  1.00  0.00     0.199 C 
BRANCH   4   5
ATOM      5  N   UNL     1       2.551  -0.557   3.766  1.00  0.00    -0.324 N 
ATOM      6  C   UNL     1       2.147  -1.029   2.580  1.00  0.00     0.318 C 
ATOM      7  O   UNL     1       3.069  -1.401   1.846  1.00  0.00    -0.249 OA
ATOM      8  H   UNL     1       3.529  -0.619   3.858  1.00  0.00     0.166 HD
BRANCH   6   9
ATOM      9  N   UNL     1       0.840  -1.091   2.176  1.00  0.00    -0.322 N 
BRANCH   9  10
ATOM     10  C   UNL     1       0.631  -1.427   0.762  1.00  0.00     0.118 C 
ATOM     11  C   UNL     1       0.783  -0.194  -0.121  1.00  0.00     0.027 C 
ENDBRANCH   9  10
BRANCH   9  12
ATOM     12  C   UNL     1      -0.392  -0.807   2.926  1.00  0.00     0.155 C 
BRANCH  12  13
ATOM     13  C   UNL     1      -0.963  -2.000   3.751  1.00  0.00     0.077 C 
ATOM     14  C   UNL     1       0.053  -2.901   4.454  1.00  0.00     0.043 C 
ATOM     15  C   UNL     1      -1.952  -1.464   4.793  1.00  0.00     0.043 C 
BRANCH  13  16
ATOM     16  O   UNL     1      -1.710  -2.844   2.861  1.00  0.00    -0.389 OA
ATOM     17  H   UNL     1      -1.118  -3.205   2.183  1.00  0.00     0.211 HD
ENDBRANCH  13  16
ENDBRANCH  12  13
ENDBRANCH   9  12
ENDBRANCH   6   9
ENDBRANCH   4   5
BRANCH   4  18
ATOM     18  C   UNL     1       2.299   1.542   5.104  1.00  0.00    -0.007 C 
ATOM     19  C   UNL     1       1.944   2.308   3.806  1.00  0.00     0.013 C 
ATOM     20  C   UNL     1       1.461   2.187   6.226  1.00  0.00     0.013 C 
ATOM     21  C   UNL     1       3.799   1.752   5.368  1.00  0.00     0.013 C 
ENDBRANCH   4  18
ENDBRANCH   2   4
ENDBRANCH   1   2
BRANCH   1  22
ATOM     22  C   UNL     1       3.071  -2.977   6.887  1.00  0.00     0.274 C 
BRANCH  22  23
ATOM     23  C   UNL     1       4.310  -2.950   7.776  1.00  0.00     0.275 C 
BRANCH  23  24
ATOM     24  O   UNL     1       4.309  -1.722   8.516  1.00  0.00    -0.458 OA
BRANCH  24  25
ATOM     25  C   UNL     1       5.513  -1.133   8.697  1.00  0.00     0.338 C 
ATOM     26  O   UNL     1       6.605  -1.622   8.466  1.00  0.00    -0.246 OA
BRANCH  25  27
ATOM     27  C   UNL     1       5.321   0.277   9.124  1.00  0.00     0.060 A 
ATOM     28  C   UNL     1       4.130   0.948   8.851  1.00  0.00     0.016 A 
ATOM     29  C   UNL     1       6.393   0.989   9.661  1.00  0.00     0.016 A 
ATOM     30  C   UNL     1       4.060   2.335   8.953  1.00  0.00     0.010 A 
ATOM     31  C   UNL     1       6.277   2.369   9.873  1.00  0.00     0.010 A 
ATOM     32  C   UNL     1       5.131   3.073   9.458  1.00  0.00    -0.014 A 
BRANCH  32  33
ATOM     33  C   UNL     1       5.118   4.566   9.432  1.00  0.00     0.031 A 
ATOM     34  C   UNL     1       6.275   5.295   8.798  1.00  0.00     0.074 A 
ATOM     35  C   UNL     1       4.088   5.296   9.906  1.00  0.00     0.049 A 
ATOM     36  N   UNL     1       6.675   6.528   8.968  1.00  0.00    -0.248 NA
ATOM     37  C   UNL     1       7.108   4.518   7.865  1.00  0.00     0.031 C 
ATOM     38  C   UNL     1       2.833   4.770  10.441  1.00  0.00     0.029 A 
ATOM     39  N   UNL     1       3.935   6.660   9.998  1.00  0.00    -0.354 N 
ATOM     40  C   UNL     1       7.871   6.634   8.269  1.00  0.00     0.074 A 
ATOM     41  C   UNL     1       8.107   5.358   7.631  1.00  0.00     0.031 C 
ATOM     42  C   UNL     1       2.018   5.792  10.746  1.00  0.00     0.029 A 
ATOM     43  C   UNL     1       2.741   7.044  10.557  1.00  0.00     0.049 A 
ATOM     44  H   UNL     1       4.617   7.301   9.692  1.00  0.00     0.167 HD
ATOM     45  C   UNL     1       8.705   7.699   8.199  1.00  0.00     0.037 A 
ATOM     46  C   UNL     1       2.301   8.258  10.942  1.00  0.00     0.037 A 
ATOM     47  C   UNL     1       8.398   8.997   8.738  1.00  0.00     0.049 A 
ATOM     48  C   UNL     1       3.225   9.439  10.834  1.00  0.00     0.074 A 
ATOM     49  C   UNL     1       9.177  10.140   8.751  1.00  0.00     0.029 A 
ATOM     50  N   UNL     1       7.183   9.335   9.315  1.00  0.00    -0.354 N 
ATOM     51  N   UNL     1       4.445   9.495  10.359  1.00  0.00    -0.248 NA
ATOM     52  C   UNL     1       2.726  10.717  11.362  1.00  0.00     0.031 C 
ATOM     53  C   UNL     1       8.434  11.170   9.341  1.00  0.00     0.029 A 
ATOM     54  C   UNL     1       7.183  10.673   9.668  1.00  0.00     0.049 A 
ATOM     55  H   UNL     1       6.431   8.714   9.453  1.00  0.00     0.167 HD
ATOM     56  C   UNL     1       4.864  10.806  10.539  1.00  0.00     0.074 A 
ATOM     57  C   UNL     1       3.755  11.522  11.136  1.00  0.00     0.031 C 
ATOM     58  C   UNL     1       6.066  11.364  10.255  1.00  0.00     0.037 A 
BRANCH  45  59
ATOM     59  C   UNL     1      10.051   7.487   7.574  1.00  0.00     0.064 A 
ATOM     60  C   UNL     1      10.228   7.364   6.190  1.00  0.00     0.173 A 
ATOM     61  C   UNL     1      11.192   7.433   8.391  1.00  0.00     0.173 A 
ATOM     62  F   UNL     1       9.167   7.388   5.370  1.00  0.00    -0.203 F 
ATOM     63  C   UNL     1      11.497   7.172   5.647  1.00  0.00     0.198 A 
ATOM     64  C   UNL     1      12.461   7.268   7.843  1.00  0.00     0.198 A 
ATOM     65  F   UNL     1      11.077   7.547   9.723  1.00  0.00    -0.203 F 
ATOM     66  F   UNL     1      11.640   7.013   4.324  1.00  0.00    -0.200 F 
ATOM     67  C   UNL     1      12.612   7.132   6.472  1.00  0.00     0.200 A 
ATOM     68  F   UNL     1      13.536   7.239   8.642  1.00  0.00    -0.200 F 
ATOM     69  F   UNL     1      13.832   6.954   5.946  1.00  0.00    -0.200 F 
ENDBRANCH  45  59
BRANCH  46  70
ATOM     70  C   UNL     1       0.949   8.401  11.542  1.00  0.00     0.064 A 
ATOM     71  C   UNL     1      -0.069   9.088  10.867  1.00  0.00     0.173 A 
ATOM     72  C   UNL     1       0.643   7.850  12.796  1.00  0.00     0.173 A 
ATOM     73  F   UNL     1       0.183   9.660   9.681  1.00  0.00    -0.203 F 
ATOM     74  C   UNL     1      -1.340   9.218  11.423  1.00  0.00     0.198 A 
ATOM     75  C   UNL     1      -0.636   7.953  13.336  1.00  0.00     0.198 A 
ATOM     76  F   UNL     1       1.584   7.188  13.486  1.00  0.00    -0.203 F 
ATOM     77  F   UNL     1      -2.285   9.910  10.773  1.00  0.00    -0.200 F 
ATOM     78  C   UNL     1      -1.625   8.641  12.652  1.00  0.00     0.200 A 
ATOM     79  F   UNL     1      -0.910   7.381  14.516  1.00  0.00    -0.200 F 
ATOM     80  F   UNL     1      -2.852   8.754  13.179  1.00  0.00    -0.200 F 
ENDBRANCH  46  70
BRANCH  58  81
ATOM     81  C   UNL     1       6.230  12.819  10.567  1.00  0.00     0.064 A 
ATOM     82  C   UNL     1       6.426  13.265  11.882  1.00  0.00     0.173 A 
ATOM     83  C   UNL     1       6.217  13.772   9.539  1.00  0.00     0.173 A 
ATOM     84  F   UNL     1       6.429  12.389  12.898  1.00  0.00    -0.203 F 
ATOM     85  C   UNL     1       6.583  14.620  12.159  1.00  0.00     0.198 A 
ATOM     86  C   UNL     1       6.393  15.124   9.817  1.00  0.00     0.198 A 
ATOM     87  F   UNL     1       6.035  13.390   8.266  1.00  0.00    -0.203 F 
ATOM     88  F   UNL     1       6.730  15.030  13.426  1.00  0.00    -0.200 F 
ATOM     89  C   UNL     1       6.570  15.547  11.127  1.00  0.00     0.200 A 
ATOM     90  F   UNL     1       6.386  16.018   8.820  1.00  0.00    -0.200 F 
ATOM     91  F   UNL     1       6.720  16.851  11.395  1.00  0.00    -0.200 F 
ENDBRANCH  58  81
ENDBRANCH  32  33
ENDBRANCH  25  27
ENDBRANCH  24  25
ENDBRANCH  23  24
ENDBRANCH  22  23
ENDBRANCH   1  22
TORSDOF 18
