REMARK SMILES CC(C)C[C@H](C(=O)OCCOC(=O)c1ccc(-c2c3nc(c(-c4c(F)c(F)c(F)c(F)c4F)c4ccc([nH]4)c(-c4c(F)c(F)c(F)c(F)c4F)c4nc(c(-c5c(F)c(F)c(F)c(F)c5F)c5ccc2[nH]5)C=C4)C=C3)cc1)N1C(=O)/C(=C/C2=c3ccccc3=NC2)SC1=S
REMARK SMILES IDX 9 1 8 2 6 3 7 4 5 5 4 6 2 7 1 8 3 9 77 10 78 11 92 12 79 13
REMARK SMILES IDX 80 14 91 15 93 16 81 17 82 18 83 19 90 20 84 21 88 22 89 23
REMARK SMILES IDX 85 24 87 25 86 26 10 27 11 28 12 29 13 30 14 31 15 32 76 33
REMARK SMILES IDX 16 34 75 35 17 36 18 37 19 38 69 39 20 40 74 41 68 42 70 43
REMARK SMILES IDX 21 44 73 45 67 46 66 47 22 49 54 50 34 51 53 52 35 53 38 54
REMARK SMILES IDX 52 55 71 56 36 57 37 58 51 60 72 61 39 62 23 63 24 64 32 65
REMARK SMILES IDX 25 66 26 67 30 68 33 69 27 70 28 71 31 72 29 73 55 74 56 75
REMARK SMILES IDX 64 76 57 77 58 78 62 79 65 80 59 81 60 82 63 83 61 84 40 85
REMARK SMILES IDX 41 86 49 87 42 88 43 89 47 90 50 91 44 92 45 93 48 94 46 95
REMARK H PARENT 70 48 38 59
REMARK Flexibility Score: inf
ROOT
ATOM      1  C   UNL     1      -1.394   2.649  -1.302  1.00  0.00     0.274 C 
ENDROOT
BRANCH   1   2
ATOM      2  O   UNL     1      -1.958   1.996  -0.142  1.00  0.00    -0.461 OA
BRANCH   2   3
ATOM      3  C   UNL     1      -1.407   0.800   0.186  1.00  0.00     0.329 C 
ATOM      4  O   UNL     1      -0.486   0.281  -0.438  1.00  0.00    -0.250 OA
BRANCH   3   5
ATOM      5  C   UNL     1      -1.957   0.184   1.481  1.00  0.00     0.202 C 
BRANCH   5   6
ATOM      6  C   UNL     1      -1.212   0.608   2.763  1.00  0.00     0.040 C 
BRANCH   6   7
ATOM      7  C   UNL     1      -1.713  -0.080   4.055  1.00  0.00    -0.015 C 
ATOM      8  C   UNL     1      -1.386  -1.574   4.055  1.00  0.00     0.007 C 
ATOM      9  C   UNL     1      -1.099   0.591   5.284  1.00  0.00     0.007 C 
ENDBRANCH   6   7
ENDBRANCH   5   6
BRANCH   5  10
ATOM     10  N   UNL     1      -3.414   0.266   1.610  1.00  0.00    -0.278 N 
ATOM     11  C   UNL     1      -4.144  -0.822   1.144  1.00  0.00     0.266 C 
ATOM     12  C   UNL     1      -4.150   1.290   2.170  1.00  0.00     0.149 C 
ATOM     13  O   UNL     1      -3.706  -1.791   0.541  1.00  0.00    -0.268 OA
ATOM     14  C   UNL     1      -5.578  -0.614   1.432  1.00  0.00     0.080 C 
ATOM     15  S   UNL     1      -5.735   0.663   2.575  1.00  0.00    -0.054 SA
ATOM     16  S   UNL     1      -3.754   2.876   2.484  1.00  0.00    -0.052 S 
ATOM     17  C   UNL     1      -6.557  -1.249   0.771  1.00  0.00     0.027 C 
BRANCH  17  18
ATOM     18  C   UNL     1      -7.950  -0.894   0.887  1.00  0.00    -0.016 C 
ATOM     19  C   UNL     1      -8.470   0.324   0.737  1.00  0.00     0.005 A 
ATOM     20  C   UNL     1      -9.000  -1.869   1.321  1.00  0.00     0.179 C 
ATOM     21  C   UNL     1      -7.957   1.605   0.357  1.00  0.00     0.011 A 
ATOM     22  C   UNL     1      -9.824   0.156   1.280  1.00  0.00     0.065 A 
ATOM     23  N   UNL     1     -10.208  -1.045   1.594  1.00  0.00    -0.280 NA
ATOM     24  C   UNL     1      -8.701   2.695   0.596  1.00  0.00     0.001 A 
ATOM     25  C   UNL     1     -10.595   1.404   1.485  1.00  0.00     0.028 A 
ATOM     26  C   UNL     1     -10.025   2.584   1.183  1.00  0.00     0.002 A 
ENDBRANCH  17  18
ENDBRANCH   5  10
ENDBRANCH   3   5
ENDBRANCH   2   3
ENDBRANCH   1   2
BRANCH   1  27
ATOM     27  C   UNL     1      -0.288   3.638  -0.924  1.00  0.00     0.275 C 
BRANCH  27  28
ATOM     28  O   UNL     1       0.840   2.946  -0.355  1.00  0.00    -0.458 OA
BRANCH  28  29
ATOM     29  C   UNL     1       1.098   3.220   0.943  1.00  0.00     0.338 C 
ATOM     30  O   UNL     1       0.509   4.003   1.668  1.00  0.00    -0.246 OA
BRANCH  29  31
ATOM     31  C   UNL     1       2.195   2.377   1.442  1.00  0.00     0.060 A 
ATOM     32  C   UNL     1       2.010   1.001   1.525  1.00  0.00     0.016 A 
ATOM     33  C   UNL     1       3.317   2.961   2.025  1.00  0.00     0.016 A 
ATOM     34  C   UNL     1       2.849   0.225   2.312  1.00  0.00     0.010 A 
ATOM     35  C   UNL     1       4.243   2.155   2.697  1.00  0.00     0.010 A 
ATOM     36  C   UNL     1       3.994   0.784   2.886  1.00  0.00    -0.014 A 
BRANCH  36  37
ATOM     37  C   UNL     1       4.910  -0.070   3.687  1.00  0.00     0.031 A 
ATOM     38  C   UNL     1       5.213   0.277   5.119  1.00  0.00     0.074 A 
ATOM     39  C   UNL     1       5.454  -1.172   3.134  1.00  0.00     0.049 A 
ATOM     40  N   UNL     1       6.126  -0.220   5.915  1.00  0.00    -0.248 NA
ATOM     41  C   UNL     1       4.388   1.327   5.735  1.00  0.00     0.031 C 
ATOM     42  C   UNL     1       5.196  -1.656   1.776  1.00  0.00     0.029 A 
ATOM     43  N   UNL     1       6.335  -2.092   3.647  1.00  0.00    -0.354 N 
ATOM     44  C   UNL     1       6.025   0.496   7.101  1.00  0.00     0.074 A 
ATOM     45  C   UNL     1       4.958   1.459   6.925  1.00  0.00     0.031 C 
ATOM     46  C   UNL     1       5.870  -2.796   1.576  1.00  0.00     0.029 A 
ATOM     47  C   UNL     1       6.689  -3.068   2.749  1.00  0.00     0.049 A 
ATOM     48  H   UNL     1       6.679  -2.055   4.569  1.00  0.00     0.167 HD
ATOM     49  C   UNL     1       6.764   0.362   8.228  1.00  0.00     0.037 A 
ATOM     50  C   UNL     1       7.613  -4.043   2.833  1.00  0.00     0.037 A 
ATOM     51  C   UNL     1       7.790  -0.634   8.408  1.00  0.00     0.049 A 
ATOM     52  C   UNL     1       8.442  -4.149   4.078  1.00  0.00     0.074 A 
ATOM     53  C   UNL     1       8.598  -0.856   9.509  1.00  0.00     0.029 A 
ATOM     54  N   UNL     1       8.135  -1.588   7.461  1.00  0.00    -0.354 N 
ATOM     55  N   UNL     1       8.394  -3.420   5.166  1.00  0.00    -0.248 NA
ATOM     56  C   UNL     1       9.468  -5.199   4.101  1.00  0.00     0.031 C 
ATOM     57  C   UNL     1       9.453  -1.924   9.217  1.00  0.00     0.029 A 
ATOM     58  C   UNL     1       9.150  -2.394   7.949  1.00  0.00     0.049 A 
ATOM     59  H   UNL     1       7.720  -1.678   6.573  1.00  0.00     0.167 HD
ATOM     60  C   UNL     1       9.376  -3.923   6.005  1.00  0.00     0.074 A 
ATOM     61  C   UNL     1       9.990  -5.036   5.308  1.00  0.00     0.031 C 
ATOM     62  C   UNL     1       9.744  -3.496   7.237  1.00  0.00     0.037 A 
BRANCH  49  63
ATOM     63  C   UNL     1       6.520   1.337   9.343  1.00  0.00     0.064 A 
ATOM     64  C   UNL     1       5.373   1.278  10.146  1.00  0.00     0.173 A 
ATOM     65  C   UNL     1       7.473   2.327   9.632  1.00  0.00     0.173 A 
ATOM     66  F   UNL     1       4.425   0.361   9.902  1.00  0.00    -0.203 F 
ATOM     67  C   UNL     1       5.178   2.187  11.184  1.00  0.00     0.198 A 
ATOM     68  C   UNL     1       7.288   3.217  10.686  1.00  0.00     0.198 A 
ATOM     69  F   UNL     1       8.591   2.425   8.896  1.00  0.00    -0.203 F 
ATOM     70  F   UNL     1       4.055   2.138  11.914  1.00  0.00    -0.200 F 
ATOM     71  C   UNL     1       6.138   3.151  11.458  1.00  0.00     0.200 A 
ATOM     72  F   UNL     1       8.222   4.140  10.955  1.00  0.00    -0.200 F 
ATOM     73  F   UNL     1       5.952   4.020  12.461  1.00  0.00    -0.200 F 
ENDBRANCH  49  63
BRANCH  50  74
ATOM     74  C   UNL     1       7.832  -4.949   1.676  1.00  0.00     0.064 A 
ATOM     75  C   UNL     1       7.478  -6.302   1.742  1.00  0.00     0.173 A 
ATOM     76  C   UNL     1       8.375  -4.473   0.472  1.00  0.00     0.173 A 
ATOM     77  F   UNL     1       6.978  -6.809   2.878  1.00  0.00    -0.203 F 
ATOM     78  C   UNL     1       7.662  -7.147   0.649  1.00  0.00     0.198 A 
ATOM     79  C   UNL     1       8.529  -5.310  -0.629  1.00  0.00     0.198 A 
ATOM     80  F   UNL     1       8.728  -3.184   0.358  1.00  0.00    -0.203 F 
ATOM     81  F   UNL     1       7.347  -8.445   0.748  1.00  0.00    -0.200 F 
ATOM     82  C   UNL     1       8.178  -6.648  -0.539  1.00  0.00     0.200 A 
ATOM     83  F   UNL     1       9.011  -4.819  -1.779  1.00  0.00    -0.200 F 
ATOM     84  F   UNL     1       8.341  -7.457  -1.594  1.00  0.00    -0.200 F 
ENDBRANCH  50  74
BRANCH  62  85
ATOM     85  C   UNL     1      10.843  -4.256   7.915  1.00  0.00     0.064 A 
ATOM     86  C   UNL     1      12.181  -4.118   7.518  1.00  0.00     0.173 A 
ATOM     87  C   UNL     1      10.556  -5.114   8.986  1.00  0.00     0.173 A 
ATOM     88  F   UNL     1      12.500  -3.324   6.485  1.00  0.00    -0.203 F 
ATOM     89  C   UNL     1      13.191  -4.832   8.156  1.00  0.00     0.198 A 
ATOM     90  C   UNL     1      11.572  -5.807   9.638  1.00  0.00     0.198 A 
ATOM     91  F   UNL     1       9.291  -5.276   9.403  1.00  0.00    -0.203 F 
ATOM     92  F   UNL     1      14.457  -4.721   7.732  1.00  0.00    -0.200 F 
ATOM     93  C   UNL     1      12.886  -5.670   9.218  1.00  0.00     0.200 A 
ATOM     94  F   UNL     1      11.278  -6.611  10.669  1.00  0.00    -0.200 F 
ATOM     95  F   UNL     1      13.861  -6.356   9.832  1.00  0.00    -0.200 F 
ENDBRANCH  62  85
ENDBRANCH  36  37
ENDBRANCH  29  31
ENDBRANCH  28  29
ENDBRANCH  27  28
ENDBRANCH   1  27
TORSDOF 15
