REMARK SMILES Cc1ccc(C(=O)OCCOC(=O)c2ccc(-c3c4nc(c(-c5c(F)c(F)c(F)c(F)c5F)c5ccc([nH]5)c(-c5c(F)c(F)c(F)c(F)c5F)c5nc(c(-c6c(F)c(F)c(F)c(F)c6F)c6ccc3[nH]6)C=C5)C=C4)cc2)cc1NC(=O)c1ccc(Br)o1
REMARK SMILES IDX 9 1 8 2 6 3 7 4 5 5 1 6 2 7 3 8 78 9 4 10 77 11 79 12 80 13
REMARK SMILES IDX 81 15 82 16 83 17 87 18 84 19 85 20 86 21 10 22 11 23 12 24
REMARK SMILES IDX 13 25 14 26 15 27 76 28 16 29 75 30 17 31 18 32 19 33 69 34
REMARK SMILES IDX 20 35 74 36 68 37 70 38 21 39 73 40 67 41 66 42 22 44 54 45
REMARK SMILES IDX 34 46 53 47 35 48 38 49 52 50 71 51 36 52 37 53 51 55 72 56
REMARK SMILES IDX 39 57 23 58 24 59 32 60 25 61 26 62 30 63 33 64 27 65 28 66
REMARK SMILES IDX 31 67 29 68 55 69 56 70 64 71 57 72 58 73 62 74 65 75 59 76
REMARK SMILES IDX 60 77 63 78 61 79 40 80 41 81 49 82 42 83 43 84 47 85 50 86
REMARK SMILES IDX 44 87 45 88 48 89 46 90
REMARK H PARENT 79 14 70 43 38 54
REMARK Flexibility Score: inf
ROOT
ATOM      1  C   UNL     1      -4.607   1.581  -2.294  1.00  0.00     0.275 C 
ENDROOT
BRANCH   1   2
ATOM      2  O   UNL     1      -3.306   0.992  -2.443  1.00  0.00    -0.458 OA
BRANCH   2   3
ATOM      3  C   UNL     1      -2.575   1.067  -1.309  1.00  0.00     0.338 C 
ATOM      4  O   UNL     1      -2.950   1.505  -0.230  1.00  0.00    -0.246 OA
BRANCH   3   5
ATOM      5  C   UNL     1      -1.151   0.774  -1.477  1.00  0.00     0.062 A 
ATOM      6  C   UNL     1       2.871   0.523   0.002  1.00  0.00     0.046 C 
ATOM      7  C   UNL     1       1.484   0.687  -0.561  1.00  0.00    -0.027 A 
ATOM      8  C   UNL     1       0.741  -0.501  -0.758  1.00  0.00     0.006 A 
ATOM      9  C   UNL     1       0.876   1.927  -0.840  1.00  0.00     0.045 A 
ATOM     10  C   UNL     1      -0.594  -0.457  -1.163  1.00  0.00     0.016 A 
ATOM     11  C   UNL     1      -0.382   1.929  -1.429  1.00  0.00     0.042 A 
BRANCH   9  12
ATOM     12  N   UNL     1       1.486   3.153  -0.498  1.00  0.00    -0.319 N 
ATOM     13  C   UNL     1       0.934   4.421  -0.327  1.00  0.00     0.291 C 
ATOM     14  H   UNL     1       2.459   3.104  -0.358  1.00  0.00     0.170 HD
ATOM     15  O   UNL     1       1.712   5.374  -0.264  1.00  0.00    -0.265 OA
BRANCH  13  16
ATOM     16  C   UNL     1      -0.497   4.580  -0.137  1.00  0.00     0.193 A 
ATOM     17  C   UNL     1      -1.365   4.071   0.812  1.00  0.00     0.057 A 
ATOM     18  O   UNL     1      -1.211   5.310  -1.054  1.00  0.00    -0.444 OA
ATOM     19  C   UNL     1      -2.670   4.487   0.441  1.00  0.00     0.059 A 
ATOM     20  C   UNL     1      -2.525   5.219  -0.712  1.00  0.00     0.170 A 
ATOM     21  Br  UNL     1      -3.941   5.929  -1.697  1.00  0.00    -0.008 Br
ENDBRANCH  13  16
ENDBRANCH   9  12
ENDBRANCH   3   5
ENDBRANCH   2   3
ENDBRANCH   1   2
BRANCH   1  22
ATOM     22  C   UNL     1      -5.725   0.781  -2.971  1.00  0.00     0.275 C 
BRANCH  22  23
ATOM     23  O   UNL     1      -5.757  -0.672  -2.899  1.00  0.00    -0.458 OA
BRANCH  23  24
ATOM     24  C   UNL     1      -4.952  -1.449  -2.145  1.00  0.00     0.338 C 
ATOM     25  O   UNL     1      -4.349  -2.420  -2.595  1.00  0.00    -0.246 OA
BRANCH  24  26
ATOM     26  C   UNL     1      -4.880  -1.114  -0.717  1.00  0.00     0.060 A 
ATOM     27  C   UNL     1      -3.763  -1.544   0.026  1.00  0.00     0.016 A 
ATOM     28  C   UNL     1      -5.852  -0.290  -0.156  1.00  0.00     0.016 A 
ATOM     29  C   UNL     1      -3.568  -1.081   1.317  1.00  0.00     0.010 A 
ATOM     30  C   UNL     1      -5.598   0.282   1.058  1.00  0.00     0.010 A 
ATOM     31  C   UNL     1      -4.502  -0.177   1.810  1.00  0.00    -0.014 A 
BRANCH  31  32
ATOM     32  C   UNL     1      -4.691   0.052   3.227  1.00  0.00     0.031 A 
ATOM     33  C   UNL     1      -4.035   1.182   3.888  1.00  0.00     0.074 A 
ATOM     34  C   UNL     1      -5.734  -0.703   3.639  1.00  0.00     0.049 A 
ATOM     35  N   UNL     1      -3.866   1.318   5.152  1.00  0.00    -0.248 NA
ATOM     36  C   UNL     1      -3.436   2.280   3.136  1.00  0.00     0.031 C 
ATOM     37  C   UNL     1      -6.657  -0.604   4.747  1.00  0.00     0.029 A 
ATOM     38  N   UNL     1      -6.106  -1.915   3.014  1.00  0.00    -0.354 N 
ATOM     39  C   UNL     1      -3.589   2.658   5.369  1.00  0.00     0.074 A 
ATOM     40  C   UNL     1      -3.123   3.152   4.101  1.00  0.00     0.031 C 
ATOM     41  C   UNL     1      -7.208  -1.822   4.942  1.00  0.00     0.029 A 
ATOM     42  C   UNL     1      -6.542  -2.756   4.034  1.00  0.00     0.049 A 
ATOM     43  H   UNL     1      -6.064  -2.123   2.052  1.00  0.00     0.167 HD
ATOM     44  C   UNL     1      -4.057   3.232   6.518  1.00  0.00     0.037 A 
ATOM     45  C   UNL     1      -5.683  -3.757   4.396  1.00  0.00     0.037 A 
ATOM     46  C   UNL     1      -4.761   2.207   7.290  1.00  0.00     0.049 A 
ATOM     47  C   UNL     1      -5.132  -3.462   5.770  1.00  0.00     0.074 A 
ATOM     48  C   UNL     1      -6.106   1.877   7.341  1.00  0.00     0.029 A 
ATOM     49  N   UNL     1      -4.062   1.096   7.750  1.00  0.00    -0.354 N 
ATOM     50  N   UNL     1      -4.829  -2.267   6.209  1.00  0.00    -0.248 NA
ATOM     51  C   UNL     1      -5.024  -4.496   6.788  1.00  0.00     0.031 C 
ATOM     52  C   UNL     1      -6.203   0.522   7.750  1.00  0.00     0.029 A 
ATOM     53  C   UNL     1      -4.921   0.024   7.918  1.00  0.00     0.049 A 
ATOM     54  H   UNL     1      -3.095   1.075   7.931  1.00  0.00     0.167 HD
ATOM     55  C   UNL     1      -4.606  -2.341   7.559  1.00  0.00     0.074 A 
ATOM     56  C   UNL     1      -4.703  -3.760   7.864  1.00  0.00     0.031 C 
ATOM     57  C   UNL     1      -4.417  -1.258   8.371  1.00  0.00     0.037 A 
BRANCH  44  58
ATOM     58  C   UNL     1      -4.236   4.718   6.782  1.00  0.00     0.064 A 
ATOM     59  C   UNL     1      -5.194   5.159   7.728  1.00  0.00     0.173 A 
ATOM     60  C   UNL     1      -3.534   5.758   6.143  1.00  0.00     0.173 A 
ATOM     61  F   UNL     1      -5.878   4.295   8.489  1.00  0.00    -0.203 F 
ATOM     62  C   UNL     1      -5.490   6.508   7.942  1.00  0.00     0.198 A 
ATOM     63  C   UNL     1      -3.844   7.113   6.344  1.00  0.00     0.198 A 
ATOM     64  F   UNL     1      -2.494   5.510   5.340  1.00  0.00    -0.203 F 
ATOM     65  F   UNL     1      -6.428   6.848   8.839  1.00  0.00    -0.200 F 
ATOM     66  C   UNL     1      -4.829   7.487   7.235  1.00  0.00     0.200 A 
ATOM     67  F   UNL     1      -3.173   8.057   5.668  1.00  0.00    -0.200 F 
ATOM     68  F   UNL     1      -5.122   8.780   7.430  1.00  0.00    -0.200 F 
ENDBRANCH  44  58
BRANCH  45  69
ATOM     69  C   UNL     1      -4.917  -4.354   3.242  1.00  0.00     0.064 A 
ATOM     70  C   UNL     1      -5.637  -4.787   2.100  1.00  0.00     0.173 A 
ATOM     71  C   UNL     1      -3.526  -4.274   3.102  1.00  0.00     0.173 A 
ATOM     72  F   UNL     1      -6.976  -4.896   2.154  1.00  0.00    -0.203 F 
ATOM     73  C   UNL     1      -5.018  -5.019   0.870  1.00  0.00     0.198 A 
ATOM     74  C   UNL     1      -2.903  -4.532   1.869  1.00  0.00     0.198 A 
ATOM     75  F   UNL     1      -2.760  -3.870   4.124  1.00  0.00    -0.203 F 
ATOM     76  F   UNL     1      -5.760  -5.309  -0.209  1.00  0.00    -0.200 F 
ATOM     77  C   UNL     1      -3.650  -4.880   0.753  1.00  0.00     0.200 A 
ATOM     78  F   UNL     1      -1.579  -4.356   1.739  1.00  0.00    -0.200 F 
ATOM     79  F   UNL     1      -3.054  -5.022  -0.441  1.00  0.00    -0.200 F 
ENDBRANCH  45  69
BRANCH  57  80
ATOM     80  C   UNL     1      -3.813  -1.325   9.747  1.00  0.00     0.064 A 
ATOM     81  C   UNL     1      -2.899  -2.318  10.129  1.00  0.00     0.173 A 
ATOM     82  C   UNL     1      -3.991  -0.264  10.667  1.00  0.00     0.173 A 
ATOM     83  F   UNL     1      -2.541  -3.300   9.290  1.00  0.00    -0.203 F 
ATOM     84  C   UNL     1      -2.272  -2.297  11.372  1.00  0.00     0.198 A 
ATOM     85  C   UNL     1      -3.297  -0.202  11.870  1.00  0.00     0.198 A 
ATOM     86  F   UNL     1      -4.812   0.767  10.412  1.00  0.00    -0.203 F 
ATOM     87  F   UNL     1      -1.457  -3.303  11.716  1.00  0.00    -0.200 F 
ATOM     88  C   UNL     1      -2.457  -1.232  12.234  1.00  0.00     0.200 A 
ATOM     89  F   UNL     1      -3.430   0.873  12.659  1.00  0.00    -0.200 F 
ATOM     90  F   UNL     1      -1.807  -1.189  13.403  1.00  0.00    -0.200 F 
ENDBRANCH  57  80
ENDBRANCH  31  32
ENDBRANCH  24  26
ENDBRANCH  23  24
ENDBRANCH  22  23
ENDBRANCH   1  22
TORSDOF 13
