REMARK SMILES CCCCS[C@@H]1CCC[C@]([NH3+])(C(=O)OCCOC(=O)c2ccc(-c3c4nc(c(-c5c(F)c(F)c(F)c(F)c5F)c5ccc([nH]5)c(-c5c(F)c(F)c(F)c(F)c5F)c5nc(c(-c6c(F)c(F)c(F)c(F)c6F)c6ccc3[nH]6)C=C5)C=C4)cc2)C1
REMARK SMILES IDX 15 1 14 2 12 3 13 4 10 5 6 6 7 7 83 8 8 9 9 10 5 11 4 12
REMARK SMILES IDX 3 13 2 14 1 15 11 16 16 20 17 21 18 22 19 23 20 24 21 25
REMARK SMILES IDX 82 26 22 27 81 28 23 29 24 30 25 31 75 32 26 33 80 34 74 35
REMARK SMILES IDX 76 36 27 37 79 38 73 39 72 40 28 42 60 43 40 44 59 45 41 46
REMARK SMILES IDX 44 47 58 48 77 49 42 50 43 51 57 53 78 54 45 55 29 56 30 57
REMARK SMILES IDX 38 58 31 59 32 60 36 61 39 62 33 63 34 64 37 65 35 66 61 67
REMARK SMILES IDX 62 68 70 69 63 70 64 71 68 72 71 73 65 74 66 75 69 76 67 77
REMARK SMILES IDX 46 78 47 79 55 80 48 81 49 82 53 83 56 84 50 85 51 86 54 87
REMARK SMILES IDX 52 88
REMARK H PARENT 11 17 11 18 11 19 76 41 44 52
REMARK Flexibility Score: inf
ROOT
ATOM      1  C   UNL     1      -0.703  -1.406   4.607  1.00  0.00     0.274 C 
ENDROOT
BRANCH   1   2
ATOM      2  O   UNL     1      -1.284  -1.316   3.288  1.00  0.00    -0.457 OA
BRANCH   2   3
ATOM      3  C   UNL     1      -1.535  -0.048   2.847  1.00  0.00     0.368 C 
ATOM      4  O   UNL     1      -1.276   0.969   3.483  1.00  0.00    -0.245 OA
BRANCH   3   5
ATOM      5  C   UNL     1      -2.342  -0.041   1.519  1.00  0.00     0.193 C 
ATOM      6  C   UNL     1      -2.604  -0.986  -0.838  1.00  0.00     0.053 C 
ATOM      7  C   UNL     1      -2.566   0.419  -1.447  1.00  0.00     0.015 C 
ATOM      8  C   UNL     1      -1.846  -1.091   0.499  1.00  0.00     0.095 C 
ATOM      9  C   UNL     1      -2.976   1.492  -0.442  1.00  0.00     0.008 C 
ATOM     10  C   UNL     1      -2.220   1.361   0.878  1.00  0.00     0.081 C 
BRANCH   6  11
ATOM     11  S   UNL     1      -2.174  -2.260  -2.095  1.00  0.00    -0.158 SA
BRANCH  11  12
ATOM     12  C   UNL     1      -0.353  -2.338  -2.062  1.00  0.00     0.070 C 
BRANCH  12  13
ATOM     13  C   UNL     1       0.366  -1.203  -2.795  1.00  0.00     0.011 C 
BRANCH  13  14
ATOM     14  C   UNL     1       1.168  -0.255  -1.899  1.00  0.00    -0.003 C 
ATOM     15  C   UNL     1       2.147  -0.976  -0.986  1.00  0.00     0.004 C 
ENDBRANCH  13  14
ENDBRANCH  12  13
ENDBRANCH  11  12
ENDBRANCH   6  11
BRANCH   5  16
ATOM     16  N   UNL     1      -3.761  -0.304   1.864  1.00  0.00    -0.343 N 
ATOM     17  H   UNL     1      -4.323  -0.307   1.013  1.00  0.00     0.345 HD
ATOM     18  H   UNL     1      -4.099   0.425   2.492  1.00  0.00     0.345 HD
ATOM     19  H   UNL     1      -3.837  -1.211   2.325  1.00  0.00     0.345 HD
ENDBRANCH   5  16
ENDBRANCH   3   5
ENDBRANCH   2   3
ENDBRANCH   1   2
BRANCH   1  20
ATOM     20  C   UNL     1       0.816  -1.540   4.535  1.00  0.00     0.275 C 
BRANCH  20  21
ATOM     21  O   UNL     1       1.360  -0.423   3.815  1.00  0.00    -0.458 OA
BRANCH  21  22
ATOM     22  C   UNL     1       2.409  -0.699   3.011  1.00  0.00     0.338 C 
ATOM     23  O   UNL     1       2.992  -1.769   2.908  1.00  0.00    -0.246 OA
BRANCH  22  24
ATOM     24  C   UNL     1       2.779   0.499   2.227  1.00  0.00     0.060 A 
ATOM     25  C   UNL     1       1.809   1.395   1.766  1.00  0.00     0.016 A 
ATOM     26  C   UNL     1       4.115   0.678   1.863  1.00  0.00     0.016 A 
ATOM     27  C   UNL     1       2.166   2.443   0.915  1.00  0.00     0.010 A 
ATOM     28  C   UNL     1       4.482   1.766   1.066  1.00  0.00     0.010 A 
ATOM     29  C   UNL     1       3.510   2.655   0.576  1.00  0.00    -0.014 A 
BRANCH  29  30
ATOM     30  C   UNL     1       3.924   3.823  -0.245  1.00  0.00     0.031 A 
ATOM     31  C   UNL     1       4.602   3.628  -1.573  1.00  0.00     0.074 A 
ATOM     32  C   UNL     1       3.742   5.069   0.234  1.00  0.00     0.049 A 
ATOM     33  N   UNL     1       5.239   4.500  -2.314  1.00  0.00    -0.248 NA
ATOM     34  C   UNL     1       4.561   2.274  -2.143  1.00  0.00     0.031 C 
ATOM     35  C   UNL     1       3.065   5.404   1.488  1.00  0.00     0.029 A 
ATOM     36  N   UNL     1       4.134   6.285  -0.268  1.00  0.00    -0.354 N 
ATOM     37  C   UNL     1       5.703   3.794  -3.417  1.00  0.00     0.074 A 
ATOM     38  C   UNL     1       5.270   2.422  -3.255  1.00  0.00     0.031 C 
ATOM     39  C   UNL     1       3.086   6.734   1.657  1.00  0.00     0.029 A 
ATOM     40  C   UNL     1       3.852   7.335   0.571  1.00  0.00     0.049 A 
ATOM     41  H   UNL     1       4.572   6.394  -1.143  1.00  0.00     0.167 HD
ATOM     42  C   UNL     1       6.429   4.252  -4.463  1.00  0.00     0.037 A 
ATOM     43  C   UNL     1       4.224   8.628   0.514  1.00  0.00     0.037 A 
ATOM     44  C   UNL     1       6.829   5.624  -4.639  1.00  0.00     0.049 A 
ATOM     45  C   UNL     1       5.104   9.092  -0.609  1.00  0.00     0.074 A 
ATOM     46  C   UNL     1       7.518   6.194  -5.696  1.00  0.00     0.029 A 
ATOM     47  N   UNL     1       6.574   6.640  -3.732  1.00  0.00    -0.354 N 
ATOM     48  N   UNL     1       5.567   8.413  -1.629  1.00  0.00    -0.248 NA
ATOM     49  C   UNL     1       5.539  10.495  -0.571  1.00  0.00     0.031 C 
ATOM     50  C   UNL     1       7.715   7.550  -5.409  1.00  0.00     0.029 A 
ATOM     51  C   UNL     1       7.120   7.828  -4.189  1.00  0.00     0.049 A 
ATOM     52  H   UNL     1       6.077   6.534  -2.889  1.00  0.00     0.167 HD
ATOM     53  C   UNL     1       6.349   9.301  -2.352  1.00  0.00     0.074 A 
ATOM     54  C   UNL     1       6.282  10.575  -1.666  1.00  0.00     0.031 C 
ATOM     55  C   UNL     1       7.064   9.079  -3.481  1.00  0.00     0.037 A 
BRANCH  42  56
ATOM     56  C   UNL     1       6.872   3.265  -5.500  1.00  0.00     0.064 A 
ATOM     57  C   UNL     1       6.000   2.798  -6.492  1.00  0.00     0.173 A 
ATOM     58  C   UNL     1       8.213   2.854  -5.551  1.00  0.00     0.173 A 
ATOM     59  F   UNL     1       4.708   3.156  -6.478  1.00  0.00    -0.203 F 
ATOM     60  C   UNL     1       6.456   1.952  -7.501  1.00  0.00     0.198 A 
ATOM     61  C   UNL     1       8.668   2.022  -6.569  1.00  0.00     0.198 A 
ATOM     62  F   UNL     1       9.085   3.278  -4.624  1.00  0.00    -0.203 F 
ATOM     63  F   UNL     1       5.604   1.505  -8.434  1.00  0.00    -0.200 F 
ATOM     64  C   UNL     1       7.790   1.572  -7.544  1.00  0.00     0.200 A 
ATOM     65  F   UNL     1       9.959   1.663  -6.614  1.00  0.00    -0.200 F 
ATOM     66  F   UNL     1       8.229   0.772  -8.525  1.00  0.00    -0.200 F 
ENDBRANCH  42  56
BRANCH  43  67
ATOM     67  C   UNL     1       3.825   9.552   1.604  1.00  0.00     0.064 A 
ATOM     68  C   UNL     1       2.875  10.557   1.385  1.00  0.00     0.173 A 
ATOM     69  C   UNL     1       4.370   9.433   2.891  1.00  0.00     0.173 A 
ATOM     70  F   UNL     1       2.349  10.725   0.163  1.00  0.00    -0.203 F 
ATOM     71  C   UNL     1       2.483  11.409   2.415  1.00  0.00     0.198 A 
ATOM     72  C   UNL     1       3.958  10.268   3.926  1.00  0.00     0.198 A 
ATOM     73  F   UNL     1       5.286   8.487   3.148  1.00  0.00    -0.203 F 
ATOM     74  F   UNL     1       1.594  12.382   2.174  1.00  0.00    -0.200 F 
ATOM     75  C   UNL     1       3.018  11.258   3.686  1.00  0.00     0.200 A 
ATOM     76  F   UNL     1       4.468  10.109   5.155  1.00  0.00    -0.200 F 
ATOM     77  F   UNL     1       2.630  12.069   4.679  1.00  0.00    -0.200 F 
ENDBRANCH  43  67
BRANCH  55  78
ATOM     78  C   UNL     1       7.832  10.238  -4.036  1.00  0.00     0.064 A 
ATOM     79  C   UNL     1       9.036  10.655  -3.452  1.00  0.00     0.173 A 
ATOM     80  C   UNL     1       7.371  10.924  -5.168  1.00  0.00     0.173 A 
ATOM     81  F   UNL     1       9.503  10.038  -2.356  1.00  0.00    -0.203 F 
ATOM     82  C   UNL     1       9.744  11.734  -3.973  1.00  0.00     0.198 A 
ATOM     83  C   UNL     1       8.093  11.990  -5.698  1.00  0.00     0.198 A 
ATOM     84  F   UNL     1       6.225  10.559  -5.761  1.00  0.00    -0.203 F 
ATOM     85  F   UNL     1      10.873  12.142  -3.377  1.00  0.00    -0.200 F 
ATOM     86  C   UNL     1       9.275  12.397  -5.097  1.00  0.00     0.200 A 
ATOM     87  F   UNL     1       7.641  12.627  -6.787  1.00  0.00    -0.200 F 
ATOM     88  F   UNL     1       9.957  13.437  -5.596  1.00  0.00    -0.200 F 
ENDBRANCH  55  78
ENDBRANCH  29  30
ENDBRANCH  22  24
ENDBRANCH  21  22
ENDBRANCH  20  21
ENDBRANCH   1  20
TORSDOF 16
