REMARK SMILES NC(=O)c1c(F)cccc1O[C@@H](F)C(=O)OCCOC(=O)c1ccc(-c2c3nc(c(-c4c(F)c(F)c(F)c(F)c4F)c4ccc([nH]4)c(-c4c(F)c(F)c(F)c(F)c4F)c4nc(c(-c5c(F)c(F)c(F)c(F)c5F)c5ccc2[nH]5)C=C4)C=C3)cc1
REMARK SMILES IDX 17 1 16 2 14 3 15 4 12 5 13 6 11 7 10 8 4 9 5 10 6 11 7 12
REMARK SMILES IDX 9 13 8 14 2 15 1 16 3 19 18 20 19 21 20 22 21 23 22 24 23 25
REMARK SMILES IDX 84 26 24 27 83 28 25 29 26 30 27 31 77 32 28 33 82 34 76 35
REMARK SMILES IDX 78 36 29 37 81 38 75 39 74 40 30 42 62 43 42 44 61 45 43 46
REMARK SMILES IDX 46 47 60 48 79 49 44 50 45 51 59 53 80 54 47 55 31 56 32 57
REMARK SMILES IDX 40 58 33 59 34 60 38 61 41 62 35 63 36 64 39 65 37 66 63 67
REMARK SMILES IDX 64 68 72 69 65 70 66 71 70 72 73 73 67 74 68 75 71 76 69 77
REMARK SMILES IDX 48 78 49 79 57 80 50 81 51 82 55 83 58 84 52 85 53 86 56 87
REMARK SMILES IDX 54 88
REMARK H PARENT 1 17 1 18 78 41 46 52
REMARK Flexibility Score: inf
ROOT
ATOM      1  C   UNL     1       1.572  -1.393   1.901  1.00  0.00     0.274 C 
ENDROOT
BRANCH   1   2
ATOM      2  O   UNL     1       0.913  -0.128   2.119  1.00  0.00    -0.457 OA
BRANCH   2   3
ATOM      3  C   UNL     1      -0.456  -0.130   2.102  1.00  0.00     0.381 C 
ATOM      4  O   UNL     1      -1.128  -1.124   1.843  1.00  0.00    -0.244 OA
BRANCH   3   5
ATOM      5  C   UNL     1      -1.042   1.219   2.635  1.00  0.00     0.461 C 
ATOM      6  F   UNL     1      -2.416   1.123   2.645  1.00  0.00    -0.189 F 
BRANCH   5   7
ATOM      7  O   UNL     1      -0.790   2.502   2.096  1.00  0.00    -0.450 OA
BRANCH   7   8
ATOM      8  C   UNL     1       0.525   2.794   1.883  1.00  0.00     0.139 A 
ATOM      9  C   UNL     1       1.149   2.496   0.663  1.00  0.00     0.117 A 
ATOM     10  C   UNL     1       2.464   2.917   0.463  1.00  0.00     0.139 A 
ATOM     11  F   UNL     1       3.108   2.640  -0.681  1.00  0.00    -0.206 F 
ATOM     12  C   UNL     1       3.145   3.642   1.440  1.00  0.00     0.040 A 
ATOM     13  C   UNL     1       1.203   3.521   2.869  1.00  0.00     0.047 A 
ATOM     14  C   UNL     1       2.515   3.943   2.647  1.00  0.00     0.007 A 
BRANCH   9  15
ATOM     15  C   UNL     1       0.427   1.723  -0.374  1.00  0.00     0.255 C 
ATOM     16  N   UNL     1       1.153   0.842  -1.122  1.00  0.00    -0.365 N 
ATOM     17  H   UNL     1       0.711   0.308  -1.821  1.00  0.00     0.159 HD
ATOM     18  H   UNL     1       2.119   0.740  -0.962  1.00  0.00     0.159 HD
ATOM     19  O   UNL     1      -0.788   1.787  -0.513  1.00  0.00    -0.269 OA
ENDBRANCH   9  15
ENDBRANCH   7   8
ENDBRANCH   5   7
ENDBRANCH   3   5
ENDBRANCH   2   3
ENDBRANCH   1   2
BRANCH   1  20
ATOM     20  C   UNL     1       2.176  -1.922   3.207  1.00  0.00     0.275 C 
BRANCH  20  21
ATOM     21  O   UNL     1       1.156  -2.376   4.117  1.00  0.00    -0.458 OA
BRANCH  21  22
ATOM     22  C   UNL     1       0.609  -1.409   4.887  1.00  0.00     0.338 C 
ATOM     23  O   UNL     1       0.915  -0.229   4.924  1.00  0.00    -0.246 OA
BRANCH  22  24
ATOM     24  C   UNL     1      -0.558  -1.940   5.602  1.00  0.00     0.060 A 
ATOM     25  C   UNL     1      -1.787  -1.307   5.395  1.00  0.00     0.016 A 
ATOM     26  C   UNL     1      -0.433  -2.972   6.532  1.00  0.00     0.016 A 
ATOM     27  C   UNL     1      -2.891  -1.672   6.151  1.00  0.00     0.010 A 
ATOM     28  C   UNL     1      -1.551  -3.353   7.279  1.00  0.00     0.010 A 
ATOM     29  C   UNL     1      -2.777  -2.687   7.107  1.00  0.00    -0.014 A 
BRANCH  29  30
ATOM     30  C   UNL     1      -3.939  -2.997   7.967  1.00  0.00     0.031 A 
ATOM     31  C   UNL     1      -3.935  -2.568   9.403  1.00  0.00     0.074 A 
ATOM     32  C   UNL     1      -5.010  -3.613   7.438  1.00  0.00     0.049 A 
ATOM     33  N   UNL     1      -4.820  -2.796  10.338  1.00  0.00    -0.248 NA
ATOM     34  C   UNL     1      -2.776  -1.778   9.850  1.00  0.00     0.031 C 
ATOM     35  C   UNL     1      -5.138  -4.018   6.038  1.00  0.00     0.029 A 
ATOM     36  N   UNL     1      -6.195  -3.995   8.010  1.00  0.00    -0.354 N 
ATOM     37  C   UNL     1      -4.314  -2.206  11.487  1.00  0.00     0.074 A 
ATOM     38  C   UNL     1      -3.039  -1.618  11.139  1.00  0.00     0.031 C 
ATOM     39  C   UNL     1      -6.343  -4.579   5.856  1.00  0.00     0.029 A 
ATOM     40  C   UNL     1      -7.047  -4.619   7.135  1.00  0.00     0.049 A 
ATOM     41  H   UNL     1      -6.413  -3.838   8.957  1.00  0.00     0.167 HD
ATOM     42  C   UNL     1      -4.871  -2.163  12.720  1.00  0.00     0.037 A 
ATOM     43  C   UNL     1      -8.251  -5.181   7.348  1.00  0.00     0.037 A 
ATOM     44  C   UNL     1      -6.156  -2.725  13.043  1.00  0.00     0.049 A 
ATOM     45  C   UNL     1      -8.834  -5.152   8.732  1.00  0.00     0.074 A 
ATOM     46  C   UNL     1      -6.820  -2.722  14.256  1.00  0.00     0.029 A 
ATOM     47  N   UNL     1      -6.975  -3.388  12.139  1.00  0.00    -0.354 N 
ATOM     48  N   UNL     1      -8.337  -4.621   9.823  1.00  0.00    -0.248 NA
ATOM     49  C   UNL     1     -10.135  -5.806   8.920  1.00  0.00     0.031 C 
ATOM     50  C   UNL     1      -8.022  -3.418  14.096  1.00  0.00     0.029 A 
ATOM     51  C   UNL     1      -8.129  -3.816  12.773  1.00  0.00     0.049 A 
ATOM     52  H   UNL     1      -6.766  -3.532  11.187  1.00  0.00     0.167 HD
ATOM     53  C   UNL     1      -9.262  -4.869  10.825  1.00  0.00     0.074 A 
ATOM     54  C   UNL     1     -10.361  -5.585  10.209  1.00  0.00     0.031 C 
ATOM     55  C   UNL     1      -9.205  -4.535  12.138  1.00  0.00     0.037 A 
BRANCH  42  56
ATOM     56  C   UNL     1      -4.078  -1.518  13.818  1.00  0.00     0.064 A 
ATOM     57  C   UNL     1      -3.507  -2.305  14.830  1.00  0.00     0.173 A 
ATOM     58  C   UNL     1      -3.905  -0.128  13.890  1.00  0.00     0.173 A 
ATOM     59  F   UNL     1      -3.644  -3.639  14.807  1.00  0.00    -0.203 F 
ATOM     60  C   UNL     1      -2.794  -1.724  15.875  1.00  0.00     0.198 A 
ATOM     61  C   UNL     1      -3.169   0.448  14.923  1.00  0.00     0.198 A 
ATOM     62  F   UNL     1      -4.416   0.666  12.938  1.00  0.00    -0.203 F 
ATOM     63  F   UNL     1      -2.272  -2.495  16.839  1.00  0.00    -0.200 F 
ATOM     64  C   UNL     1      -2.621  -0.349  15.918  1.00  0.00     0.200 A 
ATOM     65  F   UNL     1      -2.979   1.774  14.949  1.00  0.00    -0.200 F 
ATOM     66  F   UNL     1      -1.917   0.208  16.913  1.00  0.00    -0.200 F 
ENDBRANCH  42  56
BRANCH  43  67
ATOM     67  C   UNL     1      -8.960  -5.821   6.213  1.00  0.00     0.064 A 
ATOM     68  C   UNL     1      -8.485  -7.010   5.639  1.00  0.00     0.173 A 
ATOM     69  C   UNL     1     -10.085  -5.220   5.634  1.00  0.00     0.173 A 
ATOM     70  F   UNL     1      -7.410  -7.622   6.158  1.00  0.00    -0.203 F 
ATOM     71  C   UNL     1      -9.088  -7.556   4.509  1.00  0.00     0.198 A 
ATOM     72  C   UNL     1     -10.702  -5.779   4.516  1.00  0.00     0.198 A 
ATOM     73  F   UNL     1     -10.588  -4.094   6.161  1.00  0.00    -0.203 F 
ATOM     74  F   UNL     1      -8.587  -8.669   3.955  1.00  0.00    -0.200 F 
ATOM     75  C   UNL     1     -10.196  -6.940   3.948  1.00  0.00     0.200 A 
ATOM     76  F   UNL     1     -11.785  -5.194   3.988  1.00  0.00    -0.200 F 
ATOM     77  F   UNL     1     -10.777  -7.464   2.860  1.00  0.00    -0.200 F 
ENDBRANCH  43  67
BRANCH  55  78
ATOM     78  C   UNL     1     -10.364  -4.937  13.000  1.00  0.00     0.064 A 
ATOM     79  C   UNL     1     -11.265  -3.972  13.474  1.00  0.00     0.173 A 
ATOM     80  C   UNL     1     -10.533  -6.263  13.420  1.00  0.00     0.173 A 
ATOM     81  F   UNL     1     -11.138  -2.689  13.106  1.00  0.00    -0.203 F 
ATOM     82  C   UNL     1     -12.288  -4.321  14.351  1.00  0.00     0.198 A 
ATOM     83  C   UNL     1     -11.572  -6.612  14.278  1.00  0.00     0.198 A 
ATOM     84  F   UNL     1      -9.702  -7.221  12.983  1.00  0.00    -0.203 F 
ATOM     85  F   UNL     1     -13.120  -3.378  14.816  1.00  0.00    -0.200 F 
ATOM     86  C   UNL     1     -12.442  -5.640  14.750  1.00  0.00     0.200 A 
ATOM     87  F   UNL     1     -11.733  -7.890  14.648  1.00  0.00    -0.200 F 
ATOM     88  F   UNL     1     -13.432  -5.975  15.589  1.00  0.00    -0.200 F 
ENDBRANCH  55  78
ENDBRANCH  29  30
ENDBRANCH  22  24
ENDBRANCH  21  22
ENDBRANCH  20  21
ENDBRANCH   1  20
TORSDOF 14
