REMARK SMILES CC1(C)CCC[C@@](C)(CCC(=O)OCCOC(=O)c2ccc(-c3c4nc(c(-c5c(F)c(F)c(F)c(F)c5F)c5ccc([nH]5)c(-c5c(F)c(F)c(F)c(F)c5F)c5nc(c(-c6c(F)c(F)c(F)c(F)c6F)c6ccc3[nH]6)C=C5)C=C4)cc2)C1=O
REMARK SMILES IDX 14 1 13 2 11 3 12 4 10 5 9 6 7 7 1 8 2 9 3 10 4 11 82 12
REMARK SMILES IDX 5 13 83 14 6 15 8 16 15 17 16 18 17 19 18 20 19 21 20 22
REMARK SMILES IDX 81 23 21 24 80 25 22 26 23 27 24 28 74 29 25 30 79 31 73 32
REMARK SMILES IDX 75 33 26 34 78 35 72 36 71 37 27 39 59 40 39 41 58 42 40 43
REMARK SMILES IDX 43 44 57 45 76 46 41 47 42 48 56 50 77 51 44 52 28 53 29 54
REMARK SMILES IDX 37 55 30 56 31 57 35 58 38 59 32 60 33 61 36 62 34 63 60 64
REMARK SMILES IDX 61 65 69 66 62 67 63 68 67 69 70 70 64 71 65 72 68 73 66 74
REMARK SMILES IDX 45 75 46 76 54 77 47 78 48 79 52 80 55 81 49 82 50 83 53 84
REMARK SMILES IDX 51 85
REMARK H PARENT 75 38 43 49
REMARK Flexibility Score: inf
ROOT
ATOM      1  C   UNL     1       2.725   6.187   2.602  1.00  0.00     0.274 C 
ENDROOT
BRANCH   1   2
ATOM      2  O   UNL     1       2.956   5.130   1.650  1.00  0.00    -0.462 OA
BRANCH   2   3
ATOM      3  C   UNL     1       4.015   4.319   1.875  1.00  0.00     0.305 C 
ATOM      4  O   UNL     1       4.791   4.425   2.817  1.00  0.00    -0.252 OA
BRANCH   3   5
ATOM      5  C   UNL     1       4.190   3.284   0.786  1.00  0.00     0.124 C 
BRANCH   5   6
ATOM      6  C   UNL     1       2.949   2.466   0.402  1.00  0.00     0.026 C 
BRANCH   6   7
ATOM      7  C   UNL     1       1.939   3.043  -0.642  1.00  0.00     0.027 C 
ATOM      8  C   UNL     1       1.069  -0.205  -0.364  1.00  0.00     0.019 C 
ATOM      9  C   UNL     1       0.478   0.890  -1.265  1.00  0.00     0.024 C 
ATOM     10  C   UNL     1      -0.034   0.219  -2.555  1.00  0.00     0.019 C 
ATOM     11  C   UNL     1      -0.716   1.587  -0.595  1.00  0.00     0.014 C 
ATOM     12  C   UNL     1       1.581   1.905  -1.634  1.00  0.00     0.144 C 
ATOM     13  C   UNL     1      -0.301   2.516   0.532  1.00  0.00     0.002 C 
ATOM     14  O   UNL     1       2.260   1.737  -2.653  1.00  0.00    -0.298 OA
ATOM     15  C   UNL     1       0.646   3.587   0.005  1.00  0.00     0.014 C 
ATOM     16  C   UNL     1       2.555   4.187  -1.479  1.00  0.00     0.020 C 
ENDBRANCH   6   7
ENDBRANCH   5   6
ENDBRANCH   3   5
ENDBRANCH   2   3
ENDBRANCH   1   2
BRANCH   1  17
ATOM     17  C   UNL     1       1.655   5.801   3.626  1.00  0.00     0.275 C 
BRANCH  17  18
ATOM     18  O   UNL     1       2.154   4.823   4.554  1.00  0.00    -0.458 OA
BRANCH  18  19
ATOM     19  C   UNL     1       1.878   3.538   4.238  1.00  0.00     0.338 C 
ATOM     20  O   UNL     1       1.202   3.130   3.312  1.00  0.00    -0.246 OA
BRANCH  19  21
ATOM     21  C   UNL     1       2.618   2.642   5.133  1.00  0.00     0.060 A 
ATOM     22  C   UNL     1       3.595   1.808   4.580  1.00  0.00     0.016 A 
ATOM     23  C   UNL     1       2.295   2.571   6.488  1.00  0.00     0.016 A 
ATOM     24  C   UNL     1       4.263   0.894   5.389  1.00  0.00     0.010 A 
ATOM     25  C   UNL     1       2.965   1.654   7.297  1.00  0.00     0.010 A 
ATOM     26  C   UNL     1       3.944   0.806   6.750  1.00  0.00    -0.014 A 
BRANCH  26  27
ATOM     27  C   UNL     1       4.603  -0.204   7.606  1.00  0.00     0.031 A 
ATOM     28  C   UNL     1       3.849  -1.434   8.012  1.00  0.00     0.074 A 
ATOM     29  C   UNL     1       5.863  -0.002   8.027  1.00  0.00     0.049 A 
ATOM     30  N   UNL     1       4.188  -2.374   8.855  1.00  0.00    -0.248 NA
ATOM     31  C   UNL     1       2.531  -1.628   7.388  1.00  0.00     0.031 C 
ATOM     32  C   UNL     1       6.701   1.138   7.658  1.00  0.00     0.029 A 
ATOM     33  N   UNL     1       6.652  -0.743   8.868  1.00  0.00    -0.354 N 
ATOM     34  C   UNL     1       3.120  -3.260   8.881  1.00  0.00     0.074 A 
ATOM     35  C   UNL     1       2.115  -2.739   7.979  1.00  0.00     0.031 C 
ATOM     36  C   UNL     1       7.887   1.026   8.278  1.00  0.00     0.029 A 
ATOM     37  C   UNL     1       7.871  -0.167   9.121  1.00  0.00     0.049 A 
ATOM     38  H   UNL     1       6.371  -1.604   9.254  1.00  0.00     0.167 HD
ATOM     39  C   UNL     1       2.996  -4.404   9.595  1.00  0.00     0.037 A 
ATOM     40  C   UNL     1       8.850  -0.545   9.964  1.00  0.00     0.037 A 
ATOM     41  C   UNL     1       4.006  -4.915  10.484  1.00  0.00     0.049 A 
ATOM     42  C   UNL     1       8.665  -1.791  10.786  1.00  0.00     0.074 A 
ATOM     43  C   UNL     1       3.984  -6.067  11.249  1.00  0.00     0.029 A 
ATOM     44  N   UNL     1       5.226  -4.298  10.725  1.00  0.00    -0.354 N 
ATOM     45  N   UNL     1       7.651  -2.622  10.813  1.00  0.00    -0.248 NA
ATOM     46  C   UNL     1       9.758  -2.150  11.700  1.00  0.00     0.031 C 
ATOM     47  C   UNL     1       5.174  -6.128  11.982  1.00  0.00     0.029 A 
ATOM     48  C   UNL     1       5.958  -5.037  11.640  1.00  0.00     0.049 A 
ATOM     49  H   UNL     1       5.527  -3.459  10.307  1.00  0.00     0.167 HD
ATOM     50  C   UNL     1       7.990  -3.611  11.725  1.00  0.00     0.074 A 
ATOM     51  C   UNL     1       9.310  -3.282  12.224  1.00  0.00     0.031 C 
ATOM     52  C   UNL     1       7.274  -4.693  12.116  1.00  0.00     0.037 A 
BRANCH  39  53
ATOM     53  C   UNL     1       1.707  -5.160   9.467  1.00  0.00     0.064 A 
ATOM     54  C   UNL     1       1.384  -5.878   8.306  1.00  0.00     0.173 A 
ATOM     55  C   UNL     1       0.789  -5.179  10.528  1.00  0.00     0.173 A 
ATOM     56  F   UNL     1       2.221  -5.877   7.258  1.00  0.00    -0.203 F 
ATOM     57  C   UNL     1       0.178  -6.567   8.203  1.00  0.00     0.198 A 
ATOM     58  C   UNL     1      -0.404  -5.891  10.431  1.00  0.00     0.198 A 
ATOM     59  F   UNL     1       1.050  -4.510  11.661  1.00  0.00    -0.203 F 
ATOM     60  F   UNL     1      -0.130  -7.209   7.067  1.00  0.00    -0.200 F 
ATOM     61  C   UNL     1      -0.712  -6.578   9.267  1.00  0.00     0.200 A 
ATOM     62  F   UNL     1      -1.260  -5.906  11.463  1.00  0.00    -0.200 F 
ATOM     63  F   UNL     1      -1.871  -7.242   9.166  1.00  0.00    -0.200 F 
ENDBRANCH  39  53
BRANCH  40  64
ATOM     64  C   UNL     1      10.082   0.274  10.078  1.00  0.00     0.064 A 
ATOM     65  C   UNL     1      11.306  -0.193   9.582  1.00  0.00     0.173 A 
ATOM     66  C   UNL     1      10.059   1.544  10.673  1.00  0.00     0.173 A 
ATOM     67  F   UNL     1      11.382  -1.412   9.027  1.00  0.00    -0.203 F 
ATOM     68  C   UNL     1      12.464   0.575   9.685  1.00  0.00     0.198 A 
ATOM     69  C   UNL     1      11.212   2.322  10.753  1.00  0.00     0.198 A 
ATOM     70  F   UNL     1       8.912   2.035  11.164  1.00  0.00    -0.203 F 
ATOM     71  F   UNL     1      13.629   0.090   9.235  1.00  0.00    -0.200 F 
ATOM     72  C   UNL     1      12.414   1.835  10.264  1.00  0.00     0.200 A 
ATOM     73  F   UNL     1      11.157   3.543  11.303  1.00  0.00    -0.200 F 
ATOM     74  F   UNL     1      13.527   2.576  10.356  1.00  0.00    -0.200 F 
ENDBRANCH  40  64
BRANCH  52  75
ATOM     75  C   UNL     1       7.918  -5.619  13.104  1.00  0.00     0.064 A 
ATOM     76  C   UNL     1       8.039  -5.278  14.458  1.00  0.00     0.173 A 
ATOM     77  C   UNL     1       8.384  -6.878  12.695  1.00  0.00     0.173 A 
ATOM     78  F   UNL     1       7.623  -4.079  14.892  1.00  0.00    -0.203 F 
ATOM     79  C   UNL     1       8.622  -6.159  15.366  1.00  0.00     0.198 A 
ATOM     80  C   UNL     1       8.943  -7.765  13.610  1.00  0.00     0.198 A 
ATOM     81  F   UNL     1       8.285  -7.250  11.410  1.00  0.00    -0.203 F 
ATOM     82  F   UNL     1       8.764  -5.798  16.649  1.00  0.00    -0.200 F 
ATOM     83  C   UNL     1       9.066  -7.403  14.943  1.00  0.00     0.200 A 
ATOM     84  F   UNL     1       9.363  -8.970  13.201  1.00  0.00    -0.200 F 
ATOM     85  F   UNL     1       9.621  -8.251  15.819  1.00  0.00    -0.200 F 
ENDBRANCH  52  75
ENDBRANCH  26  27
ENDBRANCH  19  21
ENDBRANCH  18  19
ENDBRANCH  17  18
ENDBRANCH   1  17
TORSDOF 13
