REMARK SMILES Cc1ccc2c(c1)[C@@]1([NH2+][C@@H](CCC(=O)OCCOC(=O)c3ccc(-c4c5nc(c(-c6c(F)c(F)c(F)c(F)c6F)c6ccc([nH]6)c(-c6c(F)c(F)c(F)c(F)c6F)c6nc(c(-c7c(F)c(F)c(F)c(F)c7F)c7ccc4[nH]7)C=C6)C=C5)cc3)[C@H]3C(=O)N(Cc4ccccc4)C(=O)[C@H]31)C(=O)N2
REMARK SMILES IDX 16 1 15 2 13 3 14 4 12 5 11 6 10 7 1 8 2 9 3 10 7 11 4 12
REMARK SMILES IDX 6 13 5 14 8 15 100 16 9 17 97 18 98 19 84 23 95 24 99 25
REMARK SMILES IDX 85 26 87 27 96 28 86 29 88 30 89 31 90 32 94 33 91 34 93 35
REMARK SMILES IDX 92 36 17 37 18 38 19 39 20 40 21 41 22 42 83 43 23 44 82 45
REMARK SMILES IDX 24 46 25 47 26 48 76 49 27 50 81 51 75 52 77 53 28 54 80 55
REMARK SMILES IDX 74 56 73 57 29 59 61 60 41 61 60 62 42 63 45 64 59 65 78 66
REMARK SMILES IDX 43 67 44 68 58 70 79 71 46 72 30 73 31 74 39 75 32 76 33 77
REMARK SMILES IDX 37 78 40 79 34 80 35 81 38 82 36 83 62 84 63 85 71 86 64 87
REMARK SMILES IDX 65 88 69 89 72 90 66 91 67 92 70 93 68 94 47 95 48 96 56 97
REMARK SMILES IDX 49 98 50 99 54 100 57 101 51 102 52 103 55 104 53 105
REMARK H PARENT 100 20 9 21 9 22 77 58 45 69
REMARK Flexibility Score: inf
ROOT
ATOM      1  C   UNL     1      -3.251   8.551  -3.171  1.00  0.00     0.274 C 
ENDROOT
BRANCH   1   2
ATOM      2  O   UNL     1      -2.042   7.771  -3.345  1.00  0.00    -0.462 OA
BRANCH   2   3
ATOM      3  C   UNL     1      -1.025   8.266  -4.072  1.00  0.00     0.306 C 
ATOM      4  O   UNL     1      -1.038   9.373  -4.596  1.00  0.00    -0.252 OA
BRANCH   3   5
ATOM      5  C   UNL     1       0.113   7.263  -4.239  1.00  0.00     0.129 C 
BRANCH   5   6
ATOM      6  C   UNL     1       0.448   6.352  -3.061  1.00  0.00     0.077 C 
BRANCH   6   7
ATOM      7  C   UNL     1       0.029   4.860  -3.087  1.00  0.00     0.197 C 
ATOM      8  C   UNL     1       0.967  -0.000   0.048  1.00  0.00     0.044 C 
ATOM      9  C   UNL     1       0.596   0.169  -1.398  1.00  0.00    -0.050 A 
ATOM     10  C   UNL     1       0.355  -0.974  -2.194  1.00  0.00     0.005 A 
ATOM     11  C   UNL     1       0.540   1.454  -1.968  1.00  0.00     0.016 A 
ATOM     12  C   UNL     1       0.096  -0.860  -3.560  1.00  0.00     0.027 A 
ATOM     13  C   UNL     1       0.249   1.566  -3.317  1.00  0.00     0.047 A 
ATOM     14  C   UNL     1       0.079   0.409  -4.091  1.00  0.00     0.051 A 
ATOM     15  C   UNL     1      -0.069   2.759  -4.190  1.00  0.00     0.216 C 
ATOM     16  N   UNL     1      -0.050   0.742  -5.431  1.00  0.00    -0.320 N 
ATOM     17  N   UNL     1       0.752   3.988  -4.044  1.00  0.00    -0.326 N 
ATOM     18  C   UNL     1      -1.511   3.176  -3.939  1.00  0.00     0.174 C 
ATOM     19  C   UNL     1       0.076   2.113  -5.608  1.00  0.00     0.291 C 
ATOM     20  H   UNL     1      -0.208   0.096  -6.157  1.00  0.00     0.170 HD
ATOM     21  H   UNL     1       0.850   4.457  -4.945  1.00  0.00     0.347 HD
ATOM     22  H   UNL     1       1.691   3.769  -3.710  1.00  0.00     0.347 HD
ATOM     23  C   UNL     1      -1.453   4.458  -3.114  1.00  0.00     0.157 C 
ATOM     24  C   UNL     1      -2.175   3.615  -5.229  1.00  0.00     0.240 C 
ATOM     25  O   UNL     1       0.220   2.698  -6.669  1.00  0.00    -0.267 OA
ATOM     26  C   UNL     1      -2.466   5.229  -3.906  1.00  0.00     0.239 C 
ATOM     27  N   UNL     1      -2.276   4.965  -5.218  1.00  0.00    -0.277 N 
ATOM     28  O   UNL     1      -2.650   2.849  -6.053  1.00  0.00    -0.274 OA
ATOM     29  O   UNL     1      -3.482   5.702  -3.413  1.00  0.00    -0.274 OA
BRANCH  27  30
ATOM     30  C   UNL     1      -2.791   5.739  -6.345  1.00  0.00     0.164 C 
BRANCH  30  31
ATOM     31  C   UNL     1      -1.673   6.479  -7.079  1.00  0.00    -0.028 A 
ATOM     32  C   UNL     1      -1.642   7.882  -7.122  1.00  0.00     0.005 A 
ATOM     33  C   UNL     1      -0.600   5.790  -7.670  1.00  0.00     0.005 A 
ATOM     34  C   UNL     1      -0.527   8.569  -7.626  1.00  0.00     0.000 A 
ATOM     35  C   UNL     1       0.507   6.477  -8.189  1.00  0.00     0.000 A 
ATOM     36  C   UNL     1       0.555   7.867  -8.144  1.00  0.00     0.000 A 
ENDBRANCH  30  31
ENDBRANCH  27  30
ENDBRANCH   6   7
ENDBRANCH   5   6
ENDBRANCH   3   5
ENDBRANCH   2   3
ENDBRANCH   1   2
BRANCH   1  37
ATOM     37  C   UNL     1      -3.393   8.893  -1.691  1.00  0.00     0.275 C 
BRANCH  37  38
ATOM     38  O   UNL     1      -2.568  10.032  -1.406  1.00  0.00    -0.458 OA
BRANCH  38  39
ATOM     39  C   UNL     1      -1.245   9.768  -1.224  1.00  0.00     0.338 C 
ATOM     40  O   UNL     1      -0.731   8.716  -0.941  1.00  0.00    -0.246 OA
BRANCH  39  41
ATOM     41  C   UNL     1      -0.517  10.956  -1.717  1.00  0.00     0.060 A 
ATOM     42  C   UNL     1      -0.976  12.237  -1.414  1.00  0.00     0.016 A 
ATOM     43  C   UNL     1       0.566  10.767  -2.584  1.00  0.00     0.016 A 
ATOM     44  C   UNL     1      -0.372  13.332  -2.019  1.00  0.00     0.010 A 
ATOM     45  C   UNL     1       1.144  11.858  -3.223  1.00  0.00     0.010 A 
ATOM     46  C   UNL     1       0.678  13.143  -2.934  1.00  0.00    -0.014 A 
BRANCH  46  47
ATOM     47  C   UNL     1       1.409  14.323  -3.420  1.00  0.00     0.031 A 
ATOM     48  C   UNL     1       1.091  14.959  -4.729  1.00  0.00     0.074 A 
ATOM     49  C   UNL     1       2.340  14.825  -2.594  1.00  0.00     0.049 A 
ATOM     50  N   UNL     1       1.473  16.125  -5.180  1.00  0.00    -0.248 NA
ATOM     51  C   UNL     1       0.249  14.193  -5.659  1.00  0.00     0.031 C 
ATOM     52  C   UNL     1       2.741  14.212  -1.325  1.00  0.00     0.029 A 
ATOM     53  N   UNL     1       3.087  15.967  -2.670  1.00  0.00    -0.354 N 
ATOM     54  C   UNL     1       0.888  16.255  -6.430  1.00  0.00     0.074 A 
ATOM     55  C   UNL     1       0.177  15.021  -6.696  1.00  0.00     0.031 C 
ATOM     56  C   UNL     1       3.623  15.013  -0.713  1.00  0.00     0.029 A 
ATOM     57  C   UNL     1       3.846  16.187  -1.549  1.00  0.00     0.049 A 
ATOM     58  H   UNL     1       3.080  16.570  -3.448  1.00  0.00     0.167 HD
ATOM     59  C   UNL     1       0.932  17.329  -7.255  1.00  0.00     0.037 A 
ATOM     60  C   UNL     1       4.608  17.244  -1.219  1.00  0.00     0.037 A 
ATOM     61  C   UNL     1       1.674  18.530  -6.960  1.00  0.00     0.049 A 
ATOM     62  C   UNL     1       4.643  18.415  -2.155  1.00  0.00     0.074 A 
ATOM     63  C   UNL     1       1.758  19.698  -7.696  1.00  0.00     0.029 A 
ATOM     64  N   UNL     1       2.474  18.707  -5.837  1.00  0.00    -0.354 N 
ATOM     65  N   UNL     1       3.998  18.587  -3.284  1.00  0.00    -0.248 NA
ATOM     66  C   UNL     1       5.498  19.543  -1.770  1.00  0.00     0.031 C 
ATOM     67  C   UNL     1       2.649  20.559  -7.048  1.00  0.00     0.029 A 
ATOM     68  C   UNL     1       3.081  19.952  -5.878  1.00  0.00     0.049 A 
ATOM     69  H   UNL     1       2.593  18.045  -5.118  1.00  0.00     0.167 HD
ATOM     70  C   UNL     1       4.357  19.844  -3.742  1.00  0.00     0.074 A 
ATOM     71  C   UNL     1       5.259  20.402  -2.752  1.00  0.00     0.031 C 
ATOM     72  C   UNL     1       3.982  20.477  -4.881  1.00  0.00     0.037 A 
BRANCH  59  73
ATOM     73  C   UNL     1       0.147  17.273  -8.533  1.00  0.00     0.064 A 
ATOM     74  C   UNL     1      -1.256  17.310  -8.526  1.00  0.00     0.173 A 
ATOM     75  C   UNL     1       0.793  17.277  -9.779  1.00  0.00     0.173 A 
ATOM     76  F   UNL     1      -1.926  17.308  -7.363  1.00  0.00    -0.203 F 
ATOM     77  C   UNL     1      -1.982  17.339  -9.715  1.00  0.00     0.198 A 
ATOM     78  C   UNL     1       0.066  17.333 -10.966  1.00  0.00     0.198 A 
ATOM     79  F   UNL     1       2.133  17.255  -9.846  1.00  0.00    -0.203 F 
ATOM     80  F   UNL     1      -3.321  17.348  -9.681  1.00  0.00    -0.200 F 
ATOM     81  C   UNL     1      -1.320  17.360 -10.933  1.00  0.00     0.200 A 
ATOM     82  F   UNL     1       0.707  17.372 -12.142  1.00  0.00    -0.200 F 
ATOM     83  F   UNL     1      -2.019  17.409 -12.076  1.00  0.00    -0.200 F 
ENDBRANCH  59  73
BRANCH  60  84
ATOM     84  C   UNL     1       5.310  17.249   0.088  1.00  0.00     0.064 A 
ATOM     85  C   UNL     1       4.891  18.093   1.124  1.00  0.00     0.173 A 
ATOM     86  C   UNL     1       6.361  16.358   0.353  1.00  0.00     0.173 A 
ATOM     87  F   UNL     1       3.891  18.962   0.918  1.00  0.00    -0.203 F 
ATOM     88  C   UNL     1       5.502  18.052   2.375  1.00  0.00     0.198 A 
ATOM     89  C   UNL     1       6.953  16.299   1.612  1.00  0.00     0.198 A 
ATOM     90  F   UNL     1       6.784  15.516  -0.602  1.00  0.00    -0.203 F 
ATOM     91  F   UNL     1       5.098  18.885   3.343  1.00  0.00    -0.200 F 
ATOM     92  C   UNL     1       6.526  17.149   2.620  1.00  0.00     0.200 A 
ATOM     93  F   UNL     1       7.924  15.407   1.851  1.00  0.00    -0.200 F 
ATOM     94  F   UNL     1       7.100  17.096   3.830  1.00  0.00    -0.200 F 
ENDBRANCH  60  84
BRANCH  72  95
ATOM     95  C   UNL     1       4.558  21.840  -5.126  1.00  0.00     0.064 A 
ATOM     96  C   UNL     1       5.901  22.006  -5.494  1.00  0.00     0.173 A 
ATOM     97  C   UNL     1       3.741  22.980  -5.074  1.00  0.00     0.173 A 
ATOM     98  F   UNL     1       6.724  20.947  -5.542  1.00  0.00    -0.203 F 
ATOM     99  C   UNL     1       6.409  23.266  -5.791  1.00  0.00     0.198 A 
ATOM    100  C   UNL     1       4.246  24.234  -5.402  1.00  0.00     0.198 A 
ATOM    101  F   UNL     1       2.449  22.871  -4.733  1.00  0.00    -0.203 F 
ATOM    102  F   UNL     1       7.703  23.407  -6.109  1.00  0.00    -0.200 F 
ATOM    103  C   UNL     1       5.579  24.377  -5.757  1.00  0.00     0.200 A 
ATOM    104  F   UNL     1       3.439  25.304  -5.385  1.00  0.00    -0.200 F 
ATOM    105  F   UNL     1       6.064  25.587  -6.066  1.00  0.00    -0.200 F 
ENDBRANCH  72  95
ENDBRANCH  46  47
ENDBRANCH  39  41
ENDBRANCH  38  39
ENDBRANCH  37  38
ENDBRANCH   1  37
TORSDOF 15
