REMARK SMILES O=C(OCCOC(=O)c1cccnc1C[N@@H+]1CCC[C@H]1c1ccccn1)c1ccc(-c2c3nc(c(-c4c(F)c(F)c(F)c(F)c4F)c4ccc([nH]4)c(-c4c(F)c(F)c(F)c(F)c4F)c4nc(c(-c5c(F)c(F)c(F)c(F)c5F)c5ccc2[nH]5)C=C4)C=C3)cc1
REMARK SMILES IDX 5 1 4 2 3 3 2 4 1 5 27 6 28 7 89 8 29 9 88 10 30 11 31 12
REMARK SMILES IDX 32 13 82 14 33 15 87 16 81 17 83 18 34 19 86 20 80 21 79 22
REMARK SMILES IDX 35 24 67 25 47 26 66 27 48 28 51 29 65 30 84 31 49 32 50 33
REMARK SMILES IDX 64 35 85 36 52 37 36 38 37 39 45 40 38 41 39 42 43 43 46 44
REMARK SMILES IDX 40 45 41 46 44 47 42 48 68 49 69 50 77 51 70 52 71 53 75 54
REMARK SMILES IDX 78 55 72 56 73 57 76 58 74 59 53 60 54 61 62 62 55 63 56 64
REMARK SMILES IDX 60 65 63 66 57 67 58 68 61 69 59 70 6 71 7 72 8 73 9 74
REMARK SMILES IDX 10 75 14 76 11 77 13 78 12 79 15 80 16 81 17 82 20 83 18 85
REMARK SMILES IDX 19 86 21 87 22 88 26 89 23 90 25 91 24 92
REMARK H PARENT 83 23 51 34 16 84
REMARK Flexibility Score: inf
ROOT
ATOM      1  C   UNL     1       3.584   2.467  -0.442  1.00  0.00     0.275 C 
ENDROOT
BRANCH   1   2
ATOM      2  C   UNL     1       4.664   1.728  -1.222  1.00  0.00     0.275 C 
BRANCH   2   3
ATOM      3  O   UNL     1       4.279   0.407  -1.641  1.00  0.00    -0.458 OA
BRANCH   3   4
ATOM      4  C   UNL     1       4.324  -0.743  -0.934  1.00  0.00     0.338 C 
ATOM      5  O   UNL     1       3.907  -1.788  -1.425  1.00  0.00    -0.246 OA
BRANCH   4   6
ATOM      6  C   UNL     1       4.793  -0.772   0.475  1.00  0.00     0.060 A 
ATOM      7  C   UNL     1       6.003  -0.243   0.927  1.00  0.00     0.016 A 
ATOM      8  C   UNL     1       3.992  -1.477   1.376  1.00  0.00     0.016 A 
ATOM      9  C   UNL     1       6.381  -0.389   2.272  1.00  0.00     0.010 A 
ATOM     10  C   UNL     1       4.344  -1.580   2.724  1.00  0.00     0.010 A 
ATOM     11  C   UNL     1       5.564  -1.080   3.176  1.00  0.00    -0.014 A 
BRANCH  11  12
ATOM     12  C   UNL     1       6.032  -1.418   4.545  1.00  0.00     0.031 A 
ATOM     13  C   UNL     1       6.436  -2.835   4.861  1.00  0.00     0.074 A 
ATOM     14  C   UNL     1       6.077  -0.483   5.512  1.00  0.00     0.049 A 
ATOM     15  N   UNL     1       7.056  -3.300   5.918  1.00  0.00    -0.248 NA
ATOM     16  C   UNL     1       6.094  -3.868   3.868  1.00  0.00     0.031 C 
ATOM     17  C   UNL     1       5.615   0.896   5.377  1.00  0.00     0.029 A 
ATOM     18  N   UNL     1       6.524  -0.561   6.808  1.00  0.00    -0.354 N 
ATOM     19  C   UNL     1       7.236  -4.656   5.680  1.00  0.00     0.074 A 
ATOM     20  C   UNL     1       6.556  -4.967   4.445  1.00  0.00     0.031 C 
ATOM     21  C   UNL     1       5.789   1.534   6.548  1.00  0.00     0.029 A 
ATOM     22  C   UNL     1       6.408   0.617   7.503  1.00  0.00     0.049 A 
ATOM     23  H   UNL     1       6.893  -1.384   7.202  1.00  0.00     0.167 HD
ATOM     24  C   UNL     1       7.961  -5.550   6.393  1.00  0.00     0.037 A 
ATOM     25  C   UNL     1       6.793   0.928   8.756  1.00  0.00     0.037 A 
ATOM     26  C   UNL     1       8.603  -5.250   7.642  1.00  0.00     0.049 A 
ATOM     27  C   UNL     1       7.572  -0.086   9.556  1.00  0.00     0.074 A 
ATOM     28  C   UNL     1       9.402  -6.062   8.427  1.00  0.00     0.029 A 
ATOM     29  N   UNL     1       8.493  -4.035   8.301  1.00  0.00    -0.354 N 
ATOM     30  N   UNL     1       7.904  -1.313   9.238  1.00  0.00    -0.248 NA
ATOM     31  C   UNL     1       8.077   0.350  10.866  1.00  0.00     0.031 C 
ATOM     32  C   UNL     1       9.748  -5.346   9.580  1.00  0.00     0.029 A 
ATOM     33  C   UNL     1       9.196  -4.078   9.493  1.00  0.00     0.049 A 
ATOM     34  H   UNL     1       7.989  -3.257   7.971  1.00  0.00     0.167 HD
ATOM     35  C   UNL     1       8.697  -1.778  10.280  1.00  0.00     0.074 A 
ATOM     36  C   UNL     1       8.797  -0.699  11.240  1.00  0.00     0.031 C 
ATOM     37  C   UNL     1       9.299  -2.985  10.424  1.00  0.00     0.037 A 
BRANCH  24  38
ATOM     38  C   UNL     1       8.139  -6.914   5.792  1.00  0.00     0.064 A 
ATOM     39  C   UNL     1       8.923  -7.091   4.638  1.00  0.00     0.173 A 
ATOM     40  C   UNL     1       7.550  -8.049   6.363  1.00  0.00     0.173 A 
ATOM     41  F   UNL     1       9.506  -6.035   4.050  1.00  0.00    -0.203 F 
ATOM     42  C   UNL     1       9.079  -8.347   4.061  1.00  0.00     0.198 A 
ATOM     43  C   UNL     1       7.730  -9.309   5.797  1.00  0.00     0.198 A 
ATOM     44  F   UNL     1       6.799  -7.938   7.469  1.00  0.00    -0.203 F 
ATOM     45  F   UNL     1       9.791  -8.480   2.933  1.00  0.00    -0.200 F 
ATOM     46  C   UNL     1       8.486  -9.456   4.642  1.00  0.00     0.200 A 
ATOM     47  F   UNL     1       7.167 -10.385   6.365  1.00  0.00    -0.200 F 
ATOM     48  F   UNL     1       8.638 -10.666   4.087  1.00  0.00    -0.200 F 
ENDBRANCH  24  38
BRANCH  25  49
ATOM     49  C   UNL     1       6.527   2.284   9.302  1.00  0.00     0.064 A 
ATOM     50  C   UNL     1       7.564   3.210   9.485  1.00  0.00     0.173 A 
ATOM     51  C   UNL     1       5.231   2.675   9.668  1.00  0.00     0.173 A 
ATOM     52  F   UNL     1       8.822   2.878   9.161  1.00  0.00    -0.203 F 
ATOM     53  C   UNL     1       7.320   4.464  10.043  1.00  0.00     0.198 A 
ATOM     54  C   UNL     1       4.985   3.938  10.205  1.00  0.00     0.198 A 
ATOM     55  F   UNL     1       4.202   1.832   9.501  1.00  0.00    -0.203 F 
ATOM     56  F   UNL     1       8.337   5.312  10.249  1.00  0.00    -0.200 F 
ATOM     57  C   UNL     1       6.031   4.828  10.401  1.00  0.00     0.200 A 
ATOM     58  F   UNL     1       3.736   4.292  10.535  1.00  0.00    -0.200 F 
ATOM     59  F   UNL     1       5.797   6.033  10.938  1.00  0.00    -0.200 F 
ENDBRANCH  25  49
BRANCH  37  60
ATOM     60  C   UNL     1      10.157  -3.186  11.638  1.00  0.00     0.064 A 
ATOM     61  C   UNL     1       9.602  -3.338  12.916  1.00  0.00     0.173 A 
ATOM     62  C   UNL     1      11.552  -3.267  11.511  1.00  0.00     0.173 A 
ATOM     63  F   UNL     1       8.274  -3.253  13.090  1.00  0.00    -0.203 F 
ATOM     64  C   UNL     1      10.415  -3.539  14.028  1.00  0.00     0.198 A 
ATOM     65  C   UNL     1      12.360  -3.496  12.621  1.00  0.00     0.198 A 
ATOM     66  F   UNL     1      12.131  -3.133  10.308  1.00  0.00    -0.203 F 
ATOM     67  F   UNL     1       9.867  -3.635  15.247  1.00  0.00    -0.200 F 
ATOM     68  C   UNL     1      11.791  -3.625  13.879  1.00  0.00     0.200 A 
ATOM     69  F   UNL     1      13.689  -3.590  12.473  1.00  0.00    -0.200 F 
ATOM     70  F   UNL     1      12.571  -3.824  14.950  1.00  0.00    -0.200 F 
ENDBRANCH  37  60
ENDBRANCH  11  12
ENDBRANCH   4   6
ENDBRANCH   3   4
ENDBRANCH   2   3
ENDBRANCH   1   2
BRANCH   1  71
ATOM     71  O   UNL     1       3.321   1.873   0.840  1.00  0.00    -0.458 OA
BRANCH  71  72
ATOM     72  C   UNL     1       2.115   1.267   1.013  1.00  0.00     0.340 C 
ATOM     73  O   UNL     1       1.308   0.998   0.137  1.00  0.00    -0.246 OA
BRANCH  72  74
ATOM     74  C   UNL     1       1.887   1.036   2.459  1.00  0.00     0.087 A 
ATOM     75  C   UNL     1       2.426   1.987   3.355  1.00  0.00     0.019 A 
ATOM     76  C   UNL     1       1.103  -0.010   2.974  1.00  0.00     0.109 A 
ATOM     77  C   UNL     1       2.173   1.901   4.715  1.00  0.00     0.021 A 
ATOM     78  N   UNL     1       0.848  -0.053   4.311  1.00  0.00    -0.254 NA
ATOM     79  C   UNL     1       1.377   0.869   5.143  1.00  0.00     0.111 A 
BRANCH  76  80
ATOM     80  C   UNL     1       0.389  -1.065   2.103  1.00  0.00     0.321 C 
BRANCH  80  81
ATOM     81  N   UNL     1      -0.016  -2.397   2.660  1.00  0.00    -0.322 N 
ATOM     82  C   UNL     1      -0.735  -2.370   3.935  1.00  0.00     0.263 C 
ATOM     83  C   UNL     1       1.056  -3.404   2.782  1.00  0.00     0.234 C 
ATOM     84  H   UNL     1      -0.659  -2.681   1.921  1.00  0.00     0.349 HD
ATOM     85  C   UNL     1       0.237  -2.877   4.992  1.00  0.00     0.068 C 
ATOM     86  C   UNL     1       1.104  -3.863   4.246  1.00  0.00     0.078 C 
BRANCH  83  87
ATOM     87  C   UNL     1       0.939  -4.641   1.893  1.00  0.00     0.098 A 
ATOM     88  C   UNL     1      -0.221  -5.420   1.887  1.00  0.00     0.030 A 
ATOM     89  N   UNL     1       2.079  -5.051   1.274  1.00  0.00    -0.255 NA
ATOM     90  C   UNL     1      -0.202  -6.666   1.262  1.00  0.00     0.004 A 
ATOM     91  C   UNL     1       2.054  -6.249   0.643  1.00  0.00     0.111 A 
ATOM     92  C   UNL     1       0.957  -7.092   0.628  1.00  0.00     0.020 A 
ENDBRANCH  83  87
ENDBRANCH  80  81
ENDBRANCH  76  80
ENDBRANCH  72  74
ENDBRANCH  71  72
ENDBRANCH   1  71
TORSDOF 14
