REMARK SMILES Cc1ccc([C@@H](C)[NH2+][C@@H](C)CCC(=O)OCCOC(=O)c2ccc(-c3c4nc(c(-c5c(F)c(F)c(F)c(F)c5F)c5ccc([nH]5)c(-c5c(F)c(F)c(F)c(F)c5F)c5nc(c(-c6c(F)c(F)c(F)c(F)c6F)c6ccc3[nH]6)C=C5)C=C4)cc2)cc1F
REMARK SMILES IDX 15 1 13 2 14 3 12 4 11 5 9 6 10 7 8 8 6 11 7 12 5 13 1 14
REMARK SMILES IDX 2 15 3 16 85 17 4 18 84 19 86 20 16 21 17 22 18 23 19 24
REMARK SMILES IDX 20 25 21 26 22 27 83 28 23 29 82 30 24 31 25 32 26 33 76 34
REMARK SMILES IDX 27 35 81 36 75 37 77 38 28 39 80 40 74 41 73 42 29 44 61 45
REMARK SMILES IDX 41 46 60 47 42 48 45 49 59 50 78 51 43 52 44 53 58 55 79 56
REMARK SMILES IDX 46 57 30 58 31 59 39 60 32 61 33 62 37 63 40 64 34 65 35 66
REMARK SMILES IDX 38 67 36 68 62 69 63 70 71 71 64 72 65 73 69 74 72 75 66 76
REMARK SMILES IDX 67 77 70 78 68 79 47 80 48 81 56 82 49 83 50 84 54 85 57 86
REMARK SMILES IDX 51 87 52 88 55 89 53 90
REMARK H PARENT 8 9 8 10 77 43 45 54
REMARK Flexibility Score: inf
ROOT
ATOM      1  O   UNL     1      -4.903  -1.109   2.724  1.00  0.00    -0.462 OA
ENDROOT
BRANCH   1   2
ATOM      2  C   UNL     1      -4.368  -1.596   3.873  1.00  0.00     0.306 C 
ATOM      3  O   UNL     1      -4.761  -1.297   4.998  1.00  0.00    -0.252 OA
BRANCH   2   4
ATOM      4  C   UNL     1      -3.175  -2.498   3.658  1.00  0.00     0.129 C 
BRANCH   4   5
ATOM      5  C   UNL     1      -3.334  -3.724   2.749  1.00  0.00     0.076 C 
BRANCH   5   6
ATOM      6  C   UNL     1      -3.470  -3.443   1.237  1.00  0.00     0.180 C 
ATOM      7  C   UNL     1      -3.275  -4.737   0.425  1.00  0.00     0.075 C 
BRANCH   6   8
ATOM      8  N   UNL     1      -2.425  -2.496   0.888  1.00  0.00    -0.338 N 
ATOM      9  H   UNL     1      -2.254  -1.911   1.706  1.00  0.00     0.347 HD
ATOM     10  H   UNL     1      -1.635  -3.072   0.596  1.00  0.00     0.347 HD
BRANCH   8  11
ATOM     11  C   UNL     1      -2.681  -1.608  -0.242  1.00  0.00     0.210 C 
ATOM     12  C   UNL     1      -2.829  -2.309  -1.595  1.00  0.00     0.081 C 
BRANCH  11  13
ATOM     13  C   UNL     1      -1.533  -0.611  -0.281  1.00  0.00     0.012 A 
ATOM     14  C   UNL     1       1.768   2.149   0.027  1.00  0.00     0.047 C 
ATOM     15  C   UNL     1       0.611   1.213  -0.116  1.00  0.00    -0.015 A 
ATOM     16  C   UNL     1      -0.712   1.664  -0.030  1.00  0.00     0.007 A 
ATOM     17  C   UNL     1       0.845  -0.149  -0.300  1.00  0.00     0.126 A 
ATOM     18  C   UNL     1      -1.775   0.759  -0.108  1.00  0.00     0.010 A 
ATOM     19  C   UNL     1      -0.204  -1.051  -0.400  1.00  0.00     0.049 A 
ATOM     20  F   UNL     1       2.102  -0.612  -0.359  1.00  0.00    -0.207 F 
ENDBRANCH  11  13
ENDBRANCH   8  11
ENDBRANCH   6   8
ENDBRANCH   5   6
ENDBRANCH   4   5
ENDBRANCH   2   4
ENDBRANCH   1   2
BRANCH   1  21
ATOM     21  C   UNL     1      -6.019  -0.205   2.874  1.00  0.00     0.274 C 
BRANCH  21  22
ATOM     22  C   UNL     1      -7.381  -0.907   2.881  1.00  0.00     0.275 C 
BRANCH  22  23
ATOM     23  O   UNL     1      -7.580  -1.722   4.045  1.00  0.00    -0.458 OA
BRANCH  23  24
ATOM     24  C   UNL     1      -7.065  -2.962   3.899  1.00  0.00     0.338 C 
ATOM     25  O   UNL     1      -6.447  -3.385   2.937  1.00  0.00    -0.246 OA
BRANCH  24  26
ATOM     26  C   UNL     1      -7.482  -3.880   4.958  1.00  0.00     0.060 A 
ATOM     27  C   UNL     1      -6.602  -4.926   5.277  1.00  0.00     0.016 A 
ATOM     28  C   UNL     1      -8.854  -3.980   5.175  1.00  0.00     0.016 A 
ATOM     29  C   UNL     1      -7.120  -6.171   5.607  1.00  0.00     0.010 A 
ATOM     30  C   UNL     1      -9.365  -5.221   5.490  1.00  0.00     0.010 A 
ATOM     31  C   UNL     1      -8.505  -6.327   5.612  1.00  0.00    -0.014 A 
BRANCH  31  32
ATOM     32  C   UNL     1      -9.161  -7.623   5.635  1.00  0.00     0.031 A 
ATOM     33  C   UNL     1      -9.560  -8.247   6.908  1.00  0.00     0.074 A 
ATOM     34  C   UNL     1      -9.544  -8.207   4.476  1.00  0.00     0.049 A 
ATOM     35  N   UNL     1      -9.822  -9.506   7.034  1.00  0.00    -0.248 NA
ATOM     36  C   UNL     1      -9.675  -7.497   8.153  1.00  0.00     0.031 C 
ATOM     37  C   UNL     1     -10.579  -9.225   4.332  1.00  0.00     0.029 A 
ATOM     38  N   UNL     1      -8.979  -8.100   3.196  1.00  0.00    -0.354 N 
ATOM     39  C   UNL     1     -10.414  -9.675   8.257  1.00  0.00     0.074 A 
ATOM     40  C   UNL     1     -10.223  -8.419   8.953  1.00  0.00     0.031 C 
ATOM     41  C   UNL     1     -10.429  -9.841   3.153  1.00  0.00     0.029 A 
ATOM     42  C   UNL     1      -9.200  -9.352   2.563  1.00  0.00     0.049 A 
ATOM     43  H   UNL     1      -8.522  -7.315   2.814  1.00  0.00     0.167 HD
ATOM     44  C   UNL     1     -11.133 -10.803   8.513  1.00  0.00     0.037 A 
ATOM     45  C   UNL     1      -8.172 -10.145   2.133  1.00  0.00     0.037 A 
ATOM     46  C   UNL     1     -11.171 -11.726   7.386  1.00  0.00     0.049 A 
ATOM     47  C   UNL     1      -8.089 -11.508   2.761  1.00  0.00     0.074 A 
ATOM     48  C   UNL     1     -12.095 -11.989   6.387  1.00  0.00     0.029 A 
ATOM     49  N   UNL     1     -10.007 -12.364   7.002  1.00  0.00    -0.354 N 
ATOM     50  N   UNL     1      -8.915 -11.937   3.670  1.00  0.00    -0.248 NA
ATOM     51  C   UNL     1      -6.999 -12.451   2.504  1.00  0.00     0.031 C 
ATOM     52  C   UNL     1     -11.481 -12.824   5.415  1.00  0.00     0.029 A 
ATOM     53  C   UNL     1     -10.179 -13.053   5.817  1.00  0.00     0.049 A 
ATOM     54  H   UNL     1      -9.163 -12.332   7.508  1.00  0.00     0.167 HD
ATOM     55  C   UNL     1      -8.451 -13.118   4.171  1.00  0.00     0.074 A 
ATOM     56  C   UNL     1      -7.265 -13.421   3.396  1.00  0.00     0.031 C 
ATOM     57  C   UNL     1      -9.045 -13.734   5.227  1.00  0.00     0.037 A 
BRANCH  44  58
ATOM     58  C   UNL     1     -12.006 -10.934   9.727  1.00  0.00     0.064 A 
ATOM     59  C   UNL     1     -13.275 -11.541   9.654  1.00  0.00     0.173 A 
ATOM     60  C   UNL     1     -11.638 -10.445  10.993  1.00  0.00     0.173 A 
ATOM     61  F   UNL     1     -13.716 -12.112   8.526  1.00  0.00    -0.203 F 
ATOM     62  C   UNL     1     -14.149 -11.566  10.740  1.00  0.00     0.198 A 
ATOM     63  C   UNL     1     -12.534 -10.419  12.064  1.00  0.00     0.198 A 
ATOM     64  F   UNL     1     -10.396  -9.993  11.221  1.00  0.00    -0.203 F 
ATOM     65  F   UNL     1     -15.348 -12.151  10.613  1.00  0.00    -0.200 F 
ATOM     66  C   UNL     1     -13.793 -10.972  11.934  1.00  0.00     0.200 A 
ATOM     67  F   UNL     1     -12.172  -9.846  13.220  1.00  0.00    -0.200 F 
ATOM     68  F   UNL     1     -14.656 -10.944  12.958  1.00  0.00    -0.200 F 
ENDBRANCH  44  58
BRANCH  45  69
ATOM     69  C   UNL     1      -7.003  -9.361   1.682  1.00  0.00     0.064 A 
ATOM     70  C   UNL     1      -7.174  -8.619   0.502  1.00  0.00     0.173 A 
ATOM     71  C   UNL     1      -6.068  -8.925   2.630  1.00  0.00     0.173 A 
ATOM     72  F   UNL     1      -8.031  -9.038  -0.442  1.00  0.00    -0.203 F 
ATOM     73  C   UNL     1      -6.621  -7.356   0.392  1.00  0.00     0.198 A 
ATOM     74  C   UNL     1      -5.515  -7.658   2.513  1.00  0.00     0.198 A 
ATOM     75  F   UNL     1      -5.842  -9.639   3.742  1.00  0.00    -0.203 F 
ATOM     76  F   UNL     1      -6.915  -6.580  -0.660  1.00  0.00    -0.200 F 
ATOM     77  C   UNL     1      -5.868  -6.854   1.438  1.00  0.00     0.200 A 
ATOM     78  F   UNL     1      -4.733  -7.173   3.488  1.00  0.00    -0.200 F 
ATOM     79  F   UNL     1      -5.551  -5.559   1.441  1.00  0.00    -0.200 F 
ENDBRANCH  45  69
BRANCH  57  80
ATOM     80  C   UNL     1      -8.587 -15.043   5.776  1.00  0.00     0.064 A 
ATOM     81  C   UNL     1      -8.377 -16.157   4.950  1.00  0.00     0.173 A 
ATOM     82  C   UNL     1      -8.484 -15.252   7.164  1.00  0.00     0.173 A 
ATOM     83  F   UNL     1      -8.491 -16.051   3.617  1.00  0.00    -0.203 F 
ATOM     84  C   UNL     1      -8.063 -17.406   5.484  1.00  0.00     0.198 A 
ATOM     85  C   UNL     1      -8.215 -16.510   7.696  1.00  0.00     0.198 A 
ATOM     86  F   UNL     1      -8.625 -14.239   8.031  1.00  0.00    -0.203 F 
ATOM     87  F   UNL     1      -7.835 -18.442   4.664  1.00  0.00    -0.200 F 
ATOM     88  C   UNL     1      -7.998 -17.586   6.856  1.00  0.00     0.200 A 
ATOM     89  F   UNL     1      -8.168 -16.673   9.025  1.00  0.00    -0.200 F 
ATOM     90  F   UNL     1      -7.725 -18.793   7.367  1.00  0.00    -0.200 F 
ENDBRANCH  57  80
ENDBRANCH  31  32
ENDBRANCH  24  26
ENDBRANCH  23  24
ENDBRANCH  22  23
ENDBRANCH  21  22
ENDBRANCH   1  21
TORSDOF 16
