REMARK SMILES COc1ccc2c(c1)c(Cc1nc(-c3ccc(C(=O)OCCOC(=O)c4ccc(-c5c6nc(c(-c7c(F)c(F)c(F)c(F)c7F)c7ccc([nH]7)c(-c7c(F)c(F)c(F)c(F)c7F)c7nc(c(-c8c(F)c(F)c(F)c(F)c8F)c8ccc5[nH]8)C=C7)C=C6)cc4)cc3)cs1)c(C)n2C(=O)c1ccc(Cl)cc1
REMARK SMILES IDX 20 1 18 2 19 3 17 4 14 5 15 6 90 7 16 8 89 9 13 10 11 11
REMARK SMILES IDX 12 12 92 13 91 14 10 15 9 16 3 17 4 18 8 19 5 20 7 21 6 22
REMARK SMILES IDX 95 23 93 24 94 25 2 26 1 27 96 28 97 29 98 30 99 31 104 32
REMARK SMILES IDX 100 33 103 34 101 35 102 36 21 37 22 38 23 39 24 40 25 41
REMARK SMILES IDX 26 42 27 43 88 44 28 45 87 46 29 47 30 48 31 49 81 50 32 51
REMARK SMILES IDX 86 52 80 53 82 54 33 55 85 56 79 57 78 58 34 60 66 61 46 62
REMARK SMILES IDX 65 63 47 64 50 65 64 66 83 67 48 68 49 69 63 71 84 72 51 73
REMARK SMILES IDX 35 74 36 75 44 76 37 77 38 78 42 79 45 80 39 81 40 82 43 83
REMARK SMILES IDX 41 84 67 85 68 86 76 87 69 88 70 89 74 90 77 91 71 92 72 93
REMARK SMILES IDX 75 94 73 95 52 96 53 97 61 98 54 99 55 100 59 101 62 102
REMARK SMILES IDX 56 103 57 104 60 105 58 106
REMARK H PARENT 82 59 50 70
REMARK Flexibility Score: inf
ROOT
ATOM      1  O   UNL     1      -3.708   6.765   0.691  1.00  0.00    -0.458 OA
ENDROOT
BRANCH   1   2
ATOM      2  C   UNL     1      -2.549   6.072   0.821  1.00  0.00     0.338 C 
ATOM      3  O   UNL     1      -1.467   6.392   0.354  1.00  0.00    -0.246 OA
BRANCH   2   4
ATOM      4  C   UNL     1      -2.722   4.926   1.764  1.00  0.00     0.060 A 
ATOM      5  C   UNL     1      -2.932   3.118   3.929  1.00  0.00     0.001 A 
ATOM      6  C   UNL     1      -1.723   3.740   3.652  1.00  0.00     0.011 A 
ATOM      7  C   UNL     1      -3.986   3.277   3.018  1.00  0.00     0.011 A 
ATOM      8  C   UNL     1      -1.635   4.604   2.566  1.00  0.00     0.016 A 
ATOM      9  C   UNL     1      -3.891   4.197   1.949  1.00  0.00     0.016 A 
BRANCH   5  10
ATOM     10  C   UNL     1      -3.036   2.344   5.154  1.00  0.00     0.081 A 
ATOM     11  C   UNL     1      -2.777   0.497   6.337  1.00  0.00     0.098 A 
ATOM     12  N   UNL     1      -3.096   0.971   5.146  1.00  0.00    -0.241 NA
ATOM     13  S   UNL     1      -2.732   1.675   7.590  1.00  0.00    -0.126 S 
ATOM     14  C   UNL     1      -2.926   2.910   6.411  1.00  0.00     0.095 A 
BRANCH  11  15
ATOM     15  C   UNL     1      -2.390  -0.941   6.603  1.00  0.00     0.105 C 
BRANCH  15  16
ATOM     16  C   UNL     1      -0.936  -1.209   6.261  1.00  0.00    -0.012 A 
ATOM     17  C   UNL     1      -0.231  -0.412   2.622  1.00  0.00     0.119 A 
ATOM     18  C   UNL     1       1.123  -0.649   2.699  1.00  0.00     0.048 A 
ATOM     19  C   UNL     1      -0.976  -0.614   3.760  1.00  0.00     0.057 A 
ATOM     20  C   UNL     1       1.759  -1.103   3.870  1.00  0.00     0.031 A 
ATOM     21  C   UNL     1      -0.382  -1.015   4.974  1.00  0.00     0.008 A 
ATOM     22  C   UNL     1       0.988  -1.288   5.030  1.00  0.00     0.057 A 
ATOM     23  N   UNL     1       1.283  -1.769   6.321  1.00  0.00    -0.280 N 
ATOM     24  C   UNL     1       0.080  -1.712   7.066  1.00  0.00     0.028 A 
ATOM     25  C   UNL     1      -0.095  -2.154   8.484  1.00  0.00     0.065 C 
BRANCH  17  26
ATOM     26  O   UNL     1      -0.946   0.011   1.542  1.00  0.00    -0.497 OA
ATOM     27  C   UNL     1      -0.319  -0.049   0.273  1.00  0.00     0.278 C 
ENDBRANCH  17  26
BRANCH  23  28
ATOM     28  C   UNL     1       2.538  -2.285   6.777  1.00  0.00     0.262 C 
ATOM     29  O   UNL     1       2.584  -2.822   7.885  1.00  0.00    -0.268 OA
BRANCH  28  30
ATOM     30  C   UNL     1       3.836  -2.305   6.064  1.00  0.00     0.040 A 
ATOM     31  C   UNL     1       4.532  -1.127   5.761  1.00  0.00     0.015 A 
ATOM     32  C   UNL     1       4.454  -3.550   5.862  1.00  0.00     0.015 A 
ATOM     33  C   UNL     1       5.817  -1.205   5.205  1.00  0.00     0.021 A 
ATOM     34  C   UNL     1       5.738  -3.622   5.316  1.00  0.00     0.021 A 
ATOM     35  C   UNL     1       6.413  -2.450   4.987  1.00  0.00     0.041 A 
ATOM     36  Cl  UNL     1       8.006  -2.537   4.346  1.00  0.00    -0.084 Cl
ENDBRANCH  28  30
ENDBRANCH  23  28
ENDBRANCH  15  16
ENDBRANCH  11  15
ENDBRANCH   5  10
ENDBRANCH   2   4
ENDBRANCH   1   2
BRANCH   1  37
ATOM     37  C   UNL     1      -3.650   7.995  -0.075  1.00  0.00     0.275 C 
BRANCH  37  38
ATOM     38  C   UNL     1      -4.130   9.184   0.770  1.00  0.00     0.275 C 
BRANCH  38  39
ATOM     39  O   UNL     1      -3.048   9.605   1.619  1.00  0.00    -0.458 OA
BRANCH  39  40
ATOM     40  C   UNL     1      -3.136   9.257   2.920  1.00  0.00     0.338 C 
ATOM     41  O   UNL     1      -4.163   9.068   3.564  1.00  0.00    -0.246 OA
BRANCH  40  42
ATOM     42  C   UNL     1      -1.796   8.773   3.319  1.00  0.00     0.060 A 
ATOM     43  C   UNL     1      -0.619   9.221   2.704  1.00  0.00     0.016 A 
ATOM     44  C   UNL     1      -1.759   7.654   4.138  1.00  0.00     0.016 A 
ATOM     45  C   UNL     1       0.524   8.407   2.705  1.00  0.00     0.010 A 
ATOM     46  C   UNL     1      -0.603   6.883   4.164  1.00  0.00     0.010 A 
ATOM     47  C   UNL     1       0.495   7.155   3.326  1.00  0.00    -0.014 A 
BRANCH  47  48
ATOM     48  C   UNL     1       1.682   6.248   3.339  1.00  0.00     0.031 A 
ATOM     49  C   UNL     1       2.468   6.537   4.567  1.00  0.00     0.074 A 
ATOM     50  C   UNL     1       2.088   5.224   2.525  1.00  0.00     0.049 A 
ATOM     51  N   UNL     1       3.495   7.319   4.639  1.00  0.00    -0.248 NA
ATOM     52  C   UNL     1       1.923   6.134   5.873  1.00  0.00     0.031 C 
ATOM     53  C   UNL     1       1.450   4.593   1.366  1.00  0.00     0.029 A 
ATOM     54  N   UNL     1       3.254   4.476   2.606  1.00  0.00    -0.354 N 
ATOM     55  C   UNL     1       3.830   7.355   5.983  1.00  0.00     0.074 A 
ATOM     56  C   UNL     1       2.695   6.840   6.699  1.00  0.00     0.031 C 
ATOM     57  C   UNL     1       2.114   3.466   0.989  1.00  0.00     0.029 A 
ATOM     58  C   UNL     1       3.360   3.363   1.729  1.00  0.00     0.049 A 
ATOM     59  H   UNL     1       3.972   4.705   3.240  1.00  0.00     0.167 HD
ATOM     60  C   UNL     1       5.119   7.522   6.379  1.00  0.00     0.037 A 
ATOM     61  C   UNL     1       4.418   2.486   1.601  1.00  0.00     0.037 A 
ATOM     62  C   UNL     1       5.932   8.051   5.310  1.00  0.00     0.049 A 
ATOM     63  C   UNL     1       5.557   3.204   2.200  1.00  0.00     0.074 A 
ATOM     64  C   UNL     1       5.894   9.195   4.532  1.00  0.00     0.029 A 
ATOM     65  N   UNL     1       6.736   7.178   4.622  1.00  0.00    -0.354 N 
ATOM     66  N   UNL     1       6.190   4.150   1.578  1.00  0.00    -0.248 NA
ATOM     67  C   UNL     1       5.760   3.117   3.635  1.00  0.00     0.031 C 
ATOM     68  C   UNL     1       6.249   8.769   3.216  1.00  0.00     0.029 A 
ATOM     69  C   UNL     1       6.546   7.412   3.282  1.00  0.00     0.049 A 
ATOM     70  H   UNL     1       7.339   6.507   5.016  1.00  0.00     0.167 HD
ATOM     71  C   UNL     1       6.501   5.047   2.577  1.00  0.00     0.074 A 
ATOM     72  C   UNL     1       6.296   4.323   3.833  1.00  0.00     0.031 C 
ATOM     73  C   UNL     1       6.601   6.374   2.291  1.00  0.00     0.037 A 
BRANCH  60  74
ATOM     74  C   UNL     1       5.688   6.852   7.604  1.00  0.00     0.064 A 
ATOM     75  C   UNL     1       6.965   7.223   8.059  1.00  0.00     0.173 A 
ATOM     76  C   UNL     1       5.144   5.694   8.209  1.00  0.00     0.173 A 
ATOM     77  F   UNL     1       7.604   8.270   7.517  1.00  0.00    -0.203 F 
ATOM     78  C   UNL     1       7.651   6.476   9.021  1.00  0.00     0.198 A 
ATOM     79  C   UNL     1       5.800   4.992   9.216  1.00  0.00     0.198 A 
ATOM     80  F   UNL     1       4.017   5.118   7.776  1.00  0.00    -0.203 F 
ATOM     81  F   UNL     1       8.911   6.800   9.338  1.00  0.00    -0.200 F 
ATOM     82  C   UNL     1       7.065   5.367   9.605  1.00  0.00     0.200 A 
ATOM     83  F   UNL     1       5.222   3.902   9.741  1.00  0.00    -0.200 F 
ATOM     84  F   UNL     1       7.736   4.627  10.496  1.00  0.00    -0.200 F 
ENDBRANCH  60  74
BRANCH  61  85
ATOM     85  C   UNL     1       4.723   1.113   1.053  1.00  0.00     0.064 A 
ATOM     86  C   UNL     1       5.999   0.516   1.224  1.00  0.00     0.173 A 
ATOM     87  C   UNL     1       3.744   0.230   0.616  1.00  0.00     0.173 A 
ATOM     88  F   UNL     1       7.075   1.265   1.504  1.00  0.00    -0.203 F 
ATOM     89  C   UNL     1       6.205  -0.871   1.177  1.00  0.00     0.198 A 
ATOM     90  C   UNL     1       3.928  -1.167   0.617  1.00  0.00     0.198 A 
ATOM     91  F   UNL     1       2.559   0.704   0.232  1.00  0.00    -0.203 F 
ATOM     92  F   UNL     1       7.425  -1.376   1.405  1.00  0.00    -0.200 F 
ATOM     93  C   UNL     1       5.145  -1.719   0.955  1.00  0.00     0.200 A 
ATOM     94  F   UNL     1       2.887  -1.977   0.372  1.00  0.00    -0.200 F 
ATOM     95  F   UNL     1       5.288  -3.047   1.074  1.00  0.00    -0.200 F 
ENDBRANCH  61  85
BRANCH  73  96
ATOM     96  C   UNL     1       6.539   6.760   0.836  1.00  0.00     0.064 A 
ATOM     97  C   UNL     1       5.417   6.554   0.008  1.00  0.00     0.173 A 
ATOM     98  C   UNL     1       7.630   7.428   0.275  1.00  0.00     0.173 A 
ATOM     99  F   UNL     1       4.303   5.988   0.486  1.00  0.00    -0.203 F 
ATOM    100  C   UNL     1       5.410   6.962  -1.326  1.00  0.00     0.198 A 
ATOM    101  C   UNL     1       7.609   7.867  -1.047  1.00  0.00     0.198 A 
ATOM    102  F   UNL     1       8.715   7.681   1.022  1.00  0.00    -0.203 F 
ATOM    103  F   UNL     1       4.336   6.734  -2.098  1.00  0.00    -0.200 F 
ATOM    104  C   UNL     1       6.505   7.626  -1.850  1.00  0.00     0.200 A 
ATOM    105  F   UNL     1       8.657   8.540  -1.540  1.00  0.00    -0.200 F 
ATOM    106  F   UNL     1       6.490   8.052  -3.121  1.00  0.00    -0.200 F 
ENDBRANCH  73  96
ENDBRANCH  47  48
ENDBRANCH  40  42
ENDBRANCH  39  40
ENDBRANCH  38  39
ENDBRANCH  37  38
ENDBRANCH   1  37
TORSDOF 17
