REMARK SMILES CCc1cc(C(=O)c2[nH]c3cc(Cl)ccc3c2CC(=O)OCCOC(=O)c2ccc(-c3c4nc(c(-c5c(F)c(F)c(F)c(F)c5F)c5ccc([nH]5)c(-c5c(F)c(F)c(F)c(F)c5F)c5nc(c(-c6c(F)c(F)c(F)c(F)c6F)c6ccc3[nH]6)C=C5)C=C4)cc2)ncc1Cl
REMARK SMILES IDX 22 1 21 2 19 3 20 4 18 5 17 6 8 7 9 8 10 9 16 11 11 12 15 13
REMARK SMILES IDX 12 14 14 15 13 16 6 17 7 18 5 19 3 20 4 21 92 22 91 23 93 24
REMARK SMILES IDX 90 25 2 26 1 27 23 28 24 29 25 30 26 31 27 32 28 33 89 34
REMARK SMILES IDX 29 35 88 36 30 37 31 38 32 39 82 40 33 41 87 42 81 43 83 44
REMARK SMILES IDX 34 45 86 46 80 47 79 48 35 50 67 51 47 52 66 53 48 54 51 55
REMARK SMILES IDX 65 56 84 57 49 58 50 59 64 61 85 62 52 63 36 64 37 65 45 66
REMARK SMILES IDX 38 67 39 68 43 69 46 70 40 71 41 72 44 73 42 74 68 75 69 76
REMARK SMILES IDX 77 77 70 78 71 79 75 80 78 81 72 82 73 83 76 84 74 85 53 86
REMARK SMILES IDX 54 87 62 88 55 89 56 90 60 91 63 92 57 93 58 94 61 95 59 96
REMARK H PARENT 9 10 83 49 51 60
REMARK Flexibility Score: inf
ROOT
ATOM      1  C   UNL     1       3.731  -0.018 -10.148  1.00  0.00     0.274 C 
ENDROOT
BRANCH   1   2
ATOM      2  O   UNL     1       3.469   0.747  -8.950  1.00  0.00    -0.462 OA
BRANCH   2   3
ATOM      3  C   UNL     1       2.203   1.205  -8.794  1.00  0.00     0.310 C 
ATOM      4  O   UNL     1       1.335   1.139  -9.664  1.00  0.00    -0.252 OA
BRANCH   3   5
ATOM      5  C   UNL     1       1.859   1.666  -7.394  1.00  0.00     0.161 C 
BRANCH   5   6
ATOM      6  C   UNL     1       2.952   2.180  -6.510  1.00  0.00     0.000 A 
ATOM      7  C   UNL     1       3.693   1.485  -5.553  1.00  0.00     0.093 A 
ATOM      8  N   UNL     1       4.563   2.384  -4.985  1.00  0.00    -0.351 N 
ATOM      9  C   UNL     1       4.308   3.657  -5.419  1.00  0.00     0.048 A 
ATOM     10  H   UNL     1       5.275   2.145  -4.349  1.00  0.00     0.167 HD
ATOM     11  C   UNL     1       3.352   3.559  -6.426  1.00  0.00     0.004 A 
ATOM     12  C   UNL     1       4.864   4.871  -5.004  1.00  0.00     0.047 A 
ATOM     13  C   UNL     1       2.963   4.741  -7.093  1.00  0.00     0.012 A 
ATOM     14  C   UNL     1       4.440   6.026  -5.662  1.00  0.00     0.043 A 
ATOM     15  C   UNL     1       3.516   5.969  -6.701  1.00  0.00     0.021 A 
ATOM     16  Cl  UNL     1       5.076   7.550  -5.172  1.00  0.00    -0.084 Cl
BRANCH   7  17
ATOM     17  C   UNL     1       3.751   0.089  -5.147  1.00  0.00     0.227 C 
ATOM     18  O   UNL     1       4.769  -0.572  -5.350  1.00  0.00    -0.285 OA
BRANCH  17  19
ATOM     19  C   UNL     1       2.694  -0.470  -4.222  1.00  0.00     0.113 A 
ATOM     20  C   UNL     1       1.194  -0.205  -2.329  1.00  0.00    -0.026 A 
ATOM     21  C   UNL     1       1.946   0.360  -3.382  1.00  0.00     0.037 A 
ATOM     22  C   UNL     1       1.202  -1.597  -2.188  1.00  0.00     0.062 A 
ATOM     23  C   UNL     1       1.936  -2.349  -3.094  1.00  0.00     0.132 A 
ATOM     24  Cl  UNL     1       0.377  -2.413  -0.916  1.00  0.00    -0.082 Cl
ATOM     25  N   UNL     1       2.678  -1.824  -4.094  1.00  0.00    -0.251 NA
BRANCH  20  26
ATOM     26  C   UNL     1       0.475   0.708  -1.361  1.00  0.00     0.034 C 
ATOM     27  C   UNL     1       1.197   0.836  -0.024  1.00  0.00     0.009 C 
ENDBRANCH  20  26
ENDBRANCH  17  19
ENDBRANCH   7  17
ENDBRANCH   5   6
ENDBRANCH   3   5
ENDBRANCH   2   3
ENDBRANCH   1   2
BRANCH   1  28
ATOM     28  C   UNL     1       3.774  -1.526  -9.857  1.00  0.00     0.275 C 
BRANCH  28  29
ATOM     29  O   UNL     1       2.475  -2.070  -9.532  1.00  0.00    -0.458 OA
BRANCH  29  30
ATOM     30  C   UNL     1       2.156  -1.954  -8.228  1.00  0.00     0.338 C 
ATOM     31  O   UNL     1       2.813  -1.411  -7.354  1.00  0.00    -0.246 OA
BRANCH  30  32
ATOM     32  C   UNL     1       0.824  -2.457  -7.910  1.00  0.00     0.060 A 
ATOM     33  C   UNL     1      -0.177  -1.515  -7.665  1.00  0.00     0.016 A 
ATOM     34  C   UNL     1       0.646  -3.799  -7.573  1.00  0.00     0.016 A 
ATOM     35  C   UNL     1      -1.337  -1.899  -7.009  1.00  0.00     0.010 A 
ATOM     36  C   UNL     1      -0.552  -4.196  -6.973  1.00  0.00     0.010 A 
ATOM     37  C   UNL     1      -1.536  -3.243  -6.659  1.00  0.00    -0.014 A 
BRANCH  37  38
ATOM     38  C   UNL     1      -2.798  -3.635  -5.993  1.00  0.00     0.031 A 
ATOM     39  C   UNL     1      -2.821  -4.065  -4.556  1.00  0.00     0.074 A 
ATOM     40  C   UNL     1      -3.941  -3.568  -6.697  1.00  0.00     0.049 A 
ATOM     41  N   UNL     1      -3.841  -4.433  -3.822  1.00  0.00    -0.248 NA
ATOM     42  C   UNL     1      -1.533  -4.087  -3.850  1.00  0.00     0.031 C 
ATOM     43  C   UNL     1      -4.042  -3.146  -8.095  1.00  0.00     0.029 A 
ATOM     44  N   UNL     1      -5.231  -3.855  -6.337  1.00  0.00    -0.354 N 
ATOM     45  C   UNL     1      -3.323  -4.708  -2.565  1.00  0.00     0.074 A 
ATOM     46  C   UNL     1      -1.892  -4.522  -2.649  1.00  0.00     0.031 C 
ATOM     47  C   UNL     1      -5.327  -3.197  -8.474  1.00  0.00     0.029 A 
ATOM     48  C   UNL     1      -6.127  -3.704  -7.364  1.00  0.00     0.049 A 
ATOM     49  H   UNL     1      -5.489  -4.141  -5.431  1.00  0.00     0.167 HD
ATOM     50  C   UNL     1      -3.983  -5.069  -1.439  1.00  0.00     0.037 A 
ATOM     51  C   UNL     1      -7.442  -3.978  -7.417  1.00  0.00     0.037 A 
ATOM     52  C   UNL     1      -5.400  -5.302  -1.368  1.00  0.00     0.049 A 
ATOM     53  C   UNL     1      -8.129  -4.508  -6.194  1.00  0.00     0.074 A 
ATOM     54  C   UNL     1      -6.164  -5.674  -0.275  1.00  0.00     0.029 A 
ATOM     55  N   UNL     1      -6.264  -5.208  -2.448  1.00  0.00    -0.354 N 
ATOM     56  N   UNL     1      -7.635  -4.725  -5.000  1.00  0.00    -0.248 NA
ATOM     57  C   UNL     1      -9.552  -4.840  -6.330  1.00  0.00     0.031 C 
ATOM     58  C   UNL     1      -7.485  -5.847  -0.706  1.00  0.00     0.029 A 
ATOM     59  C   UNL     1      -7.548  -5.551  -2.058  1.00  0.00     0.049 A 
ATOM     60  H   UNL     1      -6.003  -4.937  -3.358  1.00  0.00     0.167 HD
ATOM     61  C   UNL     1      -8.687  -5.208  -4.237  1.00  0.00     0.074 A 
ATOM     62  C   UNL     1      -9.850  -5.242  -5.101  1.00  0.00     0.031 C 
ATOM     63  C   UNL     1      -8.688  -5.589  -2.936  1.00  0.00     0.037 A 
BRANCH  50  64
ATOM     64  C   UNL     1      -3.174  -5.241  -0.190  1.00  0.00     0.064 A 
ATOM     65  C   UNL     1      -2.756  -4.132   0.562  1.00  0.00     0.173 A 
ATOM     66  C   UNL     1      -2.850  -6.519   0.283  1.00  0.00     0.173 A 
ATOM     67  F   UNL     1      -3.041  -2.889   0.146  1.00  0.00    -0.203 F 
ATOM     68  C   UNL     1      -2.031  -4.299   1.739  1.00  0.00     0.198 A 
ATOM     69  C   UNL     1      -2.136  -6.683   1.468  1.00  0.00     0.198 A 
ATOM     70  F   UNL     1      -3.230  -7.609  -0.400  1.00  0.00    -0.203 F 
ATOM     71  F   UNL     1      -1.625  -3.227   2.434  1.00  0.00    -0.200 F 
ATOM     72  C   UNL     1      -1.725  -5.574   2.193  1.00  0.00     0.200 A 
ATOM     73  F   UNL     1      -1.847  -7.915   1.909  1.00  0.00    -0.200 F 
ATOM     74  F   UNL     1      -1.032  -5.734   3.329  1.00  0.00    -0.200 F 
ENDBRANCH  50  64
BRANCH  51  75
ATOM     75  C   UNL     1      -8.167  -3.780  -8.694  1.00  0.00     0.064 A 
ATOM     76  C   UNL     1      -9.067  -2.721  -8.856  1.00  0.00     0.173 A 
ATOM     77  C   UNL     1      -7.929  -4.618  -9.794  1.00  0.00     0.173 A 
ATOM     78  F   UNL     1      -9.336  -1.906  -7.826  1.00  0.00    -0.203 F 
ATOM     79  C   UNL     1      -9.704  -2.506 -10.076  1.00  0.00     0.198 A 
ATOM     80  C   UNL     1      -8.548  -4.388 -11.018  1.00  0.00     0.198 A 
ATOM     81  F   UNL     1      -7.070  -5.642  -9.684  1.00  0.00    -0.203 F 
ATOM     82  F   UNL     1     -10.576  -1.497 -10.204  1.00  0.00    -0.200 F 
ATOM     83  C   UNL     1      -9.437  -3.333 -11.158  1.00  0.00     0.200 A 
ATOM     84  F   UNL     1      -8.275  -5.179 -12.064  1.00  0.00    -0.200 F 
ATOM     85  F   UNL     1     -10.038  -3.114 -12.335  1.00  0.00    -0.200 F 
ENDBRANCH  51  75
BRANCH  63  86
ATOM     86  C   UNL     1      -9.990  -6.068  -2.373  1.00  0.00     0.064 A 
ATOM     87  C   UNL     1     -10.483  -7.346  -2.671  1.00  0.00     0.173 A 
ATOM     88  C   UNL     1     -10.736  -5.253  -1.511  1.00  0.00     0.173 A 
ATOM     89  F   UNL     1      -9.810  -8.152  -3.505  1.00  0.00    -0.203 F 
ATOM     90  C   UNL     1     -11.692  -7.785  -2.138  1.00  0.00     0.198 A 
ATOM     91  C   UNL     1     -11.934  -5.703  -0.964  1.00  0.00     0.198 A 
ATOM     92  F   UNL     1     -10.301  -4.024  -1.197  1.00  0.00    -0.203 F 
ATOM     93  F   UNL     1     -12.166  -8.995  -2.464  1.00  0.00    -0.200 F 
ATOM     94  C   UNL     1     -12.413  -6.965  -1.281  1.00  0.00     0.200 A 
ATOM     95  F   UNL     1     -12.627  -4.913  -0.132  1.00  0.00    -0.200 F 
ATOM     96  F   UNL     1     -13.576  -7.389  -0.769  1.00  0.00    -0.200 F 
ENDBRANCH  63  86
ENDBRANCH  37  38
ENDBRANCH  30  32
ENDBRANCH  29  30
ENDBRANCH  28  29
ENDBRANCH   1  28
TORSDOF 15
