REMARK SMILES O=C(OCCOC(=O)c1ccc(Br)c(NC(=S)NC(=O)c2cccs2)c1)c1ccc(-c2c3nc(c(-c4c(F)c(F)c(F)c(F)c4F)c4ccc([nH]4)c(-c4c(F)c(F)c(F)c(F)c4F)c4nc(c(-c5c(F)c(F)c(F)c(F)c5F)c5ccc2[nH]5)C=C4)C=C3)cc1
REMARK SMILES IDX 5 1 4 2 3 3 2 4 1 5 27 6 28 7 89 8 29 9 88 10 30 11 31 12
REMARK SMILES IDX 32 13 82 14 33 15 87 16 81 17 83 18 34 19 86 20 80 21 79 22
REMARK SMILES IDX 35 24 67 25 47 26 66 27 48 28 51 29 65 30 84 31 49 32 50 33
REMARK SMILES IDX 64 35 85 36 52 37 36 38 37 39 45 40 38 41 39 42 43 43 46 44
REMARK SMILES IDX 40 45 41 46 44 47 42 48 68 49 69 50 77 51 70 52 71 53 75 54
REMARK SMILES IDX 78 55 72 56 73 57 76 58 74 59 53 60 54 61 62 62 55 63 56 64
REMARK SMILES IDX 60 65 63 66 57 67 58 68 61 69 59 70 6 71 7 72 8 73 9 74
REMARK SMILES IDX 10 75 26 76 11 77 14 78 12 79 13 80 15 81 16 83 17 84 18 85
REMARK SMILES IDX 19 86 20 88 21 89 22 90 25 91 23 92 24 93
REMARK H PARENT 83 23 51 34 15 82 18 87
REMARK Flexibility Score: inf
ROOT
ATOM      1  C   UNL     1       4.015  -1.616  -1.373  1.00  0.00     0.275 C 
ENDROOT
BRANCH   1   2
ATOM      2  C   UNL     1       4.790  -1.591  -0.044  1.00  0.00     0.275 C 
BRANCH   2   3
ATOM      3  O   UNL     1       4.124  -0.903   1.017  1.00  0.00    -0.458 OA
BRANCH   3   4
ATOM      4  C   UNL     1       3.853   0.416   1.091  1.00  0.00     0.338 C 
ATOM      5  O   UNL     1       2.949   0.779   1.844  1.00  0.00    -0.246 OA
BRANCH   4   6
ATOM      6  C   UNL     1       4.558   1.473   0.282  1.00  0.00     0.060 A 
ATOM      7  C   UNL     1       5.536   1.303  -0.706  1.00  0.00     0.016 A 
ATOM      8  C   UNL     1       4.053   2.764   0.456  1.00  0.00     0.016 A 
ATOM      9  C   UNL     1       5.880   2.333  -1.592  1.00  0.00     0.010 A 
ATOM     10  C   UNL     1       4.295   3.751  -0.499  1.00  0.00     0.010 A 
ATOM     11  C   UNL     1       5.223   3.553  -1.533  1.00  0.00    -0.014 A 
BRANCH  11  12
ATOM     12  C   UNL     1       5.612   4.708  -2.380  1.00  0.00     0.031 A 
ATOM     13  C   UNL     1       6.023   5.954  -1.652  1.00  0.00     0.074 A 
ATOM     14  C   UNL     1       5.579   4.700  -3.728  1.00  0.00     0.049 A 
ATOM     15  N   UNL     1       6.179   7.169  -2.097  1.00  0.00    -0.248 NA
ATOM     16  C   UNL     1       6.222   5.816  -0.195  1.00  0.00     0.031 C 
ATOM     17  C   UNL     1       5.292   3.547  -4.579  1.00  0.00     0.029 A 
ATOM     18  N   UNL     1       5.768   5.723  -4.629  1.00  0.00    -0.354 N 
ATOM     19  C   UNL     1       6.478   7.913  -0.968  1.00  0.00     0.074 A 
ATOM     20  C   UNL     1       6.237   7.079   0.183  1.00  0.00     0.031 C 
ATOM     21  C   UNL     1       5.269   3.936  -5.867  1.00  0.00     0.029 A 
ATOM     22  C   UNL     1       5.519   5.369  -5.935  1.00  0.00     0.049 A 
ATOM     23  H   UNL     1       6.055   6.627  -4.362  1.00  0.00     0.167 HD
ATOM     24  C   UNL     1       7.056   9.130  -0.889  1.00  0.00     0.037 A 
ATOM     25  C   UNL     1       5.490   6.122  -7.053  1.00  0.00     0.037 A 
ATOM     26  C   UNL     1       7.383   9.912  -2.040  1.00  0.00     0.049 A 
ATOM     27  C   UNL     1       5.951   7.553  -6.955  1.00  0.00     0.074 A 
ATOM     28  C   UNL     1       8.019  11.133  -2.102  1.00  0.00     0.029 A 
ATOM     29  N   UNL     1       7.093   9.530  -3.343  1.00  0.00    -0.354 N 
ATOM     30  N   UNL     1       6.314   8.228  -5.891  1.00  0.00    -0.248 NA
ATOM     31  C   UNL     1       6.076   8.303  -8.212  1.00  0.00     0.031 C 
ATOM     32  C   UNL     1       8.052  11.525  -3.443  1.00  0.00     0.029 A 
ATOM     33  C   UNL     1       7.506  10.512  -4.220  1.00  0.00     0.049 A 
ATOM     34  H   UNL     1       6.657   8.686  -3.602  1.00  0.00     0.167 HD
ATOM     35  C   UNL     1       6.802   9.442  -6.355  1.00  0.00     0.074 A 
ATOM     36  C   UNL     1       6.642   9.428  -7.795  1.00  0.00     0.031 C 
ATOM     37  C   UNL     1       7.372  10.453  -5.655  1.00  0.00     0.037 A 
BRANCH  24  38
ATOM     38  C   UNL     1       7.386   9.616   0.491  1.00  0.00     0.064 A 
ATOM     39  C   UNL     1       8.312   8.940   1.309  1.00  0.00     0.173 A 
ATOM     40  C   UNL     1       6.676  10.685   1.048  1.00  0.00     0.173 A 
ATOM     41  F   UNL     1       8.999   7.890   0.830  1.00  0.00    -0.203 F 
ATOM     42  C   UNL     1       8.442   9.258   2.656  1.00  0.00     0.198 A 
ATOM     43  C   UNL     1       6.847  11.033   2.385  1.00  0.00     0.198 A 
ATOM     44  F   UNL     1       5.784  11.362   0.311  1.00  0.00    -0.203 F 
ATOM     45  F   UNL     1       9.228   8.513   3.446  1.00  0.00    -0.200 F 
ATOM     46  C   UNL     1       7.708  10.304   3.193  1.00  0.00     0.200 A 
ATOM     47  F   UNL     1       6.145  12.049   2.903  1.00  0.00    -0.200 F 
ATOM     48  F   UNL     1       7.810  10.592   4.498  1.00  0.00    -0.200 F 
ENDBRANCH  24  38
BRANCH  25  49
ATOM     49  C   UNL     1       5.073   5.540  -8.360  1.00  0.00     0.064 A 
ATOM     50  C   UNL     1       6.000   5.258  -9.371  1.00  0.00     0.173 A 
ATOM     51  C   UNL     1       3.722   5.286  -8.638  1.00  0.00     0.173 A 
ATOM     52  F   UNL     1       7.302   5.502  -9.169  1.00  0.00    -0.203 F 
ATOM     53  C   UNL     1       5.590   4.766 -10.612  1.00  0.00     0.198 A 
ATOM     54  C   UNL     1       3.312   4.778  -9.871  1.00  0.00     0.198 A 
ATOM     55  F   UNL     1       2.792   5.538  -7.710  1.00  0.00    -0.203 F 
ATOM     56  F   UNL     1       6.497   4.543 -11.574  1.00  0.00    -0.200 F 
ATOM     57  C   UNL     1       4.247   4.524 -10.861  1.00  0.00     0.200 A 
ATOM     58  F   UNL     1       2.013   4.542 -10.100  1.00  0.00    -0.200 F 
ATOM     59  F   UNL     1       3.855   4.056 -12.054  1.00  0.00    -0.200 F 
ENDBRANCH  25  49
BRANCH  37  60
ATOM     60  C   UNL     1       7.967  11.593  -6.424  1.00  0.00     0.064 A 
ATOM     61  C   UNL     1       7.175  12.559  -7.056  1.00  0.00     0.173 A 
ATOM     62  C   UNL     1       9.359  11.780  -6.412  1.00  0.00     0.173 A 
ATOM     63  F   UNL     1       5.843  12.414  -7.105  1.00  0.00    -0.203 F 
ATOM     64  C   UNL     1       7.757  13.675  -7.648  1.00  0.00     0.198 A 
ATOM     65  C   UNL     1       9.933  12.915  -6.971  1.00  0.00     0.198 A 
ATOM     66  F   UNL     1      10.157  10.882  -5.813  1.00  0.00    -0.203 F 
ATOM     67  F   UNL     1       6.986  14.578  -8.270  1.00  0.00    -0.200 F 
ATOM     68  C   UNL     1       9.132  13.861  -7.590  1.00  0.00     0.200 A 
ATOM     69  F   UNL     1      11.257  13.102  -6.891  1.00  0.00    -0.200 F 
ATOM     70  F   UNL     1       9.684  14.957  -8.128  1.00  0.00    -0.200 F 
ENDBRANCH  37  60
ENDBRANCH  11  12
ENDBRANCH   4   6
ENDBRANCH   3   4
ENDBRANCH   2   3
ENDBRANCH   1   2
BRANCH   1  71
ATOM     71  O   UNL     1       3.345  -0.379  -1.732  1.00  0.00    -0.458 OA
BRANCH  71  72
ATOM     72  C   UNL     1       2.195  -0.546  -2.463  1.00  0.00     0.338 C 
ATOM     73  O   UNL     1       1.800  -1.634  -2.855  1.00  0.00    -0.246 OA
BRANCH  72  74
ATOM     74  C   UNL     1       1.601   0.822  -2.957  1.00  0.00     0.062 A 
ATOM     75  C   UNL     1       2.553   1.287  -4.433  1.00  0.00     0.017 A 
ATOM     76  C   UNL     1       0.081   2.136  -2.503  1.00  0.00     0.043 A 
ATOM     77  C   UNL     1       2.077   2.800  -5.252  1.00  0.00     0.019 A 
ATOM     78  C   UNL     1      -0.174   3.584  -3.258  1.00  0.00     0.055 A 
ATOM     79  C   UNL     1       0.790   3.893  -4.659  1.00  0.00     0.041 A 
ATOM     80  Br  UNL     1       0.691   5.631  -5.412  1.00  0.00    -0.049 Br
BRANCH  78  81
ATOM     81  N   UNL     1      -0.727   4.472  -2.304  1.00  0.00    -0.331 N 
ATOM     82  H   UNL     1      -0.937   5.371  -2.646  1.00  0.00     0.169 HD
BRANCH  81  83
ATOM     83  C   UNL     1      -1.020   4.272  -0.956  1.00  0.00     0.177 C 
ATOM     84  S   UNL     1      -1.577   5.621  -0.117  1.00  0.00    -0.040 S 
BRANCH  83  85
ATOM     85  N   UNL     1      -0.923   3.053  -0.175  1.00  0.00    -0.298 N 
ATOM     86  C   UNL     1      -0.558   1.572   0.022  1.00  0.00     0.267 C 
ATOM     87  H   UNL     1      -1.287   3.316   0.702  1.00  0.00     0.172 HD
ATOM     88  O   UNL     1      -1.089   0.964   0.948  1.00  0.00    -0.268 OA
BRANCH  86  89
ATOM     89  C   UNL     1       0.471   0.948  -0.933  1.00  0.00     0.092 A 
ATOM     90  C   UNL     1       1.699   2.066  -1.251  1.00  0.00     0.025 A 
ATOM     91  S   UNL     1      -0.538   0.057  -2.807  1.00  0.00    -0.139 S 
ATOM     92  C   UNL     1       1.763   2.666  -3.057  1.00  0.00     0.012 A 
ATOM     93  C   UNL     1       0.489   1.647  -4.186  1.00  0.00     0.065 A 
ENDBRANCH  86  89
ENDBRANCH  83  85
ENDBRANCH  81  83
ENDBRANCH  78  81
ENDBRANCH  72  74
ENDBRANCH  71  72
ENDBRANCH   1  71
TORSDOF 15
