REMARK SMILES Cc1[nH]c(=O)n(C)c(=O)c1CC(=O)OCCOC(=O)c1ccc(-c2c3nc(c(-c4c(F)c(F)c(F)c(F)c4F)c4ccc([nH]4)c(-c4c(F)c(F)c(F)c(F)c4F)c4nc(c(-c5c(F)c(F)c(F)c(F)c5F)c5ccc2[nH]5)C=C4)C=C3)cc1
REMARK SMILES IDX 16 1 15 2 14 3 12 4 13 5 11 6 10 7 1 8 2 9 3 10 4 11 8 13
REMARK SMILES IDX 5 14 6 15 9 16 7 17 17 18 18 19 19 20 20 21 21 22 82 23
REMARK SMILES IDX 22 24 81 25 23 26 24 27 25 28 75 29 26 30 80 31 74 32 76 33
REMARK SMILES IDX 27 34 79 35 73 36 72 37 28 39 60 40 40 41 59 42 41 43 44 44
REMARK SMILES IDX 58 45 77 46 42 47 43 48 57 50 78 51 45 52 29 53 30 54 38 55
REMARK SMILES IDX 31 56 32 57 36 58 39 59 33 60 34 61 37 62 35 63 61 64 62 65
REMARK SMILES IDX 70 66 63 67 64 68 68 69 71 70 65 71 66 72 69 73 67 74 46 75
REMARK SMILES IDX 47 76 55 77 48 78 49 79 53 80 56 81 50 82 51 83 54 84 52 85
REMARK H PARENT 3 12 76 38 44 49
REMARK Flexibility Score: inf
ROOT
ATOM      1  C   UNL     1      -1.589   5.463  -0.878  1.00  0.00     0.275 C 
ENDROOT
BRANCH   1   2
ATOM      2  C   UNL     1      -1.483   4.117  -1.591  1.00  0.00     0.274 C 
BRANCH   2   3
ATOM      3  O   UNL     1      -0.683   3.195  -0.822  1.00  0.00    -0.462 OA
BRANCH   3   4
ATOM      4  C   UNL     1       0.616   3.078  -1.208  1.00  0.00     0.310 C 
ATOM      5  O   UNL     1       1.107   3.635  -2.185  1.00  0.00    -0.252 OA
BRANCH   4   6
ATOM      6  C   UNL     1       1.435   2.135  -0.341  1.00  0.00     0.165 C 
BRANCH   6   7
ATOM      7  C   UNL     1       0.771   1.674   0.925  1.00  0.00     0.048 A 
ATOM      8  C   UNL     1       0.424  -0.690   0.168  1.00  0.00     0.065 C 
ATOM      9  C   UNL     1       0.321   0.431   1.161  1.00  0.00     0.026 A 
ATOM     10  N   UNL     1      -0.270   0.138   2.359  1.00  0.00    -0.311 N 
ATOM     11  C   UNL     1      -0.493   1.034   3.368  1.00  0.00     0.328 A 
ATOM     12  H   UNL     1      -0.556  -0.793   2.507  1.00  0.00     0.171 HD
ATOM     13  C   UNL     1       0.674   2.679   2.023  1.00  0.00     0.259 A 
ATOM     14  O   UNL     1      -1.049   0.661   4.399  1.00  0.00    -0.248 OA
ATOM     15  N   UNL     1      -0.047   2.320   3.142  1.00  0.00    -0.263 N 
ATOM     16  O   UNL     1       1.259   3.753   1.897  1.00  0.00    -0.269 OA
ATOM     17  C   UNL     1      -0.260   3.297   4.191  1.00  0.00     0.158 C 
ENDBRANCH   6   7
ENDBRANCH   4   6
ENDBRANCH   3   4
ENDBRANCH   2   3
ENDBRANCH   1   2
BRANCH   1  18
ATOM     18  O   UNL     1      -0.270   5.987  -0.660  1.00  0.00    -0.458 OA
BRANCH  18  19
ATOM     19  C   UNL     1       0.002   6.392   0.603  1.00  0.00     0.338 C 
ATOM     20  O   UNL     1      -0.771   6.459   1.542  1.00  0.00    -0.246 OA
BRANCH  19  21
ATOM     21  C   UNL     1       1.409   6.829   0.670  1.00  0.00     0.060 A 
ATOM     22  C   UNL     1       2.440   5.987   0.246  1.00  0.00     0.016 A 
ATOM     23  C   UNL     1       1.705   8.067   1.240  1.00  0.00     0.016 A 
ATOM     24  C   UNL     1       3.768   6.347   0.451  1.00  0.00     0.010 A 
ATOM     25  C   UNL     1       3.037   8.462   1.376  1.00  0.00     0.010 A 
ATOM     26  C   UNL     1       4.080   7.593   1.010  1.00  0.00    -0.014 A 
BRANCH  26  27
ATOM     27  C   UNL     1       5.492   7.974   1.254  1.00  0.00     0.031 A 
ATOM     28  C   UNL     1       5.984   8.159   2.662  1.00  0.00     0.074 A 
ATOM     29  C   UNL     1       6.334   8.146   0.218  1.00  0.00     0.049 A 
ATOM     30  N   UNL     1       7.130   8.630   3.083  1.00  0.00    -0.248 NA
ATOM     31  C   UNL     1       5.062   7.766   3.739  1.00  0.00     0.031 C 
ATOM     32  C   UNL     1       5.994   7.940  -1.190  1.00  0.00     0.029 A 
ATOM     33  N   UNL     1       7.651   8.531   0.190  1.00  0.00    -0.354 N 
ATOM     34  C   UNL     1       7.056   8.618   4.470  1.00  0.00     0.074 A 
ATOM     35  C   UNL     1       5.747   8.109   4.821  1.00  0.00     0.031 C 
ATOM     36  C   UNL     1       7.080   8.175  -1.942  1.00  0.00     0.029 A 
ATOM     37  C   UNL     1       8.170   8.616  -1.077  1.00  0.00     0.049 A 
ATOM     38  H   UNL     1       8.173   8.726   1.002  1.00  0.00     0.167 HD
ATOM     39  C   UNL     1       8.000   8.993   5.365  1.00  0.00     0.037 A 
ATOM     40  C   UNL     1       9.379   9.034  -1.498  1.00  0.00     0.037 A 
ATOM     41  C   UNL     1       9.311   9.467   5.011  1.00  0.00     0.049 A 
ATOM     42  C   UNL     1      10.383   9.513  -0.487  1.00  0.00     0.074 A 
ATOM     43  C   UNL     1      10.338   9.870   5.846  1.00  0.00     0.029 A 
ATOM     44  N   UNL     1       9.780   9.592   3.711  1.00  0.00    -0.354 N 
ATOM     45  N   UNL     1      10.289   9.546   0.819  1.00  0.00    -0.248 NA
ATOM     46  C   UNL     1      11.655  10.032  -1.011  1.00  0.00     0.031 C 
ATOM     47  C   UNL     1      11.417  10.270   5.052  1.00  0.00     0.029 A 
ATOM     48  C   UNL     1      11.077  10.080   3.722  1.00  0.00     0.049 A 
ATOM     49  H   UNL     1       9.268   9.367   2.901  1.00  0.00     0.167 HD
ATOM     50  C   UNL     1      11.487  10.077   1.275  1.00  0.00     0.074 A 
ATOM     51  C   UNL     1      12.302  10.336   0.106  1.00  0.00     0.031 C 
ATOM     52  C   UNL     1      11.873  10.332   2.549  1.00  0.00     0.037 A 
BRANCH  39  53
ATOM     53  C   UNL     1       7.646   8.923   6.820  1.00  0.00     0.064 A 
ATOM     54  C   UNL     1       7.571   7.699   7.500  1.00  0.00     0.173 A 
ATOM     55  C   UNL     1       7.438  10.099   7.556  1.00  0.00     0.173 A 
ATOM     56  F   UNL     1       7.750   6.546   6.838  1.00  0.00    -0.203 F 
ATOM     57  C   UNL     1       7.285   7.655   8.863  1.00  0.00     0.198 A 
ATOM     58  C   UNL     1       7.177  10.053   8.923  1.00  0.00     0.198 A 
ATOM     59  F   UNL     1       7.505  11.296   6.953  1.00  0.00    -0.203 F 
ATOM     60  F   UNL     1       7.187   6.473   9.487  1.00  0.00    -0.200 F 
ATOM     61  C   UNL     1       7.097   8.831   9.574  1.00  0.00     0.200 A 
ATOM     62  F   UNL     1       7.007  11.190   9.611  1.00  0.00    -0.200 F 
ATOM     63  F   UNL     1       6.835   8.787  10.888  1.00  0.00    -0.200 F 
ENDBRANCH  39  53
BRANCH  40  64
ATOM     64  C   UNL     1       9.693   9.033  -2.949  1.00  0.00     0.064 A 
ATOM     65  C   UNL     1      10.617   8.124  -3.481  1.00  0.00     0.173 A 
ATOM     66  C   UNL     1       9.064   9.921  -3.835  1.00  0.00     0.173 A 
ATOM     67  F   UNL     1      11.262   7.273  -2.670  1.00  0.00    -0.203 F 
ATOM     68  C   UNL     1      10.900   8.103  -4.845  1.00  0.00     0.198 A 
ATOM     69  C   UNL     1       9.329   9.882  -5.202  1.00  0.00     0.198 A 
ATOM     70  F   UNL     1       8.175  10.813  -3.373  1.00  0.00    -0.203 F 
ATOM     71  F   UNL     1      11.809   7.244  -5.325  1.00  0.00    -0.200 F 
ATOM     72  C   UNL     1      10.250   8.976  -5.705  1.00  0.00     0.200 A 
ATOM     73  F   UNL     1       8.690  10.719  -6.030  1.00  0.00    -0.200 F 
ATOM     74  F   UNL     1      10.514   8.947  -7.019  1.00  0.00    -0.200 F 
ENDBRANCH  40  64
BRANCH  52  75
ATOM     75  C   UNL     1      13.241  10.910   2.752  1.00  0.00     0.064 A 
ATOM     76  C   UNL     1      13.512  12.256   2.471  1.00  0.00     0.173 A 
ATOM     77  C   UNL     1      14.271  10.127   3.295  1.00  0.00     0.173 A 
ATOM     78  F   UNL     1      12.562  13.039   1.937  1.00  0.00    -0.203 F 
ATOM     79  C   UNL     1      14.770  12.797   2.718  1.00  0.00     0.198 A 
ATOM     80  C   UNL     1      15.521  10.678   3.563  1.00  0.00     0.198 A 
ATOM     81  F   UNL     1      14.058   8.835   3.585  1.00  0.00    -0.203 F 
ATOM     82  F   UNL     1      15.018  14.079   2.416  1.00  0.00    -0.200 F 
ATOM     83  C   UNL     1      15.770  12.011   3.272  1.00  0.00     0.200 A 
ATOM     84  F   UNL     1      16.482   9.920   4.108  1.00  0.00    -0.200 F 
ATOM     85  F   UNL     1      16.977  12.537   3.521  1.00  0.00    -0.200 F 
ENDBRANCH  52  75
ENDBRANCH  26  27
ENDBRANCH  19  21
ENDBRANCH  18  19
ENDBRANCH   1  18
TORSDOF 12
