REMARK SMILES Cc1ccnc(C(=O)c2[nH]c3ccc(C(C)(C)C)cc3c2CC(=O)OCCOC(=O)c2ccc(-c3c4nc(c(-c5c(F)c(F)c(F)c(F)c5F)c5ccc([nH]5)c(-c5c(F)c(F)c(F)c(F)c5F)c5nc(c(-c6c(F)c(F)c(F)c(F)c6F)c6ccc3[nH]6)C=C5)C=C4)cc2)c1
REMARK SMILES IDX 26 1 25 2 23 3 24 4 22 5 21 6 9 7 10 8 11 9 20 11 12 12
REMARK SMILES IDX 19 13 13 14 14 15 7 16 8 17 6 18 1 19 2 20 3 21 94 22 4 23
REMARK SMILES IDX 5 24 15 25 16 26 17 27 18 28 27 29 28 30 29 31 30 32 31 33
REMARK SMILES IDX 32 34 93 35 33 36 92 37 34 38 35 39 36 40 86 41 37 42 91 43
REMARK SMILES IDX 85 44 87 45 38 46 90 47 84 48 83 49 39 51 71 52 51 53 70 54
REMARK SMILES IDX 52 55 55 56 69 57 88 58 53 59 54 60 68 62 89 63 56 64 40 65
REMARK SMILES IDX 41 66 49 67 42 68 43 69 47 70 50 71 44 72 45 73 48 74 46 75
REMARK SMILES IDX 72 76 73 77 81 78 74 79 75 80 79 81 82 82 76 83 77 84 80 85
REMARK SMILES IDX 78 86 57 87 58 88 66 89 59 90 60 91 64 92 67 93 61 94 62 95
REMARK SMILES IDX 65 96 63 97
REMARK H PARENT 10 10 87 50 55 61
REMARK Flexibility Score: inf
ROOT
ATOM      1  C   UNL     1       5.174  -5.358   0.615  1.00  0.00     0.274 C 
ENDROOT
BRANCH   1   2
ATOM      2  O   UNL     1       3.743  -5.191   0.499  1.00  0.00    -0.462 OA
BRANCH   2   3
ATOM      3  C   UNL     1       3.067  -5.000   1.657  1.00  0.00     0.310 C 
ATOM      4  O   UNL     1       3.585  -5.059   2.772  1.00  0.00    -0.252 OA
BRANCH   3   5
ATOM      5  C   UNL     1       1.635  -4.539   1.498  1.00  0.00     0.161 C 
BRANCH   5   6
ATOM      6  C   UNL     1       0.877  -4.904   0.264  1.00  0.00     0.000 A 
ATOM      7  C   UNL     1       0.728  -4.161  -0.907  1.00  0.00     0.093 A 
ATOM      8  N   UNL     1      -0.085  -4.887  -1.743  1.00  0.00    -0.352 N 
ATOM      9  C   UNL     1      -0.621  -5.962  -1.090  1.00  0.00     0.046 A 
ATOM     10  H   UNL     1      -0.259  -4.663  -2.686  1.00  0.00     0.167 HD
ATOM     11  C   UNL     1       0.020  -6.055   0.139  1.00  0.00     0.004 A 
ATOM     12  C   UNL     1      -1.607  -6.853  -1.503  1.00  0.00     0.027 A 
ATOM     13  C   UNL     1      -0.309  -7.147   0.976  1.00  0.00     0.015 A 
ATOM     14  C   UNL     1      -1.934  -7.904  -0.641  1.00  0.00     0.006 A 
ATOM     15  C   UNL     1      -1.291  -8.092   0.592  1.00  0.00    -0.042 A 
BRANCH   7  16
ATOM     16  C   UNL     1       1.255  -2.886  -1.370  1.00  0.00     0.227 C 
ATOM     17  O   UNL     1       1.982  -2.842  -2.361  1.00  0.00    -0.285 OA
BRANCH  16  18
ATOM     18  C   UNL     1       0.670  -1.601  -0.828  1.00  0.00     0.113 A 
ATOM     19  C   UNL     1      -2.620  -0.243   0.500  1.00  0.00     0.044 C 
ATOM     20  C   UNL     1      -1.212  -0.337  -0.009  1.00  0.00    -0.047 A 
ATOM     21  C   UNL     1      -0.519   0.829  -0.336  1.00  0.00     0.023 A 
ATOM     22  C   UNL     1      -0.599  -1.574  -0.244  1.00  0.00     0.036 A 
ATOM     23  C   UNL     1       0.745   0.714  -0.886  1.00  0.00     0.112 A 
ATOM     24  N   UNL     1       1.349  -0.463  -1.139  1.00  0.00    -0.253 NA
ENDBRANCH  16  18
ENDBRANCH   7  16
BRANCH  15  25
ATOM     25  C   UNL     1      -1.610  -9.293   1.504  1.00  0.00    -0.013 C 
ATOM     26  C   UNL     1      -0.352 -10.178   1.632  1.00  0.00     0.016 C 
ATOM     27  C   UNL     1      -2.035  -8.805   2.905  1.00  0.00     0.016 C 
ATOM     28  C   UNL     1      -2.750 -10.193   0.972  1.00  0.00     0.016 C 
ENDBRANCH  15  25
ENDBRANCH   5   6
ENDBRANCH   3   5
ENDBRANCH   2   3
ENDBRANCH   1   2
BRANCH   1  29
ATOM     29  C   UNL     1       5.932  -4.083   0.218  1.00  0.00     0.275 C 
BRANCH  29  30
ATOM     30  O   UNL     1       5.689  -2.989   1.129  1.00  0.00    -0.458 OA
BRANCH  30  31
ATOM     31  C   UNL     1       4.620  -2.240   0.790  1.00  0.00     0.338 C 
ATOM     32  O   UNL     1       3.865  -2.427  -0.151  1.00  0.00    -0.246 OA
BRANCH  31  33
ATOM     33  C   UNL     1       4.329  -1.185   1.758  1.00  0.00     0.060 A 
ATOM     34  C   UNL     1       3.316  -1.428   2.683  1.00  0.00     0.016 A 
ATOM     35  C   UNL     1       4.833   0.104   1.576  1.00  0.00     0.016 A 
ATOM     36  C   UNL     1       2.734  -0.369   3.364  1.00  0.00     0.010 A 
ATOM     37  C   UNL     1       4.305   1.159   2.329  1.00  0.00     0.010 A 
ATOM     38  C   UNL     1       3.228   0.934   3.202  1.00  0.00    -0.014 A 
BRANCH  38  39
ATOM     39  C   UNL     1       2.610   2.023   3.996  1.00  0.00     0.031 A 
ATOM     40  C   UNL     1       1.770   3.086   3.349  1.00  0.00     0.074 A 
ATOM     41  C   UNL     1       2.741   1.986   5.335  1.00  0.00     0.049 A 
ATOM     42  N   UNL     1       1.086   4.052   3.910  1.00  0.00    -0.248 NA
ATOM     43  C   UNL     1       1.675   3.060   1.883  1.00  0.00     0.031 C 
ATOM     44  C   UNL     1       3.509   0.982   6.075  1.00  0.00     0.029 A 
ATOM     45  N   UNL     1       2.213   2.789   6.311  1.00  0.00    -0.354 N 
ATOM     46  C   UNL     1       0.465   4.733   2.873  1.00  0.00     0.074 A 
ATOM     47  C   UNL     1       0.879   4.094   1.641  1.00  0.00     0.031 C 
ATOM     48  C   UNL     1       3.372   1.207   7.389  1.00  0.00     0.029 A 
ATOM     49  C   UNL     1       2.556   2.400   7.582  1.00  0.00     0.049 A 
ATOM     50  H   UNL     1       1.644   3.570   6.120  1.00  0.00     0.167 HD
ATOM     51  C   UNL     1      -0.380   5.790   2.945  1.00  0.00     0.037 A 
ATOM     52  C   UNL     1       2.263   2.954   8.771  1.00  0.00     0.037 A 
ATOM     53  C   UNL     1      -0.761   6.447   4.169  1.00  0.00     0.049 A 
ATOM     54  C   UNL     1       1.410   4.186   8.810  1.00  0.00     0.074 A 
ATOM     55  C   UNL     1      -1.595   7.539   4.343  1.00  0.00     0.029 A 
ATOM     56  N   UNL     1      -0.317   6.081   5.431  1.00  0.00    -0.354 N 
ATOM     57  N   UNL     1       0.821   4.814   7.823  1.00  0.00    -0.248 NA
ATOM     58  C   UNL     1       1.193   4.794  10.129  1.00  0.00     0.031 C 
ATOM     59  C   UNL     1      -1.626   7.856   5.706  1.00  0.00     0.029 A 
ATOM     60  C   UNL     1      -0.838   6.941   6.385  1.00  0.00     0.049 A 
ATOM     61  H   UNL     1       0.279   5.321   5.621  1.00  0.00     0.167 HD
ATOM     62  C   UNL     1       0.162   5.890   8.398  1.00  0.00     0.074 A 
ATOM     63  C   UNL     1       0.403   5.813   9.825  1.00  0.00     0.031 C 
ATOM     64  C   UNL     1      -0.570   6.859   7.797  1.00  0.00     0.037 A 
BRANCH  51  65
ATOM     65  C   UNL     1      -0.947   6.315   1.661  1.00  0.00     0.064 A 
ATOM     66  C   UNL     1      -1.996   5.652   1.006  1.00  0.00     0.173 A 
ATOM     67  C   UNL     1      -0.486   7.521   1.114  1.00  0.00     0.173 A 
ATOM     68  F   UNL     1      -2.458   4.485   1.480  1.00  0.00    -0.203 F 
ATOM     69  C   UNL     1      -2.561   6.178  -0.153  1.00  0.00     0.198 A 
ATOM     70  C   UNL     1      -1.063   8.051  -0.038  1.00  0.00     0.198 A 
ATOM     71  F   UNL     1       0.516   8.190   1.703  1.00  0.00    -0.203 F 
ATOM     72  F   UNL     1      -3.549   5.518  -0.773  1.00  0.00    -0.200 F 
ATOM     73  C   UNL     1      -2.099   7.380  -0.670  1.00  0.00     0.200 A 
ATOM     74  F   UNL     1      -0.618   9.213  -0.535  1.00  0.00    -0.200 F 
ATOM     75  F   UNL     1      -2.650   7.888  -1.781  1.00  0.00    -0.200 F 
ENDBRANCH  51  65
BRANCH  52  76
ATOM     76  C   UNL     1       2.812   2.355  10.011  1.00  0.00     0.064 A 
ATOM     77  C   UNL     1       1.982   1.701  10.929  1.00  0.00     0.173 A 
ATOM     78  C   UNL     1       4.186   2.412  10.291  1.00  0.00     0.173 A 
ATOM     79  F   UNL     1       0.660   1.642  10.713  1.00  0.00    -0.203 F 
ATOM     80  C   UNL     1       2.506   1.129  12.086  1.00  0.00     0.198 A 
ATOM     81  C   UNL     1       4.711   1.818  11.434  1.00  0.00     0.198 A 
ATOM     82  F   UNL     1       5.020   3.028   9.440  1.00  0.00    -0.203 F 
ATOM     83  F   UNL     1       1.688   0.536  12.966  1.00  0.00    -0.200 F 
ATOM     84  C   UNL     1       3.870   1.181  12.334  1.00  0.00     0.200 A 
ATOM     85  F   UNL     1       6.031   1.859  11.662  1.00  0.00    -0.200 F 
ATOM     86  F   UNL     1       4.374   0.623  13.443  1.00  0.00    -0.200 F 
ENDBRANCH  52  76
BRANCH  64  87
ATOM     87  C   UNL     1      -1.152   7.909   8.692  1.00  0.00     0.064 A 
ATOM     88  C   UNL     1      -0.349   8.918   9.245  1.00  0.00     0.173 A 
ATOM     89  C   UNL     1      -2.519   7.905   9.005  1.00  0.00     0.173 A 
ATOM     90  F   UNL     1       0.968   8.948   8.989  1.00  0.00    -0.203 F 
ATOM     91  C   UNL     1      -0.890   9.870  10.103  1.00  0.00     0.198 A 
ATOM     92  C   UNL     1      -3.060   8.872   9.847  1.00  0.00     0.198 A 
ATOM     93  F   UNL     1      -3.326   6.961   8.499  1.00  0.00    -0.203 F 
ATOM     94  F   UNL     1      -0.096  10.794  10.661  1.00  0.00    -0.200 F 
ATOM     95  C   UNL     1      -2.244   9.848  10.401  1.00  0.00     0.200 A 
ATOM     96  F   UNL     1      -4.369   8.854  10.131  1.00  0.00    -0.200 F 
ATOM     97  F   UNL     1      -2.762  10.761  11.235  1.00  0.00    -0.200 F 
ENDBRANCH  64  87
ENDBRANCH  38  39
ENDBRANCH  31  33
ENDBRANCH  30  31
ENDBRANCH  29  30
ENDBRANCH   1  29
TORSDOF 15
