REMARK SMILES O=C(CSc1ccnc(C(=O)OCCOC(=O)c2ccc(-c3c4nc(c(-c5c(F)c(F)c(F)c(F)c5F)c5ccc([nH]5)c(-c5c(F)c(F)c(F)c(F)c5F)c5nc(c(-c6c(F)c(F)c(F)c(F)c6F)c6ccc3[nH]6)C=C5)C=C4)cc2)c1)NNc1ccccn1
REMARK SMILES IDX 12 1 10 2 11 3 9 4 5 5 6 6 81 7 7 8 8 9 4 10 3 11 2 12 1 13
REMARK SMILES IDX 82 14 83 16 84 18 85 19 89 20 86 21 88 22 87 23 13 24 14 25
REMARK SMILES IDX 15 26 16 27 17 28 18 29 19 30 80 31 20 32 79 33 21 34 22 35
REMARK SMILES IDX 23 36 73 37 24 38 78 39 72 40 74 41 25 42 77 43 71 44 70 45
REMARK SMILES IDX 26 47 58 48 38 49 57 50 39 51 42 52 56 53 75 54 40 55 41 56
REMARK SMILES IDX 55 58 76 59 43 60 27 61 28 62 36 63 29 64 30 65 34 66 37 67
REMARK SMILES IDX 31 68 32 69 35 70 33 71 59 72 60 73 68 74 61 75 62 76 66 77
REMARK SMILES IDX 69 78 63 79 64 80 67 81 65 82 44 83 45 84 53 85 46 86 47 87
REMARK SMILES IDX 51 88 54 89 48 90 49 91 52 92 50 93
REMARK H PARENT 82 15 83 17 74 46 42 57
REMARK Flexibility Score: inf
ROOT
ATOM      1  O   UNL     1       2.988  -6.184  -3.004  1.00  0.00    -0.457 OA
ENDROOT
BRANCH   1   2
ATOM      2  C   UNL     1       3.163  -5.286  -4.010  1.00  0.00     0.357 C 
ATOM      3  O   UNL     1       3.273  -5.559  -5.196  1.00  0.00    -0.244 OA
BRANCH   2   4
ATOM      4  C   UNL     1       3.100  -3.883  -3.495  1.00  0.00     0.149 A 
ATOM      5  C   UNL     1       3.542  -2.160  -1.906  1.00  0.00     0.012 A 
ATOM      6  C   UNL     1       2.917  -1.257  -2.766  1.00  0.00     0.035 A 
ATOM      7  C   UNL     1       3.628  -3.508  -2.268  1.00  0.00     0.051 A 
ATOM      8  C   UNL     1       2.412  -1.721  -3.961  1.00  0.00     0.113 A 
ATOM      9  N   UNL     1       2.521  -3.000  -4.351  1.00  0.00    -0.249 NA
BRANCH   5  10
ATOM     10  S   UNL     1       4.365  -1.580  -0.429  1.00  0.00    -0.116 SA
BRANCH  10  11
ATOM     11  C   UNL     1       2.950  -1.053   0.598  1.00  0.00     0.176 C 
BRANCH  11  12
ATOM     12  C   UNL     1       2.229   0.172   0.068  1.00  0.00     0.248 C 
ATOM     13  O   UNL     1       1.000   0.246   0.074  1.00  0.00    -0.272 OA
ATOM     14  N   UNL     1       3.047   1.210  -0.344  1.00  0.00    -0.268 N 
ATOM     15  H   UNL     1       4.027   1.138  -0.290  1.00  0.00     0.191 HD
BRANCH  14  16
ATOM     16  N   UNL     1       2.435   2.356  -0.835  1.00  0.00    -0.282 N 
ATOM     17  H   UNL     1       1.457   2.455  -0.771  1.00  0.00     0.190 HD
BRANCH  16  18
ATOM     18  C   UNL     1       3.198   3.364  -1.419  1.00  0.00     0.144 A 
ATOM     19  C   UNL     1       4.322   3.100  -2.199  1.00  0.00     0.048 A 
ATOM     20  N   UNL     1       2.769   4.625  -1.204  1.00  0.00    -0.238 NA
ATOM     21  C   UNL     1       5.032   4.163  -2.758  1.00  0.00     0.005 A 
ATOM     22  C   UNL     1       3.477   5.641  -1.746  1.00  0.00     0.113 A 
ATOM     23  C   UNL     1       4.607   5.462  -2.521  1.00  0.00     0.020 A 
ENDBRANCH  16  18
ENDBRANCH  14  16
ENDBRANCH  11  12
ENDBRANCH  10  11
ENDBRANCH   5  10
ENDBRANCH   2   4
ENDBRANCH   1   2
BRANCH   1  24
ATOM     24  C   UNL     1       2.856  -7.557  -3.426  1.00  0.00     0.275 C 
BRANCH  24  25
ATOM     25  C   UNL     1       1.391  -8.004  -3.452  1.00  0.00     0.275 C 
BRANCH  25  26
ATOM     26  O   UNL     1       0.643  -7.304  -4.463  1.00  0.00    -0.458 OA
BRANCH  26  27
ATOM     27  C   UNL     1      -0.185  -6.334  -4.010  1.00  0.00     0.338 C 
ATOM     28  O   UNL     1      -0.383  -6.004  -2.854  1.00  0.00    -0.246 OA
BRANCH  27  29
ATOM     29  C   UNL     1      -0.797  -5.642  -5.154  1.00  0.00     0.060 A 
ATOM     30  C   UNL     1      -0.175  -4.491  -5.629  1.00  0.00     0.016 A 
ATOM     31  C   UNL     1      -2.012  -6.057  -5.696  1.00  0.00     0.016 A 
ATOM     32  C   UNL     1      -0.767  -3.727  -6.628  1.00  0.00     0.010 A 
ATOM     33  C   UNL     1      -2.588  -5.314  -6.736  1.00  0.00     0.010 A 
ATOM     34  C   UNL     1      -1.973  -4.138  -7.204  1.00  0.00    -0.014 A 
BRANCH  34  35
ATOM     35  C   UNL     1      -2.574  -3.337  -8.300  1.00  0.00     0.031 A 
ATOM     36  C   UNL     1      -3.859  -2.594  -8.082  1.00  0.00     0.074 A 
ATOM     37  C   UNL     1      -1.944  -3.256  -9.488  1.00  0.00     0.049 A 
ATOM     38  N   UNL     1      -4.596  -1.943  -8.947  1.00  0.00    -0.248 NA
ATOM     39  C   UNL     1      -4.388  -2.580  -6.710  1.00  0.00     0.031 C 
ATOM     40  C   UNL     1      -0.659  -3.879  -9.805  1.00  0.00     0.029 A 
ATOM     41  N   UNL     1      -2.298  -2.613 -10.648  1.00  0.00    -0.354 N 
ATOM     42  C   UNL     1      -5.687  -1.468  -8.234  1.00  0.00     0.074 A 
ATOM     43  C   UNL     1      -5.522  -1.909  -6.864  1.00  0.00     0.031 C 
ATOM     44  C   UNL     1      -0.325  -3.577 -11.069  1.00  0.00     0.029 A 
ATOM     45  C   UNL     1      -1.402  -2.799 -11.671  1.00  0.00     0.049 A 
ATOM     46  H   UNL     1      -3.116  -2.071 -10.737  1.00  0.00     0.167 HD
ATOM     47  C   UNL     1      -6.731  -0.731  -8.684  1.00  0.00     0.037 A 
ATOM     48  C   UNL     1      -1.460  -2.421 -12.962  1.00  0.00     0.037 A 
ATOM     49  C   UNL     1      -6.876  -0.269 -10.040  1.00  0.00     0.049 A 
ATOM     50  C   UNL     1      -2.666  -1.672 -13.455  1.00  0.00     0.074 A 
ATOM     51  C   UNL     1      -7.886   0.504 -10.587  1.00  0.00     0.029 A 
ATOM     52  N   UNL     1      -5.978  -0.534 -11.064  1.00  0.00    -0.354 N 
ATOM     53  N   UNL     1      -3.711  -1.256 -12.782  1.00  0.00    -0.248 NA
ATOM     54  C   UNL     1      -2.711  -1.360 -14.890  1.00  0.00     0.031 C 
ATOM     55  C   UNL     1      -7.620   0.673 -11.951  1.00  0.00     0.029 A 
ATOM     56  C   UNL     1      -6.426   0.035 -12.246  1.00  0.00     0.049 A 
ATOM     57  H   UNL     1      -5.146  -1.052 -10.966  1.00  0.00     0.167 HD
ATOM     58  C   UNL     1      -4.535  -0.632 -13.707  1.00  0.00     0.074 A 
ATOM     59  C   UNL     1      -3.860  -0.705 -14.986  1.00  0.00     0.031 C 
ATOM     60  C   UNL     1      -5.747  -0.057 -13.512  1.00  0.00     0.037 A 
BRANCH  47  61
ATOM     61  C   UNL     1      -7.822  -0.407  -7.709  1.00  0.00     0.064 A 
ATOM     62  C   UNL     1      -7.658   0.565  -6.712  1.00  0.00     0.173 A 
ATOM     63  C   UNL     1      -9.064  -1.053  -7.801  1.00  0.00     0.173 A 
ATOM     64  F   UNL     1      -6.486   1.202  -6.577  1.00  0.00    -0.203 F 
ATOM     65  C   UNL     1      -8.693   0.864  -5.829  1.00  0.00     0.198 A 
ATOM     66  C   UNL     1     -10.104  -0.736  -6.931  1.00  0.00     0.198 A 
ATOM     67  F   UNL     1      -9.273  -1.986  -8.742  1.00  0.00    -0.203 F 
ATOM     68  F   UNL     1      -8.505   1.772  -4.861  1.00  0.00    -0.200 F 
ATOM     69  C   UNL     1      -9.916   0.218  -5.943  1.00  0.00     0.200 A 
ATOM     70  F   UNL     1     -11.287  -1.353  -7.050  1.00  0.00    -0.200 F 
ATOM     71  F   UNL     1     -10.912   0.512  -5.096  1.00  0.00    -0.200 F 
ENDBRANCH  47  61
BRANCH  48  72
ATOM     72  C   UNL     1      -0.359  -2.791 -13.886  1.00  0.00     0.064 A 
ATOM     73  C   UNL     1       0.511  -1.820 -14.398  1.00  0.00     0.173 A 
ATOM     74  C   UNL     1      -0.146  -4.125 -14.265  1.00  0.00     0.173 A 
ATOM     75  F   UNL     1       0.330  -0.528 -14.088  1.00  0.00    -0.203 F 
ATOM     76  C   UNL     1       1.553  -2.170 -15.255  1.00  0.00     0.198 A 
ATOM     77  C   UNL     1       0.910  -4.477 -15.100  1.00  0.00     0.198 A 
ATOM     78  F   UNL     1      -0.957  -5.091 -13.807  1.00  0.00    -0.203 F 
ATOM     79  F   UNL     1       2.353  -1.219 -15.757  1.00  0.00    -0.200 F 
ATOM     80  C   UNL     1       1.757  -3.499 -15.598  1.00  0.00     0.200 A 
ATOM     81  F   UNL     1       1.109  -5.763 -15.421  1.00  0.00    -0.200 F 
ATOM     82  F   UNL     1       2.765  -3.835 -16.415  1.00  0.00    -0.200 F 
ENDBRANCH  48  72
BRANCH  60  83
ATOM     83  C   UNL     1      -6.418   0.541 -14.712  1.00  0.00     0.064 A 
ATOM     84  C   UNL     1      -7.033  -0.267 -15.679  1.00  0.00     0.173 A 
ATOM     85  C   UNL     1      -6.480   1.932 -14.876  1.00  0.00     0.173 A 
ATOM     86  F   UNL     1      -6.982  -1.604 -15.573  1.00  0.00    -0.203 F 
ATOM     87  C   UNL     1      -7.675   0.298 -16.777  1.00  0.00     0.198 A 
ATOM     88  C   UNL     1      -7.142   2.494 -15.964  1.00  0.00     0.198 A 
ATOM     89  F   UNL     1      -5.908   2.745 -13.976  1.00  0.00    -0.203 F 
ATOM     90  F   UNL     1      -8.226  -0.493 -17.708  1.00  0.00    -0.200 F 
ATOM     91  C   UNL     1      -7.735   1.677 -16.915  1.00  0.00     0.200 A 
ATOM     92  F   UNL     1      -7.205   3.826 -16.093  1.00  0.00    -0.200 F 
ATOM     93  F   UNL     1      -8.358   2.219 -17.970  1.00  0.00    -0.200 F 
ENDBRANCH  60  83
ENDBRANCH  34  35
ENDBRANCH  27  29
ENDBRANCH  26  27
ENDBRANCH  25  26
ENDBRANCH  24  25
ENDBRANCH   1  24
TORSDOF 16
