REMARK SMILES O=C(OCCOC(=O)c1cccc2c1cc(Br)c1ccccc12)c1ccc(-c2c3nc(c(-c4c(F)c(F)c(F)c(F)c4F)c4ccc([nH]4)c(-c4c(F)c(F)c(F)c(F)c4F)c4nc(c(-c5c(F)c(F)c(F)c(F)c5F)c5ccc2[nH]5)C=C4)C=C3)cc1
REMARK SMILES IDX 4 1 3 2 2 3 1 4 24 5 25 6 86 7 26 8 85 9 27 10 28 11 29 12
REMARK SMILES IDX 79 13 30 14 84 15 78 16 80 17 31 18 83 19 77 20 76 21 32 23
REMARK SMILES IDX 64 24 44 25 63 26 45 27 48 28 62 29 81 30 46 31 47 32 61 34
REMARK SMILES IDX 82 35 49 36 33 37 34 38 42 39 35 40 36 41 40 42 43 43 37 44
REMARK SMILES IDX 38 45 41 46 39 47 65 48 66 49 74 50 67 51 68 52 72 53 75 54
REMARK SMILES IDX 69 55 70 56 73 57 71 58 50 59 51 60 59 61 52 62 53 63 57 64
REMARK SMILES IDX 60 65 54 66 55 67 58 68 56 69 5 70 6 71 7 72 8 73 9 74 10 75
REMARK SMILES IDX 14 76 11 77 13 78 15 79 12 80 23 81 16 82 18 83 22 84 17 85
REMARK SMILES IDX 19 86 21 87 20 88
REMARK H PARENT 80 22 48 33
REMARK Flexibility Score: inf
ROOT
ATOM      1  C   UNL     1       4.356   1.088  -1.043  1.00  0.00     0.275 C 
ENDROOT
BRANCH   1   2
ATOM      2  O   UNL     1       3.366   0.050  -1.140  1.00  0.00    -0.458 OA
BRANCH   2   3
ATOM      3  C   UNL     1       3.318  -1.123  -0.461  1.00  0.00     0.338 C 
ATOM      4  O   UNL     1       2.647  -2.054  -0.899  1.00  0.00    -0.246 OA
BRANCH   3   5
ATOM      5  C   UNL     1       3.877  -1.252   0.915  1.00  0.00     0.060 A 
ATOM      6  C   UNL     1       3.070  -1.915   1.852  1.00  0.00     0.016 A 
ATOM      7  C   UNL     1       5.128  -0.794   1.329  1.00  0.00     0.016 A 
ATOM      8  C   UNL     1       3.442  -1.990   3.196  1.00  0.00     0.010 A 
ATOM      9  C   UNL     1       5.517  -0.888   2.669  1.00  0.00     0.010 A 
ATOM     10  C   UNL     1       4.671  -1.468   3.619  1.00  0.00    -0.014 A 
BRANCH  10  11
ATOM     11  C   UNL     1       5.168  -1.726   4.990  1.00  0.00     0.031 A 
ATOM     12  C   UNL     1       5.368  -0.632   5.997  1.00  0.00     0.074 A 
ATOM     13  C   UNL     1       5.517  -2.991   5.284  1.00  0.00     0.049 A 
ATOM     14  N   UNL     1       5.658  -0.734   7.271  1.00  0.00    -0.248 NA
ATOM     15  C   UNL     1       5.220   0.754   5.534  1.00  0.00     0.031 C 
ATOM     16  C   UNL     1       5.438  -4.118   4.351  1.00  0.00     0.029 A 
ATOM     17  N   UNL     1       6.037  -3.539   6.425  1.00  0.00    -0.354 N 
ATOM     18  C   UNL     1       5.634   0.560   7.774  1.00  0.00     0.074 A 
ATOM     19  C   UNL     1       5.366   1.443   6.661  1.00  0.00     0.031 C 
ATOM     20  C   UNL     1       5.904  -5.220   4.952  1.00  0.00     0.029 A 
ATOM     21  C   UNL     1       6.345  -4.869   6.297  1.00  0.00     0.049 A 
ATOM     22  H   UNL     1       6.177  -3.028   7.255  1.00  0.00     0.167 HD
ATOM     23  C   UNL     1       5.820   0.962   9.053  1.00  0.00     0.037 A 
ATOM     24  C   UNL     1       6.942  -5.710   7.159  1.00  0.00     0.037 A 
ATOM     25  C   UNL     1       6.257   0.086  10.110  1.00  0.00     0.049 A 
ATOM     26  C   UNL     1       7.299  -5.204   8.524  1.00  0.00     0.074 A 
ATOM     27  C   UNL     1       6.495   0.389  11.439  1.00  0.00     0.029 A 
ATOM     28  N   UNL     1       6.596  -1.248   9.934  1.00  0.00    -0.354 N 
ATOM     29  N   UNL     1       7.096  -4.016   9.040  1.00  0.00    -0.248 NA
ATOM     30  C   UNL     1       7.957  -6.151   9.431  1.00  0.00     0.031 C 
ATOM     31  C   UNL     1       7.072  -0.733  12.041  1.00  0.00     0.029 A 
ATOM     32  C   UNL     1       7.117  -1.760  11.110  1.00  0.00     0.049 A 
ATOM     33  H   UNL     1       6.482  -1.755   9.098  1.00  0.00     0.167 HD
ATOM     34  C   UNL     1       7.582  -4.075  10.337  1.00  0.00     0.074 A 
ATOM     35  C   UNL     1       8.076  -5.424  10.534  1.00  0.00     0.031 C 
ATOM     36  C   UNL     1       7.615  -3.102  11.280  1.00  0.00     0.037 A 
BRANCH  23  37
ATOM     37  C   UNL     1       5.573   2.401   9.399  1.00  0.00     0.064 A 
ATOM     38  C   UNL     1       4.266   2.892   9.536  1.00  0.00     0.173 A 
ATOM     39  C   UNL     1       6.633   3.255   9.739  1.00  0.00     0.173 A 
ATOM     40  F   UNL     1       3.217   2.119   9.216  1.00  0.00    -0.203 F 
ATOM     41  C   UNL     1       4.029   4.179  10.016  1.00  0.00     0.198 A 
ATOM     42  C   UNL     1       6.393   4.536  10.232  1.00  0.00     0.198 A 
ATOM     43  F   UNL     1       7.901   2.832   9.630  1.00  0.00    -0.203 F 
ATOM     44  F   UNL     1       2.772   4.625  10.144  1.00  0.00    -0.200 F 
ATOM     45  C   UNL     1       5.092   4.995  10.375  1.00  0.00     0.200 A 
ATOM     46  F   UNL     1       7.420   5.319  10.587  1.00  0.00    -0.200 F 
ATOM     47  F   UNL     1       4.862   6.222  10.862  1.00  0.00    -0.200 F 
ENDBRANCH  23  37
BRANCH  24  48
ATOM     48  C   UNL     1       7.217  -7.104   6.732  1.00  0.00     0.064 A 
ATOM     49  C   UNL     1       6.514  -8.181   7.285  1.00  0.00     0.173 A 
ATOM     50  C   UNL     1       8.141  -7.381   5.710  1.00  0.00     0.173 A 
ATOM     51  F   UNL     1       5.630  -7.967   8.270  1.00  0.00    -0.203 F 
ATOM     52  C   UNL     1       6.727  -9.483   6.837  1.00  0.00     0.198 A 
ATOM     53  C   UNL     1       8.329  -8.678   5.241  1.00  0.00     0.198 A 
ATOM     54  F   UNL     1       8.831  -6.382   5.139  1.00  0.00    -0.203 F 
ATOM     55  F   UNL     1       6.060 -10.499   7.401  1.00  0.00    -0.200 F 
ATOM     56  C   UNL     1       7.625  -9.729   5.808  1.00  0.00     0.200 A 
ATOM     57  F   UNL     1       9.180  -8.907   4.232  1.00  0.00    -0.200 F 
ATOM     58  F   UNL     1       7.811 -10.979   5.364  1.00  0.00    -0.200 F 
ENDBRANCH  24  48
BRANCH  36  59
ATOM     59  C   UNL     1       8.209  -3.452  12.611  1.00  0.00     0.064 A 
ATOM     60  C   UNL     1       9.590  -3.639  12.768  1.00  0.00     0.173 A 
ATOM     61  C   UNL     1       7.399  -3.521  13.754  1.00  0.00     0.173 A 
ATOM     62  F   UNL     1      10.403  -3.596  11.701  1.00  0.00    -0.203 F 
ATOM     63  C   UNL     1      10.137  -3.895  14.021  1.00  0.00     0.198 A 
ATOM     64  C   UNL     1       7.954  -3.743  15.010  1.00  0.00     0.198 A 
ATOM     65  F   UNL     1       6.073  -3.340  13.656  1.00  0.00    -0.203 F 
ATOM     66  F   UNL     1      11.455  -4.105  14.144  1.00  0.00    -0.200 F 
ATOM     67  C   UNL     1       9.321  -3.934  15.142  1.00  0.00     0.200 A 
ATOM     68  F   UNL     1       7.167  -3.761  16.095  1.00  0.00    -0.200 F 
ATOM     69  F   UNL     1       9.853  -4.158  16.352  1.00  0.00    -0.200 F 
ENDBRANCH  36  59
ENDBRANCH  10  11
ENDBRANCH   3   5
ENDBRANCH   2   3
ENDBRANCH   1   2
BRANCH   1  70
ATOM     70  C   UNL     1       4.008   2.217  -0.070  1.00  0.00     0.275 C 
BRANCH  70  71
ATOM     71  O   UNL     1       3.466   1.757   1.177  1.00  0.00    -0.458 OA
BRANCH  71  72
ATOM     72  C   UNL     1       2.109   1.794   1.273  1.00  0.00     0.338 C 
ATOM     73  O   UNL     1       1.334   2.182   0.415  1.00  0.00    -0.246 OA
BRANCH  72  74
ATOM     74  C   UNL     1       1.694   1.254   2.593  1.00  0.00     0.067 A 
ATOM     75  C   UNL     1       2.303   1.810   3.722  1.00  0.00     0.016 A 
ATOM     76  C   UNL     1       0.722   0.216   2.712  1.00  0.00    -0.002 A 
ATOM     77  C   UNL     1       1.980   1.330   4.978  1.00  0.00     0.002 A 
ATOM     78  C   UNL     1       0.407  -0.304   3.999  1.00  0.00    -0.010 A 
ATOM     79  C   UNL     1       0.088  -0.363   1.598  1.00  0.00     0.026 A 
ATOM     80  C   UNL     1       1.069   0.283   5.107  1.00  0.00     0.009 A 
ATOM     81  C   UNL     1      -0.535  -1.392   4.139  1.00  0.00    -0.009 A 
ATOM     82  C   UNL     1      -0.814  -1.422   1.725  1.00  0.00     0.026 A 
ATOM     83  C   UNL     1      -1.150  -1.953   2.986  1.00  0.00    -0.004 A 
ATOM     84  C   UNL     1      -0.894  -1.954   5.395  1.00  0.00     0.009 A 
ATOM     85  Br  UNL     1      -1.522  -2.109   0.090  1.00  0.00    -0.050 Br
ATOM     86  C   UNL     1      -2.074  -3.018   3.149  1.00  0.00     0.010 A 
ATOM     87  C   UNL     1      -1.813  -2.996   5.528  1.00  0.00     0.001 A 
ATOM     88  C   UNL     1      -2.407  -3.529   4.401  1.00  0.00     0.001 A 
ENDBRANCH  72  74
ENDBRANCH  71  72
ENDBRANCH  70  71
ENDBRANCH   1  70
TORSDOF 11
