REMARK SMILES C[C@@H](CO)CS[C@@H](C)C[C@@](C)([NH3+])C(=O)OCCOC(=O)c1ccc(-c2c3nc(c(-c4c(F)c(F)c(F)c(F)c4F)c4ccc([nH]4)c(-c4c(F)c(F)c(F)c(F)c4F)c4nc(c(-c5c(F)c(F)c(F)c(F)c5F)c5ccc2[nH]5)C=C4)C=C3)cc1
REMARK SMILES IDX 13 1 14 2 10 3 11 4 9 5 7 6 8 7 6 8 5 9 2 10 1 11 3 12 4 13
REMARK SMILES IDX 12 15 15 19 16 20 17 21 18 22 19 23 20 24 21 25 22 26 83 27
REMARK SMILES IDX 23 28 82 29 24 30 25 31 26 32 76 33 27 34 81 35 75 36 77 37
REMARK SMILES IDX 28 38 80 39 74 40 73 41 29 43 61 44 41 45 60 46 42 47 45 48
REMARK SMILES IDX 59 49 78 50 43 51 44 52 58 54 79 55 46 56 30 57 31 58 39 59
REMARK SMILES IDX 32 60 33 61 37 62 40 63 34 64 35 65 38 66 36 67 62 68 63 69
REMARK SMILES IDX 71 70 64 71 65 72 69 73 72 74 66 75 67 76 70 77 68 78 47 79
REMARK SMILES IDX 48 80 56 81 49 82 50 83 54 84 57 85 51 86 52 87 55 88 53 89
REMARK H PARENT 4 14 12 16 12 17 12 18 77 42 45 53
REMARK Flexibility Score: inf
ROOT
ATOM      1  C   UNL     1      -0.152  -0.724   4.686  1.00  0.00     0.367 C 
ATOM      2  O   UNL     1      -1.307  -0.479   5.034  1.00  0.00    -0.245 OA
ENDROOT
BRANCH   1   3
ATOM      3  C   UNL     1       0.254  -1.859   3.763  1.00  0.00     0.191 C 
ATOM      4  C   UNL     1      -0.084  -3.180   4.476  1.00  0.00     0.092 C 
BRANCH   3   5
ATOM      5  C   UNL     1      -0.450  -1.741   2.386  1.00  0.00     0.094 C 
BRANCH   5   6
ATOM      6  C   UNL     1      -1.512  -0.634   1.930  1.00  0.00     0.050 C 
ATOM      7  C   UNL     1      -2.299  -1.301   0.765  1.00  0.00     0.019 C 
BRANCH   6   8
ATOM      8  S   UNL     1      -1.770   1.384   1.812  1.00  0.00    -0.158 SA
BRANCH   8   9
ATOM      9  C   UNL     1      -0.456   2.868   1.163  1.00  0.00     0.075 C 
BRANCH   9  10
ATOM     10  C   UNL     1       1.081   3.413   0.661  1.00  0.00     0.021 C 
ATOM     11  C   UNL     1       2.322   2.631   0.130  1.00  0.00     0.011 C 
BRANCH  10  12
ATOM     12  C   UNL     1       0.920   4.556  -0.382  1.00  0.00     0.160 C 
BRANCH  12  13
ATOM     13  O   UNL     1       0.538   4.047  -1.655  1.00  0.00    -0.396 OA
ATOM     14  H   UNL     1       1.223   3.443  -1.981  1.00  0.00     0.210 HD
ENDBRANCH  12  13
ENDBRANCH  10  12
ENDBRANCH   9  10
ENDBRANCH   8   9
ENDBRANCH   6   8
ENDBRANCH   5   6
ENDBRANCH   3   5
BRANCH   3  15
ATOM     15  N   UNL     1       1.737  -1.960   3.608  1.00  0.00    -0.344 N 
ATOM     16  H   UNL     1       1.962  -2.733   2.982  1.00  0.00     0.345 HD
ATOM     17  H   UNL     1       2.163  -2.125   4.520  1.00  0.00     0.345 HD
ATOM     18  H   UNL     1       2.098  -1.090   3.217  1.00  0.00     0.345 HD
ENDBRANCH   3  15
ENDBRANCH   1   3
BRANCH   1  19
ATOM     19  O   UNL     1       0.916   0.042   5.008  1.00  0.00    -0.457 OA
BRANCH  19  20
ATOM     20  C   UNL     1       0.763   1.368   4.542  1.00  0.00     0.274 C 
BRANCH  20  21
ATOM     21  C   UNL     1       1.516   1.522   3.206  1.00  0.00     0.275 C 
BRANCH  21  22
ATOM     22  O   UNL     1       0.911   0.861   2.023  1.00  0.00    -0.458 OA
BRANCH  22  23
ATOM     23  C   UNL     1       1.534   0.059   1.104  1.00  0.00     0.338 C 
ATOM     24  O   UNL     1       2.609  -0.479   1.317  1.00  0.00    -0.246 OA
BRANCH  23  25
ATOM     25  C   UNL     1       0.769  -0.153  -0.230  1.00  0.00     0.060 A 
ATOM     26  C   UNL     1       0.796  -1.385  -0.887  1.00  0.00     0.016 A 
ATOM     27  C   UNL     1       0.070   0.848  -0.909  1.00  0.00     0.016 A 
ATOM     28  C   UNL     1       0.103  -1.583  -2.110  1.00  0.00     0.010 A 
ATOM     29  C   UNL     1      -0.604   0.696  -2.108  1.00  0.00     0.010 A 
ATOM     30  C   UNL     1      -0.599  -0.535  -2.720  1.00  0.00    -0.014 A 
BRANCH  30  31
ATOM     31  C   UNL     1      -1.259  -0.577  -4.036  1.00  0.00     0.031 A 
ATOM     32  C   UNL     1      -0.444  -0.230  -5.242  1.00  0.00     0.074 A 
ATOM     33  C   UNL     1      -2.603  -0.645  -4.099  1.00  0.00     0.049 A 
ATOM     34  N   UNL     1      -0.764  -0.294  -6.504  1.00  0.00    -0.248 NA
ATOM     35  C   UNL     1       0.907   0.309  -4.992  1.00  0.00     0.031 C 
ATOM     36  C   UNL     1      -3.489  -0.683  -2.937  1.00  0.00     0.029 A 
ATOM     37  N   UNL     1      -3.467  -0.641  -5.160  1.00  0.00    -0.354 N 
ATOM     38  C   UNL     1       0.365   0.121  -7.197  1.00  0.00     0.074 A 
ATOM     39  C   UNL     1       1.345   0.537  -6.221  1.00  0.00     0.031 C 
ATOM     40  C   UNL     1      -4.767  -0.729  -3.339  1.00  0.00     0.029 A 
ATOM     41  C   UNL     1      -4.790  -0.744  -4.792  1.00  0.00     0.049 A 
ATOM     42  H   UNL     1      -3.171  -0.570  -6.096  1.00  0.00     0.167 HD
ATOM     43  C   UNL     1       0.555   0.109  -8.536  1.00  0.00     0.037 A 
ATOM     44  C   UNL     1      -5.886  -0.876  -5.561  1.00  0.00     0.037 A 
ATOM     45  C   UNL     1      -0.506  -0.219  -9.450  1.00  0.00     0.049 A 
ATOM     46  C   UNL     1      -5.655  -0.959  -7.044  1.00  0.00     0.074 A 
ATOM     47  C   UNL     1      -0.473  -0.345 -10.824  1.00  0.00     0.029 A 
ATOM     48  N   UNL     1      -1.824  -0.439  -9.055  1.00  0.00    -0.354 N 
ATOM     49  N   UNL     1      -4.531  -0.809  -7.708  1.00  0.00    -0.248 NA
ATOM     50  C   UNL     1      -6.816  -1.265  -7.882  1.00  0.00     0.031 C 
ATOM     51  C   UNL     1      -1.781  -0.590 -11.262  1.00  0.00     0.029 A 
ATOM     52  C   UNL     1      -2.619  -0.679 -10.158  1.00  0.00     0.049 A 
ATOM     53  H   UNL     1      -2.143  -0.424  -8.123  1.00  0.00     0.167 HD
ATOM     54  C   UNL     1      -4.838  -1.028  -9.039  1.00  0.00     0.074 A 
ATOM     55  C   UNL     1      -6.257  -1.340  -9.082  1.00  0.00     0.031 C 
ATOM     56  C   UNL     1      -4.033  -0.977 -10.130  1.00  0.00     0.037 A 
BRANCH  43  57
ATOM     57  C   UNL     1       1.933   0.430  -9.047  1.00  0.00     0.064 A 
ATOM     58  C   UNL     1       3.030  -0.396  -8.741  1.00  0.00     0.173 A 
ATOM     59  C   UNL     1       2.176   1.554  -9.848  1.00  0.00     0.173 A 
ATOM     60  F   UNL     1       2.864  -1.483  -7.971  1.00  0.00    -0.203 F 
ATOM     61  C   UNL     1       4.316  -0.087  -9.180  1.00  0.00     0.198 A 
ATOM     62  C   UNL     1       3.460   1.845 -10.312  1.00  0.00     0.198 A 
ATOM     63  F   UNL     1       1.173   2.382 -10.177  1.00  0.00    -0.203 F 
ATOM     64  F   UNL     1       5.350  -0.861  -8.821  1.00  0.00    -0.200 F 
ATOM     65  C   UNL     1       4.529   1.030  -9.970  1.00  0.00     0.200 A 
ATOM     66  F   UNL     1       3.665   2.922 -11.082  1.00  0.00    -0.200 F 
ATOM     67  F   UNL     1       5.766   1.329 -10.391  1.00  0.00    -0.200 F 
ENDBRANCH  43  57
BRANCH  44  68
ATOM     68  C   UNL     1      -7.226  -1.060  -4.939  1.00  0.00     0.064 A 
ATOM     69  C   UNL     1      -7.877  -2.302  -4.979  1.00  0.00     0.173 A 
ATOM     70  C   UNL     1      -7.864  -0.022  -4.241  1.00  0.00     0.173 A 
ATOM     71  F   UNL     1      -7.313  -3.332  -5.628  1.00  0.00    -0.203 F 
ATOM     72  C   UNL     1      -9.119  -2.493  -4.373  1.00  0.00     0.198 A 
ATOM     73  C   UNL     1      -9.095  -0.221  -3.612  1.00  0.00     0.198 A 
ATOM     74  F   UNL     1      -7.280   1.181  -4.146  1.00  0.00    -0.203 F 
ATOM     75  F   UNL     1      -9.730  -3.683  -4.460  1.00  0.00    -0.200 F 
ATOM     76  C   UNL     1      -9.725  -1.453  -3.685  1.00  0.00     0.200 A 
ATOM     77  F   UNL     1      -9.666   0.781  -2.929  1.00  0.00    -0.200 F 
ATOM     78  F   UNL     1     -10.914  -1.639  -3.094  1.00  0.00    -0.200 F 
ENDBRANCH  44  68
BRANCH  56  79
ATOM     79  C   UNL     1      -4.679  -1.284 -11.444  1.00  0.00     0.064 A 
ATOM     80  C   UNL     1      -5.566  -0.384 -12.050  1.00  0.00     0.173 A 
ATOM     81  C   UNL     1      -4.361  -2.468 -12.124  1.00  0.00     0.173 A 
ATOM     82  F   UNL     1      -5.909   0.753 -11.425  1.00  0.00    -0.203 F 
ATOM     83  C   UNL     1      -6.134  -0.672 -13.286  1.00  0.00     0.198 A 
ATOM     84  C   UNL     1      -4.902  -2.735 -13.375  1.00  0.00     0.198 A 
ATOM     85  F   UNL     1      -3.511  -3.353 -11.582  1.00  0.00    -0.203 F 
ATOM     86  F   UNL     1      -7.019   0.175 -13.827  1.00  0.00    -0.200 F 
ATOM     87  C   UNL     1      -5.793  -1.841 -13.951  1.00  0.00     0.200 A 
ATOM     88  F   UNL     1      -4.557  -3.854 -14.026  1.00  0.00    -0.200 F 
ATOM     89  F   UNL     1      -6.329  -2.110 -15.149  1.00  0.00    -0.200 F 
ENDBRANCH  56  79
ENDBRANCH  30  31
ENDBRANCH  23  25
ENDBRANCH  22  23
ENDBRANCH  21  22
ENDBRANCH  20  21
ENDBRANCH  19  20
ENDBRANCH   1  19
TORSDOF 19
