REMARK SMILES Cc1nn(C)c(=O)c(C(=O)N2CC[C@@H](C(=O)OCCOC(=O)c3ccc(-c4c5nc(c(-c6c(F)c(F)c(F)c(F)c6F)c6ccc([nH]6)c(-c6c(F)c(F)c(F)c(F)c6F)c6nc(c(-c7c(F)c(F)c(F)c(F)c7F)c7ccc4[nH]7)C=C6)C=C5)cc3)[C@@H]2C)c1C
REMARK SMILES IDX 18 1 17 2 15 3 16 4 14 5 11 6 12 7 86 8 13 9 87 10 9 11
REMARK SMILES IDX 10 12 8 13 1 14 2 15 3 16 88 17 4 18 89 19 5 20 6 21 7 22
REMARK SMILES IDX 19 23 20 24 21 25 22 26 23 27 24 28 85 29 25 30 84 31 26 32
REMARK SMILES IDX 27 33 28 34 78 35 29 36 83 37 77 38 79 39 30 40 82 41 76 42
REMARK SMILES IDX 75 43 31 45 63 46 43 47 62 48 44 49 47 50 61 51 80 52 45 53
REMARK SMILES IDX 46 54 60 56 81 57 48 58 32 59 33 60 41 61 34 62 35 63 39 64
REMARK SMILES IDX 42 65 36 66 37 67 40 68 38 69 64 70 65 71 73 72 66 73 67 74
REMARK SMILES IDX 71 75 74 76 68 77 69 78 72 79 70 80 49 81 50 82 58 83 51 84
REMARK SMILES IDX 52 85 56 86 59 87 53 88 54 89 57 90 55 91
REMARK H PARENT 79 44 47 55
REMARK Flexibility Score: inf
ROOT
ATOM      1  C   UNL     1       5.691   0.394  -1.335  1.00  0.00     0.274 C 
ENDROOT
BRANCH   1   2
ATOM      2  O   UNL     1       5.052   1.685  -1.220  1.00  0.00    -0.462 OA
BRANCH   2   3
ATOM      3  C   UNL     1       5.851   2.776  -1.190  1.00  0.00     0.311 C 
ATOM      4  O   UNL     1       7.077   2.738  -1.214  1.00  0.00    -0.252 OA
BRANCH   3   5
ATOM      5  C   UNL     1       5.099   4.091  -1.110  1.00  0.00     0.123 C 
ATOM      6  N   UNL     1       3.021   4.734  -0.160  1.00  0.00    -0.335 N 
ATOM      7  C   UNL     1       4.048   5.556   0.452  1.00  0.00     0.121 C 
ATOM      8  C   UNL     1       3.568   4.065  -1.351  1.00  0.00     0.096 C 
ATOM      9  C   UNL     1       5.284   4.702   0.282  1.00  0.00     0.039 C 
ATOM     10  C   UNL     1       3.211   4.855  -2.618  1.00  0.00     0.032 C 
BRANCH   6  11
ATOM     11  C   UNL     1       1.801   4.623   0.472  1.00  0.00     0.260 C 
ATOM     12  O   UNL     1       1.514   5.351   1.426  1.00  0.00    -0.269 OA
BRANCH  11  13
ATOM     13  C   UNL     1       0.841   3.541   0.114  1.00  0.00     0.111 A 
ATOM     14  C   UNL     1       0.306  -0.198  -0.092  1.00  0.00     0.069 C 
ATOM     15  C   UNL     1       0.029   1.274   0.139  1.00  0.00     0.062 A 
ATOM     16  N   UNL     1      -1.218   1.603   0.232  1.00  0.00    -0.175 NA
ATOM     17  C   UNL     1       1.160   2.239   0.261  1.00  0.00    -0.010 A 
ATOM     18  N   UNL     1      -1.514   2.936   0.305  1.00  0.00    -0.232 N 
ATOM     19  C   UNL     1       2.476   1.674   0.694  1.00  0.00     0.047 C 
ATOM     20  C   UNL     1      -2.896   3.260   0.604  1.00  0.00     0.178 C 
ATOM     21  C   UNL     1      -0.597   3.934  -0.002  1.00  0.00     0.279 A 
ATOM     22  O   UNL     1      -0.917   5.086  -0.290  1.00  0.00    -0.267 OA
ENDBRANCH  11  13
ENDBRANCH   6  11
ENDBRANCH   3   5
ENDBRANCH   2   3
ENDBRANCH   1   2
BRANCH   1  23
ATOM     23  C   UNL     1       5.406  -0.239  -2.701  1.00  0.00     0.275 C 
BRANCH  23  24
ATOM     24  O   UNL     1       6.066   0.491  -3.751  1.00  0.00    -0.458 OA
BRANCH  24  25
ATOM     25  C   UNL     1       5.337   1.495  -4.282  1.00  0.00     0.338 C 
ATOM     26  O   UNL     1       4.178   1.792  -4.023  1.00  0.00    -0.246 OA
BRANCH  25  27
ATOM     27  C   UNL     1       6.202   2.348  -5.101  1.00  0.00     0.060 A 
ATOM     28  C   UNL     1       6.530   3.602  -4.584  1.00  0.00     0.016 A 
ATOM     29  C   UNL     1       6.587   1.989  -6.390  1.00  0.00     0.016 A 
ATOM     30  C   UNL     1       7.202   4.532  -5.360  1.00  0.00     0.010 A 
ATOM     31  C   UNL     1       7.282   2.919  -7.171  1.00  0.00     0.010 A 
ATOM     32  C   UNL     1       7.567   4.202  -6.667  1.00  0.00    -0.014 A 
BRANCH  32  33
ATOM     33  C   UNL     1       8.141   5.254  -7.532  1.00  0.00     0.031 A 
ATOM     34  C   UNL     1       7.288   5.854  -8.609  1.00  0.00     0.074 A 
ATOM     35  C   UNL     1       9.378   5.725  -7.298  1.00  0.00     0.049 A 
ATOM     36  N   UNL     1       7.621   6.676  -9.569  1.00  0.00    -0.248 NA
ATOM     37  C   UNL     1       5.863   5.484  -8.599  1.00  0.00     0.031 C 
ATOM     38  C   UNL     1      10.249   5.304  -6.201  1.00  0.00     0.029 A 
ATOM     39  N   UNL     1      10.110   6.673  -7.965  1.00  0.00    -0.354 N 
ATOM     40  C   UNL     1       6.459   6.894 -10.296  1.00  0.00     0.074 A 
ATOM     41  C   UNL     1       5.410   6.120  -9.669  1.00  0.00     0.031 C 
ATOM     42  C   UNL     1      11.396   6.000  -6.264  1.00  0.00     0.029 A 
ATOM     43  C   UNL     1      11.366   6.859  -7.443  1.00  0.00     0.049 A 
ATOM     44  H   UNL     1       9.768   7.172  -8.742  1.00  0.00     0.167 HD
ATOM     45  C   UNL     1       6.293   7.670 -11.392  1.00  0.00     0.037 A 
ATOM     46  C   UNL     1      12.388   7.609  -7.897  1.00  0.00     0.037 A 
ATOM     47  C   UNL     1       7.343   8.449 -11.991  1.00  0.00     0.049 A 
ATOM     48  C   UNL     1      12.207   8.386  -9.171  1.00  0.00     0.074 A 
ATOM     49  C   UNL     1       7.300   9.231 -13.131  1.00  0.00     0.029 A 
ATOM     50  N   UNL     1       8.630   8.553 -11.482  1.00  0.00    -0.354 N 
ATOM     51  N   UNL     1      11.139   8.506  -9.923  1.00  0.00    -0.248 NA
ATOM     52  C   UNL     1      13.381   9.112  -9.675  1.00  0.00     0.031 C 
ATOM     53  C   UNL     1       8.570   9.784 -13.328  1.00  0.00     0.029 A 
ATOM     54  C   UNL     1       9.394   9.378 -12.290  1.00  0.00     0.049 A 
ATOM     55  H   UNL     1       8.953   8.105 -10.667  1.00  0.00     0.167 HD
ATOM     56  C   UNL     1      11.508   9.318 -10.986  1.00  0.00     0.074 A 
ATOM     57  C   UNL     1      12.893   9.685 -10.766  1.00  0.00     0.031 C 
ATOM     58  C   UNL     1      10.774   9.716 -12.053  1.00  0.00     0.037 A 
BRANCH  45  59
ATOM     59  C   UNL     1       4.939   7.677 -12.034  1.00  0.00     0.064 A 
ATOM     60  C   UNL     1       3.854   8.358 -11.466  1.00  0.00     0.173 A 
ATOM     61  C   UNL     1       4.732   7.008 -13.250  1.00  0.00     0.173 A 
ATOM     62  F   UNL     1       3.996   8.993 -10.292  1.00  0.00    -0.203 F 
ATOM     63  C   UNL     1       2.606   8.358 -12.084  1.00  0.00     0.198 A 
ATOM     64  C   UNL     1       3.490   7.029 -13.877  1.00  0.00     0.198 A 
ATOM     65  F   UNL     1       5.737   6.337 -13.832  1.00  0.00    -0.203 F 
ATOM     66  F   UNL     1       1.572   8.983 -11.504  1.00  0.00    -0.200 F 
ATOM     67  C   UNL     1       2.426   7.699 -13.292  1.00  0.00     0.200 A 
ATOM     68  F   UNL     1       3.320   6.396 -15.047  1.00  0.00    -0.200 F 
ATOM     69  F   UNL     1       1.226   7.704 -13.888  1.00  0.00    -0.200 F 
ENDBRANCH  45  59
BRANCH  46  70
ATOM     70  C   UNL     1      13.681   7.615  -7.168  1.00  0.00     0.064 A 
ATOM     71  C   UNL     1      14.126   8.763  -6.499  1.00  0.00     0.173 A 
ATOM     72  C   UNL     1      14.495   6.474  -7.118  1.00  0.00     0.173 A 
ATOM     73  F   UNL     1      13.396   9.887  -6.541  1.00  0.00    -0.203 F 
ATOM     74  C   UNL     1      15.338   8.770  -5.811  1.00  0.00     0.198 A 
ATOM     75  C   UNL     1      15.693   6.473  -6.407  1.00  0.00     0.198 A 
ATOM     76  F   UNL     1      14.118   5.351  -7.747  1.00  0.00    -0.203 F 
ATOM     77  F   UNL     1      15.756   9.890  -5.207  1.00  0.00    -0.200 F 
ATOM     78  C   UNL     1      16.116   7.622  -5.758  1.00  0.00     0.200 A 
ATOM     79  F   UNL     1      16.435   5.359  -6.350  1.00  0.00    -0.200 F 
ATOM     80  F   UNL     1      17.275   7.627  -5.087  1.00  0.00    -0.200 F 
ENDBRANCH  46  70
BRANCH  58  81
ATOM     81  C   UNL     1      11.457  10.594 -13.058  1.00  0.00     0.064 A 
ATOM     82  C   UNL     1      12.404  10.076 -13.952  1.00  0.00     0.173 A 
ATOM     83  C   UNL     1      11.135  11.956 -13.150  1.00  0.00     0.173 A 
ATOM     84  F   UNL     1      12.754   8.782 -13.890  1.00  0.00    -0.203 F 
ATOM     85  C   UNL     1      13.023  10.897 -14.890  1.00  0.00     0.198 A 
ATOM     86  C   UNL     1      11.738  12.768 -14.106  1.00  0.00     0.198 A 
ATOM     87  F   UNL     1      10.231  12.495 -12.319  1.00  0.00    -0.203 F 
ATOM     88  F   UNL     1      13.957  10.391 -15.708  1.00  0.00    -0.200 F 
ATOM     89  C   UNL     1      12.685  12.240 -14.970  1.00  0.00     0.200 A 
ATOM     90  F   UNL     1      11.403  14.063 -14.190  1.00  0.00    -0.200 F 
ATOM     91  F   UNL     1      13.279  13.028 -15.877  1.00  0.00    -0.200 F 
ENDBRANCH  58  81
ENDBRANCH  32  33
ENDBRANCH  25  27
ENDBRANCH  24  25
ENDBRANCH  23  24
ENDBRANCH   1  23
TORSDOF 13
