REMARK SMILES Cc1ccc(C(=O)OCCOC(=O)c2ccc(-c3c4nc(c(-c5c(F)c(F)c(F)c(F)c5F)c5ccc([nH]5)c(-c5c(F)c(F)c(F)c(F)c5F)c5nc(c(-c6c(F)c(F)c(F)c(F)c6F)c6ccc3[nH]6)C=C5)C=C4)cc2)cc1N[C@@H]1CC(=O)N(c2ccccc2C)C1=O
REMARK SMILES IDX 9 1 8 2 6 3 7 4 5 5 1 6 2 7 3 8 78 9 4 10 77 11 79 12 80 14
REMARK SMILES IDX 81 15 92 16 82 17 84 18 93 19 83 20 85 21 86 22 90 23 87 24
REMARK SMILES IDX 89 25 91 26 88 27 10 28 11 29 12 30 13 31 14 32 15 33 76 34
REMARK SMILES IDX 16 35 75 36 17 37 18 38 19 39 69 40 20 41 74 42 68 43 70 44
REMARK SMILES IDX 21 45 73 46 67 47 66 48 22 50 54 51 34 52 53 53 35 54 38 55
REMARK SMILES IDX 52 56 71 57 36 58 37 59 51 61 72 62 39 63 23 64 24 65 32 66
REMARK SMILES IDX 25 67 26 68 30 69 33 70 27 71 28 72 31 73 29 74 55 75 56 76
REMARK SMILES IDX 64 77 57 78 58 79 62 80 65 81 59 82 60 83 63 84 61 85 40 86
REMARK SMILES IDX 41 87 49 88 42 89 43 90 47 91 50 92 44 93 45 94 48 95 46 96
REMARK H PARENT 79 13 70 49 38 60
REMARK Flexibility Score: inf
ROOT
ATOM      1  C   UNL     1      -4.605   1.659  -2.241  1.00  0.00     0.275 C 
ENDROOT
BRANCH   1   2
ATOM      2  O   UNL     1      -3.333   0.998  -2.329  1.00  0.00    -0.458 OA
BRANCH   2   3
ATOM      3  C   UNL     1      -2.581   1.213  -1.227  1.00  0.00     0.338 C 
ATOM      4  O   UNL     1      -2.910   1.865  -0.242  1.00  0.00    -0.246 OA
BRANCH   3   5
ATOM      5  C   UNL     1      -1.174   0.828  -1.364  1.00  0.00     0.062 A 
ATOM      6  C   UNL     1       2.898   0.410  -0.082  1.00  0.00     0.046 C 
ATOM      7  C   UNL     1       1.496   0.635  -0.583  1.00  0.00    -0.028 A 
ATOM      8  C   UNL     1       0.702  -0.524  -0.781  1.00  0.00     0.006 A 
ATOM      9  C   UNL     1       0.940   1.909  -0.808  1.00  0.00     0.038 A 
ATOM     10  C   UNL     1      -0.647  -0.429  -1.133  1.00  0.00     0.016 A 
ATOM     11  C   UNL     1      -0.358   1.947  -1.300  1.00  0.00     0.041 A 
BRANCH   9  12
ATOM     12  N   UNL     1       1.546   3.089  -0.409  1.00  0.00    -0.373 N 
ATOM     13  H   UNL     1       2.530   3.115  -0.406  1.00  0.00     0.161 HD
BRANCH  12  14
ATOM     14  C   UNL     1       0.830   4.314   0.011  1.00  0.00     0.179 C 
ATOM     15  C   UNL     1      -0.101   4.092   1.195  1.00  0.00     0.136 C 
ATOM     16  C   UNL     1      -0.046   4.984  -1.046  1.00  0.00     0.256 C 
ATOM     17  C   UNL     1      -1.343   4.849   0.833  1.00  0.00     0.236 C 
ATOM     18  N   UNL     1      -1.248   5.313  -0.455  1.00  0.00    -0.248 N 
ATOM     19  O   UNL     1       0.294   5.199  -2.203  1.00  0.00    -0.272 OA
ATOM     20  O   UNL     1      -2.292   4.959   1.597  1.00  0.00    -0.274 OA
BRANCH  18  21
ATOM     21  C   UNL     1      -2.314   5.972  -1.120  1.00  0.00     0.055 A 
ATOM     22  C   UNL     1      -2.768   5.473  -2.354  1.00  0.00     0.027 A 
ATOM     23  C   UNL     1      -2.939   7.114  -0.573  1.00  0.00    -0.027 A 
ATOM     24  C   UNL     1      -3.848   6.066  -3.016  1.00  0.00     0.002 A 
ATOM     25  C   UNL     1      -4.021   7.699  -1.256  1.00  0.00     0.005 A 
ATOM     26  C   UNL     1      -2.476   7.772   0.699  1.00  0.00     0.046 C 
ATOM     27  C   UNL     1      -4.473   7.180  -2.467  1.00  0.00     0.000 A 
ENDBRANCH  18  21
ENDBRANCH  12  14
ENDBRANCH   9  12
ENDBRANCH   3   5
ENDBRANCH   2   3
ENDBRANCH   1   2
BRANCH   1  28
ATOM     28  C   UNL     1      -5.738   0.902  -2.940  1.00  0.00     0.275 C 
BRANCH  28  29
ATOM     29  O   UNL     1      -5.752  -0.554  -2.956  1.00  0.00    -0.458 OA
BRANCH  29  30
ATOM     30  C   UNL     1      -5.043  -1.391  -2.168  1.00  0.00     0.338 C 
ATOM     31  O   UNL     1      -4.530  -2.424  -2.591  1.00  0.00    -0.246 OA
BRANCH  30  32
ATOM     32  C   UNL     1      -4.928  -1.034  -0.749  1.00  0.00     0.060 A 
ATOM     33  C   UNL     1      -3.792  -1.456  -0.034  1.00  0.00     0.016 A 
ATOM     34  C   UNL     1      -5.881  -0.202  -0.173  1.00  0.00     0.016 A 
ATOM     35  C   UNL     1      -3.553  -0.972   1.240  1.00  0.00     0.010 A 
ATOM     36  C   UNL     1      -5.587   0.391   1.023  1.00  0.00     0.010 A 
ATOM     37  C   UNL     1      -4.470  -0.060   1.749  1.00  0.00    -0.014 A 
BRANCH  37  38
ATOM     38  C   UNL     1      -4.641   0.149   3.172  1.00  0.00     0.031 A 
ATOM     39  C   UNL     1      -3.992   1.277   3.845  1.00  0.00     0.074 A 
ATOM     40  C   UNL     1      -5.666  -0.627   3.591  1.00  0.00     0.049 A 
ATOM     41  N   UNL     1      -3.805   1.367   5.114  1.00  0.00    -0.248 NA
ATOM     42  C   UNL     1      -3.424   2.409   3.118  1.00  0.00     0.031 C 
ATOM     43  C   UNL     1      -6.591  -0.526   4.698  1.00  0.00     0.029 A 
ATOM     44  N   UNL     1      -6.035  -1.842   2.969  1.00  0.00    -0.354 N 
ATOM     45  C   UNL     1      -3.542   2.702   5.368  1.00  0.00     0.074 A 
ATOM     46  C   UNL     1      -3.095   3.240   4.114  1.00  0.00     0.031 C 
ATOM     47  C   UNL     1      -7.157  -1.739   4.887  1.00  0.00     0.029 A 
ATOM     48  C   UNL     1      -6.495  -2.678   3.983  1.00  0.00     0.049 A 
ATOM     49  H   UNL     1      -5.977  -2.055   2.010  1.00  0.00     0.167 HD
ATOM     50  C   UNL     1      -4.021   3.252   6.524  1.00  0.00     0.037 A 
ATOM     51  C   UNL     1      -5.667  -3.700   4.352  1.00  0.00     0.037 A 
ATOM     52  C   UNL     1      -4.729   2.213   7.273  1.00  0.00     0.049 A 
ATOM     53  C   UNL     1      -5.128  -3.429   5.735  1.00  0.00     0.074 A 
ATOM     54  C   UNL     1      -6.076   1.891   7.323  1.00  0.00     0.029 A 
ATOM     55  N   UNL     1      -4.036   1.093   7.716  1.00  0.00    -0.354 N 
ATOM     56  N   UNL     1      -4.822  -2.241   6.189  1.00  0.00    -0.248 NA
ATOM     57  C   UNL     1      -5.025  -4.475   6.743  1.00  0.00     0.031 C 
ATOM     58  C   UNL     1      -6.182   0.536   7.729  1.00  0.00     0.029 A 
ATOM     59  C   UNL     1      -4.903   0.032   7.897  1.00  0.00     0.049 A 
ATOM     60  H   UNL     1      -3.065   1.060   7.878  1.00  0.00     0.167 HD
ATOM     61  C   UNL     1      -4.601  -2.331   7.537  1.00  0.00     0.074 A 
ATOM     62  C   UNL     1      -4.702  -3.752   7.827  1.00  0.00     0.031 C 
ATOM     63  C   UNL     1      -4.407  -1.253   8.353  1.00  0.00     0.037 A 
BRANCH  50  64
ATOM     64  C   UNL     1      -4.213   4.735   6.797  1.00  0.00     0.064 A 
ATOM     65  C   UNL     1      -5.192   5.165   7.725  1.00  0.00     0.173 A 
ATOM     66  C   UNL     1      -3.502   5.783   6.181  1.00  0.00     0.173 A 
ATOM     67  F   UNL     1      -5.876   4.294   8.479  1.00  0.00    -0.203 F 
ATOM     68  C   UNL     1      -5.505   6.511   7.934  1.00  0.00     0.198 A 
ATOM     69  C   UNL     1      -3.833   7.134   6.370  1.00  0.00     0.198 A 
ATOM     70  F   UNL     1      -2.421   5.548   5.427  1.00  0.00    -0.203 F 
ATOM     71  F   UNL     1      -6.457   6.841   8.819  1.00  0.00    -0.200 F 
ATOM     72  C   UNL     1      -4.843   7.497   7.238  1.00  0.00     0.200 A 
ATOM     73  F   UNL     1      -3.154   8.086   5.714  1.00  0.00    -0.200 F 
ATOM     74  F   UNL     1      -5.151   8.787   7.430  1.00  0.00    -0.200 F 
ENDBRANCH  50  64
BRANCH  51  75
ATOM     75  C   UNL     1      -4.897  -4.302   3.206  1.00  0.00     0.064 A 
ATOM     76  C   UNL     1      -5.616  -4.748   2.069  1.00  0.00     0.173 A 
ATOM     77  C   UNL     1      -3.508  -4.197   3.060  1.00  0.00     0.173 A 
ATOM     78  F   UNL     1      -6.952  -4.877   2.131  1.00  0.00    -0.203 F 
ATOM     79  C   UNL     1      -4.999  -4.971   0.837  1.00  0.00     0.198 A 
ATOM     80  C   UNL     1      -2.887  -4.443   1.826  1.00  0.00     0.198 A 
ATOM     81  F   UNL     1      -2.746  -3.781   4.080  1.00  0.00    -0.203 F 
ATOM     82  F   UNL     1      -5.739  -5.278  -0.238  1.00  0.00    -0.200 F 
ATOM     83  C   UNL     1      -3.633  -4.806   0.713  1.00  0.00     0.200 A 
ATOM     84  F   UNL     1      -1.567  -4.244   1.689  1.00  0.00    -0.200 F 
ATOM     85  F   UNL     1      -3.041  -4.938  -0.483  1.00  0.00    -0.200 F 
ENDBRANCH  51  75
BRANCH  63  86
ATOM     86  C   UNL     1      -3.810  -1.322   9.731  1.00  0.00     0.064 A 
ATOM     87  C   UNL     1      -2.907  -2.321  10.120  1.00  0.00     0.173 A 
ATOM     88  C   UNL     1      -3.983  -0.256  10.648  1.00  0.00     0.173 A 
ATOM     89  F   UNL     1      -2.554  -3.310   9.287  1.00  0.00    -0.203 F 
ATOM     90  C   UNL     1      -2.284  -2.300  11.366  1.00  0.00     0.198 A 
ATOM     91  C   UNL     1      -3.295  -0.197  11.854  1.00  0.00     0.198 A 
ATOM     92  F   UNL     1      -4.794   0.780  10.387  1.00  0.00    -0.203 F 
ATOM     93  F   UNL     1      -1.478  -3.311  11.716  1.00  0.00    -0.200 F 
ATOM     94  C   UNL     1      -2.464  -1.232  12.224  1.00  0.00     0.200 A 
ATOM     95  F   UNL     1      -3.423   0.881  12.640  1.00  0.00    -0.200 F 
ATOM     96  F   UNL     1      -1.819  -1.190  13.396  1.00  0.00    -0.200 F 
ENDBRANCH  63  86
ENDBRANCH  37  38
ENDBRANCH  30  32
ENDBRANCH  29  30
ENDBRANCH  28  29
ENDBRANCH   1  28
TORSDOF 14
