REMARK SMILES CCN(Cc1ccccc1)C(=O)Cn1cccc1C(=O)OCCOC(=O)c1ccc(-c2c3nc(c(-c4c(F)c(F)c(F)c(F)c4F)c4ccc([nH]4)c(-c4c(F)c(F)c(F)c(F)c4F)c4nc(c(-c5c(F)c(F)c(F)c(F)c5F)c5ccc2[nH]5)C=C4)C=C3)cc1
REMARK SMILES IDX 21 1 19 2 20 3 18 4 14 5 15 6 16 7 17 8 13 9 11 10 12 11
REMARK SMILES IDX 3 12 2 13 1 14 4 15 5 16 6 17 10 18 7 19 9 20 8 21 22 22
REMARK SMILES IDX 23 23 24 24 25 25 26 26 27 27 28 28 89 29 29 30 88 31 30 32
REMARK SMILES IDX 31 33 32 34 82 35 33 36 87 37 81 38 83 39 34 40 86 41 80 42
REMARK SMILES IDX 79 43 35 45 67 46 47 47 66 48 48 49 51 50 65 51 84 52 49 53
REMARK SMILES IDX 50 54 64 56 85 57 52 58 36 59 37 60 45 61 38 62 39 63 43 64
REMARK SMILES IDX 46 65 40 66 41 67 44 68 42 69 68 70 69 71 77 72 70 73 71 74
REMARK SMILES IDX 75 75 78 76 72 77 73 78 76 79 74 80 53 81 54 82 62 83 55 84
REMARK SMILES IDX 56 85 60 86 63 87 57 88 58 89 61 90 59 91
REMARK H PARENT 83 44 51 55
REMARK Flexibility Score: inf
ROOT
ATOM      1  O   UNL     1       2.927   6.577  -0.861  1.00  0.00    -0.457 OA
ENDROOT
BRANCH   1   2
ATOM      2  C   UNL     1       2.123   6.453  -1.951  1.00  0.00     0.355 C 
ATOM      3  O   UNL     1       1.521   7.392  -2.477  1.00  0.00    -0.244 OA
BRANCH   2   4
ATOM      4  C   UNL     1       2.100   5.092  -2.455  1.00  0.00     0.128 A 
ATOM      5  N   UNL     1       2.463   3.921  -1.806  1.00  0.00    -0.333 N 
ATOM      6  C   UNL     1       2.372   2.862  -2.684  1.00  0.00     0.087 A 
ATOM      7  C   UNL     1       1.854   3.323  -3.869  1.00  0.00     0.020 A 
ATOM      8  C   UNL     1       1.679   4.715  -3.726  1.00  0.00     0.035 A 
BRANCH   5   9
ATOM      9  C   UNL     1       2.843   3.791  -0.404  1.00  0.00     0.222 C 
BRANCH   9  10
ATOM     10  C   UNL     1       2.333   2.541   0.287  1.00  0.00     0.242 C 
ATOM     11  O   UNL     1       3.156   1.745   0.756  1.00  0.00    -0.273 OA
BRANCH  10  12
ATOM     12  N   UNL     1       0.961   2.329   0.434  1.00  0.00    -0.337 N 
BRANCH  12  13
ATOM     13  C   UNL     1       0.546   1.054   1.017  1.00  0.00     0.116 C 
ATOM     14  C   UNL     1       0.805  -0.120   0.079  1.00  0.00     0.027 C 
ENDBRANCH  12  13
BRANCH  12  15
ATOM     15  C   UNL     1      -0.103   3.229  -0.043  1.00  0.00     0.155 C 
BRANCH  15  16
ATOM     16  C   UNL     1      -0.170   4.548   0.695  1.00  0.00    -0.029 A 
ATOM     17  C   UNL     1      -0.121   4.613   2.093  1.00  0.00     0.005 A 
ATOM     18  C   UNL     1      -0.303   5.746  -0.022  1.00  0.00     0.005 A 
ATOM     19  C   UNL     1      -0.121   5.849   2.746  1.00  0.00     0.000 A 
ATOM     20  C   UNL     1      -0.267   6.981   0.627  1.00  0.00     0.000 A 
ATOM     21  C   UNL     1      -0.165   7.033   2.013  1.00  0.00     0.000 A 
ENDBRANCH  15  16
ENDBRANCH  12  15
ENDBRANCH  10  12
ENDBRANCH   9  10
ENDBRANCH   5   9
ENDBRANCH   2   4
ENDBRANCH   1   2
BRANCH   1  22
ATOM     22  C   UNL     1       3.145   7.907  -0.363  1.00  0.00     0.275 C 
BRANCH  22  23
ATOM     23  C   UNL     1       4.359   8.568  -1.007  1.00  0.00     0.275 C 
BRANCH  23  24
ATOM     24  O   UNL     1       4.182   8.784  -2.407  1.00  0.00    -0.458 OA
BRANCH  24  25
ATOM     25  C   UNL     1       4.566   7.725  -3.153  1.00  0.00     0.338 C 
ATOM     26  O   UNL     1       4.817   6.594  -2.768  1.00  0.00    -0.246 OA
BRANCH  25  27
ATOM     27  C   UNL     1       4.909   8.141  -4.505  1.00  0.00     0.060 A 
ATOM     28  C   UNL     1       4.940   7.133  -5.473  1.00  0.00     0.016 A 
ATOM     29  C   UNL     1       5.575   9.362  -4.661  1.00  0.00     0.016 A 
ATOM     30  C   UNL     1       5.787   7.290  -6.545  1.00  0.00     0.010 A 
ATOM     31  C   UNL     1       6.447   9.506  -5.717  1.00  0.00     0.010 A 
ATOM     32  C   UNL     1       6.572   8.451  -6.626  1.00  0.00    -0.014 A 
BRANCH  32  33
ATOM     33  C   UNL     1       7.356   8.630  -7.849  1.00  0.00     0.031 A 
ATOM     34  C   UNL     1       6.392   9.130  -8.955  1.00  0.00     0.074 A 
ATOM     35  C   UNL     1       8.673   8.240  -7.779  1.00  0.00     0.049 A 
ATOM     36  N   UNL     1       6.395   8.886 -10.225  1.00  0.00    -0.248 NA
ATOM     37  C   UNL     1       5.184   9.939  -8.590  1.00  0.00     0.031 C 
ATOM     38  C   UNL     1       9.395   7.842  -6.540  1.00  0.00     0.029 A 
ATOM     39  N   UNL     1       9.680   8.082  -8.712  1.00  0.00    -0.354 N 
ATOM     40  C   UNL     1       5.372   9.659 -10.822  1.00  0.00     0.074 A 
ATOM     41  C   UNL     1       4.576  10.172  -9.756  1.00  0.00     0.031 C 
ATOM     42  C   UNL     1      10.649   7.405  -6.814  1.00  0.00     0.029 A 
ATOM     43  C   UNL     1      10.887   7.472  -8.242  1.00  0.00     0.049 A 
ATOM     44  H   UNL     1       9.572   8.371  -9.647  1.00  0.00     0.167 HD
ATOM     45  C   UNL     1       5.369   9.946 -12.158  1.00  0.00     0.037 A 
ATOM     46  C   UNL     1      11.957   7.008  -8.976  1.00  0.00     0.037 A 
ATOM     47  C   UNL     1       6.481   9.300 -12.767  1.00  0.00     0.049 A 
ATOM     48  C   UNL     1      11.646   7.442 -10.340  1.00  0.00     0.074 A 
ATOM     49  C   UNL     1       6.721   7.976 -13.020  1.00  0.00     0.029 A 
ATOM     50  N   UNL     1       7.668   9.994 -12.747  1.00  0.00    -0.354 N 
ATOM     51  N   UNL     1      11.723   8.670 -10.754  1.00  0.00    -0.248 NA
ATOM     52  C   UNL     1      11.089   6.457 -11.274  1.00  0.00     0.031 C 
ATOM     53  C   UNL     1       8.058   7.832 -12.605  1.00  0.00     0.029 A 
ATOM     54  C   UNL     1       8.657   9.091 -12.466  1.00  0.00     0.049 A 
ATOM     55  H   UNL     1       7.784  10.959 -12.905  1.00  0.00     0.167 HD
ATOM     56  C   UNL     1      10.898   8.645 -11.849  1.00  0.00     0.074 A 
ATOM     57  C   UNL     1      10.834   7.268 -12.296  1.00  0.00     0.031 C 
ATOM     58  C   UNL     1       9.913   9.574 -11.955  1.00  0.00     0.037 A 
BRANCH  45  59
ATOM     59  C   UNL     1       4.659  10.967 -12.999  1.00  0.00     0.064 A 
ATOM     60  C   UNL     1       4.726  10.809 -14.409  1.00  0.00     0.173 A 
ATOM     61  C   UNL     1       4.316  12.240 -12.534  1.00  0.00     0.173 A 
ATOM     62  F   UNL     1       4.982   9.609 -14.955  1.00  0.00    -0.203 F 
ATOM     63  C   UNL     1       4.650  11.893 -15.277  1.00  0.00     0.198 A 
ATOM     64  C   UNL     1       4.181  13.318 -13.417  1.00  0.00     0.198 A 
ATOM     65  F   UNL     1       4.213  12.496 -11.224  1.00  0.00    -0.203 F 
ATOM     66  F   UNL     1       4.904  11.723 -16.582  1.00  0.00    -0.200 F 
ATOM     67  C   UNL     1       4.401  13.154 -14.776  1.00  0.00     0.200 A 
ATOM     68  F   UNL     1       3.924  14.540 -12.932  1.00  0.00    -0.200 F 
ATOM     69  F   UNL     1       4.408  14.216 -15.594  1.00  0.00    -0.200 F 
ENDBRANCH  45  59
BRANCH  46  70
ATOM     70  C   UNL     1      13.218   6.161  -8.850  1.00  0.00     0.064 A 
ATOM     71  C   UNL     1      13.809   5.708  -7.667  1.00  0.00     0.173 A 
ATOM     72  C   UNL     1      13.864   5.673 -10.033  1.00  0.00     0.173 A 
ATOM     73  F   UNL     1      13.415   6.185  -6.481  1.00  0.00    -0.203 F 
ATOM     74  C   UNL     1      14.853   4.750  -7.673  1.00  0.00     0.198 A 
ATOM     75  C   UNL     1      14.840   4.678 -10.041  1.00  0.00     0.198 A 
ATOM     76  F   UNL     1      13.572   6.153 -11.249  1.00  0.00    -0.203 F 
ATOM     77  F   UNL     1      15.395   4.346  -6.515  1.00  0.00    -0.200 F 
ATOM     78  C   UNL     1      15.325   4.197  -8.854  1.00  0.00     0.200 A 
ATOM     79  F   UNL     1      15.281   4.187 -11.210  1.00  0.00    -0.200 F 
ATOM     80  F   UNL     1      16.250   3.227  -8.851  1.00  0.00    -0.200 F 
ENDBRANCH  46  70
BRANCH  58  81
ATOM     81  C   UNL     1      10.168  10.863 -11.187  1.00  0.00     0.064 A 
ATOM     82  C   UNL     1      11.326  11.611 -11.456  1.00  0.00     0.173 A 
ATOM     83  C   UNL     1       9.382  11.329 -10.119  1.00  0.00     0.173 A 
ATOM     84  F   UNL     1      12.119  11.265 -12.481  1.00  0.00    -0.203 F 
ATOM     85  C   UNL     1      11.688  12.723 -10.688  1.00  0.00     0.198 A 
ATOM     86  C   UNL     1       9.740  12.439  -9.345  1.00  0.00     0.198 A 
ATOM     87  F   UNL     1       8.237  10.728  -9.804  1.00  0.00    -0.203 F 
ATOM     88  F   UNL     1      12.803  13.403 -10.985  1.00  0.00    -0.200 F 
ATOM     89  C   UNL     1      10.898  13.133  -9.628  1.00  0.00     0.200 A 
ATOM     90  F   UNL     1       8.953  12.836  -8.332  1.00  0.00    -0.200 F 
ATOM     91  F   UNL     1      11.240  14.206  -8.900  1.00  0.00    -0.200 F 
ENDBRANCH  58  81
ENDBRANCH  32  33
ENDBRANCH  25  27
ENDBRANCH  24  25
ENDBRANCH  23  24
ENDBRANCH  22  23
ENDBRANCH   1  22
TORSDOF 17
