REMARK SMILES Cc1cccc(C(=O)OCCOC(=O)c2ccc(-c3c4nc(c(-c5c(F)c(F)c(F)c(F)c5F)c5ccc([nH]5)c(-c5c(F)c(F)c(F)c(F)c5F)c5nc(c(-c6c(F)c(F)c(F)c(F)c6F)c6ccc3[nH]6)C=C5)C=C4)cc2)c1OC[C@@H]1C[C@H]2CC[C@@H]1C2
REMARK SMILES IDX 10 1 9 2 7 3 8 4 6 5 1 6 2 7 3 8 78 9 4 10 5 11 79 12 80 13
REMARK SMILES IDX 81 14 82 15 86 16 83 17 85 18 87 19 84 20 11 21 12 22 13 23
REMARK SMILES IDX 14 24 15 25 16 26 77 27 17 28 76 29 18 30 19 31 20 32 70 33
REMARK SMILES IDX 21 34 75 35 69 36 71 37 22 38 74 39 68 40 67 41 23 43 55 44
REMARK SMILES IDX 35 45 54 46 36 47 39 48 53 49 72 50 37 51 38 52 52 54 73 55
REMARK SMILES IDX 40 56 24 57 25 58 33 59 26 60 27 61 31 62 34 63 28 64 29 65
REMARK SMILES IDX 32 66 30 67 56 68 57 69 65 70 58 71 59 72 63 73 66 74 60 75
REMARK SMILES IDX 61 76 64 77 62 78 41 79 42 80 50 81 43 82 44 83 48 84 51 85
REMARK SMILES IDX 45 86 46 87 49 88 47 89
REMARK H PARENT 71 42 39 53
REMARK Flexibility Score: inf
ROOT
ATOM      1  C   UNL     1      -1.159   4.458  -1.694  1.00  0.00     0.275 C 
ENDROOT
BRANCH   1   2
ATOM      2  O   UNL     1      -1.004   3.030  -1.706  1.00  0.00    -0.458 OA
BRANCH   2   3
ATOM      3  C   UNL     1      -0.160   2.599  -0.723  1.00  0.00     0.342 C 
ATOM      4  O   UNL     1       0.341   3.301   0.142  1.00  0.00    -0.246 OA
BRANCH   3   5
ATOM      5  C   UNL     1       0.110   1.152  -0.803  1.00  0.00     0.102 A 
ATOM      6  C   UNL     1       2.875  -1.292  -1.712  1.00  0.00     0.048 C 
ATOM      7  C   UNL     1       1.603  -0.719  -1.148  1.00  0.00    -0.008 A 
ATOM      8  C   UNL     1       0.557  -1.611  -0.866  1.00  0.00     0.007 A 
ATOM      9  C   UNL     1       1.406   0.670  -1.011  1.00  0.00     0.136 A 
ATOM     10  C   UNL     1      -0.718  -1.131  -0.611  1.00  0.00     0.001 A 
ATOM     11  C   UNL     1      -0.944   0.242  -0.639  1.00  0.00     0.019 A 
BRANCH   9  12
ATOM     12  O   UNL     1       2.457   1.477  -1.332  1.00  0.00    -0.492 OA
BRANCH  12  13
ATOM     13  C   UNL     1       3.162   2.183  -0.302  1.00  0.00     0.233 C 
BRANCH  13  14
ATOM     14  C   UNL     1       3.324   1.587   1.112  1.00  0.00     0.030 C 
ATOM     15  C   UNL     1       4.314   2.449   1.949  1.00  0.00     0.011 C 
ATOM     16  C   UNL     1       3.987   0.195   1.220  1.00  0.00    -0.004 C 
ATOM     17  C   UNL     1       5.324   1.422   2.494  1.00  0.00    -0.010 C 
ATOM     18  C   UNL     1       3.721  -0.362   2.631  1.00  0.00     0.004 C 
ATOM     19  C   UNL     1       5.481   0.502   1.290  1.00  0.00     0.007 C 
ATOM     20  C   UNL     1       4.628   0.504   3.513  1.00  0.00     0.004 C 
ENDBRANCH  13  14
ENDBRANCH  12  13
ENDBRANCH   9  12
ENDBRANCH   3   5
ENDBRANCH   2   3
ENDBRANCH   1   2
BRANCH   1  21
ATOM     21  C   UNL     1      -2.331   4.990  -2.538  1.00  0.00     0.275 C 
BRANCH  21  22
ATOM     22  O   UNL     1      -3.675   4.439  -2.461  1.00  0.00    -0.458 OA
BRANCH  22  23
ATOM     23  C   UNL     1      -4.023   3.335  -1.769  1.00  0.00     0.338 C 
ATOM     24  O   UNL     1      -4.590   2.372  -2.270  1.00  0.00    -0.246 OA
BRANCH  23  25
ATOM     25  C   UNL     1      -3.750   3.410  -0.328  1.00  0.00     0.060 A 
ATOM     26  C   UNL     1      -3.572   2.216   0.386  1.00  0.00     0.016 A 
ATOM     27  C   UNL     1      -3.530   4.648   0.264  1.00  0.00     0.016 A 
ATOM     28  C   UNL     1      -2.999   2.239   1.649  1.00  0.00     0.010 A 
ATOM     29  C   UNL     1      -2.895   4.678   1.475  1.00  0.00     0.010 A 
ATOM     30  C   UNL     1      -2.664   3.478   2.173  1.00  0.00    -0.014 A 
BRANCH  30  31
ATOM     31  C   UNL     1      -2.388   3.704   3.575  1.00  0.00     0.031 A 
ATOM     32  C   UNL     1      -1.026   3.674   4.115  1.00  0.00     0.074 A 
ATOM     33  C   UNL     1      -3.477   4.245   4.164  1.00  0.00     0.049 A 
ATOM     34  N   UNL     1      -0.746   4.014   5.319  1.00  0.00    -0.248 NA
ATOM     35  C   UNL     1       0.151   3.239   3.370  1.00  0.00     0.031 C 
ATOM     36  C   UNL     1      -3.628   5.084   5.335  1.00  0.00     0.029 A 
ATOM     37  N   UNL     1      -4.803   3.983   3.764  1.00  0.00    -0.354 N 
ATOM     38  C   UNL     1       0.623   4.119   5.434  1.00  0.00     0.074 A 
ATOM     39  C   UNL     1       1.137   3.538   4.226  1.00  0.00     0.031 C 
ATOM     40  C   UNL     1      -4.907   4.992   5.755  1.00  0.00     0.029 A 
ATOM     41  C   UNL     1      -5.540   3.949   4.952  1.00  0.00     0.049 A 
ATOM     42  H   UNL     1      -5.138   3.852   2.848  1.00  0.00     0.167 HD
ATOM     43  C   UNL     1       1.102   4.805   6.511  1.00  0.00     0.037 A 
ATOM     44  C   UNL     1      -5.911   2.717   5.419  1.00  0.00     0.037 A 
ATOM     45  C   UNL     1       0.011   4.964   7.471  1.00  0.00     0.049 A 
ATOM     46  C   UNL     1      -5.210   2.435   6.726  1.00  0.00     0.074 A 
ATOM     47  C   UNL     1      -0.893   5.986   7.695  1.00  0.00     0.029 A 
ATOM     48  N   UNL     1      -0.531   3.813   8.036  1.00  0.00    -0.354 N 
ATOM     49  N   UNL     1      -3.970   2.754   6.998  1.00  0.00    -0.248 NA
ATOM     50  C   UNL     1      -5.938   1.910   7.873  1.00  0.00     0.031 C 
ATOM     51  C   UNL     1      -2.055   5.399   8.275  1.00  0.00     0.029 A 
ATOM     52  C   UNL     1      -1.837   4.036   8.426  1.00  0.00     0.049 A 
ATOM     53  H   UNL     1      -0.052   2.959   8.142  1.00  0.00     0.167 HD
ATOM     54  C   UNL     1      -3.764   2.590   8.345  1.00  0.00     0.074 A 
ATOM     55  C   UNL     1      -5.016   2.037   8.838  1.00  0.00     0.031 C 
ATOM     56  C   UNL     1      -2.628   2.965   9.011  1.00  0.00     0.037 A 
BRANCH  43  57
ATOM     57  C   UNL     1       2.434   5.515   6.649  1.00  0.00     0.064 A 
ATOM     58  C   UNL     1       2.651   6.376   7.753  1.00  0.00     0.173 A 
ATOM     59  C   UNL     1       3.477   5.516   5.701  1.00  0.00     0.173 A 
ATOM     60  F   UNL     1       1.759   6.468   8.750  1.00  0.00    -0.203 F 
ATOM     61  C   UNL     1       3.779   7.196   7.869  1.00  0.00     0.198 A 
ATOM     62  C   UNL     1       4.617   6.322   5.828  1.00  0.00     0.198 A 
ATOM     63  F   UNL     1       3.437   4.761   4.601  1.00  0.00    -0.203 F 
ATOM     64  F   UNL     1       3.896   8.025   8.916  1.00  0.00    -0.200 F 
ATOM     65  C   UNL     1       4.762   7.173   6.903  1.00  0.00     0.200 A 
ATOM     66  F   UNL     1       5.568   6.280   4.883  1.00  0.00    -0.200 F 
ATOM     67  F   UNL     1       5.837   7.965   7.005  1.00  0.00    -0.200 F 
ENDBRANCH  43  57
BRANCH  44  68
ATOM     68  C   UNL     1      -6.191   1.726   4.322  1.00  0.00     0.064 A 
ATOM     69  C   UNL     1      -7.120   2.091   3.318  1.00  0.00     0.173 A 
ATOM     70  C   UNL     1      -5.363   0.632   4.042  1.00  0.00     0.173 A 
ATOM     71  F   UNL     1      -7.954   3.124   3.522  1.00  0.00    -0.203 F 
ATOM     72  C   UNL     1      -7.123   1.490   2.058  1.00  0.00     0.198 A 
ATOM     73  C   UNL     1      -5.394   0.007   2.786  1.00  0.00     0.198 A 
ATOM     74  F   UNL     1      -4.455   0.216   4.935  1.00  0.00    -0.203 F 
ATOM     75  F   UNL     1      -7.920   1.966   1.090  1.00  0.00    -0.200 F 
ATOM     76  C   UNL     1      -6.246   0.458   1.787  1.00  0.00     0.200 A 
ATOM     77  F   UNL     1      -4.519  -0.971   2.504  1.00  0.00    -0.200 F 
ATOM     78  F   UNL     1      -6.176  -0.063   0.553  1.00  0.00    -0.200 F 
ENDBRANCH  44  68
BRANCH  56  79
ATOM     79  C   UNL     1      -2.220   2.423  10.362  1.00  0.00     0.064 A 
ATOM     80  C   UNL     1      -2.683   1.199  10.873  1.00  0.00     0.173 A 
ATOM     81  C   UNL     1      -1.201   3.048  11.122  1.00  0.00     0.173 A 
ATOM     82  F   UNL     1      -3.518   0.417  10.177  1.00  0.00    -0.203 F 
ATOM     83  C   UNL     1      -2.249   0.698  12.100  1.00  0.00     0.198 A 
ATOM     84  C   UNL     1      -0.708   2.499  12.303  1.00  0.00     0.198 A 
ATOM     85  F   UNL     1      -0.619   4.190  10.727  1.00  0.00    -0.203 F 
ATOM     86  F   UNL     1      -2.785  -0.435  12.575  1.00  0.00    -0.200 F 
ATOM     87  C   UNL     1      -1.254   1.341  12.809  1.00  0.00     0.200 A 
ATOM     88  F   UNL     1       0.317   3.091  12.933  1.00  0.00    -0.200 F 
ATOM     89  F   UNL     1      -0.804   0.828  13.960  1.00  0.00    -0.200 F 
ENDBRANCH  56  79
ENDBRANCH  30  31
ENDBRANCH  23  25
ENDBRANCH  22  23
ENDBRANCH  21  22
ENDBRANCH   1  21
TORSDOF 14
