REMARK SMILES Cc1n[nH]c(C)c1CC(=O)N1CC[C@H](C(=O)OCCOC(=O)c2ccc(-c3c4nc(c(-c5c(F)c(F)c(F)c(F)c5F)c5ccc([nH]5)c(-c5c(F)c(F)c(F)c(F)c5F)c5nc(c(-c6c(F)c(F)c(F)c(F)c6F)c6ccc3[nH]6)C=C5)C=C4)cc2)[C@H]1C
REMARK SMILES IDX 18 1 17 2 15 3 16 4 14 5 11 6 12 7 86 8 13 9 87 10 9 11
REMARK SMILES IDX 10 12 8 13 7 14 1 15 2 16 3 17 4 18 5 19 6 21 19 22 20 23
REMARK SMILES IDX 21 24 22 25 23 26 24 27 85 28 25 29 84 30 26 31 27 32 28 33
REMARK SMILES IDX 78 34 29 35 83 36 77 37 79 38 30 39 82 40 76 41 75 42 31 44
REMARK SMILES IDX 63 45 43 46 62 47 44 48 47 49 61 50 80 51 45 52 46 53 60 55
REMARK SMILES IDX 81 56 48 57 32 58 33 59 41 60 34 61 35 62 39 63 42 64 36 65
REMARK SMILES IDX 37 66 40 67 38 68 64 69 65 70 73 71 66 72 67 73 71 74 74 75
REMARK SMILES IDX 68 76 69 77 72 78 70 79 49 80 50 81 58 82 51 83 52 84 56 85
REMARK SMILES IDX 59 86 53 87 54 88 57 89 55 90
REMARK H PARENT 4 20 79 43 47 54
REMARK Flexibility Score: inf
ROOT
ATOM      1  C   UNL     1      -2.772  -0.087   5.021  1.00  0.00     0.274 C 
ENDROOT
BRANCH   1   2
ATOM      2  O   UNL     1      -1.550  -0.460   4.341  1.00  0.00    -0.462 OA
BRANCH   2   3
ATOM      3  C   UNL     1      -0.513  -0.800   5.144  1.00  0.00     0.311 C 
ATOM      4  O   UNL     1      -0.565  -0.830   6.371  1.00  0.00    -0.252 OA
BRANCH   3   5
ATOM      5  C   UNL     1       0.770  -1.149   4.412  1.00  0.00     0.123 C 
ATOM      6  N   UNL     1       0.429  -2.494   2.474  1.00  0.00    -0.339 N 
ATOM      7  C   UNL     1       0.422  -3.372   3.631  1.00  0.00     0.121 C 
ATOM      8  C   UNL     1       0.775  -1.120   2.870  1.00  0.00     0.096 C 
ATOM      9  C   UNL     1       1.165  -2.598   4.707  1.00  0.00     0.039 C 
ATOM     10  C   UNL     1       2.183  -0.738   2.404  1.00  0.00     0.032 C 
BRANCH   6  11
ATOM     11  C   UNL     1      -0.053  -2.979   1.274  1.00  0.00     0.227 C 
ATOM     12  O   UNL     1      -0.606  -4.089   1.250  1.00  0.00    -0.275 OA
BRANCH  11  13
ATOM     13  C   UNL     1       0.246  -2.309  -0.061  1.00  0.00     0.139 C 
BRANCH  13  14
ATOM     14  C   UNL     1       0.070  -0.838  -0.209  1.00  0.00     0.005 A 
ATOM     15  C   UNL     1      -2.486  -0.552   0.272  1.00  0.00     0.069 C 
ATOM     16  C   UNL     1      -1.119  -0.072  -0.054  1.00  0.00     0.063 A 
ATOM     17  N   UNL     1      -0.900   1.231  -0.260  1.00  0.00    -0.181 NA
ATOM     18  N   UNL     1       0.384   1.296  -0.633  1.00  0.00    -0.282 N 
ATOM     19  C   UNL     1       1.008   0.081  -0.658  1.00  0.00     0.036 A 
ATOM     20  H   UNL     1       0.835   2.139  -0.867  1.00  0.00     0.190 HD
ATOM     21  C   UNL     1       2.412  -0.057  -1.124  1.00  0.00     0.066 C 
ENDBRANCH  13  14
ENDBRANCH  11  13
ENDBRANCH   6  11
ENDBRANCH   3   5
ENDBRANCH   2   3
ENDBRANCH   1   2
BRANCH   1  22
ATOM     22  C   UNL     1      -3.767  -1.247   5.043  1.00  0.00     0.275 C 
BRANCH  22  23
ATOM     23  O   UNL     1      -3.174  -2.361   5.729  1.00  0.00    -0.458 OA
BRANCH  23  24
ATOM     24  C   UNL     1      -3.543  -3.589   5.300  1.00  0.00     0.338 C 
ATOM     25  O   UNL     1      -4.411  -3.840   4.476  1.00  0.00    -0.246 OA
BRANCH  24  26
ATOM     26  C   UNL     1      -2.708  -4.627   5.955  1.00  0.00     0.060 A 
ATOM     27  C   UNL     1      -1.450  -4.320   6.479  1.00  0.00     0.016 A 
ATOM     28  C   UNL     1      -3.146  -5.952   5.975  1.00  0.00     0.016 A 
ATOM     29  C   UNL     1      -0.597  -5.333   6.918  1.00  0.00     0.010 A 
ATOM     30  C   UNL     1      -2.332  -6.952   6.525  1.00  0.00     0.010 A 
ATOM     31  C   UNL     1      -1.032  -6.663   6.976  1.00  0.00    -0.014 A 
BRANCH  31  32
ATOM     32  C   UNL     1      -0.139  -7.750   7.480  1.00  0.00     0.031 A 
ATOM     33  C   UNL     1       0.113  -8.975   6.636  1.00  0.00     0.074 A 
ATOM     34  C   UNL     1       0.449  -7.666   8.692  1.00  0.00     0.049 A 
ATOM     35  N   UNL     1       0.614 -10.135   6.984  1.00  0.00    -0.248 NA
ATOM     36  C   UNL     1      -0.261  -8.888   5.215  1.00  0.00     0.031 C 
ATOM     37  C   UNL     1       0.357  -6.529   9.609  1.00  0.00     0.029 A 
ATOM     38  N   UNL     1       1.248  -8.563   9.364  1.00  0.00    -0.354 N 
ATOM     39  C   UNL     1       0.546 -10.934   5.849  1.00  0.00     0.074 A 
ATOM     40  C   UNL     1      -0.030 -10.125   4.796  1.00  0.00     0.031 C 
ATOM     41  C   UNL     1       1.098  -6.777  10.699  1.00  0.00     0.029 A 
ATOM     42  C   UNL     1       1.632  -8.131  10.611  1.00  0.00     0.049 A 
ATOM     43  H   UNL     1       1.518  -9.431   8.988  1.00  0.00     0.167 HD
ATOM     44  C   UNL     1       0.924 -12.227   5.704  1.00  0.00     0.037 A 
ATOM     45  C   UNL     1       2.288  -8.766  11.602  1.00  0.00     0.037 A 
ATOM     46  C   UNL     1       1.562 -13.012   6.729  1.00  0.00     0.049 A 
ATOM     47  C   UNL     1       2.686 -10.204  11.421  1.00  0.00     0.074 A 
ATOM     48  C   UNL     1       1.962 -14.337   6.682  1.00  0.00     0.029 A 
ATOM     49  N   UNL     1       1.923 -12.531   7.978  1.00  0.00    -0.354 N 
ATOM     50  N   UNL     1       2.514 -10.985  10.385  1.00  0.00    -0.248 NA
ATOM     51  C   UNL     1       3.343 -10.857  12.563  1.00  0.00     0.031 C 
ATOM     52  C   UNL     1       2.555 -14.662   7.907  1.00  0.00     0.029 A 
ATOM     53  C   UNL     1       2.550 -13.530   8.705  1.00  0.00     0.049 A 
ATOM     54  H   UNL     1       1.758 -11.616   8.301  1.00  0.00     0.167 HD
ATOM     55  C   UNL     1       3.043 -12.216  10.745  1.00  0.00     0.074 A 
ATOM     56  C   UNL     1       3.567 -12.073  12.087  1.00  0.00     0.031 C 
ATOM     57  C   UNL     1       3.078 -13.368  10.033  1.00  0.00     0.037 A 
BRANCH  44  58
ATOM     58  C   UNL     1       0.640 -12.897   4.393  1.00  0.00     0.064 A 
ATOM     59  C   UNL     1       1.410 -12.643   3.250  1.00  0.00     0.173 A 
ATOM     60  C   UNL     1      -0.375 -13.863   4.301  1.00  0.00     0.173 A 
ATOM     61  F   UNL     1       2.384 -11.721   3.284  1.00  0.00    -0.203 F 
ATOM     62  C   UNL     1       1.168 -13.324   2.059  1.00  0.00     0.198 A 
ATOM     63  C   UNL     1      -0.598 -14.559   3.117  1.00  0.00     0.198 A 
ATOM     64  F   UNL     1      -1.134 -14.149   5.370  1.00  0.00    -0.203 F 
ATOM     65  F   UNL     1       1.900 -13.049   0.971  1.00  0.00    -0.200 F 
ATOM     66  C   UNL     1       0.172 -14.288   1.996  1.00  0.00     0.200 A 
ATOM     67  F   UNL     1      -1.552 -15.500   3.063  1.00  0.00    -0.200 F 
ATOM     68  F   UNL     1      -0.047 -14.955   0.855  1.00  0.00    -0.200 F 
ENDBRANCH  44  58
BRANCH  45  69
ATOM     69  C   UNL     1       2.555  -8.064  12.885  1.00  0.00     0.064 A 
ATOM     70  C   UNL     1       3.863  -7.735  13.267  1.00  0.00     0.173 A 
ATOM     71  C   UNL     1       1.514  -7.723  13.760  1.00  0.00     0.173 A 
ATOM     72  F   UNL     1       4.895  -8.069  12.479  1.00  0.00    -0.203 F 
ATOM     73  C   UNL     1       4.119  -7.101  14.481  1.00  0.00     0.198 A 
ATOM     74  C   UNL     1       1.768  -7.060  14.958  1.00  0.00     0.198 A 
ATOM     75  F   UNL     1       0.245  -8.020  13.443  1.00  0.00    -0.203 F 
ATOM     76  F   UNL     1       5.382  -6.838  14.844  1.00  0.00    -0.200 F 
ATOM     77  C   UNL     1       3.070  -6.756  15.322  1.00  0.00     0.200 A 
ATOM     78  F   UNL     1       0.750  -6.717  15.761  1.00  0.00    -0.200 F 
ATOM     79  F   UNL     1       3.317  -6.141  16.486  1.00  0.00    -0.200 F 
ENDBRANCH  45  69
BRANCH  57  80
ATOM     80  C   UNL     1       3.733 -14.550  10.680  1.00  0.00     0.064 A 
ATOM     81  C   UNL     1       3.095 -15.275  11.695  1.00  0.00     0.173 A 
ATOM     82  C   UNL     1       5.004 -14.973  10.263  1.00  0.00     0.173 A 
ATOM     83  F   UNL     1       1.886 -14.896  12.138  1.00  0.00    -0.203 F 
ATOM     84  C   UNL     1       3.716 -16.370  12.288  1.00  0.00     0.198 A 
ATOM     85  C   UNL     1       5.613 -16.081  10.844  1.00  0.00     0.198 A 
ATOM     86  F   UNL     1       5.653 -14.312   9.293  1.00  0.00    -0.203 F 
ATOM     87  F   UNL     1       3.107 -17.024  13.287  1.00  0.00    -0.200 F 
ATOM     88  C   UNL     1       4.972 -16.775  11.859  1.00  0.00     0.200 A 
ATOM     89  F   UNL     1       6.823 -16.475  10.425  1.00  0.00    -0.200 F 
ATOM     90  F   UNL     1       5.569 -17.829  12.432  1.00  0.00    -0.200 F 
ENDBRANCH  57  80
ENDBRANCH  31  32
ENDBRANCH  24  26
ENDBRANCH  23  24
ENDBRANCH  22  23
ENDBRANCH   1  22
TORSDOF 14
