REMARK SMILES CC[C@@H](Oc1cc(Cl)ccc1Cl)C(=O)NNC(=O)[C@@H]1[C@@H]2CC[C@@H](C2)[C@@H]1C(=O)OCCOC(=O)c1ccc(-c2c3nc(c(-c4c(F)c(F)c(F)c(F)c4F)c4ccc([nH]4)c(-c4c(F)c(F)c(F)c(F)c4F)c4nc(c(-c5c(F)c(F)c(F)c(F)c5F)c5ccc2[nH]5)C=C4)C=C3)cc1
REMARK SMILES IDX 28 1 26 2 27 3 25 4 19 5 20 6 21 7 24 8 23 9 22 10 17 11
REMARK SMILES IDX 16 12 18 14 15 15 13 16 14 17 3 19 2 20 1 21 4 22 5 23 6 24
REMARK SMILES IDX 11 25 7 26 10 27 12 28 8 29 9 30 29 31 30 32 31 33 32 34
REMARK SMILES IDX 33 35 34 36 35 37 96 38 36 39 95 40 37 41 38 42 39 43 89 44
REMARK SMILES IDX 40 45 94 46 88 47 90 48 41 49 93 50 87 51 86 52 42 54 74 55
REMARK SMILES IDX 54 56 73 57 55 58 58 59 72 60 91 61 56 62 57 63 71 65 92 66
REMARK SMILES IDX 59 67 43 68 44 69 52 70 45 71 46 72 50 73 53 74 47 75 48 76
REMARK SMILES IDX 51 77 49 78 75 79 76 80 84 81 77 82 78 83 82 84 85 85 79 86
REMARK SMILES IDX 80 87 83 88 81 89 60 90 61 91 69 92 62 93 63 94 67 95 70 96
REMARK SMILES IDX 64 97 65 98 68 99 66 100
REMARK H PARENT 16 13 15 18 90 53 58 64
REMARK Flexibility Score: inf
ROOT
ATOM      1  O   UNL     1      -6.140  -6.446  -1.917  1.00  0.00    -0.462 OA
ENDROOT
BRANCH   1   2
ATOM      2  C   UNL     1      -5.544  -5.540  -1.113  1.00  0.00     0.310 C 
ATOM      3  O   UNL     1      -6.107  -4.927  -0.211  1.00  0.00    -0.252 OA
BRANCH   2   4
ATOM      4  C   UNL     1      -4.086  -5.280  -1.443  1.00  0.00     0.115 C 
ATOM      5  C   UNL     1      -3.804  -4.011  -2.289  1.00  0.00     0.098 C 
ATOM      6  C   UNL     1      -2.707  -4.501  -3.269  1.00  0.00     0.003 C 
ATOM      7  C   UNL     1      -3.243  -5.433  -4.361  1.00  0.00     0.005 C 
ATOM      8  C   UNL     1      -1.956  -5.526  -2.400  1.00  0.00     0.009 C 
ATOM      9  C   UNL     1      -3.221  -6.358  -2.129  1.00  0.00     0.004 C 
ATOM     10  C   UNL     1      -3.655  -6.681  -3.572  1.00  0.00     0.005 C 
BRANCH   5  11
ATOM     11  C   UNL     1      -5.097  -3.452  -2.867  1.00  0.00     0.242 C 
ATOM     12  N   UNL     1      -5.607  -2.315  -2.303  1.00  0.00    -0.267 N 
ATOM     13  H   UNL     1      -6.582  -2.266  -2.177  1.00  0.00     0.191 HD
ATOM     14  O   UNL     1      -5.788  -4.060  -3.682  1.00  0.00    -0.273 OA
BRANCH  12  15
ATOM     15  N   UNL     1      -4.848  -1.223  -1.896  1.00  0.00    -0.264 N 
ATOM     16  C   UNL     1      -5.247   0.076  -2.144  1.00  0.00     0.279 C 
ATOM     17  O   UNL     1      -4.523   1.010  -1.791  1.00  0.00    -0.269 OA
ATOM     18  H   UNL     1      -4.003  -1.381  -1.417  1.00  0.00     0.191 HD
BRANCH  16  19
ATOM     19  C   UNL     1      -6.564   0.320  -2.917  1.00  0.00     0.263 C 
BRANCH  19  20
ATOM     20  C   UNL     1      -6.359  -0.013  -4.407  1.00  0.00     0.052 C 
ATOM     21  C   UNL     1      -7.089   0.957  -5.329  1.00  0.00     0.008 C 
ENDBRANCH  19  20
BRANCH  19  22
ATOM     22  O   UNL     1      -7.566  -0.552  -2.349  1.00  0.00    -0.479 OA
BRANCH  22  23
ATOM     23  C   UNL     1      -8.836  -0.051  -2.412  1.00  0.00     0.140 A 
ATOM     24  C   UNL     1      -9.656  -0.513  -3.442  1.00  0.00     0.068 A 
ATOM     25  C   UNL     1      -9.351   0.795  -1.425  1.00  0.00     0.083 A 
ATOM     26  C   UNL     1     -10.969  -0.059  -3.533  1.00  0.00     0.044 A 
ATOM     27  C   UNL     1     -10.674   1.235  -1.513  1.00  0.00     0.026 A 
ATOM     28  Cl  UNL     1      -8.399   1.291  -0.076  1.00  0.00    -0.080 Cl
ATOM     29  Cl  UNL     1     -11.961  -0.580  -4.836  1.00  0.00    -0.084 Cl
ATOM     30  C   UNL     1     -11.480   0.818  -2.576  1.00  0.00     0.022 A 
ENDBRANCH  22  23
ENDBRANCH  19  22
ENDBRANCH  16  19
ENDBRANCH  12  15
ENDBRANCH   5  11
ENDBRANCH   2   4
ENDBRANCH   1   2
BRANCH   1  31
ATOM     31  C   UNL     1      -7.545  -6.675  -1.712  1.00  0.00     0.274 C 
BRANCH  31  32
ATOM     32  C   UNL     1      -7.784  -8.012  -1.010  1.00  0.00     0.275 C 
BRANCH  32  33
ATOM     33  O   UNL     1      -7.279  -7.994   0.337  1.00  0.00    -0.458 OA
BRANCH  33  34
ATOM     34  C   UNL     1      -5.976  -8.341   0.462  1.00  0.00     0.338 C 
ATOM     35  O   UNL     1      -5.223  -8.732  -0.413  1.00  0.00    -0.246 OA
BRANCH  34  36
ATOM     36  C   UNL     1      -5.515  -8.043   1.827  1.00  0.00     0.060 A 
ATOM     37  C   UNL     1      -4.338  -7.302   1.972  1.00  0.00     0.016 A 
ATOM     38  C   UNL     1      -6.189  -8.536   2.946  1.00  0.00     0.016 A 
ATOM     39  C   UNL     1      -3.822  -7.054   3.240  1.00  0.00     0.010 A 
ATOM     40  C   UNL     1      -5.665  -8.295   4.219  1.00  0.00     0.010 A 
ATOM     41  C   UNL     1      -4.473  -7.566   4.369  1.00  0.00    -0.014 A 
BRANCH  41  42
ATOM     42  C   UNL     1      -3.859  -7.405   5.706  1.00  0.00     0.031 A 
ATOM     43  C   UNL     1      -3.111  -8.552   6.316  1.00  0.00     0.074 A 
ATOM     44  C   UNL     1      -3.960  -6.232   6.355  1.00  0.00     0.049 A 
ATOM     45  N   UNL     1      -2.555  -8.647   7.497  1.00  0.00    -0.248 NA
ATOM     46  C   UNL     1      -2.967  -9.757   5.483  1.00  0.00     0.031 C 
ATOM     47  C   UNL     1      -4.625  -5.037   5.838  1.00  0.00     0.029 A 
ATOM     48  N   UNL     1      -3.507  -5.858   7.594  1.00  0.00    -0.354 N 
ATOM     49  C   UNL     1      -2.005  -9.920   7.553  1.00  0.00     0.074 A 
ATOM     50  C   UNL     1      -2.311 -10.571   6.296  1.00  0.00     0.031 C 
ATOM     51  C   UNL     1      -4.543  -4.061   6.758  1.00  0.00     0.029 A 
ATOM     52  C   UNL     1      -3.854  -4.576   7.940  1.00  0.00     0.049 A 
ATOM     53  H   UNL     1      -2.983  -6.452   8.179  1.00  0.00     0.167 HD
ATOM     54  C   UNL     1      -1.302 -10.489   8.561  1.00  0.00     0.037 A 
ATOM     55  C   UNL     1      -3.659  -3.907   9.091  1.00  0.00     0.037 A 
ATOM     56  C   UNL     1      -1.002  -9.835   9.808  1.00  0.00     0.049 A 
ATOM     57  C   UNL     1      -2.937  -4.588  10.223  1.00  0.00     0.074 A 
ATOM     58  C   UNL     1      -0.297 -10.325  10.893  1.00  0.00     0.029 A 
ATOM     59  N   UNL     1      -1.397  -8.546  10.136  1.00  0.00    -0.354 N 
ATOM     60  N   UNL     1      -2.416  -5.790  10.269  1.00  0.00    -0.248 NA
ATOM     61  C   UNL     1      -2.779  -3.819  11.466  1.00  0.00     0.031 C 
ATOM     62  C   UNL     1      -0.298  -9.346  11.893  1.00  0.00     0.029 A 
ATOM     63  C   UNL     1      -0.966  -8.230  11.414  1.00  0.00     0.049 A 
ATOM     64  H   UNL     1      -1.907  -7.945   9.547  1.00  0.00     0.167 HD
ATOM     65  C   UNL     1      -1.849  -5.914  11.531  1.00  0.00     0.074 A 
ATOM     66  C   UNL     1      -2.078  -4.658  12.215  1.00  0.00     0.031 C 
ATOM     67  C   UNL     1      -1.198  -6.971  12.074  1.00  0.00     0.037 A 
BRANCH  54  68
ATOM     68  C   UNL     1      -0.833 -11.899   8.364  1.00  0.00     0.064 A 
ATOM     69  C   UNL     1       0.222 -12.208   7.492  1.00  0.00     0.173 A 
ATOM     70  C   UNL     1      -1.425 -12.951   9.078  1.00  0.00     0.173 A 
ATOM     71  F   UNL     1       0.811 -11.240   6.775  1.00  0.00    -0.203 F 
ATOM     72  C   UNL     1       0.650 -13.523   7.326  1.00  0.00     0.198 A 
ATOM     73  C   UNL     1      -0.978 -14.261   8.928  1.00  0.00     0.198 A 
ATOM     74  F   UNL     1      -2.436 -12.708   9.927  1.00  0.00    -0.203 F 
ATOM     75  F   UNL     1       1.631 -13.801   6.456  1.00  0.00    -0.200 F 
ATOM     76  C   UNL     1       0.055 -14.546   8.048  1.00  0.00     0.200 A 
ATOM     77  F   UNL     1      -1.548 -15.248   9.633  1.00  0.00    -0.200 F 
ATOM     78  F   UNL     1       0.472 -15.810   7.890  1.00  0.00    -0.200 F 
ENDBRANCH  54  68
BRANCH  55  79
ATOM     79  C   UNL     1      -4.167  -2.519   9.238  1.00  0.00     0.064 A 
ATOM     80  C   UNL     1      -3.286  -1.433   9.323  1.00  0.00     0.173 A 
ATOM     81  C   UNL     1      -5.543  -2.253   9.309  1.00  0.00     0.173 A 
ATOM     82  F   UNL     1      -1.962  -1.641   9.287  1.00  0.00    -0.203 F 
ATOM     83  C   UNL     1      -3.761  -0.134   9.490  1.00  0.00     0.198 A 
ATOM     84  C   UNL     1      -6.017  -0.951   9.449  1.00  0.00     0.198 A 
ATOM     85  F   UNL     1      -6.426  -3.259   9.237  1.00  0.00    -0.203 F 
ATOM     86  F   UNL     1      -2.897   0.882   9.615  1.00  0.00    -0.200 F 
ATOM     87  C   UNL     1      -5.126   0.107   9.547  1.00  0.00     0.200 A 
ATOM     88  F   UNL     1      -7.337  -0.722   9.495  1.00  0.00    -0.200 F 
ATOM     89  F   UNL     1      -5.582   1.357   9.708  1.00  0.00    -0.200 F 
ENDBRANCH  55  79
BRANCH  67  90
ATOM     90  C   UNL     1      -0.658  -6.803  13.463  1.00  0.00     0.064 A 
ATOM     91  C   UNL     1      -1.501  -6.796  14.584  1.00  0.00     0.173 A 
ATOM     92  C   UNL     1       0.724  -6.686  13.678  1.00  0.00     0.173 A 
ATOM     93  F   UNL     1      -2.831  -6.889  14.428  1.00  0.00    -0.203 F 
ATOM     94  C   UNL     1      -0.982  -6.655  15.868  1.00  0.00     0.198 A 
ATOM     95  C   UNL     1       1.241  -6.573  14.965  1.00  0.00     0.198 A 
ATOM     96  F   UNL     1       1.573  -6.694  12.639  1.00  0.00    -0.203 F 
ATOM     97  F   UNL     1      -1.809  -6.607  16.921  1.00  0.00    -0.200 F 
ATOM     98  C   UNL     1       0.388  -6.551  16.058  1.00  0.00     0.200 A 
ATOM     99  F   UNL     1       2.566  -6.483  15.148  1.00  0.00    -0.200 F 
ATOM    100  F   UNL     1       0.886  -6.421  17.295  1.00  0.00    -0.200 F 
ENDBRANCH  67  90
ENDBRANCH  41  42
ENDBRANCH  34  36
ENDBRANCH  33  34
ENDBRANCH  32  33
ENDBRANCH  31  32
ENDBRANCH   1  31
TORSDOF 17
