REMARK SMILES O=C1N=C(O)/C(=C\c2cc(Cl)c(OCC(=O)OCCOC(=O)c3ccc(-c4c5nc(c(-c6c(F)c(F)c(F)c(F)c6F)c6ccc([nH]6)c(-c6c(F)c(F)c(F)c(F)c6F)c6nc(c(-c7c(F)c(F)c(F)c(F)c7F)c7ccc4[nH]7)C=C6)C=C5)cc3)c(Cl)c2)C(=O)N1
REMARK SMILES IDX 18 1 17 2 15 3 16 4 14 5 13 6 12 7 8 8 9 9 88 10 10 11 86 12
REMARK SMILES IDX 11 13 87 14 7 15 1 16 2 17 3 18 91 19 4 20 89 21 6 23 90 24
REMARK SMILES IDX 5 25 19 27 20 28 21 29 22 30 23 31 24 32 85 33 25 34 84 35
REMARK SMILES IDX 26 36 27 37 28 38 78 39 29 40 83 41 77 42 79 43 30 44 82 45
REMARK SMILES IDX 76 46 75 47 31 49 63 50 43 51 62 52 44 53 47 54 61 55 80 56
REMARK SMILES IDX 45 57 46 58 60 60 81 61 48 62 32 63 33 64 41 65 34 66 35 67
REMARK SMILES IDX 39 68 42 69 36 70 37 71 40 72 38 73 64 74 65 75 73 76 66 77
REMARK SMILES IDX 67 78 71 79 74 80 68 81 69 82 72 83 70 84 49 85 50 86 58 87
REMARK SMILES IDX 51 88 52 89 56 90 59 91 53 92 54 93 57 94 55 95
REMARK H PARENT 91 22 5 26 79 48 47 59
REMARK Flexibility Score: inf
ROOT
ATOM      1  C   UNL     1       6.177   7.241  -0.038  1.00  0.00     0.274 C 
ENDROOT
BRANCH   1   2
ATOM      2  O   UNL     1       7.348   6.433  -0.319  1.00  0.00    -0.460 OA
BRANCH   2   3
ATOM      3  C   UNL     1       8.335   6.497   0.610  1.00  0.00     0.344 C 
ATOM      4  O   UNL     1       8.277   7.199   1.619  1.00  0.00    -0.248 OA
BRANCH   3   5
ATOM      5  C   UNL     1       9.588   5.658   0.299  1.00  0.00     0.352 C 
BRANCH   5   6
ATOM      6  O   UNL     1       9.715   4.627  -0.662  1.00  0.00    -0.479 OA
BRANCH   6   7
ATOM      7  C   UNL     1       9.067   3.434  -0.482  1.00  0.00     0.157 A 
ATOM      8  C   UNL     1       7.479   1.084  -0.343  1.00  0.00    -0.021 A 
ATOM      9  C   UNL     1       8.158   1.552   0.784  1.00  0.00     0.032 A 
ATOM     10  C   UNL     1       7.732   1.693  -1.571  1.00  0.00     0.032 A 
ATOM     11  C   UNL     1       9.002   2.676   0.693  1.00  0.00     0.085 A 
ATOM     12  C   UNL     1       8.505   2.860  -1.634  1.00  0.00     0.085 A 
ATOM     13  Cl  UNL     1      10.112   2.896   2.000  1.00  0.00    -0.080 Cl
ATOM     14  Cl  UNL     1       8.796   3.541  -3.200  1.00  0.00    -0.080 Cl
BRANCH   8  15
ATOM     15  C   UNL     1       6.557  -0.058  -0.250  1.00  0.00     0.027 C 
ATOM     16  O   UNL     1       1.170  -0.056   0.033  1.00  0.00    -0.246 OA
ATOM     17  C   UNL     1       2.393   0.002  -0.075  1.00  0.00     0.351 C 
ATOM     18  N   UNL     1       3.054   1.190  -0.199  1.00  0.00    -0.157 NA
ATOM     19  N   UNL     1       3.112  -1.164  -0.076  1.00  0.00    -0.272 N 
ATOM     20  C   UNL     1       4.330   1.158  -0.293  1.00  0.00     0.228 C 
ATOM     21  C   UNL     1       4.472  -1.299  -0.124  1.00  0.00     0.264 C 
ATOM     22  H   UNL     1       2.590  -1.999  -0.038  1.00  0.00     0.175 HD
ATOM     23  C   UNL     1       5.207  -0.016  -0.238  1.00  0.00     0.102 C 
ATOM     24  O   UNL     1       5.016  -2.394  -0.059  1.00  0.00    -0.269 OA
BRANCH  20  25
ATOM     25  O   UNL     1       4.947   2.318  -0.478  1.00  0.00    -0.493 OA
ATOM     26  H   UNL     1       4.450   3.111  -0.523  1.00  0.00     0.295 HD
ENDBRANCH  20  25
ENDBRANCH   8  15
ENDBRANCH   6   7
ENDBRANCH   5   6
ENDBRANCH   3   5
ENDBRANCH   2   3
ENDBRANCH   1   2
BRANCH   1  27
ATOM     27  C   UNL     1       5.018   6.428   0.557  1.00  0.00     0.275 C 
BRANCH  27  28
ATOM     28  O   UNL     1       5.308   5.933   1.884  1.00  0.00    -0.458 OA
BRANCH  28  29
ATOM     29  C   UNL     1       5.936   4.740   1.873  1.00  0.00     0.338 C 
ATOM     30  O   UNL     1       6.251   4.107   0.880  1.00  0.00    -0.246 OA
BRANCH  29  31
ATOM     31  C   UNL     1       6.337   4.260   3.196  1.00  0.00     0.060 A 
ATOM     32  C   UNL     1       7.636   4.537   3.601  1.00  0.00     0.016 A 
ATOM     33  C   UNL     1       5.590   3.279   3.853  1.00  0.00     0.016 A 
ATOM     34  C   UNL     1       8.226   3.769   4.599  1.00  0.00     0.010 A 
ATOM     35  C   UNL     1       6.160   2.576   4.928  1.00  0.00     0.010 A 
ATOM     36  C   UNL     1       7.502   2.785   5.291  1.00  0.00    -0.014 A 
BRANCH  36  37
ATOM     37  C   UNL     1       8.178   2.022   6.385  1.00  0.00     0.031 A 
ATOM     38  C   UNL     1       8.274   0.515   6.372  1.00  0.00     0.074 A 
ATOM     39  C   UNL     1       8.759   2.707   7.393  1.00  0.00     0.049 A 
ATOM     40  N   UNL     1       8.777  -0.289   7.279  1.00  0.00    -0.248 NA
ATOM     41  C   UNL     1       7.728  -0.187   5.200  1.00  0.00     0.031 C 
ATOM     42  C   UNL     1       8.759   4.166   7.531  1.00  0.00     0.029 A 
ATOM     43  N   UNL     1       9.476   2.278   8.483  1.00  0.00    -0.354 N 
ATOM     44  C   UNL     1       8.566  -1.583   6.815  1.00  0.00     0.074 A 
ATOM     45  C   UNL     1       7.886  -1.460   5.543  1.00  0.00     0.031 C 
ATOM     46  C   UNL     1       9.488   4.512   8.599  1.00  0.00     0.029 A 
ATOM     47  C   UNL     1       9.915   3.302   9.288  1.00  0.00     0.049 A 
ATOM     48  H   UNL     1       9.658   1.329   8.670  1.00  0.00     0.167 HD
ATOM     49  C   UNL     1       8.903  -2.760   7.400  1.00  0.00     0.037 A 
ATOM     50  C   UNL     1      10.549   3.284  10.475  1.00  0.00     0.037 A 
ATOM     51  C   UNL     1       9.628  -2.880   8.644  1.00  0.00     0.049 A 
ATOM     52  C   UNL     1      10.890   1.963  11.101  1.00  0.00     0.074 A 
ATOM     53  C   UNL     1      10.063  -4.033   9.279  1.00  0.00     0.029 A 
ATOM     54  N   UNL     1      10.024  -1.818   9.443  1.00  0.00    -0.354 N 
ATOM     55  N   UNL     1      10.689   0.752  10.644  1.00  0.00    -0.248 NA
ATOM     56  C   UNL     1      11.543   2.009  12.415  1.00  0.00     0.031 C 
ATOM     57  C   UNL     1      10.658  -3.673  10.492  1.00  0.00     0.029 A 
ATOM     58  C   UNL     1      10.665  -2.292  10.580  1.00  0.00     0.049 A 
ATOM     59  H   UNL     1       9.873  -0.868   9.234  1.00  0.00     0.167 HD
ATOM     60  C   UNL     1      11.209  -0.106  11.603  1.00  0.00     0.074 A 
ATOM     61  C   UNL     1      11.768   0.726  12.648  1.00  0.00     0.031 C 
ATOM     62  C   UNL     1      11.216  -1.461  11.620  1.00  0.00     0.037 A 
BRANCH  49  63
ATOM     63  C   UNL     1       8.468  -4.041   6.738  1.00  0.00     0.064 A 
ATOM     64  C   UNL     1       9.056  -4.512   5.556  1.00  0.00     0.173 A 
ATOM     65  C   UNL     1       7.513  -4.861   7.364  1.00  0.00     0.173 A 
ATOM     66  F   UNL     1       9.969  -3.770   4.912  1.00  0.00    -0.203 F 
ATOM     67  C   UNL     1       8.697  -5.749   5.020  1.00  0.00     0.198 A 
ATOM     68  C   UNL     1       7.180  -6.109   6.843  1.00  0.00     0.198 A 
ATOM     69  F   UNL     1       6.926  -4.466   8.504  1.00  0.00    -0.203 F 
ATOM     70  F   UNL     1       9.252  -6.167   3.874  1.00  0.00    -0.200 F 
ATOM     71  C   UNL     1       7.769  -6.551   5.670  1.00  0.00     0.200 A 
ATOM     72  F   UNL     1       6.300  -6.889   7.486  1.00  0.00    -0.200 F 
ATOM     73  F   UNL     1       7.444  -7.749   5.165  1.00  0.00    -0.200 F 
ENDBRANCH  49  63
BRANCH  50  74
ATOM     74  C   UNL     1      10.855   4.560  11.177  1.00  0.00     0.064 A 
ATOM     75  C   UNL     1      12.176   4.955  11.425  1.00  0.00     0.173 A 
ATOM     76  C   UNL     1       9.828   5.395  11.644  1.00  0.00     0.173 A 
ATOM     77  F   UNL     1      13.194   4.181  11.020  1.00  0.00    -0.203 F 
ATOM     78  C   UNL     1      12.458   6.116  12.143  1.00  0.00     0.198 A 
ATOM     79  C   UNL     1      10.111   6.579  12.320  1.00  0.00     0.198 A 
ATOM     80  F   UNL     1       8.544   5.068  11.431  1.00  0.00    -0.203 F 
ATOM     81  F   UNL     1      13.728   6.431  12.430  1.00  0.00    -0.200 F 
ATOM     82  C   UNL     1      11.425   6.930  12.584  1.00  0.00     0.200 A 
ATOM     83  F   UNL     1       9.109   7.372  12.724  1.00  0.00    -0.200 F 
ATOM     84  F   UNL     1      11.696   8.046  13.273  1.00  0.00    -0.200 F 
ENDBRANCH  50  74
BRANCH  62  85
ATOM     85  C   UNL     1      11.889  -2.121  12.791  1.00  0.00     0.064 A 
ATOM     86  C   UNL     1      11.368  -2.033  14.092  1.00  0.00     0.173 A 
ATOM     87  C   UNL     1      13.090  -2.826  12.615  1.00  0.00     0.173 A 
ATOM     88  F   UNL     1      10.232  -1.358  14.320  1.00  0.00    -0.203 F 
ATOM     89  C   UNL     1      12.053  -2.575  15.177  1.00  0.00     0.198 A 
ATOM     90  C   UNL     1      13.751  -3.402  13.697  1.00  0.00     0.198 A 
ATOM     91  F   UNL     1      13.630  -2.950  11.393  1.00  0.00    -0.203 F 
ATOM     92  F   UNL     1      11.580  -2.402  16.419  1.00  0.00    -0.200 F 
ATOM     93  C   UNL     1      13.242  -3.261  14.978  1.00  0.00     0.200 A 
ATOM     94  F   UNL     1      14.890  -4.079  13.500  1.00  0.00    -0.200 F 
ATOM     95  F   UNL     1      13.905  -3.773  16.024  1.00  0.00    -0.200 F 
ENDBRANCH  62  85
ENDBRANCH  36  37
ENDBRANCH  29  31
ENDBRANCH  28  29
ENDBRANCH  27  28
ENDBRANCH   1  27
TORSDOF 15
