REMARK SMILES COc1ccc(/C=C2/SC(=S)N(c3ccc(C(=O)OCCOC(=O)c4ccc(-c5c6nc(c(-c7c(F)c(F)c(F)c(F)c7F)c7ccc([nH]7)c(-c7c(F)c(F)c(F)c(F)c7F)c7nc(c(-c8c(F)c(F)c(F)c(F)c8F)c8ccc5[nH]8)C=C7)C=C6)cc4)c(O)c3)C2=O)cc1OC
REMARK SMILES IDX 20 1 19 2 17 3 18 4 16 5 13 6 14 7 90 8 15 9 88 10 12 11
REMARK SMILES IDX 7 12 8 13 9 14 91 15 10 16 92 17 11 18 6 19 3 20 4 21 94 22
REMARK SMILES IDX 5 23 93 24 2 25 1 26 95 27 96 28 89 29 21 31 22 32 23 33
REMARK SMILES IDX 24 34 25 35 26 36 87 37 27 38 86 39 28 40 29 41 30 42 80 43
REMARK SMILES IDX 31 44 85 45 79 46 81 47 32 48 84 49 78 50 77 51 33 53 65 54
REMARK SMILES IDX 45 55 64 56 46 57 49 58 63 59 82 60 47 61 48 62 62 64 83 65
REMARK SMILES IDX 50 66 34 67 35 68 43 69 36 70 37 71 41 72 44 73 38 74 39 75
REMARK SMILES IDX 42 76 40 77 66 78 67 79 75 80 68 81 69 82 73 83 76 84 70 85
REMARK SMILES IDX 71 86 74 87 72 88 51 89 52 90 60 91 53 92 54 93 58 94 61 95
REMARK SMILES IDX 55 96 56 97 59 98 57 99
REMARK H PARENT 89 30 81 52 49 63
REMARK Flexibility Score: inf
ROOT
ATOM      1  C   UNL     1      10.111   8.929   1.117  1.00  0.00     0.275 C 
ENDROOT
BRANCH   1   2
ATOM      2  O   UNL     1       9.274   8.022   1.862  1.00  0.00    -0.458 OA
BRANCH   2   3
ATOM      3  C   UNL     1       8.265   8.598   2.558  1.00  0.00     0.342 C 
ATOM      4  O   UNL     1       7.958   9.782   2.545  1.00  0.00    -0.246 OA
BRANCH   3   5
ATOM      5  C   UNL     1       7.445   7.599   3.278  1.00  0.00     0.101 A 
ATOM      6  C   UNL     1       5.724   5.924   4.759  1.00  0.00     0.054 A 
ATOM      7  C   UNL     1       5.204   6.903   3.908  1.00  0.00     0.028 A 
ATOM      8  C   UNL     1       7.118   5.765   4.834  1.00  0.00     0.073 A 
ATOM      9  C   UNL     1       6.055   7.750   3.206  1.00  0.00     0.022 A 
ATOM     10  C   UNL     1       7.973   6.593   4.088  1.00  0.00     0.132 A 
BRANCH   6  11
ATOM     11  N   UNL     1       4.823   5.139   5.541  1.00  0.00    -0.261 N 
ATOM     12  C   UNL     1       1.971   2.861   5.658  1.00  0.00     0.029 C 
ATOM     13  C   UNL     1       2.937   3.757   5.916  1.00  0.00     0.081 C 
ATOM     14  S   UNL     1       3.509   4.085   7.505  1.00  0.00    -0.054 SA
ATOM     15  C   UNL     1       3.726   4.544   4.922  1.00  0.00     0.270 C 
ATOM     16  C   UNL     1       4.884   5.029   6.922  1.00  0.00     0.152 C 
ATOM     17  O   UNL     1       3.412   4.647   3.743  1.00  0.00    -0.268 OA
ATOM     18  S   UNL     1       5.959   5.718   8.004  1.00  0.00    -0.051 S 
BRANCH  12  19
ATOM     19  C   UNL     1       1.627   2.387   4.313  1.00  0.00    -0.020 A 
ATOM     20  C   UNL     1       1.087   1.530   1.697  1.00  0.00     0.160 A 
ATOM     21  C   UNL     1       0.103   2.189   2.451  1.00  0.00     0.051 A 
ATOM     22  C   UNL     1       2.349   1.288   2.249  1.00  0.00     0.161 A 
ATOM     23  C   UNL     1       0.368   2.610   3.759  1.00  0.00     0.012 A 
ATOM     24  C   UNL     1       2.593   1.702   3.563  1.00  0.00     0.058 A 
BRANCH  20  25
ATOM     25  O   UNL     1       0.813   1.224   0.391  1.00  0.00    -0.493 OA
ATOM     26  C   UNL     1      -0.131   0.160   0.283  1.00  0.00     0.278 C 
ENDBRANCH  20  25
BRANCH  22  27
ATOM     27  O   UNL     1       3.441   0.688   1.685  1.00  0.00    -0.493 OA
ATOM     28  C   UNL     1       3.340   0.197   0.359  1.00  0.00     0.278 C 
ENDBRANCH  22  27
ENDBRANCH  12  19
ENDBRANCH   6  11
BRANCH  10  29
ATOM     29  O   UNL     1       9.326   6.440   4.201  1.00  0.00    -0.507 OA
ATOM     30  H   UNL     1       9.902   6.989   3.706  1.00  0.00     0.293 HD
ENDBRANCH  10  29
ENDBRANCH   3   5
ENDBRANCH   2   3
ENDBRANCH   1   2
BRANCH   1  31
ATOM     31  C   UNL     1       9.779   8.885  -0.372  1.00  0.00     0.275 C 
BRANCH  31  32
ATOM     32  O   UNL     1       8.437   9.358  -0.588  1.00  0.00    -0.458 OA
BRANCH  32  33
ATOM     33  C   UNL     1       7.611   8.510  -1.237  1.00  0.00     0.338 C 
ATOM     34  O   UNL     1       7.886   7.421  -1.721  1.00  0.00    -0.246 OA
BRANCH  33  35
ATOM     35  C   UNL     1       6.255   9.079  -1.298  1.00  0.00     0.060 A 
ATOM     36  C   UNL     1       5.590   9.400  -0.118  1.00  0.00     0.016 A 
ATOM     37  C   UNL     1       5.586   9.161  -2.517  1.00  0.00     0.016 A 
ATOM     38  C   UNL     1       4.224   9.687  -0.137  1.00  0.00     0.010 A 
ATOM     39  C   UNL     1       4.246   9.565  -2.545  1.00  0.00     0.010 A 
ATOM     40  C   UNL     1       3.531   9.787  -1.353  1.00  0.00    -0.014 A 
BRANCH  40  41
ATOM     41  C   UNL     1       2.065  10.082  -1.386  1.00  0.00     0.031 A 
ATOM     42  C   UNL     1       1.119   9.148  -2.102  1.00  0.00     0.074 A 
ATOM     43  C   UNL     1       1.565  11.180  -0.783  1.00  0.00     0.049 A 
ATOM     44  N   UNL     1      -0.137   9.329  -2.432  1.00  0.00    -0.248 NA
ATOM     45  C   UNL     1       1.660   7.845  -2.521  1.00  0.00     0.031 C 
ATOM     46  C   UNL     1       2.338  12.158  -0.017  1.00  0.00     0.029 A 
ATOM     47  N   UNL     1       0.277  11.659  -0.719  1.00  0.00    -0.354 N 
ATOM     48  C   UNL     1      -0.507   8.205  -3.161  1.00  0.00     0.074 A 
ATOM     49  C   UNL     1       0.651   7.338  -3.215  1.00  0.00     0.031 C 
ATOM     50  C   UNL     1       1.509  13.090   0.477  1.00  0.00     0.029 A 
ATOM     51  C   UNL     1       0.160  12.835  -0.016  1.00  0.00     0.049 A 
ATOM     52  H   UNL     1      -0.489  11.203  -1.137  1.00  0.00     0.167 HD
ATOM     53  C   UNL     1      -1.701   7.925  -3.736  1.00  0.00     0.037 A 
ATOM     54  C   UNL     1      -0.898  13.646   0.175  1.00  0.00     0.037 A 
ATOM     55  C   UNL     1      -2.883   8.737  -3.602  1.00  0.00     0.049 A 
ATOM     56  C   UNL     1      -2.213  13.310  -0.472  1.00  0.00     0.074 A 
ATOM     57  C   UNL     1      -4.152   8.504  -4.106  1.00  0.00     0.029 A 
ATOM     58  N   UNL     1      -2.947   9.926  -2.893  1.00  0.00    -0.354 N 
ATOM     59  N   UNL     1      -2.535  12.272  -1.203  1.00  0.00    -0.248 NA
ATOM     60  C   UNL     1      -3.306  14.276  -0.288  1.00  0.00     0.031 C 
ATOM     61  C   UNL     1      -4.977   9.568  -3.727  1.00  0.00     0.029 A 
ATOM     62  C   UNL     1      -4.231  10.444  -2.957  1.00  0.00     0.049 A 
ATOM     63  H   UNL     1      -2.193  10.341  -2.415  1.00  0.00     0.167 HD
ATOM     64  C   UNL     1      -3.865  12.453  -1.556  1.00  0.00     0.074 A 
ATOM     65  C   UNL     1      -4.299  13.689  -0.940  1.00  0.00     0.031 C 
ATOM     66  C   UNL     1      -4.653  11.668  -2.329  1.00  0.00     0.037 A 
BRANCH  53  67
ATOM     67  C   UNL     1      -1.798   6.699  -4.597  1.00  0.00     0.064 A 
ATOM     68  C   UNL     1      -1.863   5.409  -4.055  1.00  0.00     0.173 A 
ATOM     69  C   UNL     1      -1.906   6.834  -5.991  1.00  0.00     0.173 A 
ATOM     70  F   UNL     1      -1.760   5.227  -2.731  1.00  0.00    -0.203 F 
ATOM     71  C   UNL     1      -2.015   4.295  -4.879  1.00  0.00     0.198 A 
ATOM     72  C   UNL     1      -2.083   5.721  -6.808  1.00  0.00     0.198 A 
ATOM     73  F   UNL     1      -1.862   8.049  -6.559  1.00  0.00    -0.203 F 
ATOM     74  F   UNL     1      -2.049   3.067  -4.343  1.00  0.00    -0.200 F 
ATOM     75  C   UNL     1      -2.134   4.453  -6.252  1.00  0.00     0.200 A 
ATOM     76  F   UNL     1      -2.215   5.878  -8.133  1.00  0.00    -0.200 F 
ATOM     77  F   UNL     1      -2.299   3.381  -7.040  1.00  0.00    -0.200 F 
ENDBRANCH  53  67
BRANCH  54  78
ATOM     78  C   UNL     1      -0.750  14.887   0.981  1.00  0.00     0.064 A 
ATOM     79  C   UNL     1      -1.396  15.023   2.217  1.00  0.00     0.173 A 
ATOM     80  C   UNL     1       0.026  15.964   0.527  1.00  0.00     0.173 A 
ATOM     81  F   UNL     1      -2.174  14.033   2.679  1.00  0.00    -0.203 F 
ATOM     82  C   UNL     1      -1.282  16.195   2.963  1.00  0.00     0.198 A 
ATOM     83  C   UNL     1       0.165  17.122   1.288  1.00  0.00     0.198 A 
ATOM     84  F   UNL     1       0.659  15.887  -0.652  1.00  0.00    -0.203 F 
ATOM     85  F   UNL     1      -1.948  16.318   4.119  1.00  0.00    -0.200 F 
ATOM     86  C   UNL     1      -0.495  17.240   2.502  1.00  0.00     0.200 A 
ATOM     87  F   UNL     1       0.935  18.124   0.844  1.00  0.00    -0.200 F 
ATOM     88  F   UNL     1      -0.382  18.364   3.222  1.00  0.00    -0.200 F 
ENDBRANCH  54  78
BRANCH  66  89
ATOM     89  C   UNL     1      -6.073  12.105  -2.523  1.00  0.00     0.064 A 
ATOM     90  C   UNL     1      -6.401  13.175  -3.368  1.00  0.00     0.173 A 
ATOM     91  C   UNL     1      -7.119  11.430  -1.877  1.00  0.00     0.173 A 
ATOM     92  F   UNL     1      -5.433  13.863  -3.993  1.00  0.00    -0.203 F 
ATOM     93  C   UNL     1      -7.725  13.569  -3.541  1.00  0.00     0.198 A 
ATOM     94  C   UNL     1      -8.443  11.811  -2.071  1.00  0.00     0.198 A 
ATOM     95  F   UNL     1      -6.856  10.397  -1.062  1.00  0.00    -0.203 F 
ATOM     96  F   UNL     1      -8.013  14.622  -4.318  1.00  0.00    -0.200 F 
ATOM     97  C   UNL     1      -8.745  12.883  -2.897  1.00  0.00     0.200 A 
ATOM     98  F   UNL     1      -9.428  11.143  -1.455  1.00  0.00    -0.200 F 
ATOM     99  F   UNL     1     -10.019  13.263  -3.066  1.00  0.00    -0.200 F 
ENDBRANCH  66  89
ENDBRANCH  40  41
ENDBRANCH  33  35
ENDBRANCH  32  33
ENDBRANCH  31  32
ENDBRANCH   1  31
TORSDOF 16
