REMARK SMILES CCCC1(CCC)C[NH+]([C@H]2CCC[C@@H](C(=O)OCCOC(=O)c3ccc(-c4c5nc(c(-c6c(F)c(F)c(F)c(F)c6F)c6ccc([nH]6)c(-c6c(F)c(F)c(F)c(F)c6F)c6nc(c(-c7c(F)c(F)c(F)c(F)c7F)c7ccc4[nH]7)C=C6)C=C5)cc3)C2)C1
REMARK SMILES IDX 18 1 17 2 15 3 16 4 14 5 10 6 11 7 86 8 12 9 13 10 9 11 4 12
REMARK SMILES IDX 8 13 87 14 3 16 2 17 1 18 5 19 6 20 7 21 19 22 20 23 21 24
REMARK SMILES IDX 22 25 23 26 24 27 85 28 25 29 84 30 26 31 27 32 28 33 78 34
REMARK SMILES IDX 29 35 83 36 77 37 79 38 30 39 82 40 76 41 75 42 31 44 63 45
REMARK SMILES IDX 43 46 62 47 44 48 47 49 61 50 80 51 45 52 46 53 60 55 81 56
REMARK SMILES IDX 48 57 32 58 33 59 41 60 34 61 35 62 39 63 42 64 36 65 37 66
REMARK SMILES IDX 40 67 38 68 64 69 65 70 73 71 66 72 67 73 71 74 74 75 68 76
REMARK SMILES IDX 69 77 72 78 70 79 49 80 50 81 58 82 51 83 52 84 56 85 59 86
REMARK SMILES IDX 53 87 54 88 57 89 55 90
REMARK H PARENT 9 15 79 43 47 54
REMARK Flexibility Score: inf
ROOT
ATOM      1  C   UNL     1      -3.803  -7.020  -4.160  1.00  0.00     0.274 C 
ENDROOT
BRANCH   1   2
ATOM      2  O   UNL     1      -4.053  -5.652  -3.740  1.00  0.00    -0.462 OA
BRANCH   2   3
ATOM      3  C   UNL     1      -3.319  -4.683  -4.324  1.00  0.00     0.309 C 
ATOM      4  O   UNL     1      -2.799  -4.804  -5.410  1.00  0.00    -0.252 OA
BRANCH   3   5
ATOM      5  C   UNL     1      -3.148  -3.413  -3.529  1.00  0.00     0.105 C 
ATOM      6  C   UNL     1      -0.594  -3.553  -2.875  1.00  0.00     0.184 C 
ATOM      7  C   UNL     1      -0.325  -2.433  -3.902  1.00  0.00     0.065 C 
ATOM      8  C   UNL     1      -2.086  -3.534  -2.427  1.00  0.00     0.080 C 
ATOM      9  C   UNL     1      -1.361  -2.282  -5.003  1.00  0.00     0.007 C 
ATOM     10  C   UNL     1      -2.805  -2.255  -4.489  1.00  0.00     0.016 C 
BRANCH   6  11
ATOM     11  N   UNL     1      -0.117  -4.937  -3.045  1.00  0.00    -0.331 N 
ATOM     12  C   UNL     1       0.966  -6.445  -4.065  1.00  0.00     0.068 C 
ATOM     13  C   UNL     1       1.341  -5.099  -3.301  1.00  0.00     0.275 C 
ATOM     14  C   UNL     1      -0.353  -5.627  -4.321  1.00  0.00     0.275 C 
ATOM     15  H   UNL     1      -0.572  -5.269  -2.195  1.00  0.00     0.348 HD
BRANCH  12  16
ATOM     16  C   UNL     1       1.923  -6.789  -5.224  1.00  0.00     0.018 C 
BRANCH  16  17
ATOM     17  C   UNL     1       1.361  -6.535  -6.616  1.00  0.00    -0.002 C 
ATOM     18  C   UNL     1       1.774  -5.166  -7.090  1.00  0.00     0.004 C 
ENDBRANCH  16  17
ENDBRANCH  12  16
BRANCH  12  19
ATOM     19  C   UNL     1       0.832  -7.673  -3.120  1.00  0.00     0.018 C 
BRANCH  19  20
ATOM     20  C   UNL     1      -0.161  -8.757  -3.567  1.00  0.00    -0.002 C 
ATOM     21  C   UNL     1       0.011  -9.368  -4.949  1.00  0.00     0.004 C 
ENDBRANCH  19  20
ENDBRANCH  12  19
ENDBRANCH   6  11
ENDBRANCH   3   5
ENDBRANCH   2   3
ENDBRANCH   1   2
BRANCH   1  22
ATOM     22  C   UNL     1      -3.863  -7.468  -5.652  1.00  0.00     0.275 C 
BRANCH  22  23
ATOM     23  O   UNL     1      -2.847  -6.931  -6.541  1.00  0.00    -0.458 OA
BRANCH  23  24
ATOM     24  C   UNL     1      -3.310  -6.312  -7.669  1.00  0.00     0.338 C 
ATOM     25  O   UNL     1      -4.454  -6.351  -8.096  1.00  0.00    -0.246 OA
BRANCH  24  26
ATOM     26  C   UNL     1      -2.284  -5.429  -8.293  1.00  0.00     0.060 A 
ATOM     27  C   UNL     1      -2.326  -4.058  -8.008  1.00  0.00     0.016 A 
ATOM     28  C   UNL     1      -1.374  -5.882  -9.247  1.00  0.00     0.016 A 
ATOM     29  C   UNL     1      -1.392  -3.163  -8.540  1.00  0.00     0.010 A 
ATOM     30  C   UNL     1      -0.481  -4.966  -9.848  1.00  0.00     0.010 A 
ATOM     31  C   UNL     1      -0.456  -3.603  -9.472  1.00  0.00    -0.014 A 
BRANCH  31  32
ATOM     32  C   UNL     1       0.378  -2.596 -10.194  1.00  0.00     0.031 A 
ATOM     33  C   UNL     1      -0.141  -2.083 -11.505  1.00  0.00     0.074 A 
ATOM     34  C   UNL     1       1.504  -2.044  -9.694  1.00  0.00     0.049 A 
ATOM     35  N   UNL     1       0.416  -1.264 -12.358  1.00  0.00    -0.248 NA
ATOM     36  C   UNL     1      -1.499  -2.513 -11.871  1.00  0.00     0.031 C 
ATOM     37  C   UNL     1       2.008  -2.223  -8.342  1.00  0.00     0.029 A 
ATOM     38  N   UNL     1       2.443  -1.219 -10.274  1.00  0.00    -0.354 N 
ATOM     39  C   UNL     1      -0.529  -1.068 -13.352  1.00  0.00     0.074 A 
ATOM     40  C   UNL     1      -1.682  -1.874 -13.015  1.00  0.00     0.031 C 
ATOM     41  C   UNL     1       3.221  -1.658  -8.227  1.00  0.00     0.029 A 
ATOM     42  C   UNL     1       3.563  -1.022  -9.494  1.00  0.00     0.049 A 
ATOM     43  H   UNL     1       2.326  -0.810 -11.162  1.00  0.00     0.167 HD
ATOM     44  C   UNL     1      -0.448  -0.274 -14.444  1.00  0.00     0.037 A 
ATOM     45  C   UNL     1       4.730  -0.405  -9.768  1.00  0.00     0.037 A 
ATOM     46  C   UNL     1       0.702   0.516 -14.790  1.00  0.00     0.049 A 
ATOM     47  C   UNL     1       4.881   0.307 -11.087  1.00  0.00     0.074 A 
ATOM     48  C   UNL     1       0.896   1.309 -15.906  1.00  0.00     0.029 A 
ATOM     49  N   UNL     1       1.859   0.604 -14.030  1.00  0.00    -0.354 N 
ATOM     50  N   UNL     1       4.001   0.459 -12.046  1.00  0.00    -0.248 NA
ATOM     51  C   UNL     1       6.171   0.962 -11.352  1.00  0.00     0.031 C 
ATOM     52  C   UNL     1       2.195   1.823 -15.856  1.00  0.00     0.029 A 
ATOM     53  C   UNL     1       2.786   1.410 -14.672  1.00  0.00     0.049 A 
ATOM     54  H   UNL     1       2.001   0.160 -13.162  1.00  0.00     0.167 HD
ATOM     55  C   UNL     1       4.605   1.269 -12.996  1.00  0.00     0.074 A 
ATOM     56  C   UNL     1       5.930   1.577 -12.501  1.00  0.00     0.031 C 
ATOM     57  C   UNL     1       4.098   1.725 -14.168  1.00  0.00     0.037 A 
BRANCH  44  58
ATOM     58  C   UNL     1      -1.620  -0.290 -15.376  1.00  0.00     0.064 A 
ATOM     59  C   UNL     1      -2.846   0.302 -15.039  1.00  0.00     0.173 A 
ATOM     60  C   UNL     1      -1.514  -0.927 -16.621  1.00  0.00     0.173 A 
ATOM     61  F   UNL     1      -3.005   0.899 -13.848  1.00  0.00    -0.203 F 
ATOM     62  C   UNL     1      -3.934   0.228 -15.905  1.00  0.00     0.198 A 
ATOM     63  C   UNL     1      -2.593  -0.970 -17.496  1.00  0.00     0.198 A 
ATOM     64  F   UNL     1      -0.363  -1.512 -16.985  1.00  0.00    -0.203 F 
ATOM     65  F   UNL     1      -5.116   0.745 -15.539  1.00  0.00    -0.200 F 
ATOM     66  C   UNL     1      -3.805  -0.402 -17.134  1.00  0.00     0.200 A 
ATOM     67  F   UNL     1      -2.463  -1.571 -18.687  1.00  0.00    -0.200 F 
ATOM     68  F   UNL     1      -4.853  -0.472 -17.966  1.00  0.00    -0.200 F 
ENDBRANCH  44  58
BRANCH  45  69
ATOM     69  C   UNL     1       5.859  -0.430  -8.794  1.00  0.00     0.064 A 
ATOM     70  C   UNL     1       6.327   0.742  -8.181  1.00  0.00     0.173 A 
ATOM     71  C   UNL     1       6.548  -1.622  -8.518  1.00  0.00     0.173 A 
ATOM     72  F   UNL     1       5.724   1.914  -8.431  1.00  0.00    -0.203 F 
ATOM     73  C   UNL     1       7.455   0.729  -7.360  1.00  0.00     0.198 A 
ATOM     74  C   UNL     1       7.660  -1.638  -7.676  1.00  0.00     0.198 A 
ATOM     75  F   UNL     1       6.154  -2.772  -9.084  1.00  0.00    -0.203 F 
ATOM     76  F   UNL     1       7.918   1.876  -6.843  1.00  0.00    -0.200 F 
ATOM     77  C   UNL     1       8.120  -0.461  -7.107  1.00  0.00     0.200 A 
ATOM     78  F   UNL     1       8.297  -2.792  -7.431  1.00  0.00    -0.200 F 
ATOM     79  F   UNL     1       9.213  -0.470  -6.331  1.00  0.00    -0.200 F 
ENDBRANCH  45  69
BRANCH  57  80
ATOM     80  C   UNL     1       4.954   2.653 -14.982  1.00  0.00     0.064 A 
ATOM     81  C   UNL     1       6.109   2.211 -15.641  1.00  0.00     0.173 A 
ATOM     82  C   UNL     1       4.576   3.996 -15.149  1.00  0.00     0.173 A 
ATOM     83  F   UNL     1       6.523   0.942 -15.503  1.00  0.00    -0.203 F 
ATOM     84  C   UNL     1       6.868   3.083 -16.418  1.00  0.00     0.198 A 
ATOM     85  C   UNL     1       5.316   4.855 -15.956  1.00  0.00     0.198 A 
ATOM     86  F   UNL     1       3.476   4.470 -14.545  1.00  0.00    -0.203 F 
ATOM     87  F   UNL     1       7.996   2.650 -16.999  1.00  0.00    -0.200 F 
ATOM     88  C   UNL     1       6.465   4.400 -16.583  1.00  0.00     0.200 A 
ATOM     89  F   UNL     1       4.915   6.121 -16.128  1.00  0.00    -0.200 F 
ATOM     90  F   UNL     1       7.188   5.233 -17.344  1.00  0.00    -0.200 F 
ENDBRANCH  57  80
ENDBRANCH  31  32
ENDBRANCH  24  26
ENDBRANCH  23  24
ENDBRANCH  22  23
ENDBRANCH   1  22
TORSDOF 16
