REMARK SMILES Nc1ccc2[nH]cc(C(=O)OCCOC(=O)c3ccc(-c4c5nc(c(-c6c(F)c(F)c(F)c(F)c6F)c6ccc([nH]6)c(-c6c(F)c(F)c(F)c(F)c6F)c6nc(c(-c7c(F)c(F)c(F)c(F)c7F)c7ccc4[nH]7)C=C6)C=C5)cc3)c2c1
REMARK SMILES IDX 13 1 12 2 11 3 9 4 10 5 8 6 2 7 3 8 81 9 4 10 80 11 5 12
REMARK SMILES IDX 6 13 7 14 1 16 14 19 15 20 16 21 17 22 18 23 79 24 19 25
REMARK SMILES IDX 78 26 20 27 21 28 22 29 72 30 23 31 77 32 71 33 73 34 24 35
REMARK SMILES IDX 76 36 70 37 69 38 25 40 57 41 37 42 56 43 38 44 41 45 55 46
REMARK SMILES IDX 74 47 39 48 40 49 54 51 75 52 42 53 26 54 27 55 35 56 28 57
REMARK SMILES IDX 29 58 33 59 36 60 30 61 31 62 34 63 32 64 58 65 59 66 67 67
REMARK SMILES IDX 60 68 61 69 65 70 68 71 62 72 63 73 66 74 64 75 43 76 44 77
REMARK SMILES IDX 52 78 45 79 46 80 50 81 53 82 47 83 48 84 51 85 49 86
REMARK H PARENT 6 15 1 17 1 18 73 39 41 50
REMARK Flexibility Score: inf
ROOT
ATOM      1  C   UNL     1      -3.706   4.474  -2.400  1.00  0.00     0.275 C 
ENDROOT
BRANCH   1   2
ATOM      2  C   UNL     1      -3.455   3.408  -1.325  1.00  0.00     0.275 C 
BRANCH   2   3
ATOM      3  O   UNL     1      -2.556   2.375  -1.798  1.00  0.00    -0.458 OA
BRANCH   3   4
ATOM      4  C   UNL     1      -3.077   1.124  -1.961  1.00  0.00     0.340 C 
ATOM      5  O   UNL     1      -4.259   0.846  -1.776  1.00  0.00    -0.246 OA
BRANCH   4   6
ATOM      6  C   UNL     1      -2.095   0.136  -2.401  1.00  0.00     0.085 A 
ATOM      7  C   UNL     1       1.212  -0.174  -0.502  1.00  0.00     0.032 A 
ATOM      8  C   UNL     1       1.712  -1.228  -1.270  1.00  0.00     0.027 A 
ATOM      9  C   UNL     1      -0.031   0.389  -0.819  1.00  0.00     0.036 A 
ATOM     10  C   UNL     1       1.004  -1.752  -2.351  1.00  0.00     0.029 A 
ATOM     11  C   UNL     1      -0.785  -0.129  -1.889  1.00  0.00     0.016 A 
ATOM     12  C   UNL     1      -0.250  -1.202  -2.609  1.00  0.00     0.046 A 
ATOM     13  N   UNL     1      -1.192  -1.595  -3.518  1.00  0.00    -0.360 N 
ATOM     14  C   UNL     1      -2.320  -0.856  -3.336  1.00  0.00     0.099 A 
ATOM     15  H   UNL     1      -1.073  -2.300  -4.195  1.00  0.00     0.166 HD
BRANCH   7  16
ATOM     16  N   UNL     1       1.882   0.230   0.640  1.00  0.00    -0.399 N 
ATOM     17  H   UNL     1       2.756  -0.164   0.864  1.00  0.00     0.156 HD
ATOM     18  H   UNL     1       1.484   0.912   1.228  1.00  0.00     0.156 HD
ENDBRANCH   7  16
ENDBRANCH   4   6
ENDBRANCH   3   4
ENDBRANCH   2   3
ENDBRANCH   1   2
BRANCH   1  19
ATOM     19  O   UNL     1      -4.737   3.998  -3.277  1.00  0.00    -0.458 OA
BRANCH  19  20
ATOM     20  C   UNL     1      -4.341   3.603  -4.506  1.00  0.00     0.338 C 
ATOM     21  O   UNL     1      -3.404   4.046  -5.156  1.00  0.00    -0.246 OA
BRANCH  20  22
ATOM     22  C   UNL     1      -5.012   2.312  -4.768  1.00  0.00     0.060 A 
ATOM     23  C   UNL     1      -6.202   1.960  -4.116  1.00  0.00     0.016 A 
ATOM     24  C   UNL     1      -4.284   1.355  -5.472  1.00  0.00     0.016 A 
ATOM     25  C   UNL     1      -6.559   0.618  -4.010  1.00  0.00     0.010 A 
ATOM     26  C   UNL     1      -4.671   0.023  -5.396  1.00  0.00     0.010 A 
ATOM     27  C   UNL     1      -5.746  -0.363  -4.581  1.00  0.00    -0.014 A 
BRANCH  27  28
ATOM     28  C   UNL     1      -6.115  -1.774  -4.432  1.00  0.00     0.031 A 
ATOM     29  C   UNL     1      -6.816  -2.332  -5.604  1.00  0.00     0.074 A 
ATOM     30  C   UNL     1      -5.847  -2.637  -3.425  1.00  0.00     0.049 A 
ATOM     31  N   UNL     1      -8.082  -2.571  -5.691  1.00  0.00    -0.248 NA
ATOM     32  C   UNL     1      -6.057  -2.588  -6.831  1.00  0.00     0.031 C 
ATOM     33  C   UNL     1      -4.955  -2.486  -2.279  1.00  0.00     0.029 A 
ATOM     34  N   UNL     1      -6.298  -3.927  -3.282  1.00  0.00    -0.354 N 
ATOM     35  C   UNL     1      -8.268  -3.140  -6.938  1.00  0.00     0.074 A 
ATOM     36  C   UNL     1      -7.027  -2.984  -7.654  1.00  0.00     0.031 C 
ATOM     37  C   UNL     1      -4.747  -3.691  -1.696  1.00  0.00     0.029 A 
ATOM     38  C   UNL     1      -5.652  -4.656  -2.295  1.00  0.00     0.049 A 
ATOM     39  H   UNL     1      -7.021  -4.303  -3.834  1.00  0.00     0.167 HD
ATOM     40  C   UNL     1      -9.360  -3.898  -7.212  1.00  0.00     0.037 A 
ATOM     41  C   UNL     1      -5.859  -5.954  -1.968  1.00  0.00     0.037 A 
ATOM     42  C   UNL     1     -10.369  -3.791  -6.192  1.00  0.00     0.049 A 
ATOM     43  C   UNL     1      -7.237  -6.307  -2.374  1.00  0.00     0.074 A 
ATOM     44  C   UNL     1     -11.161  -2.781  -5.686  1.00  0.00     0.029 A 
ATOM     45  N   UNL     1     -10.445  -4.825  -5.297  1.00  0.00    -0.354 N 
ATOM     46  N   UNL     1      -8.312  -5.856  -1.791  1.00  0.00    -0.248 NA
ATOM     47  C   UNL     1      -7.458  -7.024  -3.623  1.00  0.00     0.031 C 
ATOM     48  C   UNL     1     -11.405  -3.121  -4.323  1.00  0.00     0.029 A 
ATOM     49  C   UNL     1     -10.741  -4.319  -4.058  1.00  0.00     0.049 A 
ATOM     50  H   UNL     1     -10.309  -5.777  -5.509  1.00  0.00     0.167 HD
ATOM     51  C   UNL     1      -9.267  -5.853  -2.788  1.00  0.00     0.074 A 
ATOM     52  C   UNL     1      -8.751  -6.750  -3.809  1.00  0.00     0.031 C 
ATOM     53  C   UNL     1     -10.219  -4.880  -2.831  1.00  0.00     0.037 A 
BRANCH  40  54
ATOM     54  C   UNL     1      -9.373  -5.006  -8.224  1.00  0.00     0.064 A 
ATOM     55  C   UNL     1     -10.606  -5.508  -8.679  1.00  0.00     0.173 A 
ATOM     56  C   UNL     1      -8.234  -5.768  -8.559  1.00  0.00     0.173 A 
ATOM     57  F   UNL     1     -11.752  -4.885  -8.365  1.00  0.00    -0.203 F 
ATOM     58  C   UNL     1     -10.691  -6.702  -9.395  1.00  0.00     0.198 A 
ATOM     59  C   UNL     1      -8.316  -6.925  -9.329  1.00  0.00     0.198 A 
ATOM     60  F   UNL     1      -7.023  -5.484  -8.061  1.00  0.00    -0.203 F 
ATOM     61  F   UNL     1     -11.893  -7.202  -9.714  1.00  0.00    -0.200 F 
ATOM     62  C   UNL     1      -9.547  -7.406  -9.726  1.00  0.00     0.200 A 
ATOM     63  F   UNL     1      -7.199  -7.607  -9.616  1.00  0.00    -0.200 F 
ATOM     64  F   UNL     1      -9.630  -8.571 -10.380  1.00  0.00    -0.200 F 
ENDBRANCH  40  54
BRANCH  41  65
ATOM     65  C   UNL     1      -4.934  -6.971  -1.415  1.00  0.00     0.064 A 
ATOM     66  C   UNL     1      -5.424  -8.154  -0.831  1.00  0.00     0.173 A 
ATOM     67  C   UNL     1      -3.562  -6.946  -1.722  1.00  0.00     0.173 A 
ATOM     68  F   UNL     1      -6.727  -8.277  -0.537  1.00  0.00    -0.203 F 
ATOM     69  C   UNL     1      -4.601  -9.263  -0.614  1.00  0.00     0.198 A 
ATOM     70  C   UNL     1      -2.739  -8.052  -1.495  1.00  0.00     0.198 A 
ATOM     71  F   UNL     1      -3.018  -5.889  -2.341  1.00  0.00    -0.203 F 
ATOM     72  F   UNL     1      -5.125 -10.399  -0.132  1.00  0.00    -0.200 F 
ATOM     73  C   UNL     1      -3.262  -9.216  -0.960  1.00  0.00     0.200 A 
ATOM     74  F   UNL     1      -1.451  -8.009  -1.866  1.00  0.00    -0.200 F 
ATOM     75  F   UNL     1      -2.490 -10.302  -0.822  1.00  0.00    -0.200 F 
ENDBRANCH  41  65
BRANCH  53  76
ATOM     76  C   UNL     1     -10.539  -4.167  -1.551  1.00  0.00     0.064 A 
ATOM     77  C   UNL     1      -9.638  -3.346  -0.853  1.00  0.00     0.173 A 
ATOM     78  C   UNL     1     -11.854  -4.243  -1.068  1.00  0.00     0.173 A 
ATOM     79  F   UNL     1      -8.391  -3.153  -1.302  1.00  0.00    -0.203 F 
ATOM     80  C   UNL     1     -10.029  -2.669   0.302  1.00  0.00     0.198 A 
ATOM     81  C   UNL     1     -12.251  -3.536   0.062  1.00  0.00     0.198 A 
ATOM     82  F   UNL     1     -12.768  -4.978  -1.722  1.00  0.00    -0.203 F 
ATOM     83  F   UNL     1      -9.148  -1.906   0.965  1.00  0.00    -0.200 F 
ATOM     84  C   UNL     1     -11.336  -2.759   0.753  1.00  0.00     0.200 A 
ATOM     85  F   UNL     1     -13.527  -3.592   0.470  1.00  0.00    -0.200 F 
ATOM     86  F   UNL     1     -11.721  -2.076   1.841  1.00  0.00    -0.200 F 
ENDBRANCH  53  76
ENDBRANCH  27  28
ENDBRANCH  20  22
ENDBRANCH  19  20
ENDBRANCH   1  19
TORSDOF 12
