REMARK SMILES CC[C@H](C(=O)OCCOC(=O)c1ccc(-c2c3nc(c(-c4c(F)c(F)c(F)c(F)c4F)c4ccc([nH]4)c(-c4c(F)c(F)c(F)c(F)c4F)c4nc(c(-c5c(F)c(F)c(F)c(F)c5F)c5ccc2[nH]5)C=C4)C=C3)cc1)N1C(=O)/C(=C\c2cc(OC)ccc2OC)SC1=S
REMARK SMILES IDX 7 1 6 2 4 3 5 4 3 5 2 6 1 7 75 8 76 9 91 10 77 11 78 12
REMARK SMILES IDX 90 13 92 14 79 15 80 16 81 17 87 18 82 19 86 20 85 21 88 22
REMARK SMILES IDX 89 23 83 24 84 25 8 26 9 27 10 28 11 29 12 30 13 31 74 32
REMARK SMILES IDX 14 33 73 34 15 35 16 36 17 37 67 38 18 39 72 40 66 41 68 42
REMARK SMILES IDX 19 43 71 44 65 45 64 46 20 48 52 49 32 50 51 51 33 52 36 53
REMARK SMILES IDX 50 54 69 55 34 56 35 57 49 59 70 60 37 61 21 62 22 63 30 64
REMARK SMILES IDX 23 65 24 66 28 67 31 68 25 69 26 70 29 71 27 72 53 73 54 74
REMARK SMILES IDX 62 75 55 76 56 77 60 78 63 79 57 80 58 81 61 82 59 83 38 84
REMARK SMILES IDX 39 85 47 86 40 87 41 88 45 89 48 90 42 91 43 92 46 93 44 94
REMARK H PARENT 68 47 36 58
REMARK Flexibility Score: inf
ROOT
ATOM      1  C   UNL     1       0.096   0.260  -1.394  1.00  0.00     0.274 C 
ENDROOT
BRANCH   1   2
ATOM      2  O   UNL     1       0.611  -0.238  -0.142  1.00  0.00    -0.461 OA
BRANCH   2   3
ATOM      3  C   UNL     1      -0.034  -1.314   0.393  1.00  0.00     0.329 C 
ATOM      4  O   UNL     1      -0.978  -1.887  -0.137  1.00  0.00    -0.250 OA
BRANCH   3   5
ATOM      5  C   UNL     1       0.599  -1.728   1.733  1.00  0.00     0.201 C 
BRANCH   5   6
ATOM      6  C   UNL     1       0.398  -0.811   2.952  1.00  0.00     0.034 C 
ATOM      7  C   UNL     1      -0.341   0.491   2.697  1.00  0.00     0.007 C 
ENDBRANCH   5   6
BRANCH   5   8
ATOM      8  N   UNL     1       0.300  -3.159   2.010  1.00  0.00    -0.278 N 
ATOM      9  C   UNL     1       1.311  -4.080   1.781  1.00  0.00     0.266 C 
ATOM     10  C   UNL     1      -0.930  -3.686   2.363  1.00  0.00     0.149 C 
ATOM     11  O   UNL     1       2.396  -3.812   1.285  1.00  0.00    -0.268 OA
ATOM     12  C   UNL     1       0.852  -5.462   2.097  1.00  0.00     0.081 C 
ATOM     13  S   UNL     1      -0.840  -5.448   2.403  1.00  0.00    -0.054 SA
ATOM     14  S   UNL     1      -2.359  -2.903   2.725  1.00  0.00    -0.052 S 
ATOM     15  C   UNL     1       1.599  -6.574   2.168  1.00  0.00     0.033 C 
BRANCH  15  16
ATOM     16  C   UNL     1       3.066  -6.608   2.072  1.00  0.00     0.021 A 
ATOM     17  C   UNL     1       3.655  -7.388   1.063  1.00  0.00     0.058 A 
ATOM     18  C   UNL     1       3.901  -5.880   2.939  1.00  0.00     0.126 A 
ATOM     19  C   UNL     1       5.042  -7.383   0.869  1.00  0.00     0.119 A 
ATOM     20  C   UNL     1       5.281  -5.875   2.741  1.00  0.00     0.051 A 
ATOM     21  C   UNL     1       5.852  -6.628   1.716  1.00  0.00     0.050 A 
BRANCH  18  22
ATOM     22  O   UNL     1       3.459  -5.054   3.942  1.00  0.00    -0.496 OA
ATOM     23  C   UNL     1       2.652  -5.695   4.925  1.00  0.00     0.278 C 
ENDBRANCH  18  22
BRANCH  19  24
ATOM     24  O   UNL     1       5.499  -8.139  -0.176  1.00  0.00    -0.497 OA
ATOM     25  C   UNL     1       6.840  -7.892  -0.583  1.00  0.00     0.278 C 
ENDBRANCH  19  24
ENDBRANCH  15  16
ENDBRANCH   5   8
ENDBRANCH   3   5
ENDBRANCH   2   3
ENDBRANCH   1   2
BRANCH   1  26
ATOM     26  C   UNL     1       0.941  -0.224  -2.571  1.00  0.00     0.275 C 
BRANCH  26  27
ATOM     27  O   UNL     1       0.786  -1.645  -2.742  1.00  0.00    -0.458 OA
BRANCH  27  28
ATOM     28  C   UNL     1       1.900  -2.384  -2.537  1.00  0.00     0.338 C 
ATOM     29  O   UNL     1       3.019  -1.984  -2.271  1.00  0.00    -0.246 OA
BRANCH  28  30
ATOM     30  C   UNL     1       1.565  -3.814  -2.639  1.00  0.00     0.060 A 
ATOM     31  C   UNL     1       0.950  -4.427  -1.557  1.00  0.00     0.016 A 
ATOM     32  C   UNL     1       1.986  -4.581  -3.723  1.00  0.00     0.016 A 
ATOM     33  C   UNL     1       0.863  -5.816  -1.498  1.00  0.00     0.010 A 
ATOM     34  C   UNL     1       1.798  -5.974  -3.704  1.00  0.00     0.010 A 
ATOM     35  C   UNL     1       1.290  -6.623  -2.564  1.00  0.00    -0.014 A 
BRANCH  35  36
ATOM     36  C   UNL     1       1.250  -8.116  -2.421  1.00  0.00     0.031 A 
ATOM     37  C   UNL     1       2.502  -8.954  -2.577  1.00  0.00     0.074 A 
ATOM     38  C   UNL     1       0.111  -8.744  -2.051  1.00  0.00     0.049 A 
ATOM     39  N   UNL     1       2.650 -10.253  -2.441  1.00  0.00    -0.248 NA
ATOM     40  C   UNL     1       3.747  -8.252  -2.923  1.00  0.00     0.031 C 
ATOM     41  C   UNL     1      -1.183  -8.098  -1.828  1.00  0.00     0.029 A 
ATOM     42  N   UNL     1      -0.138 -10.072  -1.783  1.00  0.00    -0.354 N 
ATOM     43  C   UNL     1       4.002 -10.505  -2.637  1.00  0.00     0.074 A 
ATOM     44  C   UNL     1       4.612  -9.252  -3.012  1.00  0.00     0.031 C 
ATOM     45  C   UNL     1      -2.073  -9.016  -1.423  1.00  0.00     0.029 A 
ATOM     46  C   UNL     1      -1.444 -10.333  -1.442  1.00  0.00     0.049 A 
ATOM     47  H   UNL     1       0.555 -10.770  -1.831  1.00  0.00     0.167 HD
ATOM     48  C   UNL     1       4.696 -11.655  -2.465  1.00  0.00     0.037 A 
ATOM     49  C   UNL     1      -2.088 -11.497  -1.218  1.00  0.00     0.037 A 
ATOM     50  C   UNL     1       4.126 -12.927  -2.124  1.00  0.00     0.049 A 
ATOM     51  C   UNL     1      -1.340 -12.798  -1.304  1.00  0.00     0.074 A 
ATOM     52  C   UNL     1       4.772 -14.137  -1.935  1.00  0.00     0.029 A 
ATOM     53  N   UNL     1       2.776 -13.158  -1.947  1.00  0.00    -0.354 N 
ATOM     54  N   UNL     1      -0.054 -13.006  -1.429  1.00  0.00    -0.248 NA
ATOM     55  C   UNL     1      -2.140 -14.032  -1.243  1.00  0.00     0.031 C 
ATOM     56  C   UNL     1       3.802 -15.115  -1.692  1.00  0.00     0.029 A 
ATOM     57  C   UNL     1       2.559 -14.505  -1.711  1.00  0.00     0.049 A 
ATOM     58  H   UNL     1       2.074 -12.469  -1.983  1.00  0.00     0.167 HD
ATOM     59  C   UNL     1       0.111 -14.385  -1.442  1.00  0.00     0.074 A 
ATOM     60  C   UNL     1      -1.204 -14.969  -1.300  1.00  0.00     0.031 C 
ATOM     61  C   UNL     1       1.257 -15.096  -1.566  1.00  0.00     0.037 A 
BRANCH  48  62
ATOM     62  C   UNL     1       6.185 -11.594  -2.600  1.00  0.00     0.064 A 
ATOM     63  C   UNL     1       6.988 -11.375  -1.472  1.00  0.00     0.173 A 
ATOM     64  C   UNL     1       6.814 -11.827  -3.828  1.00  0.00     0.173 A 
ATOM     65  F   UNL     1       6.428 -11.159  -0.273  1.00  0.00    -0.203 F 
ATOM     66  C   UNL     1       8.376 -11.371  -1.573  1.00  0.00     0.198 A 
ATOM     67  C   UNL     1       8.203 -11.831  -3.925  1.00  0.00     0.198 A 
ATOM     68  F   UNL     1       6.083 -12.051  -4.930  1.00  0.00    -0.203 F 
ATOM     69  F   UNL     1       9.126 -11.134  -0.488  1.00  0.00    -0.200 F 
ATOM     70  C   UNL     1       8.982 -11.600  -2.799  1.00  0.00     0.200 A 
ATOM     71  F   UNL     1       8.791 -12.055  -5.108  1.00  0.00    -0.200 F 
ATOM     72  F   UNL     1      10.319 -11.595  -2.897  1.00  0.00    -0.200 F 
ENDBRANCH  48  62
BRANCH  49  73
ATOM     73  C   UNL     1      -3.555 -11.495  -0.972  1.00  0.00     0.064 A 
ATOM     74  C   UNL     1      -4.093 -11.921   0.249  1.00  0.00     0.173 A 
ATOM     75  C   UNL     1      -4.452 -11.098  -1.978  1.00  0.00     0.173 A 
ATOM     76  F   UNL     1      -3.281 -12.345   1.228  1.00  0.00    -0.203 F 
ATOM     77  C   UNL     1      -5.472 -11.957   0.452  1.00  0.00     0.198 A 
ATOM     78  C   UNL     1      -5.827 -11.104  -1.762  1.00  0.00     0.198 A 
ATOM     79  F   UNL     1      -3.989 -10.700  -3.172  1.00  0.00    -0.203 F 
ATOM     80  F   UNL     1      -5.965 -12.416   1.611  1.00  0.00    -0.200 F 
ATOM     81  C   UNL     1      -6.337 -11.541  -0.550  1.00  0.00     0.200 A 
ATOM     82  F   UNL     1      -6.655 -10.693  -2.732  1.00  0.00    -0.200 F 
ATOM     83  F   UNL     1      -7.661 -11.575  -0.353  1.00  0.00    -0.200 F 
ENDBRANCH  49  73
BRANCH  61  84
ATOM     84  C   UNL     1       1.160 -16.591  -1.550  1.00  0.00     0.064 A 
ATOM     85  C   UNL     1       0.660 -17.298  -2.652  1.00  0.00     0.173 A 
ATOM     86  C   UNL     1       1.629 -17.329  -0.452  1.00  0.00     0.173 A 
ATOM     87  F   UNL     1       0.187 -16.636  -3.719  1.00  0.00    -0.203 F 
ATOM     88  C   UNL     1       0.620 -18.689  -2.652  1.00  0.00     0.198 A 
ATOM     89  C   UNL     1       1.612 -18.721  -0.466  1.00  0.00     0.198 A 
ATOM     90  F   UNL     1       2.124 -16.700   0.624  1.00  0.00    -0.203 F 
ATOM     91  F   UNL     1       0.108 -19.343  -3.704  1.00  0.00    -0.200 F 
ATOM     92  C   UNL     1       1.105 -19.399  -1.563  1.00  0.00     0.200 A 
ATOM     93  F   UNL     1       2.093 -19.406   0.581  1.00  0.00    -0.200 F 
ATOM     94  F   UNL     1       1.079 -20.739  -1.571  1.00  0.00    -0.200 F 
ENDBRANCH  61  84
ENDBRANCH  35  36
ENDBRANCH  28  30
ENDBRANCH  27  28
ENDBRANCH  26  27
ENDBRANCH   1  26
TORSDOF 16
