REMARK SMILES C[C@H]1[C@H](C(=O)OCCOC(=O)c2ccc(-c3c4nc(c(-c5c(F)c(F)c(F)c(F)c5F)c5ccc([nH]5)c(-c5c(F)c(F)c(F)c(F)c5F)c5nc(c(-c6c(F)c(F)c(F)c(F)c6F)c6ccc3[nH]6)C=C5)C=C4)cc2)CCN1C(=O)[C@H]1CC[C@@H](C[NH3+])CC1
REMARK SMILES IDX 7 1 6 2 4 3 5 4 3 5 1 6 2 7 77 8 75 9 76 10 78 11 79 12
REMARK SMILES IDX 80 13 87 14 81 15 86 16 82 17 83 18 84 19 85 20 8 24 9 25
REMARK SMILES IDX 10 26 11 27 12 28 13 29 74 30 14 31 73 32 15 33 16 34 17 35
REMARK SMILES IDX 67 36 18 37 72 38 66 39 68 40 19 41 71 42 65 43 64 44 20 46
REMARK SMILES IDX 52 47 32 48 51 49 33 50 36 51 50 52 69 53 34 54 35 55 49 57
REMARK SMILES IDX 70 58 37 59 21 60 22 61 30 62 23 63 24 64 28 65 31 66 25 67
REMARK SMILES IDX 26 68 29 69 27 70 53 71 54 72 62 73 55 74 56 75 60 76 63 77
REMARK SMILES IDX 57 78 58 79 61 80 59 81 38 82 39 83 47 84 40 85 41 86 45 87
REMARK SMILES IDX 48 88 42 89 43 90 46 91 44 92
REMARK H PARENT 85 21 85 22 85 23 68 45 36 56
REMARK Flexibility Score: inf
ROOT
ATOM      1  C   UNL     1      -0.396   2.696   3.383  1.00  0.00     0.274 C 
ENDROOT
BRANCH   1   2
ATOM      2  O   UNL     1      -0.338   1.680   2.360  1.00  0.00    -0.462 OA
BRANCH   2   3
ATOM      3  C   UNL     1      -0.763   2.063   1.130  1.00  0.00     0.311 C 
ATOM      4  O   UNL     1      -1.182   3.183   0.856  1.00  0.00    -0.252 OA
BRANCH   3   5
ATOM      5  C   UNL     1      -0.727   0.962   0.097  1.00  0.00     0.123 C 
ATOM      6  C   UNL     1       1.335   0.166  -1.099  1.00  0.00     0.032 C 
ATOM      7  C   UNL     1       0.471  -0.018   0.160  1.00  0.00     0.096 C 
ATOM      8  N   UNL     1      -0.153  -1.352   0.180  1.00  0.00    -0.339 N 
ATOM      9  C   UNL     1      -1.979   0.091   0.179  1.00  0.00     0.039 C 
ATOM     10  C   UNL     1      -1.507  -1.253  -0.335  1.00  0.00     0.121 C 
BRANCH   8  11
ATOM     11  C   UNL     1       0.303  -2.575   0.623  1.00  0.00     0.225 C 
ATOM     12  O   UNL     1      -0.379  -3.590   0.426  1.00  0.00    -0.275 OA
BRANCH  11  13
ATOM     13  C   UNL     1       1.618  -2.750   1.395  1.00  0.00     0.078 C 
ATOM     14  C   UNL     1       2.874  -2.554   0.547  1.00  0.00     0.014 C 
ATOM     15  C   UNL     1       1.654  -2.027   2.747  1.00  0.00     0.014 C 
ATOM     16  C   UNL     1       4.156  -2.796   1.345  1.00  0.00     0.010 C 
ATOM     17  C   UNL     1       2.976  -2.260   3.483  1.00  0.00     0.010 C 
ATOM     18  C   UNL     1       4.209  -1.936   2.621  1.00  0.00     0.044 C 
BRANCH  18  19
ATOM     19  C   UNL     1       4.350  -0.443   2.255  1.00  0.00     0.262 C 
BRANCH  19  20
ATOM     20  N   UNL     1       4.458   0.435   3.416  1.00  0.00    -0.357 N 
ATOM     21  H   UNL     1       3.608   0.365   3.976  1.00  0.00     0.344 HD
ATOM     22  H   UNL     1       4.581   1.398   3.104  1.00  0.00     0.344 HD
ATOM     23  H   UNL     1       5.260   0.155   3.981  1.00  0.00     0.344 HD
ENDBRANCH  19  20
ENDBRANCH  18  19
ENDBRANCH  11  13
ENDBRANCH   8  11
ENDBRANCH   3   5
ENDBRANCH   2   3
ENDBRANCH   1   2
BRANCH   1  24
ATOM     24  C   UNL     1       0.955   3.387   3.591  1.00  0.00     0.275 C 
BRANCH  24  25
ATOM     25  O   UNL     1       1.365   4.139   2.434  1.00  0.00    -0.458 OA
BRANCH  25  26
ATOM     26  C   UNL     1       2.138   3.462   1.561  1.00  0.00     0.338 C 
ATOM     27  O   UNL     1       2.533   2.307   1.655  1.00  0.00    -0.246 OA
BRANCH  26  28
ATOM     28  C   UNL     1       2.392   4.273   0.368  1.00  0.00     0.060 A 
ATOM     29  C   UNL     1       1.743   3.929  -0.820  1.00  0.00     0.016 A 
ATOM     30  C   UNL     1       3.363   5.273   0.388  1.00  0.00     0.016 A 
ATOM     31  C   UNL     1       2.084   4.562  -2.010  1.00  0.00     0.010 A 
ATOM     32  C   UNL     1       3.686   5.927  -0.803  1.00  0.00     0.010 A 
ATOM     33  C   UNL     1       3.061   5.564  -2.010  1.00  0.00    -0.014 A 
BRANCH  33  34
ATOM     34  C   UNL     1       3.460   6.221  -3.274  1.00  0.00     0.031 A 
ATOM     35  C   UNL     1       4.809   5.938  -3.864  1.00  0.00     0.074 A 
ATOM     36  C   UNL     1       2.622   7.086  -3.871  1.00  0.00     0.049 A 
ATOM     37  N   UNL     1       5.434   6.553  -4.834  1.00  0.00    -0.248 NA
ATOM     38  C   UNL     1       5.556   4.813  -3.281  1.00  0.00     0.031 C 
ATOM     39  C   UNL     1       1.262   7.388  -3.425  1.00  0.00     0.029 A 
ATOM     40  N   UNL     1       2.801   7.887  -4.970  1.00  0.00    -0.354 N 
ATOM     41  C   UNL     1       6.661   5.917  -4.954  1.00  0.00     0.074 A 
ATOM     42  C   UNL     1       6.693   4.864  -3.961  1.00  0.00     0.031 C 
ATOM     43  C   UNL     1       0.735   8.321  -4.233  1.00  0.00     0.029 A 
ATOM     44  C   UNL     1       1.742   8.726  -5.209  1.00  0.00     0.049 A 
ATOM     45  H   UNL     1       3.610   7.862  -5.531  1.00  0.00     0.167 HD
ATOM     46  C   UNL     1       7.669   6.198  -5.812  1.00  0.00     0.037 A 
ATOM     47  C   UNL     1       1.620   9.743  -6.083  1.00  0.00     0.037 A 
ATOM     48  C   UNL     1       7.615   7.235  -6.809  1.00  0.00     0.049 A 
ATOM     49  C   UNL     1       2.776  10.078  -6.983  1.00  0.00     0.074 A 
ATOM     50  C   UNL     1       8.580   7.601  -7.730  1.00  0.00     0.029 A 
ATOM     51  N   UNL     1       6.527   8.071  -7.014  1.00  0.00    -0.354 N 
ATOM     52  N   UNL     1       3.950   9.499  -7.069  1.00  0.00    -0.248 NA
ATOM     53  C   UNL     1       2.599  11.215  -7.896  1.00  0.00     0.031 C 
ATOM     54  C   UNL     1       8.089   8.680  -8.472  1.00  0.00     0.029 A 
ATOM     55  C   UNL     1       6.803   8.961  -8.039  1.00  0.00     0.049 A 
ATOM     56  H   UNL     1       5.684   8.037  -6.507  1.00  0.00     0.167 HD
ATOM     57  C   UNL     1       4.641  10.183  -8.058  1.00  0.00     0.074 A 
ATOM     58  C   UNL     1       3.756  11.220  -8.546  1.00  0.00     0.031 C 
ATOM     59  C   UNL     1       5.897   9.972  -8.520  1.00  0.00     0.037 A 
BRANCH  46  60
ATOM     60  C   UNL     1       8.931   5.399  -5.688  1.00  0.00     0.064 A 
ATOM     61  C   UNL     1       9.012   4.072  -6.132  1.00  0.00     0.173 A 
ATOM     62  C   UNL     1      10.087   5.986  -5.151  1.00  0.00     0.173 A 
ATOM     63  F   UNL     1       7.930   3.462  -6.639  1.00  0.00    -0.203 F 
ATOM     64  C   UNL     1      10.202   3.355  -6.027  1.00  0.00     0.198 A 
ATOM     65  C   UNL     1      11.280   5.274  -5.069  1.00  0.00     0.198 A 
ATOM     66  F   UNL     1      10.060   7.254  -4.714  1.00  0.00    -0.203 F 
ATOM     67  F   UNL     1      10.249   2.076  -6.425  1.00  0.00    -0.200 F 
ATOM     68  C   UNL     1      11.335   3.958  -5.502  1.00  0.00     0.200 A 
ATOM     69  F   UNL     1      12.376   5.861  -4.568  1.00  0.00    -0.200 F 
ATOM     70  F   UNL     1      12.480   3.268  -5.407  1.00  0.00    -0.200 F 
ENDBRANCH  46  60
BRANCH  47  71
ATOM     71  C   UNL     1       0.367  10.539  -6.113  1.00  0.00     0.064 A 
ATOM     72  C   UNL     1      -0.518  10.447  -7.194  1.00  0.00     0.173 A 
ATOM     73  C   UNL     1       0.024  11.394  -5.055  1.00  0.00     0.173 A 
ATOM     74  F   UNL     1      -0.221   9.661  -8.238  1.00  0.00    -0.203 F 
ATOM     75  C   UNL     1      -1.699  11.187  -7.219  1.00  0.00     0.198 A 
ATOM     76  C   UNL     1      -1.168  12.113  -5.069  1.00  0.00     0.198 A 
ATOM     77  F   UNL     1       0.840  11.515  -3.998  1.00  0.00    -0.203 F 
ATOM     78  F   UNL     1      -2.514  11.107  -8.279  1.00  0.00    -0.200 F 
ATOM     79  C   UNL     1      -2.026  12.013  -6.153  1.00  0.00     0.200 A 
ATOM     80  F   UNL     1      -1.486  12.900  -4.032  1.00  0.00    -0.200 F 
ATOM     81  F   UNL     1      -3.167  12.717  -6.174  1.00  0.00    -0.200 F 
ENDBRANCH  47  71
BRANCH  59  82
ATOM     82  C   UNL     1       6.374  10.845  -9.640  1.00  0.00     0.064 A 
ATOM     83  C   UNL     1       6.795  12.162  -9.414  1.00  0.00     0.173 A 
ATOM     84  C   UNL     1       6.471  10.332 -10.942  1.00  0.00     0.173 A 
ATOM     85  F   UNL     1       6.705  12.698  -8.188  1.00  0.00    -0.203 F 
ATOM     86  C   UNL     1       7.291  12.940 -10.456  1.00  0.00     0.198 A 
ATOM     87  C   UNL     1       6.987  11.105 -11.977  1.00  0.00     0.198 A 
ATOM     88  F   UNL     1       6.084   9.075 -11.204  1.00  0.00    -0.203 F 
ATOM     89  F   UNL     1       7.665  14.206 -10.226  1.00  0.00    -0.200 F 
ATOM     90  C   UNL     1       7.394  12.408 -11.734  1.00  0.00     0.200 A 
ATOM     91  F   UNL     1       7.095  10.588 -13.209  1.00  0.00    -0.200 F 
ATOM     92  F   UNL     1       7.883  13.155 -12.733  1.00  0.00    -0.200 F 
ENDBRANCH  59  82
ENDBRANCH  33  34
ENDBRANCH  26  28
ENDBRANCH  25  26
ENDBRANCH  24  25
ENDBRANCH   1  24
TORSDOF 15
