REMARK SMILES CCc1nnc(/[NH+]=C2/S/C(=C/c3ccccc3OCCC(=O)OCCOC(=O)c3ccc(-c4c5nc(c(-c6c(F)c(F)c(F)c(F)c6F)c6ccc([nH]6)c(-c6c(F)c(F)c(F)c(F)c6F)c6nc(c(-c7c(F)c(F)c(F)c(F)c7F)c7ccc4[nH]7)C=C6)C=C5)cc3)C(=O)N2C)s1
REMARK SMILES IDX 21 1 22 2 20 3 19 4 18 5 17 6 12 7 13 8 14 9 16 10 15 11
REMARK SMILES IDX 11 12 7 13 8 14 9 16 94 17 10 18 92 19 95 20 93 21 6 22 3 23
REMARK SMILES IDX 4 24 96 25 5 26 2 27 1 28 23 29 24 30 25 31 26 32 27 33
REMARK SMILES IDX 28 34 29 35 30 36 91 37 31 38 90 39 32 40 33 41 34 42 84 43
REMARK SMILES IDX 35 44 89 45 83 46 85 47 36 48 88 49 82 50 81 51 37 53 69 54
REMARK SMILES IDX 49 55 68 56 50 57 53 58 67 59 86 60 51 61 52 62 66 64 87 65
REMARK SMILES IDX 54 66 38 67 39 68 47 69 40 70 41 71 45 72 48 73 42 74 43 75
REMARK SMILES IDX 46 76 44 77 70 78 71 79 79 80 72 81 73 82 77 83 80 84 74 85
REMARK SMILES IDX 75 86 78 87 76 88 55 89 56 90 64 91 57 92 58 93 62 94 65 95
REMARK SMILES IDX 59 96 60 97 63 98 61 99
REMARK H PARENT 7 15 85 52 53 63
REMARK Flexibility Score: inf
ROOT
ATOM      1  C   UNL     1       5.975  -0.311   7.665  1.00  0.00     0.309 C 
ATOM      2  O   UNL     1       5.124  -0.961   8.270  1.00  0.00    -0.252 OA
ENDROOT
BRANCH   1   3
ATOM      3  C   UNL     1       6.329  -0.650   6.220  1.00  0.00     0.164 C 
BRANCH   3   4
ATOM      4  C   UNL     1       6.201   0.380   5.099  1.00  0.00     0.241 C 
BRANCH   4   5
ATOM      5  O   UNL     1       7.293   1.228   4.733  1.00  0.00    -0.492 OA
BRANCH   5   6
ATOM      6  C   UNL     1       8.081   1.619   5.772  1.00  0.00     0.126 A 
ATOM      7  C   UNL     1       7.847   2.803   6.493  1.00  0.00     0.018 A 
ATOM      8  C   UNL     1       8.776   3.132   7.493  1.00  0.00     0.012 A 
ATOM      9  C   UNL     1       9.873   2.301   7.778  1.00  0.00     0.001 A 
ATOM     10  C   UNL     1       9.224   0.835   5.998  1.00  0.00     0.047 A 
ATOM     11  C   UNL     1      10.107   1.159   7.018  1.00  0.00     0.004 A 
BRANCH   7  12
ATOM     12  C   UNL     1       6.843   3.815   6.097  1.00  0.00     0.035 C 
ATOM     13  N   UNL     1       2.768   3.976   3.530  1.00  0.00    -0.226 N 
ATOM     14  C   UNL     1       3.419   3.763   4.622  1.00  0.00     0.271 C 
ATOM     15  H   UNL     1       2.885   4.827   3.049  1.00  0.00     0.268 HD
ATOM     16  S   UNL     1       4.635   4.963   5.078  1.00  0.00    -0.012 SA
ATOM     17  N   UNL     1       3.433   2.738   5.533  1.00  0.00    -0.222 N 
ATOM     18  C   UNL     1       5.502   3.783   6.003  1.00  0.00     0.100 C 
ATOM     19  C   UNL     1       4.508   2.753   6.404  1.00  0.00     0.321 C 
ATOM     20  C   UNL     1       2.475   1.645   5.642  1.00  0.00     0.252 C 
ATOM     21  O   UNL     1       4.630   2.014   7.368  1.00  0.00    -0.250 OA
BRANCH  13  22
ATOM     22  C   UNL     1       1.927   3.041   3.043  1.00  0.00     0.345 A 
ATOM     23  C   UNL     1       0.921   1.198   1.882  1.00  0.00     0.138 A 
ATOM     24  N   UNL     1       0.048   1.891   2.581  1.00  0.00    -0.067 NA
ATOM     25  S   UNL     1       2.525   1.807   1.982  1.00  0.00    -0.044 S 
ATOM     26  N   UNL     1       0.625   2.961   3.233  1.00  0.00     0.023 NA
BRANCH  23  27
ATOM     27  C   UNL     1       0.585  -0.054   1.136  1.00  0.00     0.068 C 
ATOM     28  C   UNL     1       1.034  -0.058  -0.316  1.00  0.00     0.012 C 
ENDBRANCH  23  27
ENDBRANCH  13  22
ENDBRANCH   7  12
ENDBRANCH   5   6
ENDBRANCH   4   5
ENDBRANCH   3   4
ENDBRANCH   1   3
BRANCH   1  29
ATOM     29  O   UNL     1       6.774   0.624   8.250  1.00  0.00    -0.462 OA
BRANCH  29  30
ATOM     30  C   UNL     1       6.627   0.777   9.683  1.00  0.00     0.274 C 
BRANCH  30  31
ATOM     31  C   UNL     1       6.845   2.211  10.197  1.00  0.00     0.275 C 
BRANCH  31  32
ATOM     32  O   UNL     1       5.751   3.084   9.857  1.00  0.00    -0.458 OA
BRANCH  32  33
ATOM     33  C   UNL     1       5.976   4.403  10.099  1.00  0.00     0.338 C 
ATOM     34  O   UNL     1       7.011   4.881  10.540  1.00  0.00    -0.246 OA
BRANCH  33  35
ATOM     35  C   UNL     1       4.793   5.240   9.747  1.00  0.00     0.060 A 
ATOM     36  C   UNL     1       3.731   4.742   8.993  1.00  0.00     0.016 A 
ATOM     37  C   UNL     1       4.761   6.583  10.142  1.00  0.00     0.016 A 
ATOM     38  C   UNL     1       2.721   5.592   8.530  1.00  0.00     0.010 A 
ATOM     39  C   UNL     1       3.685   7.407   9.779  1.00  0.00     0.010 A 
ATOM     40  C   UNL     1       2.666   6.934   8.936  1.00  0.00    -0.014 A 
BRANCH  40  41
ATOM     41  C   UNL     1       1.554   7.834   8.499  1.00  0.00     0.031 A 
ATOM     42  C   UNL     1       1.851   9.143   7.810  1.00  0.00     0.074 A 
ATOM     43  C   UNL     1       0.270   7.497   8.738  1.00  0.00     0.049 A 
ATOM     44  N   UNL     1       1.053  10.148   7.541  1.00  0.00    -0.248 NA
ATOM     45  C   UNL     1       3.242   9.360   7.388  1.00  0.00     0.031 C 
ATOM     46  C   UNL     1      -0.176   6.252   9.365  1.00  0.00     0.029 A 
ATOM     47  N   UNL     1      -0.901   8.168   8.477  1.00  0.00    -0.354 N 
ATOM     48  C   UNL     1       1.855  11.137   6.980  1.00  0.00     0.074 A 
ATOM     49  C   UNL     1       3.205  10.614   6.960  1.00  0.00     0.031 C 
ATOM     50  C   UNL     1      -1.516   6.222   9.388  1.00  0.00     0.029 A 
ATOM     51  C   UNL     1      -2.026   7.487   8.873  1.00  0.00     0.049 A 
ATOM     52  H   UNL     1      -0.930   9.054   8.047  1.00  0.00     0.167 HD
ATOM     53  C   UNL     1       1.498  12.366   6.528  1.00  0.00     0.037 A 
ATOM     54  C   UNL     1      -3.324   7.848   8.863  1.00  0.00     0.037 A 
ATOM     55  C   UNL     1       0.141  12.859   6.508  1.00  0.00     0.049 A 
ATOM     56  C   UNL     1      -3.696   9.218   8.377  1.00  0.00     0.074 A 
ATOM     57  C   UNL     1      -0.332  14.084   6.070  1.00  0.00     0.029 A 
ATOM     58  N   UNL     1      -0.966  12.137   6.935  1.00  0.00    -0.354 N 
ATOM     59  N   UNL     1      -2.923  10.170   7.914  1.00  0.00    -0.248 NA
ATOM     60  C   UNL     1      -5.121   9.570   8.428  1.00  0.00     0.031 C 
ATOM     61  C   UNL     1      -1.718  14.118   6.269  1.00  0.00     0.029 A 
ATOM     62  C   UNL     1      -2.119  12.893   6.776  1.00  0.00     0.049 A 
ATOM     63  H   UNL     1      -0.937  11.222   7.298  1.00  0.00     0.167 HD
ATOM     64  C   UNL     1      -3.766  11.224   7.593  1.00  0.00     0.074 A 
ATOM     65  C   UNL     1      -5.113  10.787   7.904  1.00  0.00     0.031 C 
ATOM     66  C   UNL     1      -3.453  12.441   7.085  1.00  0.00     0.037 A 
BRANCH  53  67
ATOM     67  C   UNL     1       2.601  13.281   6.059  1.00  0.00     0.064 A 
ATOM     68  C   UNL     1       3.350  13.021   4.901  1.00  0.00     0.173 A 
ATOM     69  C   UNL     1       2.916  14.440   6.788  1.00  0.00     0.173 A 
ATOM     70  F   UNL     1       3.100  11.926   4.167  1.00  0.00    -0.203 F 
ATOM     71  C   UNL     1       4.402  13.853   4.521  1.00  0.00     0.198 A 
ATOM     72  C   UNL     1       3.944  15.290   6.385  1.00  0.00     0.198 A 
ATOM     73  F   UNL     1       2.227  14.751   7.896  1.00  0.00    -0.203 F 
ATOM     74  F   UNL     1       5.150  13.541   3.453  1.00  0.00    -0.200 F 
ATOM     75  C   UNL     1       4.696  14.988   5.261  1.00  0.00     0.200 A 
ATOM     76  F   UNL     1       4.213  16.397   7.092  1.00  0.00    -0.200 F 
ATOM     77  F   UNL     1       5.712  15.784   4.898  1.00  0.00    -0.200 F 
ENDBRANCH  53  67
BRANCH  54  78
ATOM     78  C   UNL     1      -4.358   6.886   9.331  1.00  0.00     0.064 A 
ATOM     79  C   UNL     1      -5.257   6.307   8.425  1.00  0.00     0.173 A 
ATOM     80  C   UNL     1      -4.442   6.491  10.675  1.00  0.00     0.173 A 
ATOM     81  F   UNL     1      -5.237   6.673   7.135  1.00  0.00    -0.203 F 
ATOM     82  C   UNL     1      -6.196   5.366   8.844  1.00  0.00     0.198 A 
ATOM     83  C   UNL     1      -5.360   5.527  11.086  1.00  0.00     0.198 A 
ATOM     84  F   UNL     1      -3.606   7.015  11.583  1.00  0.00    -0.203 F 
ATOM     85  F   UNL     1      -7.062   4.848   7.962  1.00  0.00    -0.200 F 
ATOM     86  C   UNL     1      -6.238   4.967  10.171  1.00  0.00     0.200 A 
ATOM     87  F   UNL     1      -5.384   5.131  12.367  1.00  0.00    -0.200 F 
ATOM     88  F   UNL     1      -7.125   4.045  10.569  1.00  0.00    -0.200 F 
ENDBRANCH  54  78
BRANCH  66  89
ATOM     89  C   UNL     1      -4.599  13.362   6.778  1.00  0.00     0.064 A 
ATOM     90  C   UNL     1      -5.352  13.974   7.791  1.00  0.00     0.173 A 
ATOM     91  C   UNL     1      -4.950  13.629   5.446  1.00  0.00     0.173 A 
ATOM     92  F   UNL     1      -5.068  13.738   9.081  1.00  0.00    -0.203 F 
ATOM     93  C   UNL     1      -6.439  14.788   7.481  1.00  0.00     0.198 A 
ATOM     94  C   UNL     1      -6.018  14.468   5.140  1.00  0.00     0.198 A 
ATOM     95  F   UNL     1      -4.259  13.073   4.439  1.00  0.00    -0.203 F 
ATOM     96  F   UNL     1      -7.184  15.311   8.465  1.00  0.00    -0.200 F 
ATOM     97  C   UNL     1      -6.768  15.037   6.157  1.00  0.00     0.200 A 
ATOM     98  F   UNL     1      -6.327  14.716   3.860  1.00  0.00    -0.200 F 
ATOM     99  F   UNL     1      -7.818  15.816   5.861  1.00  0.00    -0.200 F 
ENDBRANCH  66  89
ENDBRANCH  40  41
ENDBRANCH  33  35
ENDBRANCH  32  33
ENDBRANCH  31  32
ENDBRANCH  30  31
ENDBRANCH  29  30
ENDBRANCH   1  29
TORSDOF 17
