REMARK SMILES O=C(CC1CCN(C(=O)N2CCCC[C@@H]2CCO)CC1)OCCOC(=O)c1ccc(-c2c3nc(c(-c4c(F)c(F)c(F)c(F)c4F)c4ccc([nH]4)c(-c4c(F)c(F)c(F)c(F)c4F)c4nc(c(-c5c(F)c(F)c(F)c(F)c5F)c5ccc2[nH]5)C=C4)C=C3)cc1
REMARK SMILES IDX 21 1 2 2 1 3 3 4 4 5 5 6 20 7 6 8 19 9 7 10 8 11 9 12 10 13
REMARK SMILES IDX 11 14 15 15 12 16 14 17 13 18 16 19 17 20 18 21 22 23 23 24
REMARK SMILES IDX 24 25 25 26 26 27 27 28 28 29 89 30 29 31 88 32 30 33 31 34
REMARK SMILES IDX 32 35 82 36 33 37 87 38 81 39 83 40 34 41 86 42 80 43 79 44
REMARK SMILES IDX 35 46 67 47 47 48 66 49 48 50 51 51 65 52 84 53 49 54 50 55
REMARK SMILES IDX 64 57 85 58 52 59 36 60 37 61 45 62 38 63 39 64 43 65 46 66
REMARK SMILES IDX 40 67 41 68 44 69 42 70 68 71 69 72 77 73 70 74 71 75 75 76
REMARK SMILES IDX 78 77 72 78 73 79 76 80 74 81 53 82 54 83 62 84 55 85 56 86
REMARK SMILES IDX 60 87 63 88 57 89 58 90 61 91 59 92
REMARK H PARENT 18 22 83 45 51 56
REMARK Flexibility Score: inf
ROOT
ATOM      1  O   UNL     1       2.713  -0.848   0.497  1.00  0.00    -0.462 OA
ENDROOT
BRANCH   1   2
ATOM      2  C   UNL     1       2.716   0.327   1.180  1.00  0.00     0.306 C 
ATOM      3  O   UNL     1       2.174   0.435   2.274  1.00  0.00    -0.252 OA
BRANCH   2   4
ATOM      4  C   UNL     1       3.245   1.527   0.423  1.00  0.00     0.126 C 
BRANCH   4   5
ATOM      5  C   UNL     1       4.310   2.341   1.182  1.00  0.00     0.003 C 
ATOM      6  C   UNL     1       4.406   3.775   0.623  1.00  0.00     0.026 C 
ATOM      7  C   UNL     1       5.714   1.715   1.109  1.00  0.00     0.026 C 
ATOM      8  C   UNL     1       4.999   3.809  -0.787  1.00  0.00     0.121 C 
ATOM      9  C   UNL     1       6.291   1.744  -0.310  1.00  0.00     0.121 C 
ATOM     10  N   UNL     1       6.276   3.105  -0.846  1.00  0.00    -0.325 N 
ATOM     11  C   UNL     1       7.399   3.776  -1.304  1.00  0.00     0.320 C 
ATOM     12  O   UNL     1       7.430   4.991  -1.484  1.00  0.00    -0.248 OA
BRANCH  11  13
ATOM     13  N   UNL     1       8.529   3.005  -1.460  1.00  0.00    -0.322 N 
ATOM     14  C   UNL     1       9.652   3.290  -0.582  1.00  0.00     0.121 C 
ATOM     15  C   UNL     1       8.742   2.053  -2.574  1.00  0.00     0.089 C 
ATOM     16  C   UNL     1      10.899   3.688  -1.353  1.00  0.00     0.022 C 
ATOM     17  C   UNL     1      10.034   2.424  -3.337  1.00  0.00     0.025 C 
ATOM     18  C   UNL     1      11.225   2.636  -2.405  1.00  0.00     0.004 C 
BRANCH  15  19
ATOM     19  C   UNL     1       7.563   1.944  -3.572  1.00  0.00     0.053 C 
BRANCH  19  20
ATOM     20  C   UNL     1       7.698   0.808  -4.582  1.00  0.00     0.158 C 
BRANCH  20  21
ATOM     21  O   UNL     1       7.787  -0.442  -3.909  1.00  0.00    -0.396 OA
ATOM     22  H   UNL     1       8.567  -0.443  -3.332  1.00  0.00     0.210 HD
ENDBRANCH  20  21
ENDBRANCH  19  20
ENDBRANCH  15  19
ENDBRANCH  11  13
ENDBRANCH   4   5
ENDBRANCH   2   4
ENDBRANCH   1   2
BRANCH   1  23
ATOM     23  C   UNL     1       3.965  -1.384   0.033  1.00  0.00     0.274 C 
BRANCH  23  24
ATOM     24  C   UNL     1       3.952  -1.699  -1.464  1.00  0.00     0.275 C 
BRANCH  24  25
ATOM     25  O   UNL     1       3.638  -0.519  -2.221  1.00  0.00    -0.458 OA
BRANCH  25  26
ATOM     26  C   UNL     1       2.332  -0.394  -2.564  1.00  0.00     0.338 C 
ATOM     27  O   UNL     1       1.456  -1.233  -2.436  1.00  0.00    -0.246 OA
BRANCH  26  28
ATOM     28  C   UNL     1       2.059   1.006  -2.953  1.00  0.00     0.060 A 
ATOM     29  C   UNL     1       0.872   1.586  -2.487  1.00  0.00     0.016 A 
ATOM     30  C   UNL     1       2.951   1.755  -3.727  1.00  0.00     0.016 A 
ATOM     31  C   UNL     1       0.568   2.911  -2.803  1.00  0.00     0.010 A 
ATOM     32  C   UNL     1       2.640   3.082  -4.048  1.00  0.00     0.010 A 
ATOM     33  C   UNL     1       1.441   3.663  -3.599  1.00  0.00    -0.014 A 
BRANCH  33  34
ATOM     34  C   UNL     1       1.061   5.030  -4.029  1.00  0.00     0.031 A 
ATOM     35  C   UNL     1       0.444   5.234  -5.383  1.00  0.00     0.074 A 
ATOM     36  C   UNL     1       1.260   6.085  -3.218  1.00  0.00     0.049 A 
ATOM     37  N   UNL     1       0.052   6.344  -5.956  1.00  0.00    -0.248 NA
ATOM     38  C   UNL     1       0.240   4.028  -6.200  1.00  0.00     0.031 C 
ATOM     39  C   UNL     1       1.829   6.023  -1.874  1.00  0.00     0.029 A 
ATOM     40  N   UNL     1       1.016   7.422  -3.418  1.00  0.00    -0.354 N 
ATOM     41  C   UNL     1      -0.451   5.971  -7.194  1.00  0.00     0.074 A 
ATOM     42  C   UNL     1      -0.288   4.537  -7.305  1.00  0.00     0.031 C 
ATOM     43  C   UNL     1       1.918   7.269  -1.379  1.00  0.00     0.029 A 
ATOM     44  C   UNL     1       1.425   8.218  -2.376  1.00  0.00     0.049 A 
ATOM     45  H   UNL     1       0.588   7.776  -4.231  1.00  0.00     0.167 HD
ATOM     46  C   UNL     1      -1.011   6.753  -8.146  1.00  0.00     0.037 A 
ATOM     47  C   UNL     1       1.419   9.560  -2.252  1.00  0.00     0.037 A 
ATOM     48  C   UNL     1      -1.181   8.178  -8.043  1.00  0.00     0.049 A 
ATOM     49  C   UNL     1       0.867  10.411  -3.367  1.00  0.00     0.074 A 
ATOM     50  C   UNL     1      -1.796   9.039  -8.935  1.00  0.00     0.029 A 
ATOM     51  N   UNL     1      -0.719   8.953  -6.991  1.00  0.00    -0.354 N 
ATOM     52  N   UNL     1       0.322  10.043  -4.500  1.00  0.00    -0.248 NA
ATOM     53  C   UNL     1       0.929  11.870  -3.181  1.00  0.00     0.031 C 
ATOM     54  C   UNL     1      -1.660  10.343  -8.449  1.00  0.00     0.029 A 
ATOM     55  C   UNL     1      -0.999  10.289  -7.234  1.00  0.00     0.049 A 
ATOM     56  H   UNL     1      -0.261   8.607  -6.192  1.00  0.00     0.167 HD
ATOM     57  C   UNL     1      -0.043  11.216  -5.149  1.00  0.00     0.074 A 
ATOM     58  C   UNL     1       0.326  12.310  -4.277  1.00  0.00     0.031 C 
ATOM     59  C   UNL     1      -0.630  11.371  -6.360  1.00  0.00     0.037 A 
BRANCH  46  60
ATOM     60  C   UNL     1      -1.483   6.088  -9.402  1.00  0.00     0.064 A 
ATOM     61  C   UNL     1      -2.668   5.338  -9.430  1.00  0.00     0.173 A 
ATOM     62  C   UNL     1      -0.783   6.264 -10.604  1.00  0.00     0.173 A 
ATOM     63  F   UNL     1      -3.365   5.134  -8.302  1.00  0.00    -0.203 F 
ATOM     64  C   UNL     1      -3.130   4.780 -10.619  1.00  0.00     0.198 A 
ATOM     65  C   UNL     1      -1.259   5.723 -11.794  1.00  0.00     0.198 A 
ATOM     66  F   UNL     1       0.353   6.977 -10.626  1.00  0.00    -0.203 F 
ATOM     67  F   UNL     1      -4.253   4.048 -10.621  1.00  0.00    -0.200 F 
ATOM     68  C   UNL     1      -2.431   4.981 -11.800  1.00  0.00     0.200 A 
ATOM     69  F   UNL     1      -0.588   5.924 -12.936  1.00  0.00    -0.200 F 
ATOM     70  F   UNL     1      -2.886   4.455 -12.946  1.00  0.00    -0.200 F 
ENDBRANCH  46  60
BRANCH  47  71
ATOM     71  C   UNL     1       1.979  10.201  -1.035  1.00  0.00     0.064 A 
ATOM     72  C   UNL     1       1.152  10.879  -0.128  1.00  0.00     0.173 A 
ATOM     73  C   UNL     1       3.360  10.204  -0.789  1.00  0.00     0.173 A 
ATOM     74  F   UNL     1      -0.171  10.931  -0.340  1.00  0.00    -0.203 F 
ATOM     75  C   UNL     1       1.688  11.558   0.964  1.00  0.00     0.198 A 
ATOM     76  C   UNL     1       3.892  10.861   0.318  1.00  0.00     0.198 A 
ATOM     77  F   UNL     1       4.193   9.579  -1.634  1.00  0.00    -0.203 F 
ATOM     78  F   UNL     1       0.882  12.248   1.781  1.00  0.00    -0.200 F 
ATOM     79  C   UNL     1       3.057  11.546   1.187  1.00  0.00     0.200 A 
ATOM     80  F   UNL     1       5.215  10.847   0.532  1.00  0.00    -0.200 F 
ATOM     81  F   UNL     1       3.573  12.211   2.230  1.00  0.00    -0.200 F 
ENDBRANCH  47  71
BRANCH  59  82
ATOM     82  C   UNL     1      -0.928  12.771  -6.812  1.00  0.00     0.064 A 
ATOM     83  C   UNL     1       0.092  13.636  -7.234  1.00  0.00     0.173 A 
ATOM     84  C   UNL     1      -2.250  13.236  -6.872  1.00  0.00     0.173 A 
ATOM     85  F   UNL     1       1.374  13.244  -7.180  1.00  0.00    -0.203 F 
ATOM     86  C   UNL     1      -0.199  14.922  -7.681  1.00  0.00     0.198 A 
ATOM     87  C   UNL     1      -2.540  14.513  -7.346  1.00  0.00     0.198 A 
ATOM     88  F   UNL     1      -3.264  12.446  -6.487  1.00  0.00    -0.203 F 
ATOM     89  F   UNL     1       0.795  15.745  -8.042  1.00  0.00    -0.200 F 
ATOM     90  C   UNL     1      -1.515  15.357  -7.745  1.00  0.00     0.200 A 
ATOM     91  F   UNL     1      -3.813  14.927  -7.419  1.00  0.00    -0.200 F 
ATOM     92  F   UNL     1      -1.794  16.591  -8.186  1.00  0.00    -0.200 F 
ENDBRANCH  59  82
ENDBRANCH  33  34
ENDBRANCH  26  28
ENDBRANCH  25  26
ENDBRANCH  24  25
ENDBRANCH  23  24
ENDBRANCH   1  23
TORSDOF 16
