REMARK SMILES CC1(C)CSC[C@H](N(CCC(=O)OCCOC(=O)c2ccc(-c3c4nc(c(-c5c(F)c(F)c(F)c(F)c5F)c5ccc([nH]5)c(-c5c(F)c(F)c(F)c(F)c5F)c5nc(c(-c6c(F)c(F)c(F)c(F)c6F)c6ccc3[nH]6)C=C5)C=C4)cc2)c2ccccc2)C1
REMARK SMILES IDX 14 1 13 2 11 3 12 4 10 5 9 6 8 7 7 8 1 9 2 10 3 11 4 12
REMARK SMILES IDX 88 13 5 14 6 15 82 16 83 17 87 18 84 19 86 20 85 21 15 22
REMARK SMILES IDX 16 23 17 24 18 25 19 26 20 27 81 28 21 29 80 30 22 31 23 32
REMARK SMILES IDX 24 33 74 34 25 35 79 36 73 37 75 38 26 39 78 40 72 41 71 42
REMARK SMILES IDX 27 44 59 45 39 46 58 47 40 48 43 49 57 50 76 51 41 52 42 53
REMARK SMILES IDX 56 55 77 56 44 57 28 58 29 59 37 60 30 61 31 62 35 63 38 64
REMARK SMILES IDX 32 65 33 66 36 67 34 68 60 69 61 70 69 71 62 72 63 73 67 74
REMARK SMILES IDX 70 75 64 76 65 77 68 78 66 79 45 80 46 81 54 82 47 83 48 84
REMARK SMILES IDX 52 85 55 86 49 87 50 88 53 89 51 90
REMARK H PARENT 75 43 43 54
REMARK Flexibility Score: inf
ROOT
ATOM      1  C   UNL     1      -3.824  -2.992   5.517  1.00  0.00     0.274 C 
ENDROOT
BRANCH   1   2
ATOM      2  O   UNL     1      -2.604  -2.612   4.857  1.00  0.00    -0.462 OA
BRANCH   2   3
ATOM      3  C   UNL     1      -1.686  -1.865   5.498  1.00  0.00     0.307 C 
ATOM      4  O   UNL     1      -1.815  -1.413   6.629  1.00  0.00    -0.252 OA
BRANCH   3   5
ATOM      5  C   UNL     1      -0.475  -1.594   4.635  1.00  0.00     0.144 C 
BRANCH   5   6
ATOM      6  C   UNL     1       0.037  -2.810   3.863  1.00  0.00     0.128 C 
BRANCH   6   7
ATOM      7  N   UNL     1      -0.438  -2.824   2.474  1.00  0.00    -0.367 N 
BRANCH   7   8
ATOM      8  C   UNL     1       0.498  -2.445   1.395  1.00  0.00     0.092 C 
ATOM      9  C   UNL     1       1.401  -0.017  -0.409  1.00  0.00     0.012 C 
ATOM     10  C   UNL     1       0.620  -1.254  -0.913  1.00  0.00    -0.024 C 
ATOM     11  C   UNL     1      -0.325  -0.805  -2.049  1.00  0.00     0.012 C 
ATOM     12  C   UNL     1       1.563  -2.341  -1.476  1.00  0.00     0.076 C 
ATOM     13  C   UNL     1      -0.267  -1.832   0.210  1.00  0.00     0.033 C 
ATOM     14  S   UNL     1       2.657  -3.108  -0.236  1.00  0.00    -0.159 SA
ATOM     15  C   UNL     1       1.386  -3.622   0.962  1.00  0.00     0.094 C 
ENDBRANCH   7   8
BRANCH   7  16
ATOM     16  C   UNL     1      -1.582  -3.554   2.182  1.00  0.00     0.037 A 
ATOM     17  C   UNL     1      -2.811  -2.893   2.042  1.00  0.00     0.026 A 
ATOM     18  C   UNL     1      -1.562  -4.941   2.008  1.00  0.00     0.026 A 
ATOM     19  C   UNL     1      -3.987  -3.591   1.766  1.00  0.00     0.002 A 
ATOM     20  C   UNL     1      -2.731  -5.643   1.696  1.00  0.00     0.002 A 
ATOM     21  C   UNL     1      -3.945  -4.970   1.584  1.00  0.00     0.000 A 
ENDBRANCH   7  16
ENDBRANCH   6   7
ENDBRANCH   5   6
ENDBRANCH   3   5
ENDBRANCH   2   3
ENDBRANCH   1   2
BRANCH   1  22
ATOM     22  C   UNL     1      -3.846  -4.510   5.684  1.00  0.00     0.275 C 
BRANCH  22  23
ATOM     23  O   UNL     1      -3.018  -4.855   6.806  1.00  0.00    -0.458 OA
BRANCH  23  24
ATOM     24  C   UNL     1      -1.758  -5.243   6.514  1.00  0.00     0.338 C 
ATOM     25  O   UNL     1      -1.284  -5.554   5.437  1.00  0.00    -0.246 OA
BRANCH  24  26
ATOM     26  C   UNL     1      -0.963  -5.064   7.729  1.00  0.00     0.060 A 
ATOM     27  C   UNL     1       0.008  -4.058   7.756  1.00  0.00     0.016 A 
ATOM     28  C   UNL     1      -1.191  -5.879   8.836  1.00  0.00     0.016 A 
ATOM     29  C   UNL     1       0.759  -3.856   8.906  1.00  0.00     0.010 A 
ATOM     30  C   UNL     1      -0.439  -5.674   9.989  1.00  0.00     0.010 A 
ATOM     31  C   UNL     1       0.543  -4.669  10.025  1.00  0.00    -0.014 A 
BRANCH  31  32
ATOM     32  C   UNL     1       1.398  -4.522  11.220  1.00  0.00     0.031 A 
ATOM     33  C   UNL     1       2.443  -5.560  11.494  1.00  0.00     0.074 A 
ATOM     34  C   UNL     1       1.221  -3.477  12.045  1.00  0.00     0.049 A 
ATOM     35  N   UNL     1       3.233  -5.689  12.527  1.00  0.00    -0.248 NA
ATOM     36  C   UNL     1       2.614  -6.601  10.468  1.00  0.00     0.031 C 
ATOM     37  C   UNL     1       0.253  -2.399  11.844  1.00  0.00     0.029 A 
ATOM     38  N   UNL     1       1.841  -3.157  13.224  1.00  0.00    -0.354 N 
ATOM     39  C   UNL     1       3.981  -6.833  12.285  1.00  0.00     0.074 A 
ATOM     40  C   UNL     1       3.531  -7.379  11.023  1.00  0.00     0.031 C 
ATOM     41  C   UNL     1       0.341  -1.537  12.870  1.00  0.00     0.029 A 
ATOM     42  C   UNL     1       1.335  -2.029  13.819  1.00  0.00     0.049 A 
ATOM     43  H   UNL     1       2.578  -3.686  13.607  1.00  0.00     0.167 HD
ATOM     44  C   UNL     1       4.961  -7.369  13.050  1.00  0.00     0.037 A 
ATOM     45  C   UNL     1       1.628  -1.477  15.011  1.00  0.00     0.037 A 
ATOM     46  C   UNL     1       5.394  -6.807  14.303  1.00  0.00     0.049 A 
ATOM     47  C   UNL     1       2.678  -2.130  15.871  1.00  0.00     0.074 A 
ATOM     48  C   UNL     1       6.387  -7.256  15.154  1.00  0.00     0.029 A 
ATOM     49  N   UNL     1       4.848  -5.671  14.887  1.00  0.00    -0.354 N 
ATOM     50  N   UNL     1       3.398  -3.200  15.632  1.00  0.00    -0.248 NA
ATOM     51  C   UNL     1       2.956  -1.498  17.167  1.00  0.00     0.031 C 
ATOM     52  C   UNL     1       6.402  -6.427  16.280  1.00  0.00     0.029 A 
ATOM     53  C   UNL     1       5.465  -5.421  16.101  1.00  0.00     0.049 A 
ATOM     54  H   UNL     1       4.129  -5.125  14.495  1.00  0.00     0.167 HD
ATOM     55  C   UNL     1       4.234  -3.354  16.730  1.00  0.00     0.074 A 
ATOM     56  C   UNL     1       3.942  -2.255  17.628  1.00  0.00     0.031 C 
ATOM     57  C   UNL     1       5.158  -4.315  16.975  1.00  0.00     0.037 A 
BRANCH  44  58
ATOM     58  C   UNL     1       5.600  -8.639  12.569  1.00  0.00     0.064 A 
ATOM     59  C   UNL     1       6.426  -8.671  11.434  1.00  0.00     0.173 A 
ATOM     60  C   UNL     1       5.396  -9.842  13.263  1.00  0.00     0.173 A 
ATOM     61  F   UNL     1       6.640  -7.554  10.723  1.00  0.00    -0.203 F 
ATOM     62  C   UNL     1       6.998  -9.864  10.997  1.00  0.00     0.198 A 
ATOM     63  C   UNL     1       5.997 -11.025  12.842  1.00  0.00     0.198 A 
ATOM     64  F   UNL     1       4.617  -9.869  14.354  1.00  0.00    -0.203 F 
ATOM     65  F   UNL     1       7.737  -9.880   9.879  1.00  0.00    -0.200 F 
ATOM     66  C   UNL     1       6.789 -11.038  11.705  1.00  0.00     0.200 A 
ATOM     67  F   UNL     1       5.803 -12.156  13.535  1.00  0.00    -0.200 F 
ATOM     68  F   UNL     1       7.345 -12.183  11.286  1.00  0.00    -0.200 F 
ENDBRANCH  44  58
BRANCH  45  69
ATOM     69  C   UNL     1       0.914  -0.254  15.463  1.00  0.00     0.064 A 
ATOM     70  C   UNL     1       1.589   0.966  15.609  1.00  0.00     0.173 A 
ATOM     71  C   UNL     1      -0.456  -0.279  15.766  1.00  0.00     0.173 A 
ATOM     72  F   UNL     1       2.904   1.038  15.353  1.00  0.00    -0.203 F 
ATOM     73  C   UNL     1       0.929   2.106  16.062  1.00  0.00     0.198 A 
ATOM     74  C   UNL     1      -1.123   0.870  16.188  1.00  0.00     0.198 A 
ATOM     75  F   UNL     1      -1.151  -1.419  15.644  1.00  0.00    -0.203 F 
ATOM     76  F   UNL     1       1.611   3.245  16.243  1.00  0.00    -0.200 F 
ATOM     77  C   UNL     1      -0.428   2.059  16.345  1.00  0.00     0.200 A 
ATOM     78  F   UNL     1      -2.437   0.823  16.446  1.00  0.00    -0.200 F 
ATOM     79  F   UNL     1      -1.063   3.157  16.778  1.00  0.00    -0.200 F 
ENDBRANCH  45  69
BRANCH  57  80
ATOM     80  C   UNL     1       5.947  -4.197  18.248  1.00  0.00     0.064 A 
ATOM     81  C   UNL     1       5.363  -4.419  19.503  1.00  0.00     0.173 A 
ATOM     82  C   UNL     1       7.317  -3.893  18.205  1.00  0.00     0.173 A 
ATOM     83  F   UNL     1       4.054  -4.698  19.600  1.00  0.00    -0.203 F 
ATOM     84  C   UNL     1       6.114  -4.310  20.671  1.00  0.00     0.198 A 
ATOM     85  C   UNL     1       8.072  -3.821  19.371  1.00  0.00     0.198 A 
ATOM     86  F   UNL     1       7.927  -3.681  17.029  1.00  0.00    -0.203 F 
ATOM     87  F   UNL     1       5.523  -4.470  21.863  1.00  0.00    -0.200 F 
ATOM     88  C   UNL     1       7.469  -4.020  20.603  1.00  0.00     0.200 A 
ATOM     89  F   UNL     1       9.385  -3.559  19.303  1.00  0.00    -0.200 F 
ATOM     90  F   UNL     1       8.191  -3.924  21.728  1.00  0.00    -0.200 F 
ENDBRANCH  57  80
ENDBRANCH  31  32
ENDBRANCH  24  26
ENDBRANCH  23  24
ENDBRANCH  22  23
ENDBRANCH   1  22
TORSDOF 15
