REMARK SMILES O=C(COc1ccc(/C=N/NC(=O)c2cc3cc([N+](=O)[O-])ccc3o2)cc1)OCCOC(=O)c1ccc(-c2c3nc(c(-c4c(F)c(F)c(F)c(F)c4F)c4ccc([nH]4)c(-c4c(F)c(F)c(F)c(F)c4F)c4nc(c(-c5c(F)c(F)c(F)c(F)c5F)c5ccc2[nH]5)C=C4)C=C3)cc1
REMARK SMILES IDX 1 1 2 2 3 3 4 4 5 5 6 6 27 7 7 8 26 9 8 10 9 11 10 12 11 13
REMARK SMILES IDX 12 14 13 16 14 17 15 18 25 19 16 20 24 21 17 22 23 23 18 24
REMARK SMILES IDX 22 25 19 26 20 27 21 28 28 29 29 30 30 31 31 32 32 33 33 34
REMARK SMILES IDX 34 35 35 36 96 37 36 38 95 39 37 40 38 41 39 42 89 43 40 44
REMARK SMILES IDX 94 45 88 46 90 47 41 48 93 49 87 50 86 51 42 53 74 54 54 55
REMARK SMILES IDX 73 56 55 57 58 58 72 59 91 60 56 61 57 62 71 64 92 65 59 66
REMARK SMILES IDX 43 67 44 68 52 69 45 70 46 71 50 72 53 73 47 74 48 75 51 76
REMARK SMILES IDX 49 77 75 78 76 79 84 80 77 81 78 82 82 83 85 84 79 85 80 86
REMARK SMILES IDX 83 87 81 88 60 89 61 90 69 91 62 92 63 93 67 94 70 95 64 96
REMARK SMILES IDX 65 97 68 98 66 99
REMARK H PARENT 11 15 90 52 58 63
REMARK Flexibility Score: inf
ROOT
ATOM      1  O   UNL     1       1.371  -0.230  -0.336  1.00  0.00    -0.248 OA
ATOM      2  C   UNL     1       2.599  -0.199  -0.267  1.00  0.00     0.344 C 
ENDROOT
BRANCH   2   3
ATOM      3  C   UNL     1       3.413  -1.475  -0.073  1.00  0.00     0.351 C 
BRANCH   3   4
ATOM      4  O   UNL     1       4.277  -1.793  -1.160  1.00  0.00    -0.482 OA
BRANCH   4   5
ATOM      5  C   UNL     1       3.562  -2.468  -2.107  1.00  0.00     0.120 A 
ATOM      6  C   UNL     1       3.705  -3.850  -2.180  1.00  0.00     0.047 A 
ATOM      7  C   UNL     1       2.697  -1.777  -2.955  1.00  0.00     0.047 A 
ATOM      8  C   UNL     1       2.922  -4.561  -3.082  1.00  0.00     0.013 A 
ATOM      9  C   UNL     1       1.904  -2.485  -3.847  1.00  0.00     0.013 A 
ATOM     10  C   UNL     1       2.018  -3.875  -3.903  1.00  0.00    -0.005 A 
BRANCH  10  11
ATOM     11  C   UNL     1       1.253  -4.586  -4.937  1.00  0.00     0.141 C 
ATOM     12  N   UNL     1       1.286  -5.872  -5.011  1.00  0.00    -0.180 NA
BRANCH  12  13
ATOM     13  N   UNL     1       0.776  -6.516  -6.097  1.00  0.00    -0.240 N 
ATOM     14  C   UNL     1       0.140  -6.033  -7.219  1.00  0.00     0.307 C 
ATOM     15  H   UNL     1       0.879  -7.494  -6.077  1.00  0.00     0.194 HD
ATOM     16  O   UNL     1       0.471  -6.500  -8.311  1.00  0.00    -0.264 OA
BRANCH  14  17
ATOM     17  C   UNL     1      -0.994  -5.138  -7.117  1.00  0.00     0.194 A 
ATOM     18  C   UNL     1      -1.132  -3.837  -7.581  1.00  0.00     0.065 A 
ATOM     19  O   UNL     1      -2.225  -5.746  -7.112  1.00  0.00    -0.451 OA
ATOM     20  C   UNL     1      -2.387  -3.810  -8.252  1.00  0.00     0.028 A 
ATOM     21  C   UNL     1      -3.018  -5.004  -7.929  1.00  0.00     0.135 A 
ATOM     22  C   UNL     1      -2.966  -2.974  -9.222  1.00  0.00     0.097 A 
ATOM     23  C   UNL     1      -4.213  -5.445  -8.488  1.00  0.00     0.055 A 
ATOM     24  C   UNL     1      -4.093  -3.468  -9.909  1.00  0.00     0.270 A 
ATOM     25  C   UNL     1      -4.718  -4.672  -9.539  1.00  0.00     0.089 A 
BRANCH  24  26
ATOM     26  N   UNL     1      -4.545  -2.766 -11.118  1.00  0.00     0.062 N 
ATOM     27  O   UNL     1      -4.084  -1.637 -11.333  1.00  0.00    -0.258 OA
ATOM     28  O   UNL     1      -5.338  -3.357 -11.864  1.00  0.00    -0.258 OA
ENDBRANCH  24  26
ENDBRANCH  14  17
ENDBRANCH  12  13
ENDBRANCH  10  11
ENDBRANCH   4   5
ENDBRANCH   3   4
ENDBRANCH   2   3
BRANCH   2  29
ATOM     29  O   UNL     1       3.265   0.973  -0.410  1.00  0.00    -0.460 OA
BRANCH  29  30
ATOM     30  C   UNL     1       4.647   1.149  -0.037  1.00  0.00     0.274 C 
BRANCH  30  31
ATOM     31  C   UNL     1       4.772   1.548   1.435  1.00  0.00     0.275 C 
BRANCH  31  32
ATOM     32  O   UNL     1       4.313   0.477   2.284  1.00  0.00    -0.458 OA
BRANCH  32  33
ATOM     33  C   UNL     1       3.032   0.591   2.732  1.00  0.00     0.338 C 
ATOM     34  O   UNL     1       2.303   1.546   2.609  1.00  0.00    -0.246 OA
BRANCH  33  35
ATOM     35  C   UNL     1       2.578  -0.734   3.229  1.00  0.00     0.060 A 
ATOM     36  C   UNL     1       1.272  -1.139   2.920  1.00  0.00     0.016 A 
ATOM     37  C   UNL     1       3.408  -1.567   3.984  1.00  0.00     0.016 A 
ATOM     38  C   UNL     1       0.772  -2.341   3.422  1.00  0.00     0.010 A 
ATOM     39  C   UNL     1       2.906  -2.772   4.490  1.00  0.00     0.010 A 
ATOM     40  C   UNL     1       1.568  -3.139   4.255  1.00  0.00    -0.014 A 
BRANCH  40  41
ATOM     41  C   UNL     1       0.928  -4.206   5.067  1.00  0.00     0.031 A 
ATOM     42  C   UNL     1       0.520  -3.872   6.479  1.00  0.00     0.074 A 
ATOM     43  C   UNL     1       0.669  -5.427   4.567  1.00  0.00     0.049 A 
ATOM     44  N   UNL     1      -0.099  -4.608   7.367  1.00  0.00    -0.248 NA
ATOM     45  C   UNL     1       0.862  -2.521   6.953  1.00  0.00     0.031 C 
ATOM     46  C   UNL     1       0.988  -5.876   3.215  1.00  0.00     0.029 A 
ATOM     47  N   UNL     1       0.066  -6.515   5.152  1.00  0.00    -0.354 N 
ATOM     48  C   UNL     1      -0.223  -3.809   8.496  1.00  0.00     0.074 A 
ATOM     49  C   UNL     1       0.427  -2.552   8.202  1.00  0.00     0.031 C 
ATOM     50  C   UNL     1       0.576  -7.149   3.071  1.00  0.00     0.029 A 
ATOM     51  C   UNL     1      -0.025  -7.607   4.325  1.00  0.00     0.049 A 
ATOM     52  H   UNL     1      -0.269  -6.511   6.077  1.00  0.00     0.167 HD
ATOM     53  C   UNL     1      -0.839  -4.087   9.670  1.00  0.00     0.037 A 
ATOM     54  C   UNL     1      -0.538  -8.832   4.556  1.00  0.00     0.037 A 
ATOM     55  C   UNL     1      -1.486  -5.335   9.972  1.00  0.00     0.049 A 
ATOM     56  C   UNL     1      -1.168  -9.137   5.894  1.00  0.00     0.074 A 
ATOM     57  C   UNL     1      -2.156  -5.703  11.125  1.00  0.00     0.029 A 
ATOM     58  N   UNL     1      -1.535  -6.424   9.115  1.00  0.00    -0.354 N 
ATOM     59  N   UNL     1      -1.333  -8.357   6.935  1.00  0.00    -0.248 NA
ATOM     60  C   UNL     1      -1.700 -10.496   6.080  1.00  0.00     0.031 C 
ATOM     61  C   UNL     1      -2.563  -7.034  10.988  1.00  0.00     0.029 A 
ATOM     62  C   UNL     1      -2.203  -7.474   9.725  1.00  0.00     0.049 A 
ATOM     63  H   UNL     1      -1.152  -6.448   8.209  1.00  0.00     0.167 HD
ATOM     64  C   UNL     1      -2.030  -9.111   7.874  1.00  0.00     0.074 A 
ATOM     65  C   UNL     1      -2.258 -10.410   7.279  1.00  0.00     0.031 C 
ATOM     66  C   UNL     1      -2.448  -8.756   9.114  1.00  0.00     0.037 A 
BRANCH  53  67
ATOM     67  C   UNL     1      -0.818  -3.020  10.725  1.00  0.00     0.064 A 
ATOM     68  C   UNL     1      -1.560  -1.836  10.593  1.00  0.00     0.173 A 
ATOM     69  C   UNL     1      -0.054  -3.190  11.889  1.00  0.00     0.173 A 
ATOM     70  F   UNL     1      -2.292  -1.617   9.490  1.00  0.00    -0.203 F 
ATOM     71  C   UNL     1      -1.511  -0.848  11.573  1.00  0.00     0.198 A 
ATOM     72  C   UNL     1      -0.034  -2.214  12.881  1.00  0.00     0.198 A 
ATOM     73  F   UNL     1       0.672  -4.304  12.065  1.00  0.00    -0.203 F 
ATOM     74  F   UNL     1      -2.182   0.299  11.399  1.00  0.00    -0.200 F 
ATOM     75  C   UNL     1      -0.754  -1.041  12.719  1.00  0.00     0.200 A 
ATOM     76  F   UNL     1       0.690  -2.407  13.993  1.00  0.00    -0.200 F 
ATOM     77  F   UNL     1      -0.710  -0.090  13.662  1.00  0.00    -0.200 F 
ENDBRANCH  53  67
BRANCH  54  78
ATOM     78  C   UNL     1      -0.508  -9.871   3.492  1.00  0.00     0.064 A 
ATOM     79  C   UNL     1      -1.691 -10.325   2.892  1.00  0.00     0.173 A 
ATOM     80  C   UNL     1       0.696 -10.466   3.090  1.00  0.00     0.173 A 
ATOM     81  F   UNL     1      -2.871  -9.808   3.264  1.00  0.00    -0.203 F 
ATOM     82  C   UNL     1      -1.674 -11.353   1.951  1.00  0.00     0.198 A 
ATOM     83  C   UNL     1       0.715 -11.475   2.128  1.00  0.00     0.198 A 
ATOM     84  F   UNL     1       1.856 -10.073   3.636  1.00  0.00    -0.203 F 
ATOM     85  F   UNL     1      -2.826 -11.808   1.439  1.00  0.00    -0.200 F 
ATOM     86  C   UNL     1      -0.471 -11.924   1.567  1.00  0.00     0.200 A 
ATOM     87  F   UNL     1       1.881 -12.020   1.754  1.00  0.00    -0.200 F 
ATOM     88  F   UNL     1      -0.455 -12.918   0.668  1.00  0.00    -0.200 F 
ENDBRANCH  54  78
BRANCH  66  89
ATOM     89  C   UNL     1      -3.259  -9.756   9.890  1.00  0.00     0.064 A 
ATOM     90  C   UNL     1      -2.696 -10.931  10.410  1.00  0.00     0.173 A 
ATOM     91  C   UNL     1      -4.619  -9.513  10.147  1.00  0.00     0.173 A 
ATOM     92  F   UNL     1      -1.405 -11.217  10.187  1.00  0.00    -0.203 F 
ATOM     93  C   UNL     1      -3.471 -11.840  11.128  1.00  0.00     0.198 A 
ATOM     94  C   UNL     1      -5.381 -10.407  10.894  1.00  0.00     0.198 A 
ATOM     95  F   UNL     1      -5.206  -8.399   9.684  1.00  0.00    -0.203 F 
ATOM     96  F   UNL     1      -2.925 -12.982  11.567  1.00  0.00    -0.200 F 
ATOM     97  C   UNL     1      -4.810 -11.574  11.374  1.00  0.00     0.200 A 
ATOM     98  F   UNL     1      -6.670 -10.139  11.146  1.00  0.00    -0.200 F 
ATOM     99  F   UNL     1      -5.551 -12.448  12.069  1.00  0.00    -0.200 F 
ENDBRANCH  66  89
ENDBRANCH  40  41
ENDBRANCH  33  35
ENDBRANCH  32  33
ENDBRANCH  31  32
ENDBRANCH  30  31
ENDBRANCH  29  30
ENDBRANCH   2  29
TORSDOF 17
