REMARK SMILES Cc1ccc(O[C@H](C)C(=O)Nc2ccsc2C(=O)OCCOC(=O)c2ccc(-c3c4nc(c(-c5c(F)c(F)c(F)c(F)c5F)c5ccc([nH]5)c(-c5c(F)c(F)c(F)c(F)c5F)c5nc(c(-c6c(F)c(F)c(F)c(F)c6F)c6ccc3[nH]6)C=C5)C=C4)cc2)cc1
REMARK SMILES IDX 20 1 19 2 17 3 18 4 16 5 12 6 13 7 14 8 15 9 11 10 9 11
REMARK SMILES IDX 10 12 7 14 8 15 6 16 5 17 1 18 2 19 3 20 89 21 4 22 88 23
REMARK SMILES IDX 21 24 22 25 23 26 24 27 25 28 26 29 87 30 27 31 86 32 28 33
REMARK SMILES IDX 29 34 30 35 80 36 31 37 85 38 79 39 81 40 32 41 84 42 78 43
REMARK SMILES IDX 77 44 33 46 65 47 45 48 64 49 46 50 49 51 63 52 82 53 47 54
REMARK SMILES IDX 48 55 62 57 83 58 50 59 34 60 35 61 43 62 36 63 37 64 41 65
REMARK SMILES IDX 44 66 38 67 39 68 42 69 40 70 66 71 67 72 75 73 68 74 69 75
REMARK SMILES IDX 73 76 76 77 70 78 71 79 74 80 72 81 51 82 52 83 60 84 53 85
REMARK SMILES IDX 54 86 58 87 61 88 55 89 56 90 59 91 57 92
REMARK H PARENT 11 13 81 45 49 56
REMARK Flexibility Score: inf
ROOT
ATOM      1  C   UNL     1      -2.818   5.894  -0.475  1.00  0.00     0.275 C 
ENDROOT
BRANCH   1   2
ATOM      2  O   UNL     1      -2.386   4.662   0.117  1.00  0.00    -0.458 OA
BRANCH   2   3
ATOM      3  C   UNL     1      -2.151   3.695  -0.817  1.00  0.00     0.350 C 
ATOM      4  O   UNL     1      -2.336   3.859  -2.022  1.00  0.00    -0.245 OA
BRANCH   3   5
ATOM      5  C   UNL     1      -1.692   2.435  -0.268  1.00  0.00     0.136 A 
ATOM      6  C   UNL     1      -1.956   1.203  -0.836  1.00  0.00     0.066 A 
ATOM      7  C   UNL     1      -1.157   0.163  -0.294  1.00  0.00     0.039 A 
ATOM      8  C   UNL     1      -0.471   0.592   0.820  1.00  0.00     0.068 A 
ATOM      9  S   UNL     1      -0.800   2.233   1.168  1.00  0.00    -0.135 S 
BRANCH   6  10
ATOM     10  N   UNL     1      -2.952   1.065  -1.795  1.00  0.00    -0.321 N 
ATOM     11  C   UNL     1      -4.271   1.227  -1.387  1.00  0.00     0.265 C 
ATOM     12  O   UNL     1      -5.048   1.858  -2.107  1.00  0.00    -0.270 OA
ATOM     13  H   UNL     1      -2.731   0.859  -2.732  1.00  0.00     0.170 HD
BRANCH  11  14
ATOM     14  C   UNL     1      -4.735   0.552  -0.066  1.00  0.00     0.259 C 
ATOM     15  C   UNL     1      -4.495  -0.940  -0.255  1.00  0.00     0.064 C 
BRANCH  14  16
ATOM     16  O   UNL     1      -4.236   1.257   1.073  1.00  0.00    -0.481 OA
BRANCH  16  17
ATOM     17  C   UNL     1      -3.852   0.770   2.285  1.00  0.00     0.120 A 
ATOM     18  C   UNL     1      -2.010  -0.279   6.075  1.00  0.00     0.044 C 
ATOM     19  C   UNL     1      -2.702   0.105   4.801  1.00  0.00    -0.051 A 
ATOM     20  C   UNL     1      -3.064  -0.883   3.885  1.00  0.00     0.007 A 
ATOM     21  C   UNL     1      -2.955   1.436   4.471  1.00  0.00     0.007 A 
ATOM     22  C   UNL     1      -3.645  -0.553   2.651  1.00  0.00     0.047 A 
ATOM     23  C   UNL     1      -3.530   1.758   3.230  1.00  0.00     0.047 A 
ENDBRANCH  16  17
ENDBRANCH  14  16
ENDBRANCH  11  14
ENDBRANCH   6  10
ENDBRANCH   3   5
ENDBRANCH   2   3
ENDBRANCH   1   2
BRANCH   1  24
ATOM     24  C   UNL     1      -2.516   7.126   0.386  1.00  0.00     0.275 C 
BRANCH  24  25
ATOM     25  O   UNL     1      -1.585   6.998   1.496  1.00  0.00    -0.458 OA
BRANCH  25  26
ATOM     26  C   UNL     1      -0.432   6.297   1.597  1.00  0.00     0.338 C 
ATOM     27  O   UNL     1       0.021   5.968   2.690  1.00  0.00    -0.246 OA
BRANCH  26  28
ATOM     28  C   UNL     1       0.268   5.889   0.366  1.00  0.00     0.060 A 
ATOM     29  C   UNL     1       1.003   4.691   0.362  1.00  0.00     0.016 A 
ATOM     30  C   UNL     1       0.127   6.622  -0.801  1.00  0.00     0.016 A 
ATOM     31  C   UNL     1       1.458   4.141  -0.831  1.00  0.00     0.010 A 
ATOM     32  C   UNL     1       0.458   6.035  -1.996  1.00  0.00     0.010 A 
ATOM     33  C   UNL     1       1.163   4.822  -2.003  1.00  0.00    -0.014 A 
BRANCH  33  34
ATOM     34  C   UNL     1       1.883   4.607  -3.240  1.00  0.00     0.031 A 
ATOM     35  C   UNL     1       1.440   3.666  -4.271  1.00  0.00     0.074 A 
ATOM     36  C   UNL     1       2.841   5.547  -3.397  1.00  0.00     0.049 A 
ATOM     37  N   UNL     1       2.216   3.229  -5.199  1.00  0.00    -0.248 NA
ATOM     38  C   UNL     1       0.098   3.098  -4.344  1.00  0.00     0.031 C 
ATOM     39  C   UNL     1       3.515   6.037  -4.579  1.00  0.00     0.029 A 
ATOM     40  N   UNL     1       3.445   6.258  -2.342  1.00  0.00    -0.354 N 
ATOM     41  C   UNL     1       1.417   2.642  -6.157  1.00  0.00     0.074 A 
ATOM     42  C   UNL     1       0.139   2.448  -5.516  1.00  0.00     0.031 C 
ATOM     43  C   UNL     1       4.606   6.727  -4.186  1.00  0.00     0.029 A 
ATOM     44  C   UNL     1       4.751   6.553  -2.745  1.00  0.00     0.049 A 
ATOM     45  H   UNL     1       3.026   6.502  -1.485  1.00  0.00     0.167 HD
ATOM     46  C   UNL     1       1.887   2.575  -7.436  1.00  0.00     0.037 A 
ATOM     47  C   UNL     1       5.750   5.872  -2.105  1.00  0.00     0.037 A 
ATOM     48  C   UNL     1       3.218   3.179  -7.504  1.00  0.00     0.049 A 
ATOM     49  C   UNL     1       6.370   4.800  -2.979  1.00  0.00     0.074 A 
ATOM     50  C   UNL     1       3.667   4.452  -7.814  1.00  0.00     0.029 A 
ATOM     51  N   UNL     1       4.251   2.571  -6.821  1.00  0.00    -0.354 N 
ATOM     52  N   UNL     1       5.950   4.487  -4.175  1.00  0.00    -0.248 NA
ATOM     53  C   UNL     1       7.463   3.941  -2.534  1.00  0.00     0.031 C 
ATOM     54  C   UNL     1       4.985   4.598  -7.286  1.00  0.00     0.029 A 
ATOM     55  C   UNL     1       5.337   3.411  -6.670  1.00  0.00     0.049 A 
ATOM     56  H   UNL     1       4.218   1.648  -6.481  1.00  0.00     0.167 HD
ATOM     57  C   UNL     1       6.675   3.440  -4.663  1.00  0.00     0.074 A 
ATOM     58  C   UNL     1       7.586   3.107  -3.580  1.00  0.00     0.031 C 
ATOM     59  C   UNL     1       6.475   2.917  -5.911  1.00  0.00     0.037 A 
BRANCH  46  60
ATOM     60  C   UNL     1       1.076   2.235  -8.664  1.00  0.00     0.064 A 
ATOM     61  C   UNL     1       1.434   2.772  -9.922  1.00  0.00     0.173 A 
ATOM     62  C   UNL     1      -0.051   1.391  -8.682  1.00  0.00     0.173 A 
ATOM     63  F   UNL     1       2.524   3.535 -10.075  1.00  0.00    -0.203 F 
ATOM     64  C   UNL     1       0.686   2.552 -11.080  1.00  0.00     0.198 A 
ATOM     65  C   UNL     1      -0.820   1.195  -9.839  1.00  0.00     0.198 A 
ATOM     66  F   UNL     1      -0.416   0.695  -7.598  1.00  0.00    -0.203 F 
ATOM     67  F   UNL     1       1.080   3.099 -12.239  1.00  0.00    -0.200 F 
ATOM     68  C   UNL     1      -0.455   1.781 -11.036  1.00  0.00     0.200 A 
ATOM     69  F   UNL     1      -1.917   0.425  -9.788  1.00  0.00    -0.200 F 
ATOM     70  F   UNL     1      -1.185   1.587 -12.143  1.00  0.00    -0.200 F 
ENDBRANCH  46  60
BRANCH  47  71
ATOM     71  C   UNL     1       5.478   5.738  -0.631  1.00  0.00     0.064 A 
ATOM     72  C   UNL     1       5.252   6.920   0.110  1.00  0.00     0.173 A 
ATOM     73  C   UNL     1       5.044   4.536  -0.056  1.00  0.00     0.173 A 
ATOM     74  F   UNL     1       5.659   8.104  -0.376  1.00  0.00    -0.203 F 
ATOM     75  C   UNL     1       4.485   6.917   1.275  1.00  0.00     0.198 A 
ATOM     76  C   UNL     1       4.314   4.532   1.136  1.00  0.00     0.198 A 
ATOM     77  F   UNL     1       5.219   3.370  -0.694  1.00  0.00    -0.203 F 
ATOM     78  F   UNL     1       4.149   8.077   1.857  1.00  0.00    -0.200 F 
ATOM     79  C   UNL     1       3.996   5.724   1.773  1.00  0.00     0.200 A 
ATOM     80  F   UNL     1       3.821   3.378   1.609  1.00  0.00    -0.200 F 
ATOM     81  F   UNL     1       3.173   5.724   2.831  1.00  0.00    -0.200 F 
ENDBRANCH  47  71
BRANCH  59  82
ATOM     82  C   UNL     1       7.350   1.845  -6.504  1.00  0.00     0.064 A 
ATOM     83  C   UNL     1       8.734   1.808  -6.276  1.00  0.00     0.173 A 
ATOM     84  C   UNL     1       6.856   0.875  -7.406  1.00  0.00     0.173 A 
ATOM     85  F   UNL     1       9.346   2.773  -5.574  1.00  0.00    -0.203 F 
ATOM     86  C   UNL     1       9.536   0.790  -6.788  1.00  0.00     0.198 A 
ATOM     87  C   UNL     1       7.670  -0.101  -7.969  1.00  0.00     0.198 A 
ATOM     88  F   UNL     1       5.568   0.819  -7.767  1.00  0.00    -0.203 F 
ATOM     89  F   UNL     1      10.834   0.743  -6.461  1.00  0.00    -0.200 F 
ATOM     90  C   UNL     1       9.004  -0.167  -7.632  1.00  0.00     0.200 A 
ATOM     91  F   UNL     1       7.144  -0.984  -8.831  1.00  0.00    -0.200 F 
ATOM     92  F   UNL     1       9.775  -1.142  -8.127  1.00  0.00    -0.200 F 
ENDBRANCH  59  82
ENDBRANCH  33  34
ENDBRANCH  26  28
ENDBRANCH  25  26
ENDBRANCH  24  25
ENDBRANCH   1  24
TORSDOF 15
