REMARK SMILES C[NH2+]CCCC(=O)N[C@H]1C=C[C@@H](C(=O)OCCOC(=O)c2ccc(-c3c4nc(c(-c5c(F)c(F)c(F)c(F)c5F)c5ccc([nH]5)c(-c5c(F)c(F)c(F)c(F)c5F)c5nc(c(-c6c(F)c(F)c(F)c(F)c6F)c6ccc3[nH]6)C=C5)C=C4)cc2)C1
REMARK SMILES IDX 15 1 13 2 14 3 12 4 9 5 10 6 84 7 11 8 8 9 6 10 7 11 5 13
REMARK SMILES IDX 4 14 3 15 2 16 1 17 16 20 17 21 18 22 19 23 20 24 21 25
REMARK SMILES IDX 22 26 83 27 23 28 82 29 24 30 25 31 26 32 76 33 27 34 81 35
REMARK SMILES IDX 75 36 77 37 28 38 80 39 74 40 73 41 29 43 61 44 41 45 60 46
REMARK SMILES IDX 42 47 45 48 59 49 78 50 43 51 44 52 58 54 79 55 46 56 30 57
REMARK SMILES IDX 31 58 39 59 32 60 33 61 37 62 40 63 34 64 35 65 38 66 36 67
REMARK SMILES IDX 62 68 63 69 71 70 64 71 65 72 69 73 72 74 66 75 67 76 70 77
REMARK SMILES IDX 68 78 47 79 48 80 56 81 49 82 50 83 54 84 57 85 51 86 52 87
REMARK SMILES IDX 55 88 53 89
REMARK H PARENT 8 12 2 18 2 19 77 42 45 53
REMARK Flexibility Score: inf
ROOT
ATOM      1  O   UNL     1       2.328   2.200   6.351  1.00  0.00    -0.462 OA
ENDROOT
BRANCH   1   2
ATOM      2  C   UNL     1       2.271   2.998   5.255  1.00  0.00     0.312 C 
ATOM      3  O   UNL     1       2.992   3.971   5.061  1.00  0.00    -0.252 OA
BRANCH   2   4
ATOM      4  C   UNL     1       1.207   2.572   4.261  1.00  0.00     0.124 C 
ATOM      5  C   UNL     1      -0.660   1.186   3.692  1.00  0.00     0.106 C 
ATOM      6  C   UNL     1      -1.127   2.538   4.124  1.00  0.00    -0.006 C 
ATOM      7  C   UNL     1       0.736   1.114   4.303  1.00  0.00     0.048 C 
ATOM      8  C   UNL     1      -0.084   3.322   4.429  1.00  0.00    -0.014 C 
BRANCH   5   9
ATOM      9  N   UNL     1      -1.574   0.172   4.131  1.00  0.00    -0.350 N 
ATOM     10  C   UNL     1      -1.832  -1.034   3.552  1.00  0.00     0.220 C 
ATOM     11  O   UNL     1      -2.745  -1.725   4.005  1.00  0.00    -0.275 OA
ATOM     12  H   UNL     1      -2.076   0.371   4.954  1.00  0.00     0.164 HD
BRANCH  10  13
ATOM     13  C   UNL     1      -0.993  -1.519   2.384  1.00  0.00     0.106 C 
BRANCH  13  14
ATOM     14  C   UNL     1      -1.604  -1.242   1.006  1.00  0.00     0.071 C 
BRANCH  14  15
ATOM     15  C   UNL     1      -1.230   0.088   0.335  1.00  0.00     0.260 C 
BRANCH  15  16
ATOM     16  N   UNL     1       0.206   0.357   0.214  1.00  0.00    -0.349 N 
ATOM     17  C   UNL     1       0.817  -0.345  -0.906  1.00  0.00     0.330 C 
ATOM     18  H   UNL     1       0.341   1.360   0.082  1.00  0.00     0.346 HD
ATOM     19  H   UNL     1       0.655   0.025   1.067  1.00  0.00     0.346 HD
ENDBRANCH  15  16
ENDBRANCH  14  15
ENDBRANCH  13  14
ENDBRANCH  10  13
ENDBRANCH   5   9
ENDBRANCH   2   4
ENDBRANCH   1   2
BRANCH   1  20
ATOM     20  C   UNL     1       3.416   2.442   7.260  1.00  0.00     0.274 C 
BRANCH  20  21
ATOM     21  C   UNL     1       4.528   1.410   7.054  1.00  0.00     0.275 C 
BRANCH  21  22
ATOM     22  O   UNL     1       5.245   1.627   5.823  1.00  0.00    -0.458 OA
BRANCH  22  23
ATOM     23  C   UNL     1       4.749   0.987   4.738  1.00  0.00     0.338 C 
ATOM     24  O   UNL     1       3.781   0.247   4.694  1.00  0.00    -0.246 OA
BRANCH  23  25
ATOM     25  C   UNL     1       5.485   1.396   3.530  1.00  0.00     0.060 A 
ATOM     26  C   UNL     1       4.751   1.887   2.445  1.00  0.00     0.016 A 
ATOM     27  C   UNL     1       6.867   1.229   3.434  1.00  0.00     0.016 A 
ATOM     28  C   UNL     1       5.399   2.212   1.255  1.00  0.00     0.010 A 
ATOM     29  C   UNL     1       7.516   1.556   2.240  1.00  0.00     0.010 A 
ATOM     30  C   UNL     1       6.785   2.041   1.141  1.00  0.00    -0.014 A 
BRANCH  30  31
ATOM     31  C   UNL     1       7.468   2.342  -0.140  1.00  0.00     0.031 A 
ATOM     32  C   UNL     1       7.917   1.222  -1.031  1.00  0.00     0.074 A 
ATOM     33  C   UNL     1       7.683   3.620  -0.499  1.00  0.00     0.049 A 
ATOM     34  N   UNL     1       8.607   1.272  -2.142  1.00  0.00    -0.248 NA
ATOM     35  C   UNL     1       7.540  -0.138  -0.616  1.00  0.00     0.031 C 
ATOM     36  C   UNL     1       7.261   4.792   0.266  1.00  0.00     0.029 A 
ATOM     37  N   UNL     1       8.318   4.145  -1.597  1.00  0.00    -0.354 N 
ATOM     38  C   UNL     1       8.758  -0.045  -2.553  1.00  0.00     0.074 A 
ATOM     39  C   UNL     1       8.104  -0.875  -1.563  1.00  0.00     0.031 C 
ATOM     40  C   UNL     1       7.656   5.901  -0.381  1.00  0.00     0.029 A 
ATOM     41  C   UNL     1       8.393   5.515  -1.582  1.00  0.00     0.049 A 
ATOM     42  H   UNL     1       8.685   3.592  -2.324  1.00  0.00     0.167 HD
ATOM     43  C   UNL     1       9.383  -0.516  -3.659  1.00  0.00     0.037 A 
ATOM     44  C   UNL     1       9.013   6.361  -2.426  1.00  0.00     0.037 A 
ATOM     45  C   UNL     1      10.028   0.312  -4.644  1.00  0.00     0.049 A 
ATOM     46  C   UNL     1       9.749   5.809  -3.616  1.00  0.00     0.074 A 
ATOM     47  C   UNL     1      10.681  -0.072  -5.803  1.00  0.00     0.029 A 
ATOM     48  N   UNL     1      10.100   1.696  -4.585  1.00  0.00    -0.354 N 
ATOM     49  N   UNL     1       9.888   4.562  -3.997  1.00  0.00    -0.248 NA
ATOM     50  C   UNL     1      10.420   6.781  -4.491  1.00  0.00     0.031 C 
ATOM     51  C   UNL     1      11.181   1.077  -6.426  1.00  0.00     0.029 A 
ATOM     52  C   UNL     1      10.803   2.180  -5.677  1.00  0.00     0.049 A 
ATOM     53  H   UNL     1       9.710   2.252  -3.873  1.00  0.00     0.167 HD
ATOM     54  C   UNL     1      10.642   4.601  -5.162  1.00  0.00     0.074 A 
ATOM     55  C   UNL     1      10.921   5.995  -5.434  1.00  0.00     0.031 C 
ATOM     56  C   UNL     1      11.067   3.572  -5.935  1.00  0.00     0.037 A 
BRANCH  43  57
ATOM     57  C   UNL     1       9.421  -2.003  -3.851  1.00  0.00     0.064 A 
ATOM     58  C   UNL     1       8.282  -2.723  -4.239  1.00  0.00     0.173 A 
ATOM     59  C   UNL     1      10.620  -2.710  -3.681  1.00  0.00     0.173 A 
ATOM     60  F   UNL     1       7.108  -2.094  -4.401  1.00  0.00    -0.203 F 
ATOM     61  C   UNL     1       8.338  -4.101  -4.431  1.00  0.00     0.198 A 
ATOM     62  C   UNL     1      10.678  -4.085  -3.897  1.00  0.00     0.198 A 
ATOM     63  F   UNL     1      11.739  -2.067  -3.314  1.00  0.00    -0.203 F 
ATOM     64  F   UNL     1       7.229  -4.776  -4.763  1.00  0.00    -0.200 F 
ATOM     65  C   UNL     1       9.537  -4.780  -4.266  1.00  0.00     0.200 A 
ATOM     66  F   UNL     1      11.839  -4.737  -3.745  1.00  0.00    -0.200 F 
ATOM     67  F   UNL     1       9.590  -6.105  -4.455  1.00  0.00    -0.200 F 
ENDBRANCH  43  57
BRANCH  44  68
ATOM     68  C   UNL     1       8.982   7.822  -2.160  1.00  0.00     0.064 A 
ATOM     69  C   UNL     1       8.252   8.691  -2.982  1.00  0.00     0.173 A 
ATOM     70  C   UNL     1       9.685   8.378  -1.081  1.00  0.00     0.173 A 
ATOM     71  F   UNL     1       7.587   8.209  -4.042  1.00  0.00    -0.203 F 
ATOM     72  C   UNL     1       8.236  10.063  -2.741  1.00  0.00     0.198 A 
ATOM     73  C   UNL     1       9.647   9.746  -0.826  1.00  0.00     0.198 A 
ATOM     74  F   UNL     1      10.401   7.587  -0.268  1.00  0.00    -0.203 F 
ATOM     75  F   UNL     1       7.564  10.878  -3.566  1.00  0.00    -0.200 F 
ATOM     76  C   UNL     1       8.928  10.589  -1.660  1.00  0.00     0.200 A 
ATOM     77  F   UNL     1      10.309  10.248   0.225  1.00  0.00    -0.200 F 
ATOM     78  F   UNL     1       8.909  11.908  -1.427  1.00  0.00    -0.200 F 
ENDBRANCH  44  68
BRANCH  56  79
ATOM     79  C   UNL     1      11.854   3.918  -7.164  1.00  0.00     0.064 A 
ATOM     80  C   UNL     1      13.189   4.340  -7.084  1.00  0.00     0.173 A 
ATOM     81  C   UNL     1      11.279   3.787  -8.436  1.00  0.00     0.173 A 
ATOM     82  F   UNL     1      13.777   4.496  -5.889  1.00  0.00    -0.203 F 
ATOM     83  C   UNL     1      13.914   4.638  -8.235  1.00  0.00     0.198 A 
ATOM     84  C   UNL     1      12.014   4.061  -9.586  1.00  0.00     0.198 A 
ATOM     85  F   UNL     1      10.007   3.381  -8.565  1.00  0.00    -0.203 F 
ATOM     86  F   UNL     1      15.176   5.077  -8.135  1.00  0.00    -0.200 F 
ATOM     87  C   UNL     1      13.329   4.492  -9.484  1.00  0.00     0.200 A 
ATOM     88  F   UNL     1      11.450   3.910 -10.792  1.00  0.00    -0.200 F 
ATOM     89  F   UNL     1      14.030   4.773 -10.591  1.00  0.00    -0.200 F 
ENDBRANCH  56  79
ENDBRANCH  30  31
ENDBRANCH  23  25
ENDBRANCH  22  23
ENDBRANCH  21  22
ENDBRANCH  20  21
ENDBRANCH   1  20
TORSDOF 16
