REMARK SMILES CS(=O)(=O)c1ccc(C(=O)N2C[C@@H](C(=O)OCCOC(=O)c3ccc(-c4c5nc(c(-c6c(F)c(F)c(F)c(F)c6F)c6ccc([nH]6)c(-c6c(F)c(F)c(F)c(F)c6F)c6nc(c(-c7c(F)c(F)c(F)c(F)c7F)c7ccc4[nH]7)C=C6)C=C5)cc3)[C@H](c3ccncc3)C2)cc1
REMARK SMILES IDX 17 1 16 2 14 3 15 4 13 5 11 6 12 7 92 8 85 9 9 10 10 11 8 12
REMARK SMILES IDX 5 13 6 14 94 15 7 16 93 17 2 18 1 19 3 20 4 21 86 22 87 23
REMARK SMILES IDX 91 24 88 25 90 26 89 27 18 28 19 29 20 30 21 31 22 32 23 33
REMARK SMILES IDX 84 34 24 35 83 36 25 37 26 38 27 39 77 40 28 41 82 42 76 43
REMARK SMILES IDX 78 44 29 45 81 46 75 47 74 48 30 50 62 51 42 52 61 53 43 54
REMARK SMILES IDX 46 55 60 56 79 57 44 58 45 59 59 61 80 62 47 63 31 64 32 65
REMARK SMILES IDX 40 66 33 67 34 68 38 69 41 70 35 71 36 72 39 73 37 74 63 75
REMARK SMILES IDX 64 76 72 77 65 78 66 79 70 80 73 81 67 82 68 83 71 84 69 85
REMARK SMILES IDX 48 86 49 87 57 88 50 89 51 90 55 91 58 92 52 93 53 94 56 95
REMARK SMILES IDX 54 96
REMARK H PARENT 78 49 46 60
REMARK Flexibility Score: inf
ROOT
ATOM      1  C   UNL     1       7.920  -3.081  -5.577  1.00  0.00     0.274 C 
ENDROOT
BRANCH   1   2
ATOM      2  O   UNL     1       6.543  -3.271  -5.185  1.00  0.00    -0.462 OA
BRANCH   2   3
ATOM      3  C   UNL     1       5.837  -4.121  -5.977  1.00  0.00     0.311 C 
ATOM      4  O   UNL     1       6.323  -4.752  -6.908  1.00  0.00    -0.252 OA
BRANCH   3   5
ATOM      5  C   UNL     1       4.370  -4.152  -5.612  1.00  0.00     0.128 C 
ATOM      6  N   UNL     1       2.813  -5.326  -4.330  1.00  0.00    -0.337 N 
ATOM      7  C   UNL     1       4.146  -4.762  -4.235  1.00  0.00     0.135 C 
ATOM      8  C   UNL     1       2.551  -5.799  -5.671  1.00  0.00     0.129 C 
ATOM      9  C   UNL     1       3.538  -5.049  -6.590  1.00  0.00     0.055 C 
BRANCH   6  10
ATOM     10  C   UNL     1       1.926  -5.638  -3.316  1.00  0.00     0.253 C 
ATOM     11  O   UNL     1       1.184  -6.617  -3.389  1.00  0.00    -0.269 OA
BRANCH  10  12
ATOM     12  C   UNL     1       1.728  -4.675  -2.197  1.00  0.00     0.040 A 
ATOM     13  C   UNL     1       0.982  -2.805  -0.252  1.00  0.00     0.067 A 
ATOM     14  C   UNL     1       0.630  -4.151  -0.095  1.00  0.00     0.021 A 
ATOM     15  C   UNL     1       1.716  -2.391  -1.361  1.00  0.00     0.021 A 
ATOM     16  C   UNL     1       1.012  -5.085  -1.063  1.00  0.00     0.015 A 
ATOM     17  C   UNL     1       2.051  -3.320  -2.343  1.00  0.00     0.015 A 
BRANCH  13  18
ATOM     18  S   UNL     1       0.374  -1.636   0.939  1.00  0.00     0.175 S 
ATOM     19  C   UNL     1       0.862  -0.028   0.375  1.00  0.00     0.163 C 
ATOM     20  O   UNL     1       1.083  -1.902   2.175  1.00  0.00    -0.224 OA
ATOM     21  O   UNL     1      -1.073  -1.697   0.866  1.00  0.00    -0.224 OA
ENDBRANCH  13  18
ENDBRANCH  10  12
ENDBRANCH   6  10
BRANCH   9  22
ATOM     22  C   UNL     1       2.970  -4.273  -7.776  1.00  0.00    -0.039 A 
ATOM     23  C   UNL     1       3.835  -3.523  -8.591  1.00  0.00     0.024 A 
ATOM     24  C   UNL     1       1.629  -4.321  -8.169  1.00  0.00     0.024 A 
ATOM     25  C   UNL     1       3.336  -2.848  -9.695  1.00  0.00     0.111 A 
ATOM     26  C   UNL     1       1.220  -3.611  -9.293  1.00  0.00     0.111 A 
ATOM     27  N   UNL     1       2.042  -2.868 -10.059  1.00  0.00    -0.265 NA
ENDBRANCH   9  22
ENDBRANCH   3   5
ENDBRANCH   2   3
ENDBRANCH   1   2
BRANCH   1  28
ATOM     28  C   UNL     1       8.890  -4.017  -4.846  1.00  0.00     0.275 C 
BRANCH  28  29
ATOM     29  O   UNL     1       8.670  -5.404  -5.169  1.00  0.00    -0.458 OA
BRANCH  29  30
ATOM     30  C   UNL     1       7.857  -6.059  -4.309  1.00  0.00     0.338 C 
ATOM     31  O   UNL     1       7.326  -5.606  -3.311  1.00  0.00    -0.246 OA
BRANCH  30  32
ATOM     32  C   UNL     1       7.534  -7.401  -4.821  1.00  0.00     0.060 A 
ATOM     33  C   UNL     1       6.257  -7.595  -5.345  1.00  0.00     0.016 A 
ATOM     34  C   UNL     1       8.387  -8.486  -4.642  1.00  0.00     0.016 A 
ATOM     35  C   UNL     1       5.788  -8.864  -5.637  1.00  0.00     0.010 A 
ATOM     36  C   UNL     1       7.936  -9.769  -4.985  1.00  0.00     0.010 A 
ATOM     37  C   UNL     1       6.625  -9.965  -5.462  1.00  0.00    -0.014 A 
BRANCH  37  38
ATOM     38  C   UNL     1       6.083 -11.316  -5.727  1.00  0.00     0.031 A 
ATOM     39  C   UNL     1       5.844 -12.258  -4.586  1.00  0.00     0.074 A 
ATOM     40  C   UNL     1       5.736 -11.664  -6.980  1.00  0.00     0.049 A 
ATOM     41  N   UNL     1       5.489 -13.517  -4.610  1.00  0.00    -0.248 NA
ATOM     42  C   UNL     1       6.027 -11.708  -3.234  1.00  0.00     0.031 C 
ATOM     43  C   UNL     1       5.824 -10.794  -8.153  1.00  0.00     0.029 A 
ATOM     44  N   UNL     1       5.229 -12.839  -7.473  1.00  0.00    -0.354 N 
ATOM     45  C   UNL     1       5.446 -13.921  -3.283  1.00  0.00     0.074 A 
ATOM     46  C   UNL     1       5.816 -12.775  -2.478  1.00  0.00     0.031 C 
ATOM     47  C   UNL     1       5.374 -11.460  -9.227  1.00  0.00     0.029 A 
ATOM     48  C   UNL     1       5.040 -12.824  -8.832  1.00  0.00     0.049 A 
ATOM     49  H   UNL     1       5.021 -13.617  -6.907  1.00  0.00     0.167 HD
ATOM     50  C   UNL     1       5.130 -15.141  -2.787  1.00  0.00     0.037 A 
ATOM     51  C   UNL     1       4.680 -13.814  -9.670  1.00  0.00     0.037 A 
ATOM     52  C   UNL     1       4.736 -16.263  -3.601  1.00  0.00     0.049 A 
ATOM     53  C   UNL     1       4.421 -15.182  -9.106  1.00  0.00     0.074 A 
ATOM     54  C   UNL     1       4.402 -17.545  -3.204  1.00  0.00     0.029 A 
ATOM     55  N   UNL     1       4.619 -16.230  -4.984  1.00  0.00    -0.354 N 
ATOM     56  N   UNL     1       4.440 -15.580  -7.857  1.00  0.00    -0.248 NA
ATOM     57  C   UNL     1       4.106 -16.244 -10.070  1.00  0.00     0.031 C 
ATOM     58  C   UNL     1       4.129 -18.300  -4.350  1.00  0.00     0.029 A 
ATOM     59  C   UNL     1       4.242 -17.476  -5.458  1.00  0.00     0.049 A 
ATOM     60  H   UNL     1       4.781 -15.437  -5.545  1.00  0.00     0.167 HD
ATOM     61  C   UNL     1       4.122 -16.930  -7.880  1.00  0.00     0.074 A 
ATOM     62  C   UNL     1       3.901 -17.281  -9.268  1.00  0.00     0.031 C 
ATOM     63  C   UNL     1       4.024 -17.802  -6.846  1.00  0.00     0.037 A 
BRANCH  50  64
ATOM     64  C   UNL     1       5.257 -15.336  -1.305  1.00  0.00     0.064 A 
ATOM     65  C   UNL     1       4.369 -14.745  -0.394  1.00  0.00     0.173 A 
ATOM     66  C   UNL     1       6.294 -16.129  -0.788  1.00  0.00     0.173 A 
ATOM     67  F   UNL     1       3.372 -13.963  -0.834  1.00  0.00    -0.203 F 
ATOM     68  C   UNL     1       4.535 -14.912   0.979  1.00  0.00     0.198 A 
ATOM     69  C   UNL     1       6.439 -16.318   0.583  1.00  0.00     0.198 A 
ATOM     70  F   UNL     1       7.171 -16.719  -1.615  1.00  0.00    -0.203 F 
ATOM     71  F   UNL     1       3.711 -14.290   1.833  1.00  0.00    -0.200 F 
ATOM     72  C   UNL     1       5.567 -15.702   1.466  1.00  0.00     0.200 A 
ATOM     73  F   UNL     1       7.431 -17.090   1.051  1.00  0.00    -0.200 F 
ATOM     74  F   UNL     1       5.727 -15.858   2.788  1.00  0.00    -0.200 F 
ENDBRANCH  50  64
BRANCH  51  75
ATOM     75  C   UNL     1       4.589 -13.550 -11.129  1.00  0.00     0.064 A 
ATOM     76  C   UNL     1       3.355 -13.571 -11.791  1.00  0.00     0.173 A 
ATOM     77  C   UNL     1       5.733 -13.258 -11.888  1.00  0.00     0.173 A 
ATOM     78  F   UNL     1       2.237 -13.869 -11.113  1.00  0.00    -0.203 F 
ATOM     79  C   UNL     1       3.268 -13.316 -13.158  1.00  0.00     0.198 A 
ATOM     80  C   UNL     1       5.642 -12.975 -13.249  1.00  0.00     0.198 A 
ATOM     81  F   UNL     1       6.939 -13.228 -11.303  1.00  0.00    -0.203 F 
ATOM     82  F   UNL     1       2.080 -13.378 -13.775  1.00  0.00    -0.200 F 
ATOM     83  C   UNL     1       4.410 -13.010 -13.884  1.00  0.00     0.200 A 
ATOM     84  F   UNL     1       6.746 -12.666 -13.942  1.00  0.00    -0.200 F 
ATOM     85  F   UNL     1       4.324 -12.756 -15.197  1.00  0.00    -0.200 F 
ENDBRANCH  51  75
BRANCH  63  86
ATOM     86  C   UNL     1       3.628 -19.210  -7.177  1.00  0.00     0.064 A 
ATOM     87  C   UNL     1       4.514 -20.095  -7.808  1.00  0.00     0.173 A 
ATOM     88  C   UNL     1       2.357 -19.690  -6.826  1.00  0.00     0.173 A 
ATOM     89  F   UNL     1       5.734 -19.678  -8.180  1.00  0.00    -0.203 F 
ATOM     90  C   UNL     1       4.133 -21.402  -8.098  1.00  0.00     0.198 A 
ATOM     91  C   UNL     1       1.990 -21.006  -7.090  1.00  0.00     0.198 A 
ATOM     92  F   UNL     1       1.475 -18.884  -6.216  1.00  0.00    -0.203 F 
ATOM     93  F   UNL     1       4.979 -22.217  -8.744  1.00  0.00    -0.200 F 
ATOM     94  C   UNL     1       2.875 -21.859  -7.732  1.00  0.00     0.200 A 
ATOM     95  F   UNL     1       0.779 -21.448  -6.726  1.00  0.00    -0.200 F 
ATOM     96  F   UNL     1       2.513 -23.119  -8.006  1.00  0.00    -0.200 F 
ENDBRANCH  63  86
ENDBRANCH  37  38
ENDBRANCH  30  32
ENDBRANCH  29  30
ENDBRANCH  28  29
ENDBRANCH   1  28
TORSDOF 15
