REMARK SMILES O=C(OCCOC(=O)c1ccc(-c2c3nc(c(-c4c(F)c(F)c(F)c(F)c4F)c4ccc([nH]4)c(-c4c(F)c(F)c(F)c(F)c4F)c4nc(c(-c5c(F)c(F)c(F)c(F)c5F)c5ccc2[nH]5)C=C4)C=C3)cc1)C1=Cc2cc(Cl)c(Cl)cc2O[C@@H]1C(F)(F)F
REMARK SMILES IDX 5 1 4 2 3 3 2 4 1 5 72 6 73 7 83 8 74 9 82 10 75 11 81 12
REMARK SMILES IDX 76 13 80 14 77 15 78 16 79 17 84 18 85 19 86 20 87 21 6 22
REMARK SMILES IDX 7 23 8 24 9 25 10 26 71 27 11 28 70 29 12 30 13 31 14 32
REMARK SMILES IDX 64 33 15 34 69 35 63 36 65 37 16 38 68 39 62 40 61 41 17 43
REMARK SMILES IDX 49 44 29 45 48 46 30 47 33 48 47 49 66 50 31 51 32 52 46 54
REMARK SMILES IDX 67 55 34 56 18 57 19 58 27 59 20 60 21 61 25 62 28 63 22 64
REMARK SMILES IDX 23 65 26 66 24 67 50 68 51 69 59 70 52 71 53 72 57 73 60 74
REMARK SMILES IDX 54 75 55 76 58 77 56 78 35 79 36 80 44 81 37 82 38 83 42 84
REMARK SMILES IDX 45 85 39 86 40 87 43 88 41 89
REMARK H PARENT 65 42 33 53
REMARK Flexibility Score: inf
ROOT
ATOM      1  C   UNL     1       3.263   0.442  -2.333  1.00  0.00     0.275 C 
ENDROOT
BRANCH   1   2
ATOM      2  C   UNL     1       3.006  -0.663  -1.286  1.00  0.00     0.275 C 
BRANCH   2   3
ATOM      3  O   UNL     1       2.314  -0.149  -0.129  1.00  0.00    -0.459 OA
BRANCH   3   4
ATOM      4  C   UNL     1       2.658  -0.713   1.054  1.00  0.00     0.338 C 
ATOM      5  O   UNL     1       2.100  -1.698   1.514  1.00  0.00    -0.246 OA
BRANCH   4   6
ATOM      6  C   UNL     1       3.725   0.040   1.781  1.00  0.00     0.087 C 
ATOM      7  C   UNL     1       4.674  -0.793   2.250  1.00  0.00     0.027 C 
ATOM      8  C   UNL     1       4.166   1.347   1.171  1.00  0.00     0.316 C 
ATOM      9  C   UNL     1       5.900  -0.815   1.434  1.00  0.00     0.019 A 
ATOM     10  O   UNL     1       5.240   1.184   0.211  1.00  0.00    -0.475 OA
ATOM     11  C   UNL     1       6.817  -1.856   1.588  1.00  0.00     0.034 A 
ATOM     12  C   UNL     1       6.065   0.106   0.393  1.00  0.00     0.129 A 
ATOM     13  C   UNL     1       7.825  -2.042   0.637  1.00  0.00     0.060 A 
ATOM     14  C   UNL     1       7.047  -0.093  -0.574  1.00  0.00     0.069 A 
ATOM     15  Cl  UNL     1       8.901  -3.374   0.859  1.00  0.00    -0.083 Cl
ATOM     16  C   UNL     1       7.910  -1.187  -0.470  1.00  0.00     0.063 A 
ATOM     17  Cl  UNL     1       9.022  -1.454  -1.764  1.00  0.00    -0.083 Cl
BRANCH   8  18
ATOM     18  C   UNL     1       4.474   2.421   2.220  1.00  0.00     0.430 C 
ATOM     19  F   UNL     1       3.337   2.804   2.853  1.00  0.00    -0.167 F 
ATOM     20  F   UNL     1       5.339   1.997   3.167  1.00  0.00    -0.167 F 
ATOM     21  F   UNL     1       5.001   3.531   1.652  1.00  0.00    -0.167 F 
ENDBRANCH   8  18
ENDBRANCH   4   6
ENDBRANCH   3   4
ENDBRANCH   2   3
ENDBRANCH   1   2
BRANCH   1  22
ATOM     22  O   UNL     1       3.049   1.759  -1.798  1.00  0.00    -0.458 OA
BRANCH  22  23
ATOM     23  C   UNL     1       1.754   2.166  -1.835  1.00  0.00     0.338 C 
ATOM     24  O   UNL     1       0.857   1.659  -2.488  1.00  0.00    -0.246 OA
BRANCH  23  25
ATOM     25  C   UNL     1       1.521   3.177  -0.774  1.00  0.00     0.060 A 
ATOM     26  C   UNL     1       0.323   3.081  -0.059  1.00  0.00     0.016 A 
ATOM     27  C   UNL     1       2.461   4.156  -0.428  1.00  0.00     0.016 A 
ATOM     28  C   UNL     1       0.041   3.985   0.966  1.00  0.00     0.010 A 
ATOM     29  C   UNL     1       2.186   5.047   0.621  1.00  0.00     0.010 A 
ATOM     30  C   UNL     1       0.956   4.993   1.300  1.00  0.00    -0.014 A 
BRANCH  30  31
ATOM     31  C   UNL     1       0.524   6.055   2.251  1.00  0.00     0.031 A 
ATOM     32  C   UNL     1       0.101   7.394   1.708  1.00  0.00     0.074 A 
ATOM     33  C   UNL     1       0.398   5.808   3.569  1.00  0.00     0.049 A 
ATOM     34  N   UNL     1      -0.515   8.379   2.314  1.00  0.00    -0.248 NA
ATOM     35  C   UNL     1       0.405   7.657   0.293  1.00  0.00     0.031 C 
ATOM     36  C   UNL     1       0.786   4.571   4.242  1.00  0.00     0.029 A 
ATOM     37  N   UNL     1      -0.114   6.590   4.578  1.00  0.00    -0.354 N 
ATOM     38  C   UNL     1      -0.714   9.351   1.343  1.00  0.00     0.074 A 
ATOM     39  C   UNL     1      -0.076   8.880   0.134  1.00  0.00     0.031 C 
ATOM     40  C   UNL     1       0.494   4.673   5.551  1.00  0.00     0.029 A 
ATOM     41  C   UNL     1      -0.114   5.978   5.808  1.00  0.00     0.049 A 
ATOM     42  H   UNL     1      -0.449   7.505   4.432  1.00  0.00     0.167 HD
ATOM     43  C   UNL     1      -1.401  10.514   1.432  1.00  0.00     0.037 A 
ATOM     44  C   UNL     1      -0.571   6.412   7.000  1.00  0.00     0.037 A 
ATOM     45  C   UNL     1      -2.012  11.013   2.634  1.00  0.00     0.049 A 
ATOM     46  C   UNL     1      -1.276   7.743   7.089  1.00  0.00     0.074 A 
ATOM     47  C   UNL     1      -2.726  12.184   2.820  1.00  0.00     0.029 A 
ATOM     48  N   UNL     1      -1.966  10.374   3.863  1.00  0.00    -0.354 N 
ATOM     49  N   UNL     1      -1.550   8.606   6.141  1.00  0.00    -0.248 NA
ATOM     50  C   UNL     1      -1.765   8.145   8.417  1.00  0.00     0.031 C 
ATOM     51  C   UNL     1      -3.075  12.274   4.172  1.00  0.00     0.029 A 
ATOM     52  C   UNL     1      -2.620  11.136   4.817  1.00  0.00     0.049 A 
ATOM     53  H   UNL     1      -1.532   9.506   4.033  1.00  0.00     0.167 HD
ATOM     54  C   UNL     1      -2.269   9.628   6.748  1.00  0.00     0.074 A 
ATOM     55  C   UNL     1      -2.410   9.269   8.142  1.00  0.00     0.031 C 
ATOM     56  C   UNL     1      -2.767  10.765   6.201  1.00  0.00     0.037 A 
BRANCH  43  57
ATOM     57  C   UNL     1      -1.539  11.318   0.173  1.00  0.00     0.064 A 
ATOM     58  C   UNL     1      -2.363  10.882  -0.877  1.00  0.00     0.173 A 
ATOM     59  C   UNL     1      -0.858  12.532   0.015  1.00  0.00     0.173 A 
ATOM     60  F   UNL     1      -3.023   9.717  -0.778  1.00  0.00    -0.203 F 
ATOM     61  C   UNL     1      -2.474  11.618  -2.053  1.00  0.00     0.198 A 
ATOM     62  C   UNL     1      -0.993  13.280  -1.152  1.00  0.00     0.198 A 
ATOM     63  F   UNL     1      -0.061  12.993   0.990  1.00  0.00    -0.203 F 
ATOM     64  F   UNL     1      -3.225  11.155  -3.062  1.00  0.00    -0.200 F 
ATOM     65  C   UNL     1      -1.794  12.818  -2.187  1.00  0.00     0.200 A 
ATOM     66  F   UNL     1      -0.342  14.444  -1.279  1.00  0.00    -0.200 F 
ATOM     67  F   UNL     1      -1.901  13.526  -3.320  1.00  0.00    -0.200 F 
ENDBRANCH  43  57
BRANCH  44  68
ATOM     68  C   UNL     1      -0.405   5.576   8.220  1.00  0.00     0.064 A 
ATOM     69  C   UNL     1      -1.511   5.016   8.876  1.00  0.00     0.173 A 
ATOM     70  C   UNL     1       0.859   5.388   8.798  1.00  0.00     0.173 A 
ATOM     71  F   UNL     1      -2.744   5.192   8.378  1.00  0.00    -0.203 F 
ATOM     72  C   UNL     1      -1.364   4.337  10.084  1.00  0.00     0.198 A 
ATOM     73  C   UNL     1       1.008   4.683   9.991  1.00  0.00     0.198 A 
ATOM     74  F   UNL     1       1.949   5.905   8.213  1.00  0.00    -0.203 F 
ATOM     75  F   UNL     1      -2.446   3.876  10.727  1.00  0.00    -0.200 F 
ATOM     76  C   UNL     1      -0.105   4.170  10.640  1.00  0.00     0.200 A 
ATOM     77  F   UNL     1       2.227   4.519  10.522  1.00  0.00    -0.200 F 
ATOM     78  F   UNL     1       0.034   3.533  11.811  1.00  0.00    -0.200 F 
ENDBRANCH  44  68
BRANCH  56  79
ATOM     79  C   UNL     1      -3.539  11.688   7.101  1.00  0.00     0.064 A 
ATOM     80  C   UNL     1      -2.912  12.426   8.116  1.00  0.00     0.173 A 
ATOM     81  C   UNL     1      -4.922  11.861   6.926  1.00  0.00     0.173 A 
ATOM     82  F   UNL     1      -1.595  12.289   8.334  1.00  0.00    -0.203 F 
ATOM     83  C   UNL     1      -3.644  13.274   8.944  1.00  0.00     0.198 A 
ATOM     84  C   UNL     1      -5.644  12.735   7.734  1.00  0.00     0.198 A 
ATOM     85  F   UNL     1      -5.572  11.188   5.965  1.00  0.00    -0.203 F 
ATOM     86  F   UNL     1      -3.031  13.924   9.943  1.00  0.00    -0.200 F 
ATOM     87  C   UNL     1      -5.007  13.433   8.748  1.00  0.00     0.200 A 
ATOM     88  F   UNL     1      -6.959  12.899   7.533  1.00  0.00    -0.200 F 
ATOM     89  F   UNL     1      -5.708  14.253   9.543  1.00  0.00    -0.200 F 
ENDBRANCH  56  79
ENDBRANCH  30  31
ENDBRANCH  23  25
ENDBRANCH  22  23
ENDBRANCH   1  22
TORSDOF 12
