REMARK SMILES Cc1cc(OC(F)(F)F)cc2c1O[C@@H](C(F)(F)F)C(C(=O)OCCOC(=O)c1ccc(-c3c4nc(c(-c5c(F)c(F)c(F)c(F)c5F)c5ccc([nH]5)c(-c5c(F)c(F)c(F)c(F)c5F)c5nc(c(-c6c(F)c(F)c(F)c(F)c6F)c6ccc3[nH]6)C=C5)C=C4)cc1)=C2
REMARK SMILES IDX 23 1 22 2 20 3 21 4 19 5 1 6 2 7 3 8 12 9 4 10 11 11 13 12
REMARK SMILES IDX 10 13 91 14 14 15 5 16 6 17 7 18 8 19 9 20 15 21 16 22 17 23
REMARK SMILES IDX 18 24 24 25 25 26 26 27 27 28 28 29 29 30 90 31 30 32 89 33
REMARK SMILES IDX 31 34 32 35 33 36 83 37 34 38 88 39 82 40 84 41 35 42 87 43
REMARK SMILES IDX 81 44 80 45 36 47 68 48 48 49 67 50 49 51 52 52 66 53 85 54
REMARK SMILES IDX 50 55 51 56 65 58 86 59 53 60 37 61 38 62 46 63 39 64 40 65
REMARK SMILES IDX 44 66 47 67 41 68 42 69 45 70 43 71 69 72 70 73 78 74 71 75
REMARK SMILES IDX 72 76 76 77 79 78 73 79 74 80 77 81 75 82 54 83 55 84 63 85
REMARK SMILES IDX 56 86 57 87 61 88 64 89 58 90 59 91 62 92 60 93
REMARK H PARENT 84 46 52 57
REMARK Flexibility Score: inf
ROOT
ATOM      1  C   UNL     1       3.545  -7.459   2.340  1.00  0.00     0.275 C 
ENDROOT
BRANCH   1   2
ATOM      2  O   UNL     1       3.026  -6.151   2.019  1.00  0.00    -0.459 OA
BRANCH   2   3
ATOM      3  C   UNL     1       3.061  -5.803   0.716  1.00  0.00     0.338 C 
ATOM      4  O   UNL     1       3.585  -6.440  -0.184  1.00  0.00    -0.246 OA
BRANCH   3   5
ATOM      5  C   UNL     1       2.289  -4.566   0.488  1.00  0.00     0.087 C 
ATOM      6  C   UNL     1       0.867   0.353   0.299  1.00  0.00     0.048 C 
ATOM      7  C   UNL     1       0.596  -0.877  -0.519  1.00  0.00    -0.005 A 
ATOM      8  C   UNL     1      -0.262  -0.808  -1.635  1.00  0.00     0.054 A 
ATOM      9  C   UNL     1       1.189  -2.101  -0.186  1.00  0.00     0.131 A 
ATOM     10  C   UNL     1      -0.509  -1.937  -2.420  1.00  0.00     0.130 A 
ATOM     11  C   UNL     1       0.967  -3.222  -0.986  1.00  0.00     0.021 A 
ATOM     12  O   UNL     1       2.037  -2.144   0.893  1.00  0.00    -0.475 OA
ATOM     13  C   UNL     1       0.111  -3.142  -2.088  1.00  0.00     0.058 A 
ATOM     14  C   UNL     1       1.696  -4.446  -0.708  1.00  0.00     0.027 C 
ATOM     15  C   UNL     1       2.256  -3.456   1.505  1.00  0.00     0.316 C 
BRANCH  10  16
ATOM     16  O   UNL     1      -1.312  -2.008  -3.522  1.00  0.00    -0.406 OA
BRANCH  16  17
ATOM     17  C   UNL     1      -1.818  -0.796  -4.055  1.00  0.00     0.573 C 
ATOM     18  F   UNL     1      -2.663  -0.201  -3.188  1.00  0.00    -0.132 F 
ATOM     19  F   UNL     1      -0.816   0.054  -4.365  1.00  0.00    -0.132 F 
ATOM     20  F   UNL     1      -2.500  -1.073  -5.188  1.00  0.00    -0.132 F 
ENDBRANCH  16  17
ENDBRANCH  10  16
BRANCH  15  21
ATOM     21  C   UNL     1       1.260  -3.656   2.662  1.00  0.00     0.430 C 
ATOM     22  F   UNL     1       1.641  -4.642   3.505  1.00  0.00    -0.167 F 
ATOM     23  F   UNL     1       1.171  -2.531   3.417  1.00  0.00    -0.167 F 
ATOM     24  F   UNL     1       0.014  -3.946   2.227  1.00  0.00    -0.167 F 
ENDBRANCH  15  21
ENDBRANCH   3   5
ENDBRANCH   2   3
ENDBRANCH   1   2
BRANCH   1  25
ATOM     25  C   UNL     1       2.402  -8.459   2.512  1.00  0.00     0.275 C 
BRANCH  25  26
ATOM     26  O   UNL     1       1.749  -8.680   1.247  1.00  0.00    -0.458 OA
BRANCH  26  27
ATOM     27  C   UNL     1       0.468  -8.257   1.164  1.00  0.00     0.338 C 
ATOM     28  O   UNL     1      -0.203  -7.738   2.039  1.00  0.00    -0.246 OA
BRANCH  27  29
ATOM     29  C   UNL     1      -0.049  -8.492  -0.194  1.00  0.00     0.060 A 
ATOM     30  C   UNL     1       0.547  -7.855  -1.279  1.00  0.00     0.016 A 
ATOM     31  C   UNL     1      -1.217  -9.234  -0.371  1.00  0.00     0.016 A 
ATOM     32  C   UNL     1      -0.080  -7.863  -2.524  1.00  0.00     0.010 A 
ATOM     33  C   UNL     1      -1.789  -9.327  -1.645  1.00  0.00     0.010 A 
ATOM     34  C   UNL     1      -1.253  -8.605  -2.726  1.00  0.00    -0.014 A 
BRANCH  34  35
ATOM     35  C   UNL     1      -1.940  -8.592  -4.048  1.00  0.00     0.031 A 
ATOM     36  C   UNL     1      -3.350  -8.075  -4.166  1.00  0.00     0.074 A 
ATOM     37  C   UNL     1      -1.298  -9.018  -5.154  1.00  0.00     0.049 A 
ATOM     38  N   UNL     1      -4.165  -8.112  -5.191  1.00  0.00    -0.248 NA
ATOM     39  C   UNL     1      -3.925  -7.436  -2.971  1.00  0.00     0.031 C 
ATOM     40  C   UNL     1       0.083  -9.499  -5.199  1.00  0.00     0.029 A 
ATOM     41  N   UNL     1      -1.721  -9.107  -6.459  1.00  0.00    -0.354 N 
ATOM     42  C   UNL     1      -5.355  -7.545  -4.753  1.00  0.00     0.074 A 
ATOM     43  C   UNL     1      -5.164  -7.178  -3.367  1.00  0.00     0.031 C 
ATOM     44  C   UNL     1       0.408  -9.789  -6.468  1.00  0.00     0.029 A 
ATOM     45  C   UNL     1      -0.764  -9.594  -7.316  1.00  0.00     0.049 A 
ATOM     46  H   UNL     1      -2.623  -8.845  -6.752  1.00  0.00     0.167 HD
ATOM     47  C   UNL     1      -6.501  -7.344  -5.447  1.00  0.00     0.037 A 
ATOM     48  C   UNL     1      -0.828  -9.886  -8.629  1.00  0.00     0.037 A 
ATOM     49  C   UNL     1      -6.678  -7.662  -6.840  1.00  0.00     0.049 A 
ATOM     50  C   UNL     1      -2.124  -9.697  -9.365  1.00  0.00     0.074 A 
ATOM     51  C   UNL     1      -7.802  -7.488  -7.629  1.00  0.00     0.029 A 
ATOM     52  N   UNL     1      -5.696  -8.201  -7.657  1.00  0.00    -0.354 N 
ATOM     53  N   UNL     1      -3.261  -9.218  -8.924  1.00  0.00    -0.248 NA
ATOM     54  C   UNL     1      -2.154 -10.111 -10.775  1.00  0.00     0.031 C 
ATOM     55  C   UNL     1      -7.511  -7.949  -8.916  1.00  0.00     0.029 A 
ATOM     56  C   UNL     1      -6.194  -8.377  -8.938  1.00  0.00     0.049 A 
ATOM     57  H   UNL     1      -4.782  -8.426  -7.370  1.00  0.00     0.167 HD
ATOM     58  C   UNL     1      -4.138  -9.269  -9.998  1.00  0.00     0.074 A 
ATOM     59  C   UNL     1      -3.397  -9.804 -11.121  1.00  0.00     0.031 C 
ATOM     60  C   UNL     1      -5.444  -8.912 -10.045  1.00  0.00     0.037 A 
BRANCH  47  61
ATOM     61  C   UNL     1      -7.673  -6.765  -4.711  1.00  0.00     0.064 A 
ATOM     62  C   UNL     1      -7.732  -5.407  -4.370  1.00  0.00     0.173 A 
ATOM     63  C   UNL     1      -8.782  -7.569  -4.405  1.00  0.00     0.173 A 
ATOM     64  F   UNL     1      -6.692  -4.601  -4.631  1.00  0.00    -0.203 F 
ATOM     65  C   UNL     1      -8.854  -4.876  -3.739  1.00  0.00     0.198 A 
ATOM     66  C   UNL     1      -9.912  -7.030  -3.795  1.00  0.00     0.198 A 
ATOM     67  F   UNL     1      -8.778  -8.874  -4.717  1.00  0.00    -0.203 F 
ATOM     68  F   UNL     1      -8.878  -3.580  -3.397  1.00  0.00    -0.200 F 
ATOM     69  C   UNL     1      -9.945  -5.686  -3.460  1.00  0.00     0.200 A 
ATOM     70  F   UNL     1     -10.970  -7.811  -3.538  1.00  0.00    -0.200 F 
ATOM     71  F   UNL     1     -11.030  -5.169  -2.865  1.00  0.00    -0.200 F 
ENDBRANCH  47  61
BRANCH  48  72
ATOM     72  C   UNL     1       0.373 -10.416  -9.324  1.00  0.00     0.064 A 
ATOM     73  C   UNL     1       1.058  -9.638 -10.267  1.00  0.00     0.173 A 
ATOM     74  C   UNL     1       0.873 -11.697  -9.046  1.00  0.00     0.173 A 
ATOM     75  F   UNL     1       0.602  -8.418 -10.586  1.00  0.00    -0.203 F 
ATOM     76  C   UNL     1       2.197 -10.123 -10.906  1.00  0.00     0.198 A 
ATOM     77  C   UNL     1       2.027 -12.169  -9.665  1.00  0.00     0.198 A 
ATOM     78  F   UNL     1       0.251 -12.480  -8.152  1.00  0.00    -0.203 F 
ATOM     79  F   UNL     1       2.817  -9.371 -11.826  1.00  0.00    -0.200 F 
ATOM     80  C   UNL     1       2.687 -11.383 -10.598  1.00  0.00     0.200 A 
ATOM     81  F   UNL     1       2.504 -13.382  -9.353  1.00  0.00    -0.200 F 
ATOM     82  F   UNL     1       3.791 -11.842 -11.202  1.00  0.00    -0.200 F 
ENDBRANCH  48  72
BRANCH  60  83
ATOM     83  C   UNL     1      -6.158  -9.077 -11.352  1.00  0.00     0.064 A 
ATOM     84  C   UNL     1      -6.564 -10.341 -11.804  1.00  0.00     0.173 A 
ATOM     85  C   UNL     1      -6.495  -7.958 -12.127  1.00  0.00     0.173 A 
ATOM     86  F   UNL     1      -6.252 -11.441 -11.102  1.00  0.00    -0.203 F 
ATOM     87  C   UNL     1      -7.274 -10.479 -12.993  1.00  0.00     0.198 A 
ATOM     88  C   UNL     1      -7.224  -8.098 -13.305  1.00  0.00     0.198 A 
ATOM     89  F   UNL     1      -6.133  -6.729 -11.733  1.00  0.00    -0.203 F 
ATOM     90  F   UNL     1      -7.628 -11.698 -13.422  1.00  0.00    -0.200 F 
ATOM     91  C   UNL     1      -7.610  -9.358 -13.738  1.00  0.00     0.200 A 
ATOM     92  F   UNL     1      -7.557  -7.014 -14.019  1.00  0.00    -0.200 F 
ATOM     93  F   UNL     1      -8.303  -9.492 -14.877  1.00  0.00    -0.200 F 
ENDBRANCH  60  83
ENDBRANCH  34  35
ENDBRANCH  27  29
ENDBRANCH  26  27
ENDBRANCH  25  26
ENDBRANCH   1  25
TORSDOF 14
