REMARK SMILES O=C(OCCOC(=O)c1cccc(N2NC(=O)[C@H]3CC=CC[C@H]3C2=O)c1)c1ccc(-c2c3nc(c(-c4c(F)c(F)c(F)c(F)c4F)c4ccc([nH]4)c(-c4c(F)c(F)c(F)c(F)c4F)c4nc(c(-c5c(F)c(F)c(F)c(F)c5F)c5ccc2[nH]5)C=C4)C=C3)cc1
REMARK SMILES IDX 4 1 3 2 2 3 1 4 27 5 28 6 89 7 29 8 88 9 30 10 31 11 32 12
REMARK SMILES IDX 82 13 33 14 87 15 81 16 83 17 34 18 86 19 80 20 79 21 35 23
REMARK SMILES IDX 67 24 47 25 66 26 48 27 51 28 65 29 84 30 49 31 50 32 64 34
REMARK SMILES IDX 85 35 52 36 36 37 37 38 45 39 38 40 39 41 43 42 46 43 40 44
REMARK SMILES IDX 41 45 44 46 42 47 68 48 69 49 77 50 70 51 71 52 75 53 78 54
REMARK SMILES IDX 72 55 73 56 76 57 74 58 53 59 54 60 62 61 55 62 56 63 60 64
REMARK SMILES IDX 63 65 57 66 58 67 61 68 59 69 5 70 6 71 7 72 8 73 9 74 10 75
REMARK SMILES IDX 26 76 11 77 13 78 12 79 14 80 15 81 24 82 16 83 23 85 25 86
REMARK SMILES IDX 17 87 18 88 22 89 19 90 21 91 20 92
REMARK H PARENT 83 22 51 33 15 84
REMARK Flexibility Score: inf
ROOT
ATOM      1  C   UNL     1       4.054   1.194  -1.101  1.00  0.00     0.275 C 
ENDROOT
BRANCH   1   2
ATOM      2  O   UNL     1       2.950   0.273  -1.020  1.00  0.00    -0.458 OA
BRANCH   2   3
ATOM      3  C   UNL     1       2.828  -0.879  -0.320  1.00  0.00     0.338 C 
ATOM      4  O   UNL     1       1.910  -1.649  -0.600  1.00  0.00    -0.246 OA
BRANCH   3   5
ATOM      5  C   UNL     1       3.648  -1.200   0.891  1.00  0.00     0.060 A 
ATOM      6  C   UNL     1       4.972  -0.821   1.108  1.00  0.00     0.016 A 
ATOM      7  C   UNL     1       3.013  -1.964   1.890  1.00  0.00     0.016 A 
ATOM      8  C   UNL     1       5.619  -1.122   2.309  1.00  0.00     0.010 A 
ATOM      9  C   UNL     1       3.647  -2.253   3.103  1.00  0.00     0.010 A 
ATOM     10  C   UNL     1       4.962  -1.834   3.315  1.00  0.00    -0.014 A 
BRANCH  10  11
ATOM     11  C   UNL     1       5.732  -2.268   4.501  1.00  0.00     0.031 A 
ATOM     12  C   UNL     1       6.233  -3.684   4.544  1.00  0.00     0.074 A 
ATOM     13  C   UNL     1       6.082  -1.381   5.452  1.00  0.00     0.049 A 
ATOM     14  N   UNL     1       7.019  -4.259   5.416  1.00  0.00    -0.248 NA
ATOM     15  C   UNL     1       5.830  -4.559   3.429  1.00  0.00     0.031 C 
ATOM     16  C   UNL     1       5.729   0.039   5.466  1.00  0.00     0.029 A 
ATOM     17  N   UNL     1       6.827  -1.545   6.591  1.00  0.00    -0.354 N 
ATOM     18  C   UNL     1       7.253  -5.535   4.922  1.00  0.00     0.074 A 
ATOM     19  C   UNL     1       6.463  -5.684   3.721  1.00  0.00     0.031 C 
ATOM     20  C   UNL     1       6.225   0.609   6.579  1.00  0.00     0.029 A 
ATOM     21  C   UNL     1       6.932  -0.406   7.350  1.00  0.00     0.049 A 
ATOM     22  H   UNL     1       7.248  -2.400   6.841  1.00  0.00     0.167 HD
ATOM     23  C   UNL     1       8.093  -6.480   5.403  1.00  0.00     0.037 A 
ATOM     24  C   UNL     1       7.526  -0.223   8.542  1.00  0.00     0.037 A 
ATOM     25  C   UNL     1       8.834  -6.344   6.627  1.00  0.00     0.049 A 
ATOM     26  C   UNL     1       8.250  -1.374   9.176  1.00  0.00     0.074 A 
ATOM     27  C   UNL     1       9.690  -7.247   7.230  1.00  0.00     0.029 A 
ATOM     28  N   UNL     1       8.785  -5.226   7.448  1.00  0.00    -0.354 N 
ATOM     29  N   UNL     1       8.461  -2.578   8.708  1.00  0.00    -0.248 NA
ATOM     30  C   UNL     1       8.830  -1.127  10.502  1.00  0.00     0.031 C 
ATOM     31  C   UNL     1      10.124  -6.693   8.440  1.00  0.00     0.029 A 
ATOM     32  C   UNL     1       9.578  -5.426   8.566  1.00  0.00     0.049 A 
ATOM     33  H   UNL     1       8.263  -4.412   7.264  1.00  0.00     0.167 HD
ATOM     34  C   UNL     1       9.239  -3.221   9.658  1.00  0.00     0.074 A 
ATOM     35  C   UNL     1       9.444  -2.276  10.738  1.00  0.00     0.031 C 
ATOM     36  C   UNL     1       9.760  -4.471   9.627  1.00  0.00     0.037 A 
BRANCH  23  37
ATOM     37  C   UNL     1       8.248  -7.732   4.592  1.00  0.00     0.064 A 
ATOM     38  C   UNL     1       8.931  -7.720   3.364  1.00  0.00     0.173 A 
ATOM     39  C   UNL     1       7.718  -8.950   5.036  1.00  0.00     0.173 A 
ATOM     40  F   UNL     1       9.440  -6.574   2.885  1.00  0.00    -0.203 F 
ATOM     41  C   UNL     1       9.056  -8.877   2.602  1.00  0.00     0.198 A 
ATOM     42  C   UNL     1       7.866 -10.112   4.282  1.00  0.00     0.198 A 
ATOM     43  F   UNL     1       7.054  -9.015   6.200  1.00  0.00    -0.203 F 
ATOM     44  F   UNL     1       9.671  -8.832   1.412  1.00  0.00    -0.200 F 
ATOM     45  C   UNL     1       8.528 -10.073   3.063  1.00  0.00     0.200 A 
ATOM     46  F   UNL     1       7.360 -11.269   4.731  1.00  0.00    -0.200 F 
ATOM     47  F   UNL     1       8.649 -11.188   2.329  1.00  0.00    -0.200 F 
ENDBRANCH  23  37
BRANCH  24  48
ATOM     48  C   UNL     1       7.438   1.071   9.258  1.00  0.00     0.064 A 
ATOM     49  C   UNL     1       8.503   1.980   9.282  1.00  0.00     0.173 A 
ATOM     50  C   UNL     1       6.310   1.364  10.031  1.00  0.00     0.173 A 
ATOM     51  F   UNL     1       9.628   1.710   8.605  1.00  0.00    -0.203 F 
ATOM     52  C   UNL     1       8.436   3.140  10.053  1.00  0.00     0.198 A 
ATOM     53  C   UNL     1       6.235   2.534  10.784  1.00  0.00     0.198 A 
ATOM     54  F   UNL     1       5.290   0.495  10.078  1.00  0.00    -0.203 F 
ATOM     55  F   UNL     1       9.485   3.973  10.101  1.00  0.00    -0.200 F 
ATOM     56  C   UNL     1       7.300   3.420  10.798  1.00  0.00     0.200 A 
ATOM     57  F   UNL     1       5.140   2.791  11.510  1.00  0.00    -0.200 F 
ATOM     58  F   UNL     1       7.239   4.528  11.547  1.00  0.00    -0.200 F 
ENDBRANCH  24  48
BRANCH  36  59
ATOM     59  C   UNL     1      10.658  -4.846  10.765  1.00  0.00     0.064 A 
ATOM     60  C   UNL     1      10.160  -5.106  12.049  1.00  0.00     0.173 A 
ATOM     61  C   UNL     1      12.044  -4.925  10.562  1.00  0.00     0.173 A 
ATOM     62  F   UNL     1       8.845  -5.012  12.294  1.00  0.00    -0.203 F 
ATOM     63  C   UNL     1      11.024  -5.399  13.100  1.00  0.00     0.198 A 
ATOM     64  C   UNL     1      12.901  -5.250  11.608  1.00  0.00     0.198 A 
ATOM     65  F   UNL     1      12.566  -4.680   9.351  1.00  0.00    -0.203 F 
ATOM     66  F   UNL     1      10.535  -5.579  14.334  1.00  0.00    -0.200 F 
ATOM     67  C   UNL     1      12.391  -5.476  12.877  1.00  0.00     0.200 A 
ATOM     68  F   UNL     1      14.220  -5.330  11.390  1.00  0.00    -0.200 F 
ATOM     69  F   UNL     1      13.221  -5.752  13.892  1.00  0.00    -0.200 F 
ENDBRANCH  36  59
ENDBRANCH  10  11
ENDBRANCH   3   5
ENDBRANCH   2   3
ENDBRANCH   1   2
BRANCH   1  70
ATOM     70  C   UNL     1       4.023   2.326  -0.069  1.00  0.00     0.275 C 
BRANCH  70  71
ATOM     71  O   UNL     1       3.573   1.903   1.227  1.00  0.00    -0.458 OA
BRANCH  71  72
ATOM     72  C   UNL     1       2.248   2.097   1.455  1.00  0.00     0.338 C 
ATOM     73  O   UNL     1       1.452   2.667   0.728  1.00  0.00    -0.246 OA
BRANCH  72  74
ATOM     74  C   UNL     1       1.849   1.357   2.664  1.00  0.00     0.062 A 
ATOM     75  C   UNL     1       0.835   0.405   2.528  1.00  0.00     0.016 A 
ATOM     76  C   UNL     1       2.454   1.585   3.906  1.00  0.00     0.044 A 
ATOM     77  C   UNL     1       0.488  -0.394   3.611  1.00  0.00     0.003 A 
ATOM     78  C   UNL     1       2.074   0.810   5.013  1.00  0.00     0.067 A 
ATOM     79  C   UNL     1       1.123  -0.210   4.838  1.00  0.00     0.028 A 
BRANCH  78  80
ATOM     80  N   UNL     1       2.520   1.130   6.331  1.00  0.00    -0.221 N 
ATOM     81  N   UNL     1       2.498   2.487   6.673  1.00  0.00    -0.260 N 
ATOM     82  C   UNL     1       2.660   0.139   7.307  1.00  0.00     0.249 C 
ATOM     83  C   UNL     1       2.389   2.960   7.949  1.00  0.00     0.243 C 
ATOM     84  H   UNL     1       2.566   3.145   5.944  1.00  0.00     0.192 HD
ATOM     85  C   UNL     1       2.319   0.554   8.721  1.00  0.00     0.097 C 
ATOM     86  O   UNL     1       2.873  -1.050   7.057  1.00  0.00    -0.272 OA
ATOM     87  O   UNL     1       2.186   4.158   8.132  1.00  0.00    -0.273 OA
ATOM     88  C   UNL     1       2.708   1.986   9.056  1.00  0.00     0.097 C 
ATOM     89  C   UNL     1       0.818   0.261   8.889  1.00  0.00     0.041 C 
ATOM     90  C   UNL     1       2.156   2.439  10.418  1.00  0.00     0.041 C 
ATOM     91  C   UNL     1       0.173   0.969  10.033  1.00  0.00    -0.030 C 
ATOM     92  C   UNL     1       0.775   1.944  10.724  1.00  0.00    -0.030 C 
ENDBRANCH  78  80
ENDBRANCH  72  74
ENDBRANCH  71  72
ENDBRANCH  70  71
ENDBRANCH   1  70
TORSDOF 12
