REMARK SMILES COc1ccc2c(CC(=O)OCCOC(=O)c3ccc(-c4c5nc(c(-c6c(F)c(F)c(F)c(F)c6F)c6ccc([nH]6)c(-c6c(F)c(F)c(F)c(F)c6F)c6nc(c(-c7c(F)c(F)c(F)c(F)c7F)c7ccc4[nH]7)C=C6)C=C5)cc3)c(C(=O)c3cc(C)ccn3)[nH]c2c1
REMARK SMILES IDX 12 1 11 2 9 3 10 4 8 5 7 6 3 7 4 8 92 9 5 10 91 11 6 12
REMARK SMILES IDX 90 13 80 14 2 16 1 17 81 18 82 19 83 20 84 21 89 22 85 23
REMARK SMILES IDX 88 24 86 25 87 26 13 27 14 28 15 29 16 30 17 31 18 32 79 33
REMARK SMILES IDX 19 34 78 35 20 36 21 37 22 38 72 39 23 40 77 41 71 42 73 43
REMARK SMILES IDX 24 44 76 45 70 46 69 47 25 49 57 50 37 51 56 52 38 53 41 54
REMARK SMILES IDX 55 55 74 56 39 57 40 58 54 60 75 61 42 62 26 63 27 64 35 65
REMARK SMILES IDX 28 66 29 67 33 68 36 69 30 70 31 71 34 72 32 73 58 74 59 75
REMARK SMILES IDX 67 76 60 77 61 78 65 79 68 80 62 81 63 82 66 83 64 84 43 85
REMARK SMILES IDX 44 86 52 87 45 88 46 89 50 90 53 91 47 92 48 93 51 94 49 95
REMARK H PARENT 90 15 73 48 41 59
REMARK Flexibility Score: inf
ROOT
ATOM      1  C   UNL     1       3.664   8.407  -3.249  1.00  0.00     0.274 C 
ENDROOT
BRANCH   1   2
ATOM      2  O   UNL     1       2.962   7.585  -2.294  1.00  0.00    -0.462 OA
BRANCH   2   3
ATOM      3  C   UNL     1       3.513   7.531  -1.052  1.00  0.00     0.310 C 
ATOM      4  O   UNL     1       4.565   8.087  -0.741  1.00  0.00    -0.252 OA
BRANCH   3   5
ATOM      5  C   UNL     1       2.718   6.748  -0.032  1.00  0.00     0.161 C 
BRANCH   5   6
ATOM      6  C   UNL     1       1.508   6.011  -0.523  1.00  0.00     0.000 A 
ATOM      7  C   UNL     1       0.735   1.957  -1.239  1.00  0.00     0.120 A 
ATOM      8  C   UNL     1       2.075   2.274  -1.033  1.00  0.00     0.047 A 
ATOM      9  C   UNL     1      -0.232   2.957  -1.376  1.00  0.00     0.073 A 
ATOM     10  C   UNL     1       2.468   3.604  -0.856  1.00  0.00     0.014 A 
ATOM     11  C   UNL     1       0.175   4.277  -1.153  1.00  0.00     0.050 A 
ATOM     12  C   UNL     1       1.490   4.620  -0.861  1.00  0.00     0.004 A 
ATOM     13  N   UNL     1      -0.553   5.443  -1.135  1.00  0.00    -0.351 N 
ATOM     14  C   UNL     1       0.181   6.449  -0.543  1.00  0.00     0.093 A 
ATOM     15  H   UNL     1      -1.465   5.545  -1.492  1.00  0.00     0.167 HD
BRANCH   7  16
ATOM     16  O   UNL     1       0.289   0.663  -1.338  1.00  0.00    -0.497 OA
ATOM     17  C   UNL     1       0.750  -0.153  -0.260  1.00  0.00     0.278 C 
ENDBRANCH   7  16
BRANCH  14  18
ATOM     18  C   UNL     1      -0.397   7.652   0.035  1.00  0.00     0.227 C 
ATOM     19  O   UNL     1       0.133   8.278   0.951  1.00  0.00    -0.285 OA
BRANCH  18  20
ATOM     20  C   UNL     1      -1.752   8.081  -0.382  1.00  0.00     0.113 A 
ATOM     21  C   UNL     1      -2.831   7.839   0.461  1.00  0.00     0.036 A 
ATOM     22  N   UNL     1      -1.841   8.729  -1.566  1.00  0.00    -0.253 NA
ATOM     23  C   UNL     1      -4.091   8.295   0.067  1.00  0.00    -0.047 A 
ATOM     24  C   UNL     1      -3.056   9.215  -1.893  1.00  0.00     0.112 A 
ATOM     25  C   UNL     1      -5.309   8.038   0.903  1.00  0.00     0.044 C 
ATOM     26  C   UNL     1      -4.195   9.023  -1.123  1.00  0.00     0.023 A 
ENDBRANCH  18  20
ENDBRANCH  14  18
ENDBRANCH   5   6
ENDBRANCH   3   5
ENDBRANCH   2   3
ENDBRANCH   1   2
BRANCH   1  27
ATOM     27  C   UNL     1       2.989   9.769  -3.390  1.00  0.00     0.275 C 
BRANCH  27  28
ATOM     28  O   UNL     1       2.806  10.353  -2.089  1.00  0.00    -0.458 OA
BRANCH  28  29
ATOM     29  C   UNL     1       1.552  10.774  -1.814  1.00  0.00     0.338 C 
ATOM     30  O   UNL     1       0.607  10.824  -2.591  1.00  0.00    -0.246 OA
BRANCH  29  31
ATOM     31  C   UNL     1       1.460  11.241  -0.416  1.00  0.00     0.060 A 
ATOM     32  C   UNL     1       2.066  10.542   0.627  1.00  0.00     0.016 A 
ATOM     33  C   UNL     1       0.663  12.352  -0.136  1.00  0.00     0.016 A 
ATOM     34  C   UNL     1       1.794  10.891   1.951  1.00  0.00     0.010 A 
ATOM     35  C   UNL     1       0.472  12.761   1.186  1.00  0.00     0.010 A 
ATOM     36  C   UNL     1       1.003  12.012   2.248  1.00  0.00    -0.014 A 
BRANCH  36  37
ATOM     37  C   UNL     1       0.722  12.389   3.661  1.00  0.00     0.031 A 
ATOM     38  C   UNL     1      -0.692  12.438   4.178  1.00  0.00     0.074 A 
ATOM     39  C   UNL     1       1.740  12.694   4.490  1.00  0.00     0.049 A 
ATOM     40  N   UNL     1      -1.138  12.878   5.331  1.00  0.00    -0.248 NA
ATOM     41  C   UNL     1      -1.747  11.946   3.279  1.00  0.00     0.031 C 
ATOM     42  C   UNL     1       3.158  12.674   4.130  1.00  0.00     0.029 A 
ATOM     43  N   UNL     1       1.738  13.072   5.810  1.00  0.00    -0.354 N 
ATOM     44  C   UNL     1      -2.521  12.767   5.272  1.00  0.00     0.074 A 
ATOM     45  C   UNL     1      -2.845  12.220   3.971  1.00  0.00     0.031 C 
ATOM     46  C   UNL     1       3.890  12.976   5.211  1.00  0.00     0.029 A 
ATOM     47  C   UNL     1       2.994  13.282   6.322  1.00  0.00     0.049 A 
ATOM     48  H   UNL     1       0.915  13.182   6.339  1.00  0.00     0.167 HD
ATOM     49  C   UNL     1      -3.436  13.093   6.219  1.00  0.00     0.037 A 
ATOM     50  C   UNL     1       3.387  13.696   7.540  1.00  0.00     0.037 A 
ATOM     51  C   UNL     1      -3.114  13.578   7.537  1.00  0.00     0.049 A 
ATOM     52  C   UNL     1       2.354  14.021   8.579  1.00  0.00     0.074 A 
ATOM     53  C   UNL     1      -3.976  13.914   8.569  1.00  0.00     0.029 A 
ATOM     54  N   UNL     1      -1.827  13.775   8.015  1.00  0.00    -0.354 N 
ATOM     55  N   UNL     1       1.049  13.959   8.495  1.00  0.00    -0.248 NA
ATOM     56  C   UNL     1       2.852  14.490   9.880  1.00  0.00     0.031 C 
ATOM     57  C   UNL     1      -3.211  14.334   9.663  1.00  0.00     0.029 A 
ATOM     58  C   UNL     1      -1.872  14.229   9.324  1.00  0.00     0.049 A 
ATOM     59  H   UNL     1      -1.003  13.616   7.500  1.00  0.00     0.167 HD
ATOM     60  C   UNL     1       0.568  14.376   9.726  1.00  0.00     0.074 A 
ATOM     61  C   UNL     1       1.722  14.665  10.552  1.00  0.00     0.031 C 
ATOM     62  C   UNL     1      -0.717  14.516  10.133  1.00  0.00     0.037 A 
BRANCH  49  63
ATOM     63  C   UNL     1      -4.886  12.958   5.861  1.00  0.00     0.064 A 
ATOM     64  C   UNL     1      -5.518  11.708   5.792  1.00  0.00     0.173 A 
ATOM     65  C   UNL     1      -5.667  14.103   5.641  1.00  0.00     0.173 A 
ATOM     66  F   UNL     1      -4.813  10.583   5.982  1.00  0.00    -0.203 F 
ATOM     67  C   UNL     1      -6.876  11.610   5.499  1.00  0.00     0.198 A 
ATOM     68  C   UNL     1      -7.029  14.002   5.371  1.00  0.00     0.198 A 
ATOM     69  F   UNL     1      -5.112  15.323   5.701  1.00  0.00    -0.203 F 
ATOM     70  F   UNL     1      -7.453  10.403   5.403  1.00  0.00    -0.200 F 
ATOM     71  C   UNL     1      -7.632  12.755   5.297  1.00  0.00     0.200 A 
ATOM     72  F   UNL     1      -7.760  15.110   5.186  1.00  0.00    -0.200 F 
ATOM     73  F   UNL     1      -8.940  12.657   5.024  1.00  0.00    -0.200 F 
ENDBRANCH  49  63
BRANCH  50  74
ATOM     74  C   UNL     1       4.834  13.832   7.835  1.00  0.00     0.064 A 
ATOM     75  C   UNL     1       5.481  12.925   8.684  1.00  0.00     0.173 A 
ATOM     76  C   UNL     1       5.602  14.852   7.256  1.00  0.00     0.173 A 
ATOM     77  F   UNL     1       4.780  11.949   9.280  1.00  0.00    -0.203 F 
ATOM     78  C   UNL     1       6.844  13.037   8.948  1.00  0.00     0.198 A 
ATOM     79  C   UNL     1       6.969  14.948   7.500  1.00  0.00     0.198 A 
ATOM     80  F   UNL     1       5.026  15.743   6.436  1.00  0.00    -0.203 F 
ATOM     81  F   UNL     1       7.434  12.177   9.790  1.00  0.00    -0.200 F 
ATOM     82  C   UNL     1       7.588  14.043   8.350  1.00  0.00     0.200 A 
ATOM     83  F   UNL     1       7.687  15.914   6.911  1.00  0.00    -0.200 F 
ATOM     84  F   UNL     1       8.902  14.144   8.596  1.00  0.00    -0.200 F 
ENDBRANCH  50  74
BRANCH  62  85
ATOM     85  C   UNL     1      -0.935  14.991  11.537  1.00  0.00     0.064 A 
ATOM     86  C   UNL     1      -0.733  16.332  11.893  1.00  0.00     0.173 A 
ATOM     87  C   UNL     1      -1.353  14.098  12.534  1.00  0.00     0.173 A 
ATOM     88  F   UNL     1      -0.316  17.218  10.976  1.00  0.00    -0.203 F 
ATOM     89  C   UNL     1      -0.918  16.758  13.205  1.00  0.00     0.198 A 
ATOM     90  C   UNL     1      -1.558  14.532  13.841  1.00  0.00     0.198 A 
ATOM     91  F   UNL     1      -1.561  12.806  12.241  1.00  0.00    -0.203 F 
ATOM     92  F   UNL     1      -0.677  18.035  13.534  1.00  0.00    -0.200 F 
ATOM     93  C   UNL     1      -1.333  15.859  14.177  1.00  0.00     0.200 A 
ATOM     94  F   UNL     1      -1.963  13.664  14.778  1.00  0.00    -0.200 F 
ATOM     95  F   UNL     1      -1.505  16.270  15.441  1.00  0.00    -0.200 F 
ENDBRANCH  62  85
ENDBRANCH  36  37
ENDBRANCH  29  31
ENDBRANCH  28  29
ENDBRANCH  27  28
ENDBRANCH   1  27
TORSDOF 15
