REMARK SMILES O=C(OCCOC(=O)c1cc(-c2cccc(C(F)(F)F)c2)nc2c(F)cccc12)c1ccc(-c2c3nc(c(-c4c(F)c(F)c(F)c(F)c4F)c4ccc([nH]4)c(-c4c(F)c(F)c(F)c(F)c4F)c4nc(c(-c5c(F)c(F)c(F)c(F)c5F)c5ccc2[nH]5)C=C4)C=C3)cc1
REMARK SMILES IDX 4 1 3 2 2 3 1 4 30 5 31 6 92 7 32 8 91 9 33 10 34 11 35 12
REMARK SMILES IDX 85 13 36 14 90 15 84 16 86 17 37 18 89 19 83 20 82 21 38 23
REMARK SMILES IDX 70 24 50 25 69 26 51 27 54 28 68 29 87 30 52 31 53 32 67 34
REMARK SMILES IDX 88 35 55 36 39 37 40 38 48 39 41 40 42 41 46 42 49 43 43 44
REMARK SMILES IDX 44 45 47 46 45 47 71 48 72 49 80 50 73 51 74 52 78 53 81 54
REMARK SMILES IDX 75 55 76 56 79 57 77 58 56 59 57 60 65 61 58 62 59 63 63 64
REMARK SMILES IDX 66 65 60 66 61 67 64 68 62 69 5 70 6 71 7 72 8 73 9 74 10 75
REMARK SMILES IDX 29 76 11 77 23 78 28 79 22 80 24 81 27 82 25 83 26 84 12 85
REMARK SMILES IDX 13 86 21 87 14 88 16 89 15 90 17 91 18 92 19 93 20 94
REMARK H PARENT 86 22 54 33
REMARK Flexibility Score: inf
ROOT
ATOM      1  C   UNL     1       4.078   1.654  -0.120  1.00  0.00     0.275 C 
ENDROOT
BRANCH   1   2
ATOM      2  O   UNL     1       3.117   0.881  -0.852  1.00  0.00    -0.458 OA
BRANCH   2   3
ATOM      3  C   UNL     1       3.060  -0.454  -1.046  1.00  0.00     0.338 C 
ATOM      4  O   UNL     1       2.169  -0.900  -1.770  1.00  0.00    -0.246 OA
BRANCH   3   5
ATOM      5  C   UNL     1       3.916  -1.447  -0.314  1.00  0.00     0.060 A 
ATOM      6  C   UNL     1       5.157  -1.235   0.282  1.00  0.00     0.016 A 
ATOM      7  C   UNL     1       3.358  -2.726  -0.185  1.00  0.00     0.016 A 
ATOM      8  C   UNL     1       5.765  -2.230   1.057  1.00  0.00     0.010 A 
ATOM      9  C   UNL     1       3.918  -3.703   0.642  1.00  0.00     0.010 A 
ATOM     10  C   UNL     1       5.141  -3.461   1.268  1.00  0.00    -0.014 A 
BRANCH  10  11
ATOM     11  C   UNL     1       5.844  -4.529   2.017  1.00  0.00     0.031 A 
ATOM     12  C   UNL     1       6.340  -5.729   1.264  1.00  0.00     0.074 A 
ATOM     13  C   UNL     1       6.121  -4.390   3.328  1.00  0.00     0.049 A 
ATOM     14  N   UNL     1       7.073  -6.723   1.693  1.00  0.00    -0.248 NA
ATOM     15  C   UNL     1       6.013  -5.800  -0.171  1.00  0.00     0.031 C 
ATOM     16  C   UNL     1       5.782  -3.227   4.144  1.00  0.00     0.029 A 
ATOM     17  N   UNL     1       6.755  -5.231   4.208  1.00  0.00    -0.354 N 
ATOM     18  C   UNL     1       7.355  -7.485   0.571  1.00  0.00     0.074 A 
ATOM     19  C   UNL     1       6.622  -6.917  -0.535  1.00  0.00     0.031 C 
ATOM     20  C   UNL     1       6.163  -3.448   5.413  1.00  0.00     0.029 A 
ATOM     21  C   UNL     1       6.753  -4.773   5.504  1.00  0.00     0.049 A 
ATOM     22  H   UNL     1       7.172  -6.081   3.937  1.00  0.00     0.167 HD
ATOM     23  C   UNL     1       8.214  -8.523   0.459  1.00  0.00     0.037 A 
ATOM     24  C   UNL     1       7.170  -5.362   6.639  1.00  0.00     0.037 A 
ATOM     25  C   UNL     1       8.915  -9.104   1.569  1.00  0.00     0.049 A 
ATOM     26  C   UNL     1       7.934  -6.647   6.527  1.00  0.00     0.074 A 
ATOM     27  C   UNL     1       9.796 -10.168   1.573  1.00  0.00     0.029 A 
ATOM     28  N   UNL     1       8.793  -8.675   2.885  1.00  0.00    -0.354 N 
ATOM     29  N   UNL     1       8.245  -7.326   5.451  1.00  0.00    -0.248 NA
ATOM     30  C   UNL     1       8.468  -7.207   7.774  1.00  0.00     0.031 C 
ATOM     31  C   UNL     1      10.163 -10.421   2.900  1.00  0.00     0.029 A 
ATOM     32  C   UNL     1       9.558  -9.477   3.715  1.00  0.00     0.049 A 
ATOM     33  H   UNL     1       8.244  -7.915   3.183  1.00  0.00     0.167 HD
ATOM     34  C   UNL     1       9.062  -8.359   5.878  1.00  0.00     0.074 A 
ATOM     35  C   UNL     1       9.194  -8.216   7.315  1.00  0.00     0.031 C 
ATOM     36  C   UNL     1       9.670  -9.322   5.143  1.00  0.00     0.037 A 
BRANCH  23  37
ATOM     37  C   UNL     1       8.438  -9.067  -0.919  1.00  0.00     0.064 A 
ATOM     38  C   UNL     1       9.137  -8.327  -1.888  1.00  0.00     0.173 A 
ATOM     39  C   UNL     1       7.945 -10.326  -1.283  1.00  0.00     0.173 A 
ATOM     40  F   UNL     1       9.605  -7.103  -1.597  1.00  0.00    -0.203 F 
ATOM     41  C   UNL     1       9.310  -8.819  -3.179  1.00  0.00     0.198 A 
ATOM     42  C   UNL     1       8.143 -10.827  -2.567  1.00  0.00     0.198 A 
ATOM     43  F   UNL     1       7.262 -11.066  -0.397  1.00  0.00    -0.203 F 
ATOM     44  F   UNL     1       9.931  -8.072  -4.102  1.00  0.00    -0.200 F 
ATOM     45  C   UNL     1       8.818 -10.071  -3.515  1.00  0.00     0.200 A 
ATOM     46  F   UNL     1       7.670 -12.038  -2.891  1.00  0.00    -0.200 F 
ATOM     47  F   UNL     1       8.984 -10.545  -4.757  1.00  0.00    -0.200 F 
ENDBRANCH  23  37
BRANCH  24  48
ATOM     48  C   UNL     1       6.884  -4.757   7.966  1.00  0.00     0.064 A 
ATOM     49  C   UNL     1       7.888  -4.175   8.750  1.00  0.00     0.173 A 
ATOM     50  C   UNL     1       5.589  -4.811   8.504  1.00  0.00     0.173 A 
ATOM     51  F   UNL     1       9.147  -4.120   8.291  1.00  0.00    -0.203 F 
ATOM     52  C   UNL     1       7.615  -3.695  10.031  1.00  0.00     0.198 A 
ATOM     53  C   UNL     1       5.311  -4.309   9.774  1.00  0.00     0.198 A 
ATOM     54  F   UNL     1       4.592  -5.360   7.797  1.00  0.00    -0.203 F 
ATOM     55  F   UNL     1       8.604  -3.190  10.780  1.00  0.00    -0.200 F 
ATOM     56  C   UNL     1       6.327  -3.762  10.542  1.00  0.00     0.200 A 
ATOM     57  F   UNL     1       4.062  -4.363  10.256  1.00  0.00    -0.200 F 
ATOM     58  F   UNL     1       6.067  -3.307  11.775  1.00  0.00    -0.200 F 
ENDBRANCH  24  48
BRANCH  36  59
ATOM     59  C   UNL     1      10.570 -10.262   5.884  1.00  0.00     0.064 A 
ATOM     60  C   UNL     1      10.068 -11.208   6.789  1.00  0.00     0.173 A 
ATOM     61  C   UNL     1      11.958 -10.210   5.686  1.00  0.00     0.173 A 
ATOM     62  F   UNL     1       8.749 -11.280   7.029  1.00  0.00    -0.203 F 
ATOM     63  C   UNL     1      10.926 -12.039   7.501  1.00  0.00     0.198 A 
ATOM     64  C   UNL     1      12.810 -11.071   6.368  1.00  0.00     0.198 A 
ATOM     65  F   UNL     1      12.488  -9.325   4.829  1.00  0.00    -0.203 F 
ATOM     66  F   UNL     1      10.431 -12.883   8.416  1.00  0.00    -0.200 F 
ATOM     67  C   UNL     1      12.295 -11.975   7.285  1.00  0.00     0.200 A 
ATOM     68  F   UNL     1      14.131 -11.018   6.147  1.00  0.00    -0.200 F 
ATOM     69  F   UNL     1      13.120 -12.777   7.971  1.00  0.00    -0.200 F 
ENDBRANCH  36  59
ENDBRANCH  10  11
ENDBRANCH   3   5
ENDBRANCH   2   3
ENDBRANCH   1   2
BRANCH   1  70
ATOM     70  C   UNL     1       3.823   1.723   1.390  1.00  0.00     0.275 C 
BRANCH  70  71
ATOM     71  O   UNL     1       3.425   0.470   1.976  1.00  0.00    -0.458 OA
BRANCH  71  72
ATOM     72  C   UNL     1       2.089   0.297   2.155  1.00  0.00     0.339 C 
ATOM     73  O   UNL     1       1.208   1.100   1.887  1.00  0.00    -0.246 OA
BRANCH  72  74
ATOM     74  C   UNL     1       1.812  -1.073   2.635  1.00  0.00     0.071 A 
ATOM     75  C   UNL     1       0.988  -1.867   1.827  1.00  0.00     0.045 A 
ATOM     76  C   UNL     1       2.293  -1.551   3.875  1.00  0.00     0.018 A 
ATOM     77  C   UNL     1       0.725  -3.165   2.227  1.00  0.00     0.072 A 
ATOM     78  C   UNL     1       1.964  -2.884   4.195  1.00  0.00     0.107 A 
ATOM     79  C   UNL     1       3.030  -0.777   4.813  1.00  0.00     0.011 A 
ATOM     80  N   UNL     1       1.226  -3.663   3.378  1.00  0.00    -0.245 NA
ATOM     81  C   UNL     1       2.394  -3.390   5.420  1.00  0.00     0.149 A 
ATOM     82  C   UNL     1       3.410  -1.304   6.047  1.00  0.00     0.004 A 
ATOM     83  F   UNL     1       2.127  -4.665   5.747  1.00  0.00    -0.205 F 
ATOM     84  C   UNL     1       3.084  -2.617   6.351  1.00  0.00     0.041 A 
BRANCH  77  85
ATOM     85  C   UNL     1      -0.153  -4.088   1.490  1.00  0.00     0.001 A 
ATOM     86  C   UNL     1       0.143  -4.554   0.201  1.00  0.00     0.010 A 
ATOM     87  C   UNL     1      -1.327  -4.566   2.093  1.00  0.00     0.023 A 
ATOM     88  C   UNL     1      -0.700  -5.436  -0.478  1.00  0.00     0.001 A 
ATOM     89  C   UNL     1      -2.191  -5.453   1.424  1.00  0.00     0.056 A 
ATOM     90  C   UNL     1      -1.868  -5.876   0.128  1.00  0.00     0.013 A 
BRANCH  89  91
ATOM     91  C   UNL     1      -3.462  -5.934   2.072  1.00  0.00     0.416 C 
ATOM     92  F   UNL     1      -4.571  -5.431   1.462  1.00  0.00    -0.166 F 
ATOM     93  F   UNL     1      -3.593  -7.289   2.025  1.00  0.00    -0.166 F 
ATOM     94  F   UNL     1      -3.572  -5.593   3.386  1.00  0.00    -0.166 F 
ENDBRANCH  89  91
ENDBRANCH  77  85
ENDBRANCH  72  74
ENDBRANCH  71  72
ENDBRANCH  70  71
ENDBRANCH   1  70
TORSDOF 13
