REMARK SMILES CC1(C)[C@H]2CC[C@]1(C)C(=O)N(CC(=O)OCCOC(=O)c1ccc(-c3c4nc(c(-c5c(F)c(F)c(F)c(F)c5F)c5ccc([nH]5)c(-c5c(F)c(F)c(F)c(F)c5F)c5nc(c(-c6c(F)c(F)c(F)c(F)c6F)c6ccc3[nH]6)C=C5)C=C4)cc1)C2=O
REMARK SMILES IDX 17 1 16 2 15 3 13 4 14 5 12 6 11 7 1 8 2 9 4 10 7 11 3 12
REMARK SMILES IDX 5 13 84 14 6 15 9 16 8 17 85 18 10 19 18 20 19 21 20 22
REMARK SMILES IDX 21 23 22 24 83 25 23 26 82 27 24 28 25 29 26 30 76 31 27 32
REMARK SMILES IDX 81 33 75 34 77 35 28 36 80 37 74 38 73 39 29 41 61 42 41 43
REMARK SMILES IDX 60 44 42 45 45 46 59 47 78 48 43 49 44 50 58 52 79 53 46 54
REMARK SMILES IDX 30 55 31 56 39 57 32 58 33 59 37 60 40 61 34 62 35 63 38 64
REMARK SMILES IDX 36 65 62 66 63 67 71 68 64 69 65 70 69 71 72 72 66 73 67 74
REMARK SMILES IDX 70 75 68 76 47 77 48 78 56 79 49 80 50 81 54 82 57 83 51 84
REMARK SMILES IDX 52 85 55 86 53 87
REMARK H PARENT 77 40 45 51
REMARK Flexibility Score: inf
ROOT
ATOM      1  C   UNL     1      -4.038  -3.907  -6.409  1.00  0.00     0.275 C 
ENDROOT
BRANCH   1   2
ATOM      2  C   UNL     1      -2.591  -4.333  -6.159  1.00  0.00     0.274 C 
BRANCH   2   3
ATOM      3  O   UNL     1      -1.880  -3.385  -5.332  1.00  0.00    -0.461 OA
BRANCH   3   4
ATOM      4  C   UNL     1      -1.148  -2.442  -5.989  1.00  0.00     0.326 C 
ATOM      5  O   UNL     1      -1.049  -2.372  -7.211  1.00  0.00    -0.250 OA
BRANCH   4   6
ATOM      6  C   UNL     1      -0.485  -1.412  -5.068  1.00  0.00     0.251 C 
BRANCH   6   7
ATOM      7  N   UNL     1      -0.570  -1.699  -3.647  1.00  0.00    -0.271 N 
ATOM      8  C   UNL     1      -0.743   0.002  -0.786  1.00  0.00     0.013 C 
ATOM      9  C   UNL     1      -0.748  -1.540  -0.760  1.00  0.00    -0.010 C 
ATOM     10  C   UNL     1       0.451  -2.193  -1.481  1.00  0.00     0.086 C 
ATOM     11  C   UNL     1      -1.882  -2.184  -1.601  1.00  0.00     0.053 C 
ATOM     12  C   UNL     1      -0.743  -1.956   0.733  1.00  0.00     0.013 C 
ATOM     13  C   UNL     1       0.066  -3.679  -1.602  1.00  0.00     0.015 C 
ATOM     14  C   UNL     1       0.602  -1.697  -2.908  1.00  0.00     0.233 C 
ATOM     15  C   UNL     1      -1.469  -3.676  -1.690  1.00  0.00     0.018 C 
ATOM     16  C   UNL     1      -1.816  -1.602  -3.034  1.00  0.00     0.236 C 
ATOM     17  C   UNL     1      -3.298  -2.041  -1.045  1.00  0.00     0.022 C 
ATOM     18  O   UNL     1       1.693  -1.343  -3.347  1.00  0.00    -0.274 OA
ATOM     19  O   UNL     1      -2.760  -1.031  -3.573  1.00  0.00    -0.274 OA
ENDBRANCH   6   7
ENDBRANCH   4   6
ENDBRANCH   3   4
ENDBRANCH   2   3
ENDBRANCH   1   2
BRANCH   1  20
ATOM     20  O   UNL     1      -4.064  -2.639  -7.083  1.00  0.00    -0.458 OA
BRANCH  20  21
ATOM     21  C   UNL     1      -4.652  -1.631  -6.399  1.00  0.00     0.338 C 
ATOM     22  O   UNL     1      -5.251  -1.693  -5.342  1.00  0.00    -0.246 OA
BRANCH  21  23
ATOM     23  C   UNL     1      -4.482  -0.381  -7.153  1.00  0.00     0.060 A 
ATOM     24  C   UNL     1      -3.266   0.297  -7.097  1.00  0.00     0.016 A 
ATOM     25  C   UNL     1      -5.569   0.177  -7.822  1.00  0.00     0.016 A 
ATOM     26  C   UNL     1      -3.136   1.560  -7.664  1.00  0.00     0.010 A 
ATOM     27  C   UNL     1      -5.426   1.422  -8.440  1.00  0.00     0.010 A 
ATOM     28  C   UNL     1      -4.217   2.135  -8.342  1.00  0.00    -0.014 A 
BRANCH  28  29
ATOM     29  C   UNL     1      -4.090   3.503  -8.900  1.00  0.00     0.031 A 
ATOM     30  C   UNL     1      -4.892   4.629  -8.313  1.00  0.00     0.074 A 
ATOM     31  C   UNL     1      -3.234   3.736  -9.913  1.00  0.00     0.049 A 
ATOM     32  N   UNL     1      -4.997   5.871  -8.714  1.00  0.00    -0.248 NA
ATOM     33  C   UNL     1      -5.688   4.314  -7.117  1.00  0.00     0.031 C 
ATOM     34  C   UNL     1      -2.367   2.733 -10.532  1.00  0.00     0.029 A 
ATOM     35  N   UNL     1      -2.951   4.891 -10.598  1.00  0.00    -0.354 N 
ATOM     36  C   UNL     1      -5.894   6.475  -7.843  1.00  0.00     0.074 A 
ATOM     37  C   UNL     1      -6.319   5.460  -6.902  1.00  0.00     0.031 C 
ATOM     38  C   UNL     1      -1.636   3.318 -11.493  1.00  0.00     0.029 A 
ATOM     39  C   UNL     1      -2.028   4.720 -11.600  1.00  0.00     0.049 A 
ATOM     40  H   UNL     1      -3.369   5.758 -10.391  1.00  0.00     0.167 HD
ATOM     41  C   UNL     1      -6.318   7.762  -7.829  1.00  0.00     0.037 A 
ATOM     42  C   UNL     1      -1.573   5.589 -12.521  1.00  0.00     0.037 A 
ATOM     43  C   UNL     1      -5.869   8.771  -8.755  1.00  0.00     0.049 A 
ATOM     44  C   UNL     1      -2.099   6.998 -12.515  1.00  0.00     0.074 A 
ATOM     45  C   UNL     1      -6.228  10.105  -8.822  1.00  0.00     0.029 A 
ATOM     46  N   UNL     1      -4.957   8.552  -9.778  1.00  0.00    -0.354 N 
ATOM     47  N   UNL     1      -2.959   7.558 -11.700  1.00  0.00    -0.248 NA
ATOM     48  C   UNL     1      -1.592   7.894 -13.562  1.00  0.00     0.031 C 
ATOM     49  C   UNL     1      -5.570  10.683  -9.913  1.00  0.00     0.029 A 
ATOM     50  C   UNL     1      -4.756   9.723 -10.494  1.00  0.00     0.049 A 
ATOM     51  H   UNL     1      -4.516   7.692  -9.968  1.00  0.00     0.167 HD
ATOM     52  C   UNL     1      -3.082   8.875 -12.120  1.00  0.00     0.074 A 
ATOM     53  C   UNL     1      -2.190   9.035 -13.250  1.00  0.00     0.031 C 
ATOM     54  C   UNL     1      -3.863   9.863 -11.617  1.00  0.00     0.037 A 
BRANCH  41  55
ATOM     55  C   UNL     1      -7.345   8.142  -6.801  1.00  0.00     0.064 A 
ATOM     56  C   UNL     1      -7.036   8.223  -5.435  1.00  0.00     0.173 A 
ATOM     57  C   UNL     1      -8.658   8.446  -7.193  1.00  0.00     0.173 A 
ATOM     58  F   UNL     1      -5.800   7.930  -5.004  1.00  0.00    -0.203 F 
ATOM     59  C   UNL     1      -8.009   8.564  -4.498  1.00  0.00     0.198 A 
ATOM     60  C   UNL     1      -9.620   8.817  -6.257  1.00  0.00     0.198 A 
ATOM     61  F   UNL     1      -9.008   8.390  -8.487  1.00  0.00    -0.203 F 
ATOM     62  F   UNL     1      -7.703   8.584  -3.193  1.00  0.00    -0.200 F 
ATOM     63  C   UNL     1      -9.298   8.866  -4.910  1.00  0.00     0.200 A 
ATOM     64  F   UNL     1     -10.862   9.122  -6.660  1.00  0.00    -0.200 F 
ATOM     65  F   UNL     1     -10.232   9.197  -4.008  1.00  0.00    -0.200 F 
ENDBRANCH  41  55
BRANCH  42  66
ATOM     66  C   UNL     1      -0.580   5.144 -13.533  1.00  0.00     0.064 A 
ATOM     67  C   UNL     1       0.731   5.638 -13.523  1.00  0.00     0.173 A 
ATOM     68  C   UNL     1      -0.919   4.213 -14.527  1.00  0.00     0.173 A 
ATOM     69  F   UNL     1       1.097   6.547 -12.608  1.00  0.00    -0.203 F 
ATOM     70  C   UNL     1       1.661   5.230 -14.477  1.00  0.00     0.198 A 
ATOM     71  C   UNL     1       0.020   3.783 -15.461  1.00  0.00     0.198 A 
ATOM     72  F   UNL     1      -2.161   3.710 -14.581  1.00  0.00    -0.203 F 
ATOM     73  F   UNL     1       2.895   5.752 -14.473  1.00  0.00    -0.200 F 
ATOM     74  C   UNL     1       1.307   4.297 -15.441  1.00  0.00     0.200 A 
ATOM     75  F   UNL     1      -0.323   2.871 -16.381  1.00  0.00    -0.200 F 
ATOM     76  F   UNL     1       2.204   3.900 -16.354  1.00  0.00    -0.200 F 
ENDBRANCH  42  66
BRANCH  54  77
ATOM     77  C   UNL     1      -3.758  11.211 -12.268  1.00  0.00     0.064 A 
ATOM     78  C   UNL     1      -4.265  11.452 -13.553  1.00  0.00     0.173 A 
ATOM     79  C   UNL     1      -3.153  12.281 -11.589  1.00  0.00     0.173 A 
ATOM     80  F   UNL     1      -4.838  10.459 -14.250  1.00  0.00    -0.203 F 
ATOM     81  C   UNL     1      -4.140  12.704 -14.149  1.00  0.00     0.198 A 
ATOM     82  C   UNL     1      -3.059  13.540 -12.175  1.00  0.00     0.198 A 
ATOM     83  F   UNL     1      -2.657  12.105 -10.355  1.00  0.00    -0.203 F 
ATOM     84  F   UNL     1      -4.579  12.896 -15.400  1.00  0.00    -0.200 F 
ATOM     85  C   UNL     1      -3.543  13.748 -13.457  1.00  0.00     0.200 A 
ATOM     86  F   UNL     1      -2.493  14.550 -11.501  1.00  0.00    -0.200 F 
ATOM     87  F   UNL     1      -3.424  14.953 -14.032  1.00  0.00    -0.200 F 
ENDBRANCH  54  77
ENDBRANCH  28  29
ENDBRANCH  21  23
ENDBRANCH  20  21
ENDBRANCH   1  20
TORSDOF 12
