REMARK SMILES CC1=C(C(=O)OCCOC(=O)c2ccc(-c3c4nc(c(-c5c(F)c(F)c(F)c(F)c5F)c5ccc([nH]5)c(-c5c(F)c(F)c(F)c(F)c5F)c5nc(c(-c6c(F)c(F)c(F)c(F)c6F)c6ccc3[nH]6)C=C5)C=C4)cc2)[C@H](c2ccc(Cl)cc2)n2ncnc2N1
REMARK SMILES IDX 8 1 7 2 6 3 4 4 5 5 3 6 1 7 2 8 88 9 75 10 87 11 83 13 86 14
REMARK SMILES IDX 84 15 85 16 76 17 77 18 82 19 78 20 81 21 79 22 80 23 9 24
REMARK SMILES IDX 10 25 11 26 12 27 13 28 74 29 14 30 73 31 15 32 16 33 17 34
REMARK SMILES IDX 67 35 18 36 72 37 66 38 68 39 19 40 71 41 65 42 64 43 20 45
REMARK SMILES IDX 52 46 32 47 51 48 33 49 36 50 50 51 69 52 34 53 35 54 49 56
REMARK SMILES IDX 70 57 37 58 21 59 22 60 30 61 23 62 24 63 28 64 31 65 25 66
REMARK SMILES IDX 26 67 29 68 27 69 53 70 54 71 62 72 55 73 56 74 60 75 63 76
REMARK SMILES IDX 57 77 58 78 61 79 59 80 38 81 39 82 47 83 40 84 41 85 45 86
REMARK SMILES IDX 48 87 42 88 43 89 46 90 44 91
REMARK H PARENT 88 12 68 44 36 55
REMARK Flexibility Score: inf
ROOT
ATOM      1  C   UNL     1       2.839   1.685  -3.211  1.00  0.00     0.275 C 
ENDROOT
BRANCH   1   2
ATOM      2  C   UNL     1       3.346   0.793  -2.089  1.00  0.00     0.275 C 
BRANCH   2   3
ATOM      3  O   UNL     1       2.417   0.780  -0.991  1.00  0.00    -0.459 OA
BRANCH   3   4
ATOM      4  C   UNL     1       2.627   1.702  -0.011  1.00  0.00     0.338 C 
ATOM      5  O   UNL     1       3.591   2.435   0.022  1.00  0.00    -0.246 OA
BRANCH   4   6
ATOM      6  C   UNL     1       1.454   1.823   0.910  1.00  0.00     0.085 C 
ATOM      7  C   UNL     1       0.607  -0.541   0.488  1.00  0.00     0.065 C 
ATOM      8  C   UNL     1       0.525   0.845   1.082  1.00  0.00     0.028 C 
ATOM      9  N   UNL     1      -0.628   1.096   1.816  1.00  0.00    -0.328 N 
ATOM     10  C   UNL     1       1.253   3.222   1.535  1.00  0.00     0.181 C 
ATOM     11  C   UNL     1      -0.977   2.318   2.248  1.00  0.00     0.226 A 
ATOM     12  H   UNL     1      -1.219   0.339   2.031  1.00  0.00     0.169 HD
ATOM     13  N   UNL     1      -0.123   3.368   2.047  1.00  0.00    -0.219 N 
ATOM     14  N   UNL     1      -2.051   2.735   2.868  1.00  0.00    -0.200 NA
ATOM     15  N   UNL     1      -0.664   4.526   2.493  1.00  0.00    -0.157 NA
ATOM     16  C   UNL     1      -1.821   4.079   2.999  1.00  0.00     0.248 A 
BRANCH  10  17
ATOM     17  C   UNL     1       2.276   3.569   2.634  1.00  0.00    -0.018 A 
ATOM     18  C   UNL     1       2.038   3.333   4.001  1.00  0.00     0.008 A 
ATOM     19  C   UNL     1       3.519   4.128   2.280  1.00  0.00     0.008 A 
ATOM     20  C   UNL     1       3.018   3.604   4.962  1.00  0.00     0.021 A 
ATOM     21  C   UNL     1       4.520   4.343   3.231  1.00  0.00     0.021 A 
ATOM     22  C   UNL     1       4.266   4.077   4.570  1.00  0.00     0.041 A 
ATOM     23  Cl  UNL     1       5.498   4.329   5.742  1.00  0.00    -0.084 Cl
ENDBRANCH  10  17
ENDBRANCH   4   6
ENDBRANCH   3   4
ENDBRANCH   2   3
ENDBRANCH   1   2
BRANCH   1  24
ATOM     24  O   UNL     1       2.909   3.065  -2.850  1.00  0.00    -0.458 OA
BRANCH  24  25
ATOM     25  C   UNL     1       1.790   3.581  -2.301  1.00  0.00     0.338 C 
ATOM     26  O   UNL     1       0.856   2.972  -1.802  1.00  0.00    -0.246 OA
BRANCH  25  27
ATOM     27  C   UNL     1       1.727   5.012  -2.605  1.00  0.00     0.060 A 
ATOM     28  C   UNL     1       0.575   5.694  -2.200  1.00  0.00     0.016 A 
ATOM     29  C   UNL     1       2.629   5.558  -3.529  1.00  0.00     0.016 A 
ATOM     30  C   UNL     1       0.225   6.843  -2.874  1.00  0.00     0.010 A 
ATOM     31  C   UNL     1       2.270   6.693  -4.212  1.00  0.00     0.010 A 
ATOM     32  C   UNL     1       1.036   7.273  -3.929  1.00  0.00    -0.014 A 
BRANCH  32  33
ATOM     33  C   UNL     1       0.592   8.409  -4.705  1.00  0.00     0.031 A 
ATOM     34  C   UNL     1       0.717   9.701  -3.994  1.00  0.00     0.074 A 
ATOM     35  C   UNL     1       0.242   8.287  -5.998  1.00  0.00     0.049 A 
ATOM     36  N   UNL     1      -0.209  10.561  -3.728  1.00  0.00    -0.248 NA
ATOM     37  C   UNL     1       2.027  10.017  -3.399  1.00  0.00     0.031 C 
ATOM     38  C   UNL     1       0.376   7.117  -6.871  1.00  0.00     0.029 A 
ATOM     39  N   UNL     1      -0.215   9.248  -6.841  1.00  0.00    -0.354 N 
ATOM     40  C   UNL     1       0.431  11.607  -3.071  1.00  0.00     0.074 A 
ATOM     41  C   UNL     1       1.762  11.156  -2.763  1.00  0.00     0.031 C 
ATOM     42  C   UNL     1       0.223   7.505  -8.158  1.00  0.00     0.029 A 
ATOM     43  C   UNL     1      -0.138   8.913  -8.183  1.00  0.00     0.049 A 
ATOM     44  H   UNL     1      -0.571  10.110  -6.526  1.00  0.00     0.167 HD
ATOM     45  C   UNL     1      -0.106  12.854  -3.035  1.00  0.00     0.037 A 
ATOM     46  C   UNL     1      -0.275   9.770  -9.225  1.00  0.00     0.037 A 
ATOM     47  C   UNL     1      -1.526  12.824  -3.264  1.00  0.00     0.049 A 
ATOM     48  C   UNL     1      -0.949  10.992  -8.713  1.00  0.00     0.074 A 
ATOM     49  C   UNL     1      -2.590  12.234  -2.609  1.00  0.00     0.029 A 
ATOM     50  N   UNL     1      -1.998  13.159  -4.508  1.00  0.00    -0.354 N 
ATOM     51  N   UNL     1      -2.191  11.030  -8.316  1.00  0.00    -0.248 NA
ATOM     52  C   UNL     1      -0.106  12.074  -8.223  1.00  0.00     0.031 C 
ATOM     53  C   UNL     1      -3.472  11.807  -3.644  1.00  0.00     0.029 A 
ATOM     54  C   UNL     1      -2.918  12.204  -4.861  1.00  0.00     0.049 A 
ATOM     55  H   UNL     1      -1.728  13.938  -5.045  1.00  0.00     0.167 HD
ATOM     56  C   UNL     1      -2.186  11.872  -7.213  1.00  0.00     0.074 A 
ATOM     57  C   UNL     1      -0.896  12.555  -7.260  1.00  0.00     0.031 C 
ATOM     58  C   UNL     1      -3.102  11.728  -6.212  1.00  0.00     0.037 A 
BRANCH  45  59
ATOM     59  C   UNL     1       0.723  14.107  -3.138  1.00  0.00     0.064 A 
ATOM     60  C   UNL     1       0.115  15.357  -2.923  1.00  0.00     0.173 A 
ATOM     61  C   UNL     1       2.012  14.146  -3.717  1.00  0.00     0.173 A 
ATOM     62  F   UNL     1      -1.121  15.436  -2.409  1.00  0.00    -0.203 F 
ATOM     63  C   UNL     1       0.729  16.550  -3.314  1.00  0.00     0.198 A 
ATOM     64  C   UNL     1       2.645  15.340  -4.052  1.00  0.00     0.198 A 
ATOM     65  F   UNL     1       2.664  13.037  -4.087  1.00  0.00    -0.203 F 
ATOM     66  F   UNL     1       0.063  17.707  -3.203  1.00  0.00    -0.200 F 
ATOM     67  C   UNL     1       1.991  16.540  -3.880  1.00  0.00     0.200 A 
ATOM     68  F   UNL     1       3.859  15.305  -4.619  1.00  0.00    -0.200 F 
ATOM     69  F   UNL     1       2.556  17.676  -4.309  1.00  0.00    -0.200 F 
ENDBRANCH  45  59
BRANCH  46  70
ATOM     70  C   UNL     1       0.436   9.741 -10.525  1.00  0.00     0.064 A 
ATOM     71  C   UNL     1      -0.024  10.493 -11.617  1.00  0.00     0.173 A 
ATOM     72  C   UNL     1       1.727   9.189 -10.644  1.00  0.00     0.173 A 
ATOM     73  F   UNL     1      -1.223  11.092 -11.566  1.00  0.00    -0.203 F 
ATOM     74  C   UNL     1       0.770  10.701 -12.750  1.00  0.00     0.198 A 
ATOM     75  C   UNL     1       2.514   9.387 -11.779  1.00  0.00     0.198 A 
ATOM     76  F   UNL     1       2.291   8.526  -9.624  1.00  0.00    -0.203 F 
ATOM     77  F   UNL     1       0.323  11.477 -13.747  1.00  0.00    -0.200 F 
ATOM     78  C   UNL     1       2.041  10.155 -12.826  1.00  0.00     0.200 A 
ATOM     79  F   UNL     1       3.755   8.883 -11.822  1.00  0.00    -0.200 F 
ATOM     80  F   UNL     1       2.825  10.402 -13.885  1.00  0.00    -0.200 F 
ENDBRANCH  46  70
BRANCH  58  81
ATOM     81  C   UNL     1      -4.260  10.799  -6.455  1.00  0.00     0.064 A 
ATOM     82  C   UNL     1      -4.122   9.417  -6.676  1.00  0.00     0.173 A 
ATOM     83  C   UNL     1      -5.561  11.300  -6.321  1.00  0.00     0.173 A 
ATOM     84  F   UNL     1      -2.914   8.841  -6.708  1.00  0.00    -0.203 F 
ATOM     85  C   UNL     1      -5.234   8.589  -6.809  1.00  0.00     0.198 A 
ATOM     86  C   UNL     1      -6.671  10.464  -6.415  1.00  0.00     0.198 A 
ATOM     87  F   UNL     1      -5.756  12.600  -6.050  1.00  0.00    -0.203 F 
ATOM     88  F   UNL     1      -5.073   7.277  -7.037  1.00  0.00    -0.200 F 
ATOM     89  C   UNL     1      -6.508   9.112  -6.672  1.00  0.00     0.200 A 
ATOM     90  F   UNL     1      -7.900  10.966  -6.231  1.00  0.00    -0.200 F 
ATOM     91  F   UNL     1      -7.579   8.310  -6.759  1.00  0.00    -0.200 F 
ENDBRANCH  58  81
ENDBRANCH  32  33
ENDBRANCH  25  27
ENDBRANCH  24  25
ENDBRANCH   1  24
TORSDOF 12
