REMARK SMILES O=C(OCCOC(=O)[C@@H]1CCC[C@@H](C(=O)N2CCN3C(=O)NC[C@@H]3C2)C1)c1ccc(-c2c3nc(c(-c4c(F)c(F)c(F)c(F)c4F)c4ccc([nH]4)c(-c4c(F)c(F)c(F)c(F)c4F)c4nc(c(-c5c(F)c(F)c(F)c(F)c5F)c5ccc2[nH]5)C=C4)C=C3)cc1
REMARK SMILES IDX 4 1 3 2 2 3 1 4 27 5 28 6 89 7 29 8 88 9 30 10 31 11 32 12
REMARK SMILES IDX 82 13 33 14 87 15 81 16 83 17 34 18 86 19 80 20 79 21 35 23
REMARK SMILES IDX 67 24 47 25 66 26 48 27 51 28 65 29 84 30 49 31 50 32 64 34
REMARK SMILES IDX 85 35 52 36 36 37 37 38 45 39 38 40 39 41 43 42 46 43 40 44
REMARK SMILES IDX 41 45 44 46 42 47 68 48 69 49 77 50 70 51 71 52 75 53 78 54
REMARK SMILES IDX 72 55 73 56 76 57 74 58 53 59 54 60 62 61 55 62 56 63 60 64
REMARK SMILES IDX 63 65 57 66 58 67 61 68 59 69 5 70 6 71 7 72 8 73 9 74 10 75
REMARK SMILES IDX 26 76 11 77 13 78 12 79 14 80 15 81 16 82 17 83 25 84 18 85
REMARK SMILES IDX 24 86 19 87 23 88 20 89 22 90 21 91
REMARK H PARENT 83 22 51 33 22 92
REMARK Flexibility Score: inf
ROOT
ATOM      1  C   UNL     1       4.067   0.390  -1.660  1.00  0.00     0.275 C 
ENDROOT
BRANCH   1   2
ATOM      2  O   UNL     1       3.121  -0.550  -1.145  1.00  0.00    -0.458 OA
BRANCH   2   3
ATOM      3  C   UNL     1       3.089  -1.146   0.065  1.00  0.00     0.338 C 
ATOM      4  O   UNL     1       2.132  -1.881   0.314  1.00  0.00    -0.246 OA
BRANCH   3   5
ATOM      5  C   UNL     1       4.066  -0.880   1.181  1.00  0.00     0.060 A 
ATOM      6  C   UNL     1       5.253  -0.139   1.143  1.00  0.00     0.016 A 
ATOM      7  C   UNL     1       3.642  -1.331   2.437  1.00  0.00     0.016 A 
ATOM      8  C   UNL     1       5.900   0.277   2.317  1.00  0.00     0.010 A 
ATOM      9  C   UNL     1       4.229  -0.853   3.607  1.00  0.00     0.010 A 
ATOM     10  C   UNL     1       5.357  -0.018   3.563  1.00  0.00    -0.014 A 
BRANCH  10  11
ATOM     11  C   UNL     1       5.979   0.451   4.828  1.00  0.00     0.031 A 
ATOM     12  C   UNL     1       6.392  -0.596   5.820  1.00  0.00     0.074 A 
ATOM     13  C   UNL     1       6.109   1.762   5.128  1.00  0.00     0.049 A 
ATOM     14  N   UNL     1       6.851  -0.457   7.035  1.00  0.00    -0.248 NA
ATOM     15  C   UNL     1       6.228  -2.001   5.399  1.00  0.00     0.031 C 
ATOM     16  C   UNL     1       5.745   2.888   4.265  1.00  0.00     0.029 A 
ATOM     17  N   UNL     1       6.545   2.376   6.280  1.00  0.00    -0.354 N 
ATOM     18  C   UNL     1       7.056  -1.750   7.488  1.00  0.00     0.074 A 
ATOM     19  C   UNL     1       6.477  -2.649   6.521  1.00  0.00     0.031 C 
ATOM     20  C   UNL     1       5.899   4.043   4.940  1.00  0.00     0.029 A 
ATOM     21  C   UNL     1       6.403   3.747   6.275  1.00  0.00     0.049 A 
ATOM     22  H   UNL     1       6.925   1.880   7.041  1.00  0.00     0.167 HD
ATOM     23  C   UNL     1       7.787  -2.166   8.545  1.00  0.00     0.037 A 
ATOM     24  C   UNL     1       6.659   4.652   7.241  1.00  0.00     0.037 A 
ATOM     25  C   UNL     1       8.394  -1.270   9.480  1.00  0.00     0.049 A 
ATOM     26  C   UNL     1       7.334   4.172   8.502  1.00  0.00     0.074 A 
ATOM     27  C   UNL     1       9.201  -1.562  10.560  1.00  0.00     0.029 A 
ATOM     28  N   UNL     1       8.245   0.110   9.440  1.00  0.00    -0.354 N 
ATOM     29  N   UNL     1       7.659   2.950   8.852  1.00  0.00    -0.248 NA
ATOM     30  C   UNL     1       7.743   5.199   9.471  1.00  0.00     0.031 C 
ATOM     31  C   UNL     1       9.497  -0.358  11.209  1.00  0.00     0.029 A 
ATOM     32  C   UNL     1       8.922   0.685  10.497  1.00  0.00     0.049 A 
ATOM     33  H   UNL     1       7.733   0.604   8.760  1.00  0.00     0.167 HD
ATOM     34  C   UNL     1       8.383   3.069  10.031  1.00  0.00     0.074 A 
ATOM     35  C   UNL     1       8.428   4.481  10.349  1.00  0.00     0.031 C 
ATOM     36  C   UNL     1       8.981   2.100  10.768  1.00  0.00     0.037 A 
BRANCH  23  37
ATOM     37  C   UNL     1       7.995  -3.646   8.663  1.00  0.00     0.064 A 
ATOM     38  C   UNL     1       8.729  -4.354   7.693  1.00  0.00     0.173 A 
ATOM     39  C   UNL     1       7.388  -4.376   9.690  1.00  0.00     0.173 A 
ATOM     40  F   UNL     1       9.305  -3.701   6.671  1.00  0.00    -0.203 F 
ATOM     41  C   UNL     1       8.788  -5.743   7.712  1.00  0.00     0.198 A 
ATOM     42  C   UNL     1       7.484  -5.765   9.728  1.00  0.00     0.198 A 
ATOM     43  F   UNL     1       6.673  -3.749  10.635  1.00  0.00    -0.203 F 
ATOM     44  F   UNL     1       9.403  -6.399   6.718  1.00  0.00    -0.200 F 
ATOM     45  C   UNL     1       8.167  -6.447   8.730  1.00  0.00     0.200 A 
ATOM     46  F   UNL     1       6.886  -6.448  10.714  1.00  0.00    -0.200 F 
ATOM     47  F   UNL     1       8.206  -7.787   8.738  1.00  0.00    -0.200 F 
ENDBRANCH  23  37
BRANCH  24  48
ATOM     48  C   UNL     1       6.364   6.101   7.048  1.00  0.00     0.064 A 
ATOM     49  C   UNL     1       7.398   7.033   6.873  1.00  0.00     0.173 A 
ATOM     50  C   UNL     1       5.053   6.596   7.109  1.00  0.00     0.173 A 
ATOM     51  F   UNL     1       8.672   6.616   6.830  1.00  0.00    -0.203 F 
ATOM     52  C   UNL     1       7.138   8.403   6.809  1.00  0.00     0.198 A 
ATOM     53  C   UNL     1       4.791   7.966   7.024  1.00  0.00     0.198 A 
ATOM     54  F   UNL     1       4.024   5.752   7.273  1.00  0.00    -0.203 F 
ATOM     55  F   UNL     1       8.154   9.271   6.705  1.00  0.00    -0.200 F 
ATOM     56  C   UNL     1       5.835   8.868   6.887  1.00  0.00     0.200 A 
ATOM     57  F   UNL     1       3.530   8.413   7.097  1.00  0.00    -0.200 F 
ATOM     58  F   UNL     1       5.588  10.185   6.843  1.00  0.00    -0.200 F 
ENDBRANCH  24  48
BRANCH  36  59
ATOM     59  C   UNL     1       9.808   2.533  11.940  1.00  0.00     0.064 A 
ATOM     60  C   UNL     1       9.231   3.047  13.108  1.00  0.00     0.173 A 
ATOM     61  C   UNL     1      11.201   2.354  11.915  1.00  0.00     0.173 A 
ATOM     62  F   UNL     1       7.907   3.249  13.175  1.00  0.00    -0.203 F 
ATOM     63  C   UNL     1      10.021   3.385  14.203  1.00  0.00     0.198 A 
ATOM     64  C   UNL     1      11.982   2.655  13.025  1.00  0.00     0.198 A 
ATOM     65  F   UNL     1      11.800   1.857  10.821  1.00  0.00    -0.203 F 
ATOM     66  F   UNL     1       9.455   3.917  15.295  1.00  0.00    -0.200 F 
ATOM     67  C   UNL     1      11.392   3.176  14.165  1.00  0.00     0.200 A 
ATOM     68  F   UNL     1      13.303   2.431  12.993  1.00  0.00    -0.200 F 
ATOM     69  F   UNL     1      12.147   3.480  15.230  1.00  0.00    -0.200 F 
ENDBRANCH  36  59
ENDBRANCH  10  11
ENDBRANCH   3   5
ENDBRANCH   2   3
ENDBRANCH   1   2
BRANCH   1  70
ATOM     70  C   UNL     1       3.819   1.837  -1.213  1.00  0.00     0.274 C 
BRANCH  70  71
ATOM     71  O   UNL     1       3.411   1.996   0.167  1.00  0.00    -0.462 OA
BRANCH  71  72
ATOM     72  C   UNL     1       2.108   2.354   0.376  1.00  0.00     0.309 C 
ATOM     73  O   UNL     1       1.281   2.483  -0.519  1.00  0.00    -0.252 OA
BRANCH  72  74
ATOM     74  C   UNL     1       1.769   2.630   1.847  1.00  0.00     0.100 C 
ATOM     75  C   UNL     1       2.398   3.922   2.353  1.00  0.00     0.015 C 
ATOM     76  C   UNL     1       2.171   1.485   2.766  1.00  0.00     0.028 C 
ATOM     77  C   UNL     1       1.961   4.205   3.792  1.00  0.00     0.002 C 
ATOM     78  C   UNL     1       1.840   1.664   4.262  1.00  0.00     0.079 C 
ATOM     79  C   UNL     1       2.234   3.057   4.768  1.00  0.00     0.013 C 
BRANCH  78  80
ATOM     80  C   UNL     1       0.372   1.360   4.523  1.00  0.00     0.225 C 
ATOM     81  O   UNL     1      -0.435   2.235   4.831  1.00  0.00    -0.275 OA
BRANCH  80  82
ATOM     82  N   UNL     1      -0.048   0.092   4.181  1.00  0.00    -0.339 N 
ATOM     83  C   UNL     1       0.517  -1.188   4.648  1.00  0.00     0.141 C 
ATOM     84  C   UNL     1      -1.128   0.015   3.212  1.00  0.00     0.146 C 
ATOM     85  C   UNL     1      -0.534  -2.315   4.880  1.00  0.00     0.143 C 
ATOM     86  C   UNL     1      -2.244  -0.823   3.781  1.00  0.00     0.125 C 
ATOM     87  N   UNL     1      -1.752  -2.147   4.103  1.00  0.00    -0.317 N 
ATOM     88  C   UNL     1      -3.375  -1.097   2.805  1.00  0.00     0.144 C 
ATOM     89  C   UNL     1      -2.703  -3.108   3.800  1.00  0.00     0.317 C 
ATOM     90  N   UNL     1      -3.714  -2.466   3.088  1.00  0.00    -0.336 N 
ATOM     91  O   UNL     1      -2.683  -4.286   4.084  1.00  0.00    -0.249 OA
ATOM     92  H   UNL     1      -4.556  -2.896   2.813  1.00  0.00     0.165 HD
ENDBRANCH  80  82
ENDBRANCH  78  80
ENDBRANCH  72  74
ENDBRANCH  71  72
ENDBRANCH  70  71
ENDBRANCH   1  70
TORSDOF 13
