REMARK SMILES COc1cc(OC)cc(-n2nnc(C(=O)OCCOC(=O)c3ccc(-c4c5nc(c(-c6c(F)c(F)c(F)c(F)c6F)c6ccc([nH]6)c(-c6c(F)c(F)c(F)c(F)c6F)c6nc(c(-c7c(F)c(F)c(F)c(F)c7F)c7ccc4[nH]7)C=C6)C=C5)cc3)c2C(C)(C)C)c1
REMARK SMILES IDX 17 1 16 2 14 3 15 4 13 5 10 6 11 7 85 8 12 9 9 10 3 11 4 12
REMARK SMILES IDX 90 13 5 14 8 15 2 16 1 17 6 18 7 19 86 20 87 21 88 22 89 23
REMARK SMILES IDX 18 24 19 25 20 26 21 27 22 28 23 29 84 30 24 31 83 32 25 33
REMARK SMILES IDX 26 34 27 35 77 36 28 37 82 38 76 39 78 40 29 41 81 42 75 43
REMARK SMILES IDX 74 44 30 46 62 47 42 48 61 49 43 50 46 51 60 52 79 53 44 54
REMARK SMILES IDX 45 55 59 57 80 58 47 59 31 60 32 61 40 62 33 63 34 64 38 65
REMARK SMILES IDX 41 66 35 67 36 68 39 69 37 70 63 71 64 72 72 73 65 74 66 75
REMARK SMILES IDX 70 76 73 77 67 78 68 79 71 80 69 81 48 82 49 83 57 84 50 85
REMARK SMILES IDX 51 86 55 87 58 88 52 89 53 90 56 91 54 92
REMARK H PARENT 78 45 46 56
REMARK Flexibility Score: inf
ROOT
ATOM      1  C   UNL     1       8.962   3.182   1.108  1.00  0.00     0.275 C 
ENDROOT
BRANCH   1   2
ATOM      2  O   UNL     1       7.679   2.765   1.593  1.00  0.00    -0.457 OA
BRANCH   2   3
ATOM      3  C   UNL     1       7.573   1.981   2.696  1.00  0.00     0.361 C 
ATOM      4  O   UNL     1       8.536   1.438   3.233  1.00  0.00    -0.244 OA
BRANCH   3   5
ATOM      5  C   UNL     1       6.199   1.912   3.206  1.00  0.00     0.194 A 
ATOM      6  N   UNL     1       4.064   1.986   3.627  1.00  0.00    -0.216 N 
ATOM      7  N   UNL     1       4.678   1.538   4.738  1.00  0.00    -0.061 NA
ATOM      8  C   UNL     1       4.988   2.381   2.660  1.00  0.00     0.085 A 
ATOM      9  N   UNL     1       5.962   1.398   4.461  1.00  0.00    -0.122 NA
BRANCH   6  10
ATOM     10  C   UNL     1       2.667   1.893   3.534  1.00  0.00     0.074 A 
ATOM     11  C   UNL     1       0.774   1.298   2.176  1.00  0.00     0.124 A 
ATOM     12  C   UNL     1      -0.013   2.135   2.975  1.00  0.00     0.093 A 
ATOM     13  C   UNL     1       2.120   1.149   2.483  1.00  0.00     0.075 A 
ATOM     14  C   UNL     1       0.522   2.811   4.082  1.00  0.00     0.124 A 
ATOM     15  C   UNL     1       1.873   2.666   4.388  1.00  0.00     0.075 A 
BRANCH  11  16
ATOM     16  O   UNL     1       0.145   0.761   1.088  1.00  0.00    -0.497 OA
ATOM     17  C   UNL     1       0.915  -0.086   0.241  1.00  0.00     0.278 C 
ENDBRANCH  11  16
BRANCH  14  18
ATOM     18  O   UNL     1      -0.367   3.617   4.738  1.00  0.00    -0.497 OA
ATOM     19  C   UNL     1       0.164   4.499   5.721  1.00  0.00     0.278 C 
ENDBRANCH  14  18
ENDBRANCH   6  10
BRANCH   8  20
ATOM     20  C   UNL     1       4.711   3.243   1.407  1.00  0.00     0.007 C 
ATOM     21  C   UNL     1       5.357   4.636   1.600  1.00  0.00     0.017 C 
ATOM     22  C   UNL     1       5.202   2.507   0.138  1.00  0.00     0.017 C 
ATOM     23  C   UNL     1       3.246   3.606   1.086  1.00  0.00     0.017 C 
ENDBRANCH   8  20
ENDBRANCH   3   5
ENDBRANCH   2   3
ENDBRANCH   1   2
BRANCH   1  24
ATOM     24  C   UNL     1       9.334   4.509   1.740  1.00  0.00     0.275 C 
BRANCH  24  25
ATOM     25  O   UNL     1       9.771   4.267   3.071  1.00  0.00    -0.458 OA
BRANCH  25  26
ATOM     26  C   UNL     1       8.847   4.370   4.050  1.00  0.00     0.338 C 
ATOM     27  O   UNL     1       7.644   4.511   3.934  1.00  0.00    -0.246 OA
BRANCH  26  28
ATOM     28  C   UNL     1       9.563   4.535   5.311  1.00  0.00     0.060 A 
ATOM     29  C   UNL     1       8.793   4.766   6.455  1.00  0.00     0.016 A 
ATOM     30  C   UNL     1      10.938   4.805   5.258  1.00  0.00     0.016 A 
ATOM     31  C   UNL     1       9.367   5.473   7.484  1.00  0.00     0.010 A 
ATOM     32  C   UNL     1      11.492   5.550   6.256  1.00  0.00     0.010 A 
ATOM     33  C   UNL     1      10.678   5.930   7.319  1.00  0.00    -0.014 A 
BRANCH  33  34
ATOM     34  C   UNL     1      11.271   6.727   8.362  1.00  0.00     0.031 A 
ATOM     35  C   UNL     1      11.688   5.912   9.525  1.00  0.00     0.074 A 
ATOM     36  C   UNL     1      11.565   8.023   8.154  1.00  0.00     0.049 A 
ATOM     37  N   UNL     1      11.305   6.028  10.751  1.00  0.00    -0.248 NA
ATOM     38  C   UNL     1      12.509   4.714   9.263  1.00  0.00     0.031 C 
ATOM     39  C   UNL     1      11.453   8.788   6.908  1.00  0.00     0.029 A 
ATOM     40  N   UNL     1      12.152   8.905   8.999  1.00  0.00    -0.354 N 
ATOM     41  C   UNL     1      11.985   5.034  11.446  1.00  0.00     0.074 A 
ATOM     42  C   UNL     1      12.549   4.148  10.466  1.00  0.00     0.031 C 
ATOM     43  C   UNL     1      12.166   9.932   7.025  1.00  0.00     0.029 A 
ATOM     44  C   UNL     1      12.685  10.024   8.379  1.00  0.00     0.049 A 
ATOM     45  H   UNL     1      12.197   8.762   9.972  1.00  0.00     0.167 HD
ATOM     46  C   UNL     1      12.265   5.181  12.766  1.00  0.00     0.037 A 
ATOM     47  C   UNL     1      13.569  10.890   8.935  1.00  0.00     0.037 A 
ATOM     48  C   UNL     1      11.386   6.142  13.379  1.00  0.00     0.049 A 
ATOM     49  C   UNL     1      13.529  10.677  10.408  1.00  0.00     0.074 A 
ATOM     50  C   UNL     1      10.015   6.226  13.531  1.00  0.00     0.029 A 
ATOM     51  N   UNL     1      11.866   7.410  13.599  1.00  0.00    -0.354 N 
ATOM     52  N   UNL     1      12.507  10.983  11.159  1.00  0.00    -0.248 NA
ATOM     53  C   UNL     1      14.440   9.688  10.971  1.00  0.00     0.031 C 
ATOM     54  C   UNL     1       9.707   7.607  13.361  1.00  0.00     0.029 A 
ATOM     55  C   UNL     1      10.907   8.294  13.177  1.00  0.00     0.049 A 
ATOM     56  H   UNL     1      12.739   7.641  13.990  1.00  0.00     0.167 HD
ATOM     57  C   UNL     1      12.410   9.939  12.070  1.00  0.00     0.074 A 
ATOM     58  C   UNL     1      13.675   9.216  11.960  1.00  0.00     0.031 C 
ATOM     59  C   UNL     1      11.206   9.586  12.608  1.00  0.00     0.037 A 
BRANCH  46  60
ATOM     60  C   UNL     1      13.577   4.761  13.379  1.00  0.00     0.064 A 
ATOM     61  C   UNL     1      13.729   4.846  14.774  1.00  0.00     0.173 A 
ATOM     62  C   UNL     1      14.772   4.577  12.645  1.00  0.00     0.173 A 
ATOM     63  F   UNL     1      12.663   5.039  15.566  1.00  0.00    -0.203 F 
ATOM     64  C   UNL     1      14.988   4.837  15.379  1.00  0.00     0.198 A 
ATOM     65  C   UNL     1      16.020   4.510  13.257  1.00  0.00     0.198 A 
ATOM     66  F   UNL     1      14.804   4.571  11.308  1.00  0.00    -0.203 F 
ATOM     67  F   UNL     1      15.092   5.059  16.695  1.00  0.00    -0.200 F 
ATOM     68  C   UNL     1      16.132   4.676  14.619  1.00  0.00     0.200 A 
ATOM     69  F   UNL     1      17.118   4.372  12.499  1.00  0.00    -0.200 F 
ATOM     70  F   UNL     1      17.342   4.735  15.189  1.00  0.00    -0.200 F 
ENDBRANCH  46  60
BRANCH  47  71
ATOM     71  C   UNL     1      14.668  11.630   8.268  1.00  0.00     0.064 A 
ATOM     72  C   UNL     1      15.305  12.706   8.907  1.00  0.00     0.173 A 
ATOM     73  C   UNL     1      15.293  11.136   7.106  1.00  0.00     0.173 A 
ATOM     74  F   UNL     1      14.804  13.206  10.045  1.00  0.00    -0.203 F 
ATOM     75  C   UNL     1      16.504  13.242   8.423  1.00  0.00     0.198 A 
ATOM     76  C   UNL     1      16.483  11.678   6.618  1.00  0.00     0.198 A 
ATOM     77  F   UNL     1      14.816  10.057   6.469  1.00  0.00    -0.203 F 
ATOM     78  F   UNL     1      17.115  14.229   9.094  1.00  0.00    -0.200 F 
ATOM     79  C   UNL     1      17.096  12.722   7.284  1.00  0.00     0.200 A 
ATOM     80  F   UNL     1      17.062  11.141   5.534  1.00  0.00    -0.200 F 
ATOM     81  F   UNL     1      18.273  13.196   6.853  1.00  0.00    -0.200 F 
ENDBRANCH  47  71
BRANCH  59  82
ATOM     82  C   UNL     1      10.043  10.512  12.383  1.00  0.00     0.064 A 
ATOM     83  C   UNL     1       9.505  10.805  11.117  1.00  0.00     0.173 A 
ATOM     84  C   UNL     1       9.358  11.003  13.501  1.00  0.00     0.173 A 
ATOM     85  F   UNL     1      10.036  10.286  10.004  1.00  0.00    -0.203 F 
ATOM     86  C   UNL     1       8.363  11.593  10.980  1.00  0.00     0.198 A 
ATOM     87  C   UNL     1       8.197  11.757  13.364  1.00  0.00     0.198 A 
ATOM     88  F   UNL     1       9.791  10.707  14.737  1.00  0.00    -0.203 F 
ATOM     89  F   UNL     1       7.879  11.869   9.760  1.00  0.00    -0.200 F 
ATOM     90  C   UNL     1       7.706  12.062  12.104  1.00  0.00     0.200 A 
ATOM     91  F   UNL     1       7.535  12.164  14.456  1.00  0.00    -0.200 F 
ATOM     92  F   UNL     1       6.584  12.784  11.976  1.00  0.00    -0.200 F 
ENDBRANCH  59  82
ENDBRANCH  33  34
ENDBRANCH  26  28
ENDBRANCH  25  26
ENDBRANCH  24  25
ENDBRANCH   1  24
TORSDOF 15
