REMARK SMILES COCCNC(=O)c1cccc(NC(=O)[C@@H]2CCCC[C@H]2C(=O)OCCOC(=O)c2ccc(-c3c4nc(c(-c5c(F)c(F)c(F)c(F)c5F)c5ccc([nH]5)c(-c5c(F)c(F)c(F)c(F)c5F)c5nc(c(-c6c(F)c(F)c(F)c(F)c6F)c6ccc3[nH]6)C=C5)C=C4)cc2)c1
REMARK SMILES IDX 22 1 23 2 21 3 16 4 17 5 18 6 20 7 19 8 14 9 13 10 15 12
REMARK SMILES IDX 12 13 8 14 9 15 93 16 10 17 11 18 6 19 5 20 7 22 4 23 3 24
REMARK SMILES IDX 2 25 1 26 24 27 25 28 26 29 27 30 28 31 29 32 30 33 31 34
REMARK SMILES IDX 92 35 32 36 91 37 33 38 34 39 35 40 85 41 36 42 90 43 84 44
REMARK SMILES IDX 86 45 37 46 89 47 83 48 82 49 38 51 70 52 50 53 69 54 51 55
REMARK SMILES IDX 54 56 68 57 87 58 52 59 53 60 67 62 88 63 55 64 39 65 40 66
REMARK SMILES IDX 48 67 41 68 42 69 46 70 49 71 43 72 44 73 47 74 45 75 71 76
REMARK SMILES IDX 72 77 80 78 73 79 74 80 78 81 81 82 75 83 76 84 79 85 77 86
REMARK SMILES IDX 56 87 57 88 65 89 58 90 59 91 63 92 66 93 60 94 61 95 64 96
REMARK SMILES IDX 62 97
REMARK H PARENT 13 11 5 21 86 50 54 61
REMARK Flexibility Score: inf
ROOT
ATOM      1  C   UNL     1       3.899  -7.095   4.140  1.00  0.00     0.309 C 
ATOM      2  O   UNL     1       4.348  -6.498   5.115  1.00  0.00    -0.252 OA
ENDROOT
BRANCH   1   3
ATOM      3  C   UNL     1       3.384  -8.514   4.257  1.00  0.00     0.111 C 
ATOM      4  C   UNL     1       2.421  -9.061   3.184  1.00  0.00     0.093 C 
ATOM      5  C   UNL     1       1.992 -10.488   3.618  1.00  0.00     0.014 C 
ATOM      6  C   UNL     1       3.184 -11.421   3.821  1.00  0.00     0.001 C 
ATOM      7  C   UNL     1       4.615  -9.425   4.378  1.00  0.00     0.016 C 
ATOM      8  C   UNL     1       4.214 -10.836   4.782  1.00  0.00     0.001 C 
BRANCH   4   9
ATOM      9  C   UNL     1       1.155  -8.223   3.048  1.00  0.00     0.228 C 
ATOM     10  N   UNL     1       0.859  -7.395   2.010  1.00  0.00    -0.326 N 
ATOM     11  H   UNL     1      -0.051  -7.029   2.090  1.00  0.00     0.169 HD
ATOM     12  O   UNL     1       0.329  -8.242   3.972  1.00  0.00    -0.274 OA
BRANCH  10  13
ATOM     13  C   UNL     1       1.506  -6.920   0.852  1.00  0.00     0.041 A 
ATOM     14  C   UNL     1       1.674  -5.002  -0.670  1.00  0.00     0.041 A 
ATOM     15  C   UNL     1       2.868  -5.530  -1.172  1.00  0.00     0.014 A 
ATOM     16  C   UNL     1       0.971  -5.737   0.292  1.00  0.00     0.040 A 
ATOM     17  C   UNL     1       3.334  -6.765  -0.726  1.00  0.00     0.003 A 
ATOM     18  C   UNL     1       2.649  -7.459   0.275  1.00  0.00     0.026 A 
BRANCH  14  19
ATOM     19  C   UNL     1       1.200  -3.720  -1.262  1.00  0.00     0.251 C 
ATOM     20  N   UNL     1       0.534  -2.745  -0.566  1.00  0.00    -0.350 N 
ATOM     21  H   UNL     1       0.183  -2.024  -1.137  1.00  0.00     0.163 HD
ATOM     22  O   UNL     1       1.439  -3.506  -2.451  1.00  0.00    -0.269 OA
BRANCH  20  23
ATOM     23  C   UNL     1       0.241  -2.559   0.847  1.00  0.00     0.144 C 
BRANCH  23  24
ATOM     24  C   UNL     1       1.018  -1.419   1.514  1.00  0.00     0.181 C 
BRANCH  24  25
ATOM     25  O   UNL     1       0.488  -0.126   1.218  1.00  0.00    -0.383 OA
ATOM     26  C   UNL     1       0.997   0.446   0.023  1.00  0.00     0.194 C 
ENDBRANCH  24  25
ENDBRANCH  23  24
ENDBRANCH  20  23
ENDBRANCH  14  19
ENDBRANCH  10  13
ENDBRANCH   4   9
ENDBRANCH   1   3
BRANCH   1  27
ATOM     27  O   UNL     1       3.892  -6.604   2.882  1.00  0.00    -0.462 OA
BRANCH  27  28
ATOM     28  C   UNL     1       4.452  -5.283   2.739  1.00  0.00     0.274 C 
BRANCH  28  29
ATOM     29  C   UNL     1       3.393  -4.190   2.879  1.00  0.00     0.275 C 
BRANCH  29  30
ATOM     30  O   UNL     1       2.717  -4.282   4.143  1.00  0.00    -0.458 OA
BRANCH  30  31
ATOM     31  C   UNL     1       1.405  -4.597   4.101  1.00  0.00     0.338 C 
ATOM     32  O   UNL     1       0.684  -4.740   3.132  1.00  0.00    -0.246 OA
BRANCH  31  33
ATOM     33  C   UNL     1       0.871  -4.721   5.448  1.00  0.00     0.060 A 
ATOM     34  C   UNL     1       1.181  -5.848   6.206  1.00  0.00     0.016 A 
ATOM     35  C   UNL     1      -0.042  -3.767   5.894  1.00  0.00     0.016 A 
ATOM     36  C   UNL     1       0.590  -6.020   7.445  1.00  0.00     0.010 A 
ATOM     37  C   UNL     1      -0.604  -3.917   7.155  1.00  0.00     0.010 A 
ATOM     38  C   UNL     1      -0.279  -5.038   7.934  1.00  0.00    -0.014 A 
BRANCH  38  39
ATOM     39  C   UNL     1      -0.789  -5.138   9.310  1.00  0.00     0.031 A 
ATOM     40  C   UNL     1      -2.223  -5.465   9.558  1.00  0.00     0.074 A 
ATOM     41  C   UNL     1       0.067  -4.873  10.312  1.00  0.00     0.049 A 
ATOM     42  N   UNL     1      -2.886  -5.446  10.683  1.00  0.00    -0.248 NA
ATOM     43  C   UNL     1      -3.023  -5.853   8.386  1.00  0.00     0.031 C 
ATOM     44  C   UNL     1       1.489  -4.562  10.142  1.00  0.00     0.029 A 
ATOM     45  N   UNL     1      -0.132  -4.807  11.663  1.00  0.00    -0.354 N 
ATOM     46  C   UNL     1      -4.187  -5.796  10.355  1.00  0.00     0.074 A 
ATOM     47  C   UNL     1      -4.224  -6.013   8.924  1.00  0.00     0.031 C 
ATOM     48  C   UNL     1       2.035  -4.337  11.345  1.00  0.00     0.029 A 
ATOM     49  C   UNL     1       0.990  -4.432  12.357  1.00  0.00     0.049 A 
ATOM     50  H   UNL     1      -0.994  -5.008  12.094  1.00  0.00     0.167 HD
ATOM     51  C   UNL     1      -5.247  -5.917  11.188  1.00  0.00     0.037 A 
ATOM     52  C   UNL     1       1.143  -4.162  13.665  1.00  0.00     0.037 A 
ATOM     53  C   UNL     1      -5.173  -5.698  12.610  1.00  0.00     0.049 A 
ATOM     54  C   UNL     1      -0.056  -4.282  14.559  1.00  0.00     0.074 A 
ATOM     55  C   UNL     1      -6.176  -5.799  13.556  1.00  0.00     0.029 A 
ATOM     56  N   UNL     1      -4.016  -5.331  13.288  1.00  0.00    -0.354 N 
ATOM     57  N   UNL     1      -1.287  -4.610  14.247  1.00  0.00    -0.248 NA
ATOM     58  C   UNL     1       0.151  -3.993  15.981  1.00  0.00     0.031 C 
ATOM     59  C   UNL     1      -5.635  -5.460  14.802  1.00  0.00     0.029 A 
ATOM     60  C   UNL     1      -4.285  -5.187  14.639  1.00  0.00     0.049 A 
ATOM     61  H   UNL     1      -3.136  -5.193  12.870  1.00  0.00     0.167 HD
ATOM     62  C   UNL     1      -2.002  -4.581  15.433  1.00  0.00     0.074 A 
ATOM     63  C   UNL     1      -1.058  -4.220  16.475  1.00  0.00     0.031 C 
ATOM     64  C   UNL     1      -3.318  -4.825  15.645  1.00  0.00     0.037 A 
BRANCH  51  65
ATOM     65  C   UNL     1      -6.571  -6.269  10.579  1.00  0.00     0.064 A 
ATOM     66  C   UNL     1      -6.841  -7.555  10.089  1.00  0.00     0.173 A 
ATOM     67  C   UNL     1      -7.593  -5.310  10.502  1.00  0.00     0.173 A 
ATOM     68  F   UNL     1      -5.893  -8.503  10.124  1.00  0.00    -0.203 F 
ATOM     69  C   UNL     1      -8.077  -7.863   9.526  1.00  0.00     0.198 A 
ATOM     70  C   UNL     1      -8.835  -5.627   9.960  1.00  0.00     0.198 A 
ATOM     71  F   UNL     1      -7.386  -4.064  10.955  1.00  0.00    -0.203 F 
ATOM     72  F   UNL     1      -8.299  -9.087   9.027  1.00  0.00    -0.200 F 
ATOM     73  C   UNL     1      -9.075  -6.901   9.467  1.00  0.00     0.200 A 
ATOM     74  F   UNL     1      -9.801  -4.699   9.911  1.00  0.00    -0.200 F 
ATOM     75  F   UNL     1     -10.265  -7.200   8.929  1.00  0.00    -0.200 F 
ENDBRANCH  51  65
BRANCH  52  76
ATOM     76  C   UNL     1       2.471  -3.748  14.179  1.00  0.00     0.064 A 
ATOM     77  C   UNL     1       3.226  -4.606  14.987  1.00  0.00     0.173 A 
ATOM     78  C   UNL     1       3.031  -2.507  13.838  1.00  0.00     0.173 A 
ATOM     79  F   UNL     1       2.727  -5.796  15.350  1.00  0.00    -0.203 F 
ATOM     80  C   UNL     1       4.489  -4.235  15.445  1.00  0.00     0.198 A 
ATOM     81  C   UNL     1       4.304  -2.148  14.275  1.00  0.00     0.198 A 
ATOM     82  F   UNL     1       2.351  -1.654  13.058  1.00  0.00    -0.203 F 
ATOM     83  F   UNL     1       5.179  -5.061  16.243  1.00  0.00    -0.200 F 
ATOM     84  C   UNL     1       5.029  -3.010  15.082  1.00  0.00     0.200 A 
ATOM     85  F   UNL     1       4.829  -0.972  13.907  1.00  0.00    -0.200 F 
ATOM     86  F   UNL     1       6.249  -2.660  15.514  1.00  0.00    -0.200 F 
ENDBRANCH  52  76
BRANCH  64  87
ATOM     87  C   UNL     1      -3.796  -4.728  17.061  1.00  0.00     0.064 A 
ATOM     88  C   UNL     1      -3.968  -3.487  17.691  1.00  0.00     0.173 A 
ATOM     89  C   UNL     1      -4.104  -5.888  17.785  1.00  0.00     0.173 A 
ATOM     90  F   UNL     1      -3.666  -2.353  17.042  1.00  0.00    -0.203 F 
ATOM     91  C   UNL     1      -4.412  -3.413  19.007  1.00  0.00     0.198 A 
ATOM     92  C   UNL     1      -4.572  -5.809  19.093  1.00  0.00     0.198 A 
ATOM     93  F   UNL     1      -3.956  -7.097  17.222  1.00  0.00    -0.203 F 
ATOM     94  F   UNL     1      -4.527  -2.220  19.607  1.00  0.00    -0.200 F 
ATOM     95  C   UNL     1      -4.719  -4.573  19.705  1.00  0.00     0.200 A 
ATOM     96  F   UNL     1      -4.875  -6.929  19.763  1.00  0.00    -0.200 F 
ATOM     97  F   UNL     1      -5.147  -4.499  20.972  1.00  0.00    -0.200 F 
ENDBRANCH  64  87
ENDBRANCH  38  39
ENDBRANCH  31  33
ENDBRANCH  30  31
ENDBRANCH  29  30
ENDBRANCH  28  29
ENDBRANCH  27  28
ENDBRANCH   1  27
TORSDOF 17
