REMARK SMILES Cc1c(Cc2ccccc2)c(=O)oc2c(C)c(O[C@H](C)C(=O)OCCOC(=O)c3ccc(-c4c5nc(c(-c6c(F)c(F)c(F)c(F)c6F)c6ccc([nH]6)c(-c6c(F)c(F)c(F)c(F)c6F)c6nc(c(-c7c(F)c(F)c(F)c(F)c7F)c7ccc4[nH]7)C=C6)C=C5)cc3)ccc12
REMARK SMILES IDX 24 1 23 2 21 3 22 4 19 5 20 6 18 7 17 8 1 9 2 10 3 11 94 12
REMARK SMILES IDX 11 13 14 14 93 15 12 16 13 17 15 18 92 19 16 20 4 21 5 22
REMARK SMILES IDX 6 23 10 24 7 25 9 26 8 27 25 28 26 29 27 30 28 31 29 32
REMARK SMILES IDX 30 33 91 34 31 35 90 36 32 37 33 38 34 39 84 40 35 41 89 42
REMARK SMILES IDX 83 43 85 44 36 45 88 46 82 47 81 48 37 50 69 51 49 52 68 53
REMARK SMILES IDX 50 54 53 55 67 56 86 57 51 58 52 59 66 61 87 62 54 63 38 64
REMARK SMILES IDX 39 65 47 66 40 67 41 68 45 69 48 70 42 71 43 72 46 73 44 74
REMARK SMILES IDX 70 75 71 76 79 77 72 78 73 79 77 80 80 81 74 82 75 83 78 84
REMARK SMILES IDX 76 85 55 86 56 87 64 88 57 89 58 90 62 91 65 92 59 93 60 94
REMARK SMILES IDX 63 95 61 96
REMARK H PARENT 85 49 53 60
REMARK Flexibility Score: inf
ROOT
ATOM      1  C   UNL     1       6.441   3.245  -0.184  1.00  0.00     0.274 C 
ENDROOT
BRANCH   1   2
ATOM      2  O   UNL     1       5.186   3.638   0.397  1.00  0.00    -0.459 OA
BRANCH   2   3
ATOM      3  C   UNL     1       5.237   4.429   1.500  1.00  0.00     0.347 C 
ATOM      4  O   UNL     1       6.265   4.639   2.139  1.00  0.00    -0.248 OA
BRANCH   3   5
ATOM      5  C   UNL     1       3.889   5.090   1.834  1.00  0.00     0.279 C 
ATOM      6  C   UNL     1       2.766   4.775   0.848  1.00  0.00     0.066 C 
BRANCH   5   7
ATOM      7  O   UNL     1       3.663   4.652   3.169  1.00  0.00    -0.479 OA
BRANCH   7   8
ATOM      8  C   UNL     1       2.648   5.018   3.991  1.00  0.00     0.127 A 
ATOM      9  C   UNL     1      -0.211   4.921   8.341  1.00  0.00     0.046 C 
ATOM     10  C   UNL     1      -0.511   5.207   6.896  1.00  0.00    -0.029 A 
ATOM     11  C   UNL     1      -1.734   5.467   6.386  1.00  0.00     0.046 A 
ATOM     12  C   UNL     1       0.617   5.151   5.958  1.00  0.00     0.021 A 
ATOM     13  C   UNL     1      -1.859   5.991   4.994  1.00  0.00     0.340 A 
ATOM     14  C   UNL     1       0.536   5.853   4.759  1.00  0.00     0.145 A 
ATOM     15  C   UNL     1       1.751   4.380   6.181  1.00  0.00     0.016 A 
ATOM     16  O   UNL     1      -2.943   6.133   4.439  1.00  0.00    -0.246 OA
ATOM     17  O   UNL     1      -0.688   6.464   4.412  1.00  0.00    -0.422 OA
ATOM     18  C   UNL     1       1.590   5.913   3.815  1.00  0.00     0.035 A 
ATOM     19  C   UNL     1       2.725   4.285   5.189  1.00  0.00     0.047 A 
ATOM     20  C   UNL     1       1.463   6.923   2.715  1.00  0.00     0.052 C 
BRANCH  11  21
ATOM     21  C   UNL     1      -3.043   5.319   7.131  1.00  0.00     0.079 C 
BRANCH  21  22
ATOM     22  C   UNL     1      -3.568   3.893   7.125  1.00  0.00    -0.043 A 
ATOM     23  C   UNL     1      -4.606   3.516   6.262  1.00  0.00     0.004 A 
ATOM     24  C   UNL     1      -3.017   2.916   7.969  1.00  0.00     0.004 A 
ATOM     25  C   UNL     1      -5.080   2.200   6.251  1.00  0.00     0.000 A 
ATOM     26  C   UNL     1      -3.475   1.598   7.943  1.00  0.00     0.000 A 
ATOM     27  C   UNL     1      -4.511   1.240   7.087  1.00  0.00     0.000 A 
ENDBRANCH  21  22
ENDBRANCH  11  21
ENDBRANCH   7   8
ENDBRANCH   5   7
ENDBRANCH   3   5
ENDBRANCH   2   3
ENDBRANCH   1   2
BRANCH   1  28
ATOM     28  C   UNL     1       6.793   4.193  -1.333  1.00  0.00     0.275 C 
BRANCH  28  29
ATOM     29  O   UNL     1       7.272   5.463  -0.846  1.00  0.00    -0.458 OA
BRANCH  29  30
ATOM     30  C   UNL     1       6.331   6.415  -0.661  1.00  0.00     0.338 C 
ATOM     31  O   UNL     1       5.133   6.336  -0.870  1.00  0.00    -0.246 OA
BRANCH  30  32
ATOM     32  C   UNL     1       6.949   7.597  -0.048  1.00  0.00     0.060 A 
ATOM     33  C   UNL     1       6.745   7.835   1.314  1.00  0.00     0.016 A 
ATOM     34  C   UNL     1       7.631   8.520  -0.841  1.00  0.00     0.016 A 
ATOM     35  C   UNL     1       7.204   9.016   1.888  1.00  0.00     0.010 A 
ATOM     36  C   UNL     1       8.107   9.697  -0.259  1.00  0.00     0.010 A 
ATOM     37  C   UNL     1       7.877   9.959   1.102  1.00  0.00    -0.014 A 
BRANCH  37  38
ATOM     38  C   UNL     1       8.289  11.247   1.703  1.00  0.00     0.031 A 
ATOM     39  C   UNL     1       7.506  12.491   1.405  1.00  0.00     0.074 A 
ATOM     40  C   UNL     1       9.345  11.288   2.535  1.00  0.00     0.049 A 
ATOM     41  N   UNL     1       7.722  13.719   1.801  1.00  0.00    -0.248 NA
ATOM     42  C   UNL     1       6.320  12.334   0.548  1.00  0.00     0.031 C 
ATOM     43  C   UNL     1      10.150  10.132   2.928  1.00  0.00     0.029 A 
ATOM     44  N   UNL     1       9.918  12.341   3.200  1.00  0.00    -0.354 N 
ATOM     45  C   UNL     1       6.705  14.479   1.241  1.00  0.00     0.074 A 
ATOM     46  C   UNL     1       5.888  13.583   0.453  1.00  0.00     0.031 C 
ATOM     47  C   UNL     1      11.112  10.538   3.772  1.00  0.00     0.029 A 
ATOM     48  C   UNL     1      11.014  11.986   3.945  1.00  0.00     0.049 A 
ATOM     49  H   UNL     1       9.576  13.262   3.147  1.00  0.00     0.167 HD
ATOM     50  C   UNL     1       6.471  15.804   1.387  1.00  0.00     0.037 A 
ATOM     51  C   UNL     1      11.855  12.748   4.669  1.00  0.00     0.037 A 
ATOM     52  C   UNL     1       7.281  16.687   2.183  1.00  0.00     0.049 A 
ATOM     53  C   UNL     1      11.626  14.232   4.740  1.00  0.00     0.074 A 
ATOM     54  C   UNL     1       7.104  18.038   2.424  1.00  0.00     0.029 A 
ATOM     55  N   UNL     1       8.427  16.304   2.865  1.00  0.00    -0.354 N 
ATOM     56  N   UNL     1      10.653  14.942   4.222  1.00  0.00    -0.248 NA
ATOM     57  C   UNL     1      12.616  15.023   5.484  1.00  0.00     0.031 C 
ATOM     58  C   UNL     1       8.169  18.482   3.213  1.00  0.00     0.029 A 
ATOM     59  C   UNL     1       8.989  17.401   3.496  1.00  0.00     0.049 A 
ATOM     60  H   UNL     1       8.788  15.388   2.895  1.00  0.00     0.167 HD
ATOM     61  C   UNL     1      10.908  16.258   4.580  1.00  0.00     0.074 A 
ATOM     62  C   UNL     1      12.118  16.248   5.375  1.00  0.00     0.031 C 
ATOM     63  C   UNL     1      10.203  17.374   4.272  1.00  0.00     0.037 A 
BRANCH  50  64
ATOM     64  C   UNL     1       5.298  16.386   0.659  1.00  0.00     0.064 A 
ATOM     65  C   UNL     1       3.982  16.155   1.085  1.00  0.00     0.173 A 
ATOM     66  C   UNL     1       5.494  17.224  -0.449  1.00  0.00     0.173 A 
ATOM     67  F   UNL     1       3.743  15.352   2.133  1.00  0.00    -0.203 F 
ATOM     68  C   UNL     1       2.903  16.729   0.418  1.00  0.00     0.198 A 
ATOM     69  C   UNL     1       4.414  17.814  -1.100  1.00  0.00     0.198 A 
ATOM     70  F   UNL     1       6.733  17.479  -0.893  1.00  0.00    -0.203 F 
ATOM     71  F   UNL     1       1.652  16.468   0.822  1.00  0.00    -0.200 F 
ATOM     72  C   UNL     1       3.120  17.563  -0.669  1.00  0.00     0.200 A 
ATOM     73  F   UNL     1       4.625  18.627  -2.145  1.00  0.00    -0.200 F 
ATOM     74  F   UNL     1       2.080  18.120  -1.305  1.00  0.00    -0.200 F 
ENDBRANCH  50  64
BRANCH  51  75
ATOM     75  C   UNL     1      12.997  12.111   5.372  1.00  0.00     0.064 A 
ATOM     76  C   UNL     1      13.009  11.996   6.768  1.00  0.00     0.173 A 
ATOM     77  C   UNL     1      14.083  11.579   4.661  1.00  0.00     0.173 A 
ATOM     78  F   UNL     1      12.004  12.511   7.490  1.00  0.00    -0.203 F 
ATOM     79  C   UNL     1      14.065  11.371   7.428  1.00  0.00     0.198 A 
ATOM     80  C   UNL     1      15.127  10.934   5.320  1.00  0.00     0.198 A 
ATOM     81  F   UNL     1      14.118  11.667   3.324  1.00  0.00    -0.203 F 
ATOM     82  F   UNL     1      14.065  11.295   8.765  1.00  0.00    -0.200 F 
ATOM     83  C   UNL     1      15.119  10.833   6.703  1.00  0.00     0.200 A 
ATOM     84  F   UNL     1      16.138  10.407   4.616  1.00  0.00    -0.200 F 
ATOM     85  F   UNL     1      16.128  10.221   7.338  1.00  0.00    -0.200 F 
ENDBRANCH  51  75
BRANCH  63  86
ATOM     86  C   UNL     1      10.722  18.684   4.782  1.00  0.00     0.064 A 
ATOM     87  C   UNL     1      11.824  19.308   4.180  1.00  0.00     0.173 A 
ATOM     88  C   UNL     1      10.063  19.362   5.817  1.00  0.00     0.173 A 
ATOM     89  F   UNL     1      12.495  18.692   3.196  1.00  0.00    -0.203 F 
ATOM     90  C   UNL     1      12.248  20.566   4.599  1.00  0.00     0.198 A 
ATOM     91  C   UNL     1      10.476  20.629   6.218  1.00  0.00     0.198 A 
ATOM     92  F   UNL     1       9.000  18.808   6.419  1.00  0.00    -0.203 F 
ATOM     93  F   UNL     1      13.316  21.137   4.024  1.00  0.00    -0.200 F 
ATOM     94  C   UNL     1      11.568  21.230   5.609  1.00  0.00     0.200 A 
ATOM     95  F   UNL     1       9.809  21.275   7.185  1.00  0.00    -0.200 F 
ATOM     96  F   UNL     1      11.966  22.449   5.997  1.00  0.00    -0.200 F 
ENDBRANCH  63  86
ENDBRANCH  37  38
ENDBRANCH  30  32
ENDBRANCH  29  30
ENDBRANCH  28  29
ENDBRANCH   1  28
TORSDOF 15
