REMARK SMILES N#C/C(=C\c1ccc(-c2cc(C(F)(F)F)ccc2Cl)o1)C(=O)OCCOC(=O)c1ccc(-c2c3nc(c(-c4c(F)c(F)c(F)c(F)c4F)c4ccc([nH]4)c(-c4c(F)c(F)c(F)c(F)c4F)c4nc(c(-c5c(F)c(F)c(F)c(F)c5F)c5ccc2[nH]5)C=C4)C=C3)cc1
REMARK SMILES IDX 24 1 23 2 21 3 22 4 3 5 4 6 2 7 1 8 5 9 6 10 20 11 7 12 8 13
REMARK SMILES IDX 9 14 10 15 18 16 11 17 17 18 19 19 16 20 12 21 13 22 14 23
REMARK SMILES IDX 15 24 25 25 26 26 27 27 28 28 29 29 30 30 91 31 31 32 90 33
REMARK SMILES IDX 32 34 33 35 34 36 84 37 35 38 89 39 83 40 85 41 36 42 88 43
REMARK SMILES IDX 82 44 81 45 37 47 69 48 49 49 68 50 50 51 53 52 67 53 86 54
REMARK SMILES IDX 51 55 52 56 66 58 87 59 54 60 38 61 39 62 47 63 40 64 41 65
REMARK SMILES IDX 45 66 48 67 42 68 43 69 46 70 44 71 70 72 71 73 79 74 72 75
REMARK SMILES IDX 73 76 77 77 80 78 74 79 75 80 78 81 76 82 55 83 56 84 64 85
REMARK SMILES IDX 57 86 58 87 62 88 65 89 59 90 60 91 63 92 61 93
REMARK H PARENT 85 46 53 57
REMARK Flexibility Score: inf
ROOT
ATOM      1  C   UNL     1       6.428  -1.652  -2.008  1.00  0.00     0.275 C 
ENDROOT
BRANCH   1   2
ATOM      2  O   UNL     1       5.690  -1.046  -0.930  1.00  0.00    -0.458 OA
BRANCH   2   3
ATOM      3  C   UNL     1       4.539  -0.419  -1.278  1.00  0.00     0.349 C 
ATOM      4  O   UNL     1       4.153  -0.207  -2.418  1.00  0.00    -0.245 OA
BRANCH   3   5
ATOM      5  C   UNL     1       3.767  -0.055  -0.082  1.00  0.00     0.141 C 
ATOM      6  C   UNL     1       4.396   0.670   0.877  1.00  0.00     0.074 C 
BRANCH   5   7
ATOM      7  C   UNL     1       2.247  -0.055  -0.082  1.00  0.00     0.107 C 
ATOM      8  N   UNL     1       0.986  -0.055  -0.082  1.00  0.00    -0.192 NA
ENDBRANCH   5   7
BRANCH   6   9
ATOM      9  C   UNL     1       3.689   1.321   1.944  1.00  0.00     0.129 A 
ATOM     10  C   UNL     1       2.684   0.832   2.774  1.00  0.00     0.051 A 
ATOM     11  O   UNL     1       3.908   2.643   2.309  1.00  0.00    -0.457 OA
ATOM     12  C   UNL     1       2.242   1.883   3.603  1.00  0.00     0.051 A 
ATOM     13  C   UNL     1       3.035   2.967   3.312  1.00  0.00     0.136 A 
BRANCH  13  14
ATOM     14  C   UNL     1       3.096   4.315   3.874  1.00  0.00     0.036 A 
ATOM     15  C   UNL     1       2.920   5.437   3.042  1.00  0.00     0.026 A 
ATOM     16  C   UNL     1       3.221   4.530   5.261  1.00  0.00     0.052 A 
ATOM     17  C   UNL     1       2.838   6.742   3.575  1.00  0.00     0.056 A 
ATOM     18  C   UNL     1       3.149   5.821   5.796  1.00  0.00     0.022 A 
ATOM     19  Cl  UNL     1       3.478   3.238   6.386  1.00  0.00    -0.084 Cl
ATOM     20  C   UNL     1       2.952   6.918   4.961  1.00  0.00     0.014 A 
BRANCH  17  21
ATOM     21  C   UNL     1       2.606   7.932   2.671  1.00  0.00     0.416 C 
ATOM     22  F   UNL     1       3.605   8.100   1.763  1.00  0.00    -0.166 F 
ATOM     23  F   UNL     1       1.455   7.824   1.952  1.00  0.00    -0.166 F 
ATOM     24  F   UNL     1       2.513   9.114   3.344  1.00  0.00    -0.166 F 
ENDBRANCH  17  21
ENDBRANCH  13  14
ENDBRANCH   6   9
ENDBRANCH   3   5
ENDBRANCH   2   3
ENDBRANCH   1   2
BRANCH   1  25
ATOM     25  C   UNL     1       6.152  -3.156  -2.056  1.00  0.00     0.275 C 
BRANCH  25  26
ATOM     26  O   UNL     1       4.787  -3.422  -2.440  1.00  0.00    -0.458 OA
BRANCH  26  27
ATOM     27  C   UNL     1       3.938  -3.660  -1.414  1.00  0.00     0.338 C 
ATOM     28  O   UNL     1       4.203  -3.675  -0.223  1.00  0.00    -0.246 OA
BRANCH  27  29
ATOM     29  C   UNL     1       2.551  -3.742  -1.895  1.00  0.00     0.060 A 
ATOM     30  C   UNL     1       1.871  -2.549  -2.086  1.00  0.00     0.016 A 
ATOM     31  C   UNL     1       1.851  -4.944  -1.915  1.00  0.00     0.016 A 
ATOM     32  C   UNL     1       0.487  -2.526  -2.124  1.00  0.00     0.010 A 
ATOM     33  C   UNL     1       0.462  -4.927  -2.122  1.00  0.00     0.010 A 
ATOM     34  C   UNL     1      -0.246  -3.711  -2.181  1.00  0.00    -0.014 A 
BRANCH  34  35
ATOM     35  C   UNL     1      -1.734  -3.644  -2.260  1.00  0.00     0.031 A 
ATOM     36  C   UNL     1      -2.582  -4.385  -1.261  1.00  0.00     0.074 A 
ATOM     37  C   UNL     1      -2.338  -2.874  -3.192  1.00  0.00     0.049 A 
ATOM     38  N   UNL     1      -3.867  -4.634  -1.285  1.00  0.00    -0.248 NA
ATOM     39  C   UNL     1      -1.888  -4.935  -0.086  1.00  0.00     0.031 C 
ATOM     40  C   UNL     1      -1.653  -2.027  -4.171  1.00  0.00     0.029 A 
ATOM     41  N   UNL     1      -3.670  -2.665  -3.460  1.00  0.00    -0.354 N 
ATOM     42  C   UNL     1      -4.122  -5.423  -0.170  1.00  0.00     0.074 A 
ATOM     43  C   UNL     1      -2.857  -5.618   0.506  1.00  0.00     0.031 C 
ATOM     44  C   UNL     1      -2.559  -1.354  -4.891  1.00  0.00     0.029 A 
ATOM     45  C   UNL     1      -3.887  -1.822  -4.523  1.00  0.00     0.049 A 
ATOM     46  H   UNL     1      -4.397  -3.079  -2.942  1.00  0.00     0.167 HD
ATOM     47  C   UNL     1      -5.306  -5.937   0.244  1.00  0.00     0.037 A 
ATOM     48  C   UNL     1      -5.017  -1.510  -5.185  1.00  0.00     0.037 A 
ATOM     49  C   UNL     1      -6.566  -5.686  -0.408  1.00  0.00     0.049 A 
ATOM     50  C   UNL     1      -6.306  -2.141  -4.750  1.00  0.00     0.074 A 
ATOM     51  C   UNL     1      -7.822  -6.165  -0.078  1.00  0.00     0.029 A 
ATOM     52  N   UNL     1      -6.732  -4.865  -1.516  1.00  0.00    -0.354 N 
ATOM     53  N   UNL     1      -6.527  -2.967  -3.757  1.00  0.00    -0.248 NA
ATOM     54  C   UNL     1      -7.499  -1.817  -5.542  1.00  0.00     0.031 C 
ATOM     55  C   UNL     1      -8.739  -5.673  -1.014  1.00  0.00     0.029 A 
ATOM     56  C   UNL     1      -8.066  -4.840  -1.893  1.00  0.00     0.049 A 
ATOM     57  H   UNL     1      -6.008  -4.374  -1.968  1.00  0.00     0.167 HD
ATOM     58  C   UNL     1      -7.883  -3.254  -3.795  1.00  0.00     0.074 A 
ATOM     59  C   UNL     1      -8.439  -2.494  -4.896  1.00  0.00     0.031 C 
ATOM     60  C   UNL     1      -8.602  -4.077  -2.992  1.00  0.00     0.037 A 
BRANCH  47  61
ATOM     61  C   UNL     1      -5.284  -6.867   1.426  1.00  0.00     0.064 A 
ATOM     62  C   UNL     1      -5.014  -6.421   2.728  1.00  0.00     0.173 A 
ATOM     63  C   UNL     1      -5.554  -8.234   1.248  1.00  0.00     0.173 A 
ATOM     64  F   UNL     1      -4.736  -5.129   2.956  1.00  0.00    -0.203 F 
ATOM     65  C   UNL     1      -4.977  -7.313   3.799  1.00  0.00     0.198 A 
ATOM     66  C   UNL     1      -5.551  -9.116   2.325  1.00  0.00     0.198 A 
ATOM     67  F   UNL     1      -5.826  -8.717   0.026  1.00  0.00    -0.203 F 
ATOM     68  F   UNL     1      -4.655  -6.873   5.024  1.00  0.00    -0.200 F 
ATOM     69  C   UNL     1      -5.251  -8.657   3.598  1.00  0.00     0.200 A 
ATOM     70  F   UNL     1      -5.831 -10.412   2.130  1.00  0.00    -0.200 F 
ATOM     71  F   UNL     1      -5.217  -9.512   4.629  1.00  0.00    -0.200 F 
ENDBRANCH  47  61
BRANCH  48  72
ATOM     72  C   UNL     1      -4.951  -0.616  -6.373  1.00  0.00     0.064 A 
ATOM     73  C   UNL     1      -5.546   0.652  -6.363  1.00  0.00     0.173 A 
ATOM     74  C   UNL     1      -4.268  -1.006  -7.537  1.00  0.00     0.173 A 
ATOM     75  F   UNL     1      -6.233   1.062  -5.287  1.00  0.00    -0.203 F 
ATOM     76  C   UNL     1      -5.464   1.493  -7.472  1.00  0.00     0.198 A 
ATOM     77  C   UNL     1      -4.155  -0.150  -8.629  1.00  0.00     0.198 A 
ATOM     78  F   UNL     1      -3.682  -2.211  -7.601  1.00  0.00    -0.203 F 
ATOM     79  F   UNL     1      -6.077   2.684  -7.453  1.00  0.00    -0.200 F 
ATOM     80  C   UNL     1      -4.759   1.096  -8.599  1.00  0.00     0.200 A 
ATOM     81  F   UNL     1      -3.455  -0.532  -9.707  1.00  0.00    -0.200 F 
ATOM     82  F   UNL     1      -4.668   1.912  -9.658  1.00  0.00    -0.200 F 
ENDBRANCH  48  72
BRANCH  60  83
ATOM     83  C   UNL     1     -10.076  -4.167  -3.257  1.00  0.00     0.064 A 
ATOM     84  C   UNL     1     -10.583  -4.826  -4.387  1.00  0.00     0.173 A 
ATOM     85  C   UNL     1     -10.993  -3.607  -2.355  1.00  0.00     0.173 A 
ATOM     86  F   UNL     1      -9.747  -5.362  -5.289  1.00  0.00    -0.203 F 
ATOM     87  C   UNL     1     -11.954  -4.896  -4.617  1.00  0.00     0.198 A 
ATOM     88  C   UNL     1     -12.363  -3.707  -2.572  1.00  0.00     0.198 A 
ATOM     89  F   UNL     1     -10.559  -2.969  -1.257  1.00  0.00    -0.203 F 
ATOM     90  F   UNL     1     -12.415  -5.484  -5.730  1.00  0.00    -0.200 F 
ATOM     91  C   UNL     1     -12.843  -4.343  -3.707  1.00  0.00     0.200 A 
ATOM     92  F   UNL     1     -13.221  -3.183  -1.685  1.00  0.00    -0.200 F 
ATOM     93  F   UNL     1     -14.162  -4.417  -3.928  1.00  0.00    -0.200 F 
ENDBRANCH  60  83
ENDBRANCH  34  35
ENDBRANCH  27  29
ENDBRANCH  26  27
ENDBRANCH  25  26
ENDBRANCH   1  25
TORSDOF 15
