REMARK SMILES O=C(OCCOC(=O)c1ccc(N2C(=O)C[C@H](c3c[nH]c4ccccc34)C2=O)cc1O)c1ccc(-c2c3nc(c(-c4c(F)c(F)c(F)c(F)c4F)c4ccc([nH]4)c(-c4c(F)c(F)c(F)c(F)c4F)c4nc(c(-c5c(F)c(F)c(F)c(F)c5F)c5ccc2[nH]5)C=C4)C=C3)cc1
REMARK SMILES IDX 4 1 3 2 2 3 1 4 32 5 33 6 94 7 34 8 93 9 35 10 36 11 37 12
REMARK SMILES IDX 87 13 38 14 92 15 86 16 88 17 39 18 91 19 85 20 84 21 40 23
REMARK SMILES IDX 72 24 52 25 71 26 53 27 56 28 70 29 89 30 54 31 55 32 69 34
REMARK SMILES IDX 90 35 57 36 41 37 42 38 50 39 43 40 44 41 48 42 51 43 45 44
REMARK SMILES IDX 46 45 49 46 47 47 73 48 74 49 82 50 75 51 76 52 80 53 83 54
REMARK SMILES IDX 77 55 78 56 81 57 79 58 58 59 59 60 67 61 60 62 61 63 65 64
REMARK SMILES IDX 68 65 62 66 63 67 66 68 64 69 5 70 6 71 7 72 8 73 9 74 10 75
REMARK SMILES IDX 30 76 11 77 29 78 12 79 31 80 13 82 14 83 27 84 15 85 16 86
REMARK SMILES IDX 17 87 28 88 18 89 19 90 26 91 20 92 21 93 25 94 22 96 24 97
REMARK SMILES IDX 23 98
REMARK H PARENT 88 22 56 33 31 81 20 95
REMARK Flexibility Score: inf
ROOT
ATOM      1  C   UNL     1       4.139  -1.595  -0.182  1.00  0.00     0.275 C 
ENDROOT
BRANCH   1   2
ATOM      2  O   UNL     1       3.134  -1.020   0.672  1.00  0.00    -0.458 OA
BRANCH   2   3
ATOM      3  C   UNL     1       3.044   0.232   1.176  1.00  0.00     0.338 C 
ATOM      4  O   UNL     1       2.260   0.446   2.100  1.00  0.00    -0.246 OA
BRANCH   3   5
ATOM      5  C   UNL     1       3.730   1.416   0.574  1.00  0.00     0.060 A 
ATOM      6  C   UNL     1       4.996   1.427  -0.016  1.00  0.00     0.016 A 
ATOM      7  C   UNL     1       3.027   2.633   0.641  1.00  0.00     0.016 A 
ATOM      8  C   UNL     1       5.512   2.591  -0.596  1.00  0.00     0.010 A 
ATOM      9  C   UNL     1       3.528   3.795   0.053  1.00  0.00     0.010 A 
ATOM     10  C   UNL     1       4.781   3.780  -0.568  1.00  0.00    -0.014 A 
BRANCH  10  11
ATOM     11  C   UNL     1       5.399   5.046  -1.016  1.00  0.00     0.031 A 
ATOM     12  C   UNL     1       5.908   5.989   0.030  1.00  0.00     0.074 A 
ATOM     13  C   UNL     1       5.525   5.337  -2.323  1.00  0.00     0.049 A 
ATOM     14  N   UNL     1       6.502   7.145  -0.114  1.00  0.00    -0.248 NA
ATOM     15  C   UNL     1       5.748   5.559   1.429  1.00  0.00     0.031 C 
ATOM     16  C   UNL     1       5.139   4.460  -3.423  1.00  0.00     0.029 A 
ATOM     17  N   UNL     1       6.003   6.461  -2.946  1.00  0.00    -0.354 N 
ATOM     18  C   UNL     1       6.820   7.556   1.172  1.00  0.00     0.074 A 
ATOM     19  C   UNL     1       6.284   6.573   2.086  1.00  0.00     0.031 C 
ATOM     20  C   UNL     1       5.330   5.102  -4.588  1.00  0.00     0.029 A 
ATOM     21  C   UNL     1       5.869   6.430  -4.312  1.00  0.00     0.049 A 
ATOM     22  H   UNL     1       6.403   7.218  -2.460  1.00  0.00     0.167 HD
ATOM     23  C   UNL     1       7.534   8.639   1.555  1.00  0.00     0.037 A 
ATOM     24  C   UNL     1       6.153   7.373  -5.230  1.00  0.00     0.037 A 
ATOM     25  C   UNL     1       8.031   9.628   0.641  1.00  0.00     0.049 A 
ATOM     26  C   UNL     1       6.817   8.644  -4.775  1.00  0.00     0.074 A 
ATOM     27  C   UNL     1       8.743  10.780   0.914  1.00  0.00     0.029 A 
ATOM     28  N   UNL     1       7.848   9.580  -0.734  1.00  0.00    -0.354 N 
ATOM     29  N   UNL     1       7.152   9.009  -3.560  1.00  0.00    -0.248 NA
ATOM     30  C   UNL     1       7.180   9.615  -5.814  1.00  0.00     0.031 C 
ATOM     31  C   UNL     1       8.947  11.457  -0.295  1.00  0.00     0.029 A 
ATOM     32  C   UNL     1       8.403  10.702  -1.323  1.00  0.00     0.049 A 
ATOM     33  H   UNL     1       7.391   8.855  -1.218  1.00  0.00     0.167 HD
ATOM     34  C   UNL     1       7.821  10.217  -3.694  1.00  0.00     0.074 A 
ATOM     35  C   UNL     1       7.822  10.536  -5.108  1.00  0.00     0.031 C 
ATOM     36  C   UNL     1       8.399  10.984  -2.737  1.00  0.00     0.037 A 
BRANCH  23  37
ATOM     37  C   UNL     1       7.780   8.791   3.025  1.00  0.00     0.064 A 
ATOM     38  C   UNL     1       8.647   7.925   3.713  1.00  0.00     0.173 A 
ATOM     39  C   UNL     1       7.100   9.766   3.766  1.00  0.00     0.173 A 
ATOM     40  F   UNL     1       9.302   6.959   3.051  1.00  0.00    -0.203 F 
ATOM     41  C   UNL     1       8.788   8.003   5.096  1.00  0.00     0.198 A 
ATOM     42  C   UNL     1       7.265   9.859   5.145  1.00  0.00     0.198 A 
ATOM     43  F   UNL     1       6.259  10.614   3.155  1.00  0.00    -0.203 F 
ATOM     44  F   UNL     1       9.566   7.122   5.739  1.00  0.00    -0.200 F 
ATOM     45  C   UNL     1       8.098   8.970   5.810  1.00  0.00     0.200 A 
ATOM     46  F   UNL     1       6.600  10.796   5.835  1.00  0.00    -0.200 F 
ATOM     47  F   UNL     1       8.221   9.035   7.143  1.00  0.00    -0.200 F 
ENDBRANCH  23  37
BRANCH  24  48
ATOM     48  C   UNL     1       5.838   7.135  -6.663  1.00  0.00     0.064 A 
ATOM     49  C   UNL     1       6.850   6.917  -7.607  1.00  0.00     0.173 A 
ATOM     50  C   UNL     1       4.510   7.127  -7.117  1.00  0.00     0.173 A 
ATOM     51  F   UNL     1       8.136   6.932  -7.224  1.00  0.00    -0.203 F 
ATOM     52  C   UNL     1       6.549   6.720  -8.954  1.00  0.00     0.198 A 
ATOM     53  C   UNL     1       4.209   6.910  -8.460  1.00  0.00     0.198 A 
ATOM     54  F   UNL     1       3.505   7.324  -6.250  1.00  0.00    -0.203 F 
ATOM     55  F   UNL     1       7.539   6.551  -9.841  1.00  0.00    -0.200 F 
ATOM     56  C   UNL     1       5.229   6.713  -9.379  1.00  0.00     0.200 A 
ATOM     57  F   UNL     1       2.933   6.896  -8.867  1.00  0.00    -0.200 F 
ATOM     58  F   UNL     1       4.942   6.523 -10.674  1.00  0.00    -0.200 F 
ENDBRANCH  24  48
BRANCH  36  59
ATOM     59  C   UNL     1       9.118  12.218  -3.190  1.00  0.00     0.064 A 
ATOM     60  C   UNL     1       8.424  13.359  -3.614  1.00  0.00     0.173 A 
ATOM     61  C   UNL     1      10.519  12.277  -3.134  1.00  0.00     0.173 A 
ATOM     62  F   UNL     1       7.085  13.342  -3.694  1.00  0.00    -0.203 F 
ATOM     63  C   UNL     1       9.109  14.512  -3.985  1.00  0.00     0.198 A 
ATOM     64  C   UNL     1      11.199  13.441  -3.478  1.00  0.00     0.198 A 
ATOM     65  F   UNL     1      11.225  11.211  -2.727  1.00  0.00    -0.203 F 
ATOM     66  F   UNL     1       8.429  15.580  -4.422  1.00  0.00    -0.200 F 
ATOM     67  C   UNL     1      10.494  14.555  -3.907  1.00  0.00     0.200 A 
ATOM     68  F   UNL     1      12.535  13.486  -3.389  1.00  0.00    -0.200 F 
ATOM     69  F   UNL     1      11.150  15.672  -4.250  1.00  0.00    -0.200 F 
ENDBRANCH  36  59
ENDBRANCH  10  11
ENDBRANCH   3   5
ENDBRANCH   2   3
ENDBRANCH   1   2
BRANCH   1  70
ATOM     70  C   UNL     1       3.841  -1.487  -1.677  1.00  0.00     0.275 C 
BRANCH  70  71
ATOM     71  O   UNL     1       3.425  -0.174  -2.078  1.00  0.00    -0.458 OA
BRANCH  71  72
ATOM     72  C   UNL     1       2.088  -0.022  -2.262  1.00  0.00     0.342 C 
ATOM     73  O   UNL     1       1.223  -0.865  -2.085  1.00  0.00    -0.246 OA
BRANCH  72  74
ATOM     74  C   UNL     1       1.779   1.389  -2.555  1.00  0.00     0.101 A 
ATOM     75  C   UNL     1       0.935   2.069  -1.671  1.00  0.00     0.022 A 
ATOM     76  C   UNL     1       2.278   2.053  -3.672  1.00  0.00     0.132 A 
ATOM     77  C   UNL     1       0.681   3.435  -1.847  1.00  0.00     0.028 A 
ATOM     78  C   UNL     1       1.954   3.397  -3.892  1.00  0.00     0.074 A 
ATOM     79  C   UNL     1       1.187   4.117  -2.961  1.00  0.00     0.055 A 
BRANCH  76  80
ATOM     80  O   UNL     1       3.087   1.400  -4.560  1.00  0.00    -0.507 OA
ATOM     81  H   UNL     1       3.308   0.501  -4.419  1.00  0.00     0.293 HD
ENDBRANCH  76  80
BRANCH  79  82
ATOM     82  N   UNL     1       0.877   5.486  -3.174  1.00  0.00    -0.250 N 
ATOM     83  C   UNL     1       0.588   5.999  -4.413  1.00  0.00     0.234 C 
ATOM     84  C   UNL     1       0.782   6.437  -2.178  1.00  0.00     0.241 C 
ATOM     85  O   UNL     1       0.643   5.438  -5.500  1.00  0.00    -0.274 OA
ATOM     86  C   UNL     1       0.048   7.382  -4.253  1.00  0.00     0.119 C 
ATOM     87  C   UNL     1       0.266   7.725  -2.785  1.00  0.00     0.121 C 
ATOM     88  O   UNL     1       1.060   6.293  -0.993  1.00  0.00    -0.273 OA
BRANCH  87  89
ATOM     89  C   UNL     1       1.118   8.955  -2.645  1.00  0.00    -0.010 A 
ATOM     90  C   UNL     1       2.414   9.092  -2.188  1.00  0.00     0.088 A 
ATOM     91  C   UNL     1       0.693  10.269  -3.059  1.00  0.00     0.003 A 
ATOM     92  N   UNL     1       2.785  10.410  -2.316  1.00  0.00    -0.361 N 
ATOM     93  C   UNL     1       1.760  11.143  -2.870  1.00  0.00     0.046 A 
ATOM     94  C   UNL     1      -0.503  10.776  -3.612  1.00  0.00     0.010 A 
ATOM     95  H   UNL     1       3.659  10.776  -2.050  1.00  0.00     0.166 HD
ATOM     96  C   UNL     1       1.695  12.500  -3.219  1.00  0.00     0.026 A 
ATOM     97  C   UNL     1      -0.585  12.126  -3.969  1.00  0.00     0.001 A 
ATOM     98  C   UNL     1       0.502  12.973  -3.777  1.00  0.00     0.002 A 
ENDBRANCH  87  89
ENDBRANCH  79  82
ENDBRANCH  72  74
ENDBRANCH  71  72
ENDBRANCH  70  71
ENDBRANCH   1  70
TORSDOF 14
