REMARK SMILES O=C(OCCOC(=O)c1cc(-c2ccc[nH]c2=O)ccc1Cl)c1ccc(-c2c3nc(c(-c4c(F)c(F)c(F)c(F)c4F)c4ccc([nH]4)c(-c4c(F)c(F)c(F)c(F)c4F)c4nc(c(-c5c(F)c(F)c(F)c(F)c5F)c5ccc2[nH]5)C=C4)C=C3)cc1
REMARK SMILES IDX 4 1 3 2 2 3 1 4 23 5 24 6 85 7 25 8 84 9 26 10 27 11 28 12
REMARK SMILES IDX 78 13 29 14 83 15 77 16 79 17 30 18 82 19 76 20 75 21 31 23
REMARK SMILES IDX 63 24 43 25 62 26 44 27 47 28 61 29 80 30 45 31 46 32 60 34
REMARK SMILES IDX 81 35 48 36 32 37 33 38 41 39 34 40 35 41 39 42 42 43 36 44
REMARK SMILES IDX 37 45 40 46 38 47 64 48 65 49 73 50 66 51 67 52 71 53 74 54
REMARK SMILES IDX 68 55 69 56 72 57 70 58 49 59 50 60 58 61 51 62 52 63 56 64
REMARK SMILES IDX 59 65 53 66 54 67 57 68 55 69 5 70 6 71 7 72 8 73 9 74 10 75
REMARK SMILES IDX 21 76 11 77 20 78 22 79 19 80 12 81 13 82 17 83 14 84 16 85
REMARK SMILES IDX 18 86 15 87
REMARK H PARENT 79 22 47 33 16 88
REMARK Flexibility Score: inf
ROOT
ATOM      1  C   UNL     1       3.910   1.276  -0.983  1.00  0.00     0.275 C 
ENDROOT
BRANCH   1   2
ATOM      2  O   UNL     1       2.842   0.329  -1.156  1.00  0.00    -0.458 OA
BRANCH   2   3
ATOM      3  C   UNL     1       2.651  -0.890  -0.605  1.00  0.00     0.338 C 
ATOM      4  O   UNL     1       1.669  -1.545  -0.959  1.00  0.00    -0.246 OA
BRANCH   3   5
ATOM      5  C   UNL     1       3.495  -1.471   0.491  1.00  0.00     0.060 A 
ATOM      6  C   UNL     1       4.797  -1.104   0.825  1.00  0.00     0.016 A 
ATOM      7  C   UNL     1       2.890  -2.480   1.265  1.00  0.00     0.016 A 
ATOM      8  C   UNL     1       5.444  -1.661   1.928  1.00  0.00     0.010 A 
ATOM      9  C   UNL     1       3.518  -3.026   2.389  1.00  0.00     0.010 A 
ATOM     10  C   UNL     1       4.808  -2.615   2.724  1.00  0.00    -0.014 A 
BRANCH  10  11
ATOM     11  C   UNL     1       5.574  -3.244   3.820  1.00  0.00     0.031 A 
ATOM     12  C   UNL     1       6.137  -4.613   3.605  1.00  0.00     0.074 A 
ATOM     13  C   UNL     1       5.864  -2.541   4.930  1.00  0.00     0.049 A 
ATOM     14  N   UNL     1       6.962  -5.290   4.358  1.00  0.00    -0.248 NA
ATOM     15  C   UNL     1       5.753  -5.297   2.360  1.00  0.00     0.031 C 
ATOM     16  C   UNL     1       5.426  -1.171   5.182  1.00  0.00     0.029 A 
ATOM     17  N   UNL     1       6.604  -2.857   6.038  1.00  0.00    -0.354 N 
ATOM     18  C   UNL     1       7.239  -6.450   3.651  1.00  0.00     0.074 A 
ATOM     19  C   UNL     1       6.434  -6.428   2.451  1.00  0.00     0.031 C 
ATOM     20  C   UNL     1       5.872  -0.771   6.383  1.00  0.00     0.029 A 
ATOM     21  C   UNL     1       6.641  -1.855   6.979  1.00  0.00     0.049 A 
ATOM     22  H   UNL     1       7.064  -3.720   6.150  1.00  0.00     0.167 HD
ATOM     23  C   UNL     1       8.124  -7.424   3.962  1.00  0.00     0.037 A 
ATOM     24  C   UNL     1       7.242  -1.820   8.183  1.00  0.00     0.037 A 
ATOM     25  C   UNL     1       8.885  -7.447   5.181  1.00  0.00     0.049 A 
ATOM     26  C   UNL     1       8.114  -2.985   8.567  1.00  0.00     0.074 A 
ATOM     27  C   UNL     1       9.762  -8.413   5.636  1.00  0.00     0.029 A 
ATOM     28  N   UNL     1       8.842  -6.453   6.151  1.00  0.00    -0.354 N 
ATOM     29  N   UNL     1       8.389  -4.069   7.881  1.00  0.00    -0.248 NA
ATOM     30  C   UNL     1       8.786  -2.910   9.868  1.00  0.00     0.031 C 
ATOM     31  C   UNL     1      10.212  -8.027   6.904  1.00  0.00     0.029 A 
ATOM     32  C   UNL     1       9.661  -6.793   7.215  1.00  0.00     0.049 A 
ATOM     33  H   UNL     1       8.307  -5.628   6.091  1.00  0.00     0.167 HD
ATOM     34  C   UNL     1       9.292  -4.789   8.648  1.00  0.00     0.074 A 
ATOM     35  C   UNL     1       9.533  -4.004   9.843  1.00  0.00     0.031 C 
ATOM     36  C   UNL     1       9.873  -5.987   8.392  1.00  0.00     0.037 A 
BRANCH  23  37
ATOM     37  C   UNL     1       8.283  -8.535   2.968  1.00  0.00     0.064 A 
ATOM     38  C   UNL     1       8.904  -8.322   1.726  1.00  0.00     0.173 A 
ATOM     39  C   UNL     1       7.786  -9.816   3.242  1.00  0.00     0.173 A 
ATOM     40  F   UNL     1       9.370  -7.105   1.404  1.00  0.00    -0.203 F 
ATOM     41  C   UNL     1       8.995  -9.344   0.786  1.00  0.00     0.198 A 
ATOM     42  C   UNL     1       7.903 -10.843   2.309  1.00  0.00     0.198 A 
ATOM     43  F   UNL     1       7.174 -10.069   4.409  1.00  0.00    -0.203 F 
ATOM     44  F   UNL     1       9.538  -9.101  -0.416  1.00  0.00    -0.200 F 
ATOM     45  C   UNL     1       8.499 -10.605   1.080  1.00  0.00     0.200 A 
ATOM     46  F   UNL     1       7.424 -12.062   2.595  1.00  0.00    -0.200 F 
ATOM     47  F   UNL     1       8.581 -11.587   0.172  1.00  0.00    -0.200 F 
ENDBRANCH  23  37
BRANCH  24  48
ATOM     48  C   UNL     1       7.046  -0.658   9.094  1.00  0.00     0.064 A 
ATOM     49  C   UNL     1       8.105   0.185   9.458  1.00  0.00     0.173 A 
ATOM     50  C   UNL     1       5.786  -0.393   9.655  1.00  0.00     0.173 A 
ATOM     51  F   UNL     1       9.332  -0.029   8.962  1.00  0.00    -0.203 F 
ATOM     52  C   UNL     1       7.922   1.220  10.376  1.00  0.00     0.198 A 
ATOM     53  C   UNL     1       5.598   0.660  10.549  1.00  0.00     0.198 A 
ATOM     54  F   UNL     1       4.734  -1.161   9.337  1.00  0.00    -0.203 F 
ATOM     55  F   UNL     1       8.966   1.970  10.753  1.00  0.00    -0.200 F 
ATOM     56  C   UNL     1       6.668   1.457  10.919  1.00  0.00     0.200 A 
ATOM     57  F   UNL     1       4.381   0.892  11.060  1.00  0.00    -0.200 F 
ATOM     58  F   UNL     1       6.496   2.445  11.809  1.00  0.00    -0.200 F 
ENDBRANCH  24  48
BRANCH  36  59
ATOM     59  C   UNL     1      10.840  -6.500   9.418  1.00  0.00     0.064 A 
ATOM     60  C   UNL     1      10.410  -6.938  10.680  1.00  0.00     0.173 A 
ATOM     61  C   UNL     1      12.210  -6.574   9.126  1.00  0.00     0.173 A 
ATOM     62  F   UNL     1       9.111  -6.872  11.011  1.00  0.00    -0.203 F 
ATOM     63  C   UNL     1      11.322  -7.393  11.626  1.00  0.00     0.198 A 
ATOM     64  C   UNL     1      13.114  -7.066  10.061  1.00  0.00     0.198 A 
ATOM     65  F   UNL     1      12.670  -6.176   7.930  1.00  0.00    -0.203 F 
ATOM     66  F   UNL     1      10.898  -7.745  12.847  1.00  0.00    -0.200 F 
ATOM     67  C   UNL     1      12.672  -7.465  11.313  1.00  0.00     0.200 A 
ATOM     68  F   UNL     1      14.415  -7.151   9.752  1.00  0.00    -0.200 F 
ATOM     69  F   UNL     1      13.549  -7.908  12.225  1.00  0.00    -0.200 F 
ENDBRANCH  36  59
ENDBRANCH  10  11
ENDBRANCH   3   5
ENDBRANCH   2   3
ENDBRANCH   1   2
BRANCH   1  70
ATOM     70  C   UNL     1       3.789   2.155   0.265  1.00  0.00     0.275 C 
BRANCH  70  71
ATOM     71  O   UNL     1       3.384   1.434   1.438  1.00  0.00    -0.458 OA
BRANCH  71  72
ATOM     72  C   UNL     1       2.062   1.504   1.747  1.00  0.00     0.339 C 
ATOM     73  O   UNL     1       1.194   2.073   1.108  1.00  0.00    -0.246 OA
BRANCH  72  74
ATOM     74  C   UNL     1       1.781   0.656   2.921  1.00  0.00     0.079 A 
ATOM     75  C   UNL     1       0.800  -0.345   2.786  1.00  0.00     0.026 A 
ATOM     76  C   UNL     1       2.433   0.835   4.144  1.00  0.00     0.055 A 
ATOM     77  C   UNL     1       0.511  -1.205   3.856  1.00  0.00    -0.012 A 
ATOM     78  C   UNL     1       2.155  -0.031   5.205  1.00  0.00     0.022 A 
ATOM     79  Cl  UNL     1       3.553   2.119   4.432  1.00  0.00    -0.083 Cl
ATOM     80  C   UNL     1       1.218  -1.055   5.055  1.00  0.00     0.010 A 
BRANCH  77  81
ATOM     81  C   UNL     1      -0.558  -2.217   3.779  1.00  0.00     0.047 A 
ATOM     82  C   UNL     1      -0.447  -3.327   3.024  1.00  0.00     0.016 A 
ATOM     83  C   UNL     1      -1.803  -2.059   4.613  1.00  0.00     0.255 A 
ATOM     84  C   UNL     1      -1.488  -4.329   2.982  1.00  0.00     0.019 A 
ATOM     85  N   UNL     1      -2.736  -3.064   4.510  1.00  0.00    -0.329 N 
ATOM     86  O   UNL     1      -1.980  -1.097   5.354  1.00  0.00    -0.269 OA
ATOM     87  C   UNL     1      -2.592  -4.171   3.718  1.00  0.00     0.086 A 
ATOM     88  H   UNL     1      -3.562  -2.982   5.039  1.00  0.00     0.169 HD
ENDBRANCH  77  81
ENDBRANCH  72  74
ENDBRANCH  71  72
ENDBRANCH  70  71
ENDBRANCH   1  70
TORSDOF 12
