REMARK SMILES CN(c1ccccc1)c1nc(OCC(=O)OCCOC(=O)c2ccc(-c3c4nc(c(-c5c(F)c(F)c(F)c(F)c5F)c5ccc([nH]5)c(-c5c(F)c(F)c(F)c(F)c5F)c5nc(c(-c6c(F)c(F)c(F)c(F)c6F)c6ccc3[nH]6)C=C5)C=C4)cc2)cc(-c2ccncc2)n1
REMARK SMILES IDX 17 1 16 2 14 3 15 4 13 5 12 6 11 7 9 8 10 9 93 10 86 11
REMARK SMILES IDX 85 12 2 13 1 14 3 15 4 16 8 17 5 18 7 19 6 20 87 21 88 22
REMARK SMILES IDX 92 23 89 24 91 25 90 26 18 27 19 28 20 29 21 30 22 31 23 32
REMARK SMILES IDX 84 33 24 34 83 35 25 36 26 37 27 38 77 39 28 40 82 41 76 42
REMARK SMILES IDX 78 43 29 44 81 45 75 46 74 47 30 49 62 50 42 51 61 52 43 53
REMARK SMILES IDX 46 54 60 55 79 56 44 57 45 58 59 60 80 61 47 62 31 63 32 64
REMARK SMILES IDX 40 65 33 66 34 67 38 68 41 69 35 70 36 71 39 72 37 73 63 74
REMARK SMILES IDX 64 75 72 76 65 77 66 78 70 79 73 80 67 81 68 82 71 83 69 84
REMARK SMILES IDX 48 85 49 86 57 87 50 88 51 89 55 90 58 91 52 92 53 93 56 94
REMARK SMILES IDX 54 95
REMARK H PARENT 78 48 46 59
REMARK Flexibility Score: inf
ROOT
ATOM      1  C   UNL     1      -0.385   3.361  -7.285  1.00  0.00     0.274 C 
ENDROOT
BRANCH   1   2
ATOM      2  O   UNL     1      -0.430   2.162  -6.487  1.00  0.00    -0.460 OA
BRANCH   2   3
ATOM      3  C   UNL     1      -0.509   0.996  -7.186  1.00  0.00     0.344 C 
ATOM      4  O   UNL     1      -0.493   0.910  -8.409  1.00  0.00    -0.248 OA
BRANCH   3   5
ATOM      5  C   UNL     1      -0.564  -0.233  -6.288  1.00  0.00     0.353 C 
BRANCH   5   6
ATOM      6  O   UNL     1      -0.793   0.014  -4.916  1.00  0.00    -0.466 OA
BRANCH   6   7
ATOM      7  C   UNL     1       0.245  -0.149  -4.050  1.00  0.00     0.219 A 
ATOM      8  C   UNL     1       0.735  -0.611  -1.849  1.00  0.00     0.233 A 
ATOM      9  N   UNL     1      -0.163  -0.547  -2.843  1.00  0.00    -0.177 NA
ATOM     10  N   UNL     1       2.031  -0.313  -2.021  1.00  0.00    -0.212 NA
ATOM     11  C   UNL     1       2.431   0.039  -3.254  1.00  0.00     0.080 A 
ATOM     12  C   UNL     1       1.557   0.139  -4.319  1.00  0.00     0.097 A 
BRANCH   8  13
ATOM     13  N   UNL     1       0.286  -1.023  -0.590  1.00  0.00    -0.314 N 
ATOM     14  C   UNL     1       0.950  -0.369   0.527  1.00  0.00     0.153 C 
BRANCH  13  15
ATOM     15  C   UNL     1      -0.589  -2.092  -0.363  1.00  0.00     0.043 A 
ATOM     16  C   UNL     1      -0.526  -3.242  -1.173  1.00  0.00     0.026 A 
ATOM     17  C   UNL     1      -1.564  -2.061   0.641  1.00  0.00     0.026 A 
ATOM     18  C   UNL     1      -1.386  -4.324  -0.978  1.00  0.00     0.002 A 
ATOM     19  C   UNL     1      -2.439  -3.136   0.832  1.00  0.00     0.002 A 
ATOM     20  C   UNL     1      -2.346  -4.269   0.026  1.00  0.00     0.000 A 
ENDBRANCH  13  15
ENDBRANCH   8  13
BRANCH  11  21
ATOM     21  C   UNL     1       3.858   0.340  -3.372  1.00  0.00     0.004 A 
ATOM     22  C   UNL     1       4.303   1.658  -3.499  1.00  0.00     0.030 A 
ATOM     23  C   UNL     1       4.822  -0.672  -3.325  1.00  0.00     0.030 A 
ATOM     24  C   UNL     1       5.659   1.903  -3.633  1.00  0.00     0.111 A 
ATOM     25  C   UNL     1       6.160  -0.328  -3.454  1.00  0.00     0.111 A 
ATOM     26  N   UNL     1       6.598   0.935  -3.631  1.00  0.00    -0.265 NA
ENDBRANCH  11  21
ENDBRANCH   6   7
ENDBRANCH   5   6
ENDBRANCH   3   5
ENDBRANCH   2   3
ENDBRANCH   1   2
BRANCH   1  27
ATOM     27  C   UNL     1       1.046   3.867  -7.449  1.00  0.00     0.275 C 
BRANCH  27  28
ATOM     28  O   UNL     1       1.909   2.803  -7.892  1.00  0.00    -0.458 OA
BRANCH  28  29
ATOM     29  C   UNL     1       2.845   2.432  -6.989  1.00  0.00     0.338 C 
ATOM     30  O   UNL     1       3.048   2.944  -5.903  1.00  0.00    -0.246 OA
BRANCH  29  31
ATOM     31  C   UNL     1       3.618   1.260  -7.448  1.00  0.00     0.060 A 
ATOM     32  C   UNL     1       2.993   0.121  -7.966  1.00  0.00     0.016 A 
ATOM     33  C   UNL     1       4.995   1.256  -7.216  1.00  0.00     0.016 A 
ATOM     34  C   UNL     1       3.744  -1.028  -8.224  1.00  0.00     0.010 A 
ATOM     35  C   UNL     1       5.754   0.130  -7.531  1.00  0.00     0.010 A 
ATOM     36  C   UNL     1       5.136  -1.022  -8.039  1.00  0.00    -0.014 A 
BRANCH  36  37
ATOM     37  C   UNL     1       5.975  -2.156  -8.495  1.00  0.00     0.031 A 
ATOM     38  C   UNL     1       6.729  -3.018  -7.528  1.00  0.00     0.074 A 
ATOM     39  C   UNL     1       6.120  -2.346  -9.819  1.00  0.00     0.049 A 
ATOM     40  N   UNL     1       7.667  -3.901  -7.758  1.00  0.00    -0.248 NA
ATOM     41  C   UNL     1       6.382  -2.865  -6.111  1.00  0.00     0.031 C 
ATOM     42  C   UNL     1       5.433  -1.579 -10.858  1.00  0.00     0.029 A 
ATOM     43  N   UNL     1       6.910  -3.223 -10.514  1.00  0.00    -0.354 N 
ATOM     44  C   UNL     1       8.054  -4.378  -6.512  1.00  0.00     0.074 A 
ATOM     45  C   UNL     1       7.243  -3.690  -5.528  1.00  0.00     0.031 C 
ATOM     46  C   UNL     1       5.831  -2.016 -12.060  1.00  0.00     0.029 A 
ATOM     47  C   UNL     1       6.846  -3.047 -11.873  1.00  0.00     0.049 A 
ATOM     48  H   UNL     1       7.466  -3.911 -10.083  1.00  0.00     0.167 HD
ATOM     49  C   UNL     1       9.000  -5.305  -6.226  1.00  0.00     0.037 A 
ATOM     50  C   UNL     1       7.558  -3.616 -12.861  1.00  0.00     0.037 A 
ATOM     51  C   UNL     1       9.765  -6.018  -7.218  1.00  0.00     0.049 A 
ATOM     52  C   UNL     1       8.615  -4.620 -12.520  1.00  0.00     0.074 A 
ATOM     53  C   UNL     1      10.696  -7.027  -7.033  1.00  0.00     0.029 A 
ATOM     54  N   UNL     1       9.684  -5.798  -8.585  1.00  0.00    -0.354 N 
ATOM     55  N   UNL     1       8.989  -5.052 -11.342  1.00  0.00    -0.248 NA
ATOM     56  C   UNL     1       9.355  -5.206 -13.645  1.00  0.00     0.031 C 
ATOM     57  C   UNL     1      11.198  -7.397  -8.287  1.00  0.00     0.029 A 
ATOM     58  C   UNL     1      10.558  -6.640  -9.254  1.00  0.00     0.049 A 
ATOM     59  H   UNL     1       9.091  -5.141  -9.016  1.00  0.00     0.167 HD
ATOM     60  C   UNL     1      10.008  -5.961 -11.578  1.00  0.00     0.074 A 
ATOM     61  C   UNL     1      10.183  -6.030 -13.015  1.00  0.00     0.031 C 
ATOM     62  C   UNL     1      10.733  -6.675 -10.683  1.00  0.00     0.037 A 
BRANCH  49  63
ATOM     63  C   UNL     1       9.280  -5.603  -4.782  1.00  0.00     0.064 A 
ATOM     64  C   UNL     1       8.407  -6.376  -4.004  1.00  0.00     0.173 A 
ATOM     65  C   UNL     1      10.476  -5.168  -4.190  1.00  0.00     0.173 A 
ATOM     66  F   UNL     1       7.247  -6.809  -4.520  1.00  0.00    -0.203 F 
ATOM     67  C   UNL     1       8.716  -6.693  -2.683  1.00  0.00     0.198 A 
ATOM     68  C   UNL     1      10.790  -5.502  -2.875  1.00  0.00     0.198 A 
ATOM     69  F   UNL     1      11.349  -4.431  -4.894  1.00  0.00    -0.203 F 
ATOM     70  F   UNL     1       7.855  -7.413  -1.950  1.00  0.00    -0.200 F 
ATOM     71  C   UNL     1       9.909  -6.262  -2.122  1.00  0.00     0.200 A 
ATOM     72  F   UNL     1      11.949  -5.094  -2.339  1.00  0.00    -0.200 F 
ATOM     73  F   UNL     1      10.208  -6.578  -0.854  1.00  0.00    -0.200 F 
ENDBRANCH  49  63
BRANCH  50  74
ATOM     74  C   UNL     1       7.287  -3.210 -14.258  1.00  0.00     0.064 A 
ATOM     75  C   UNL     1       6.541  -4.033 -15.109  1.00  0.00     0.173 A 
ATOM     76  C   UNL     1       7.687  -1.954 -14.737  1.00  0.00     0.173 A 
ATOM     77  F   UNL     1       6.150  -5.246 -14.692  1.00  0.00    -0.203 F 
ATOM     78  C   UNL     1       6.193  -3.610 -16.389  1.00  0.00     0.198 A 
ATOM     79  C   UNL     1       7.322  -1.524 -16.009  1.00  0.00     0.198 A 
ATOM     80  F   UNL     1       8.394  -1.129 -13.950  1.00  0.00    -0.203 F 
ATOM     81  F   UNL     1       5.481  -4.415 -17.187  1.00  0.00    -0.200 F 
ATOM     82  C   UNL     1       6.574  -2.351 -16.833  1.00  0.00     0.200 A 
ATOM     83  F   UNL     1       7.676  -0.301 -16.429  1.00  0.00    -0.200 F 
ATOM     84  F   UNL     1       6.215  -1.934 -18.055  1.00  0.00    -0.200 F 
ENDBRANCH  50  74
BRANCH  62  85
ATOM     85  C   UNL     1      11.778  -7.589 -11.242  1.00  0.00     0.064 A 
ATOM     86  C   UNL     1      13.007  -7.093 -11.698  1.00  0.00     0.173 A 
ATOM     87  C   UNL     1      11.551  -8.970 -11.318  1.00  0.00     0.173 A 
ATOM     88  F   UNL     1      13.258  -5.776 -11.662  1.00  0.00    -0.203 F 
ATOM     89  C   UNL     1      13.968  -7.949 -12.230  1.00  0.00     0.198 A 
ATOM     90  C   UNL     1      12.520  -9.825 -11.835  1.00  0.00     0.198 A 
ATOM     91  F   UNL     1      10.388  -9.489 -10.895  1.00  0.00    -0.203 F 
ATOM     92  F   UNL     1      15.121  -7.451 -12.697  1.00  0.00    -0.200 F 
ATOM     93  C   UNL     1      13.725  -9.313 -12.295  1.00  0.00     0.200 A 
ATOM     94  F   UNL     1      12.286 -11.143 -11.896  1.00  0.00    -0.200 F 
ATOM     95  F   UNL     1      14.648 -10.135 -12.813  1.00  0.00    -0.200 F 
ENDBRANCH  62  85
ENDBRANCH  36  37
ENDBRANCH  29  31
ENDBRANCH  28  29
ENDBRANCH  27  28
ENDBRANCH   1  27
TORSDOF 16
