REMARK SMILES O=C(OCCOC(=O)c1conc1-c1ccc(Cl)cc1)c1ccc(-c2c3nc(c(-c4c(F)c(F)c(F)c(F)c4F)c4ccc([nH]4)c(-c4c(F)c(F)c(F)c(F)c4F)c4nc(c(-c5c(F)c(F)c(F)c(F)c5F)c5ccc2[nH]5)C=C4)C=C3)cc1
REMARK SMILES IDX 4 1 3 2 2 3 1 4 21 5 22 6 83 7 23 8 82 9 24 10 25 11 26 12
REMARK SMILES IDX 76 13 27 14 81 15 75 16 77 17 28 18 80 19 74 20 73 21 29 23
REMARK SMILES IDX 61 24 41 25 60 26 42 27 45 28 59 29 78 30 43 31 44 32 58 34
REMARK SMILES IDX 79 35 46 36 30 37 31 38 39 39 32 40 33 41 37 42 40 43 34 44
REMARK SMILES IDX 35 45 38 46 36 47 62 48 63 49 71 50 64 51 65 52 69 53 72 54
REMARK SMILES IDX 66 55 67 56 70 57 68 58 47 59 48 60 56 61 49 62 50 63 54 64
REMARK SMILES IDX 57 65 51 66 52 67 55 68 53 69 5 70 6 71 7 72 8 73 9 74 10 75
REMARK SMILES IDX 13 76 11 77 12 78 14 79 15 80 20 81 16 82 19 83 17 84 18 85
REMARK H PARENT 77 22 45 33
REMARK Flexibility Score: inf
ROOT
ATOM      1  C   UNL     1       4.828   1.766   0.135  1.00  0.00     0.275 C 
ENDROOT
BRANCH   1   2
ATOM      2  O   UNL     1       4.604   0.988  -1.058  1.00  0.00    -0.458 OA
BRANCH   2   3
ATOM      3  C   UNL     1       3.831  -0.114  -1.077  1.00  0.00     0.338 C 
ATOM      4  O   UNL     1       2.751  -0.134  -1.647  1.00  0.00    -0.246 OA
BRANCH   3   5
ATOM      5  C   UNL     1       4.422  -1.347  -0.478  1.00  0.00     0.060 A 
ATOM      6  C   UNL     1       5.587  -1.340   0.289  1.00  0.00     0.016 A 
ATOM      7  C   UNL     1       3.729  -2.556  -0.639  1.00  0.00     0.016 A 
ATOM      8  C   UNL     1       6.019  -2.502   0.920  1.00  0.00     0.010 A 
ATOM      9  C   UNL     1       4.107  -3.701   0.052  1.00  0.00     0.010 A 
ATOM     10  C   UNL     1       5.279  -3.683   0.805  1.00  0.00    -0.014 A 
BRANCH  10  11
ATOM     11  C   UNL     1       5.850  -4.934   1.332  1.00  0.00     0.031 A 
ATOM     12  C   UNL     1       6.430  -5.907   0.349  1.00  0.00     0.074 A 
ATOM     13  C   UNL     1       5.905  -5.128   2.660  1.00  0.00     0.049 A 
ATOM     14  N   UNL     1       7.105  -7.002   0.572  1.00  0.00    -0.248 NA
ATOM     15  C   UNL     1       6.231  -5.608  -1.081  1.00  0.00     0.031 C 
ATOM     16  C   UNL     1       5.346  -4.222   3.665  1.00  0.00     0.029 A 
ATOM     17  N   UNL     1       6.464  -6.134   3.398  1.00  0.00    -0.354 N 
ATOM     18  C   UNL     1       7.426  -7.501  -0.683  1.00  0.00     0.074 A 
ATOM     19  C   UNL     1       6.807  -6.645  -1.665  1.00  0.00     0.031 C 
ATOM     20  C   UNL     1       5.593  -4.711   4.890  1.00  0.00     0.029 A 
ATOM     21  C   UNL     1       6.323  -5.965   4.754  1.00  0.00     0.049 A 
ATOM     22  H   UNL     1       6.923  -6.907   2.995  1.00  0.00     0.167 HD
ATOM     23  C   UNL     1       8.211  -8.559  -0.982  1.00  0.00     0.037 A 
ATOM     24  C   UNL     1       6.755  -6.743   5.762  1.00  0.00     0.037 A 
ATOM     25  C   UNL     1       8.802  -9.396   0.024  1.00  0.00     0.049 A 
ATOM     26  C   UNL     1       7.585  -7.946   5.399  1.00  0.00     0.074 A 
ATOM     27  C   UNL     1       9.614 -10.501  -0.131  1.00  0.00     0.029 A 
ATOM     28  N   UNL     1       8.626  -9.209   1.391  1.00  0.00    -0.354 N 
ATOM     29  N   UNL     1       7.948  -8.371   4.210  1.00  0.00    -0.248 NA
ATOM     30  C   UNL     1       8.092  -8.759   6.509  1.00  0.00     0.031 C 
ATOM     31  C   UNL     1       9.892 -11.010   1.143  1.00  0.00     0.029 A 
ATOM     32  C   UNL     1       9.300 -10.190   2.093  1.00  0.00     0.049 A 
ATOM     33  H   UNL     1       8.098  -8.484   1.798  1.00  0.00     0.167 HD
ATOM     34  C   UNL     1       8.748  -9.482   4.427  1.00  0.00     0.074 A 
ATOM     35  C   UNL     1       8.837  -9.647   5.866  1.00  0.00     0.031 C 
ATOM     36  C   UNL     1       9.354 -10.300   3.530  1.00  0.00     0.037 A 
BRANCH  23  37
ATOM     37  C   UNL     1       8.456  -8.848  -2.435  1.00  0.00     0.064 A 
ATOM     38  C   UNL     1       9.218  -7.981  -3.237  1.00  0.00     0.173 A 
ATOM     39  C   UNL     1       7.909  -9.986  -3.042  1.00  0.00     0.173 A 
ATOM     40  F   UNL     1       9.743  -6.862  -2.713  1.00  0.00    -0.203 F 
ATOM     41  C   UNL     1       9.397  -8.229  -4.596  1.00  0.00     0.198 A 
ATOM     42  C   UNL     1       8.114 -10.246  -4.396  1.00  0.00     0.198 A 
ATOM     43  F   UNL     1       7.165 -10.843  -2.327  1.00  0.00    -0.203 F 
ATOM     44  F   UNL     1      10.077  -7.355  -5.351  1.00  0.00    -0.200 F 
ATOM     45  C   UNL     1       8.850  -9.364  -5.173  1.00  0.00     0.200 A 
ATOM     46  F   UNL     1       7.588 -11.347  -4.952  1.00  0.00    -0.200 F 
ATOM     47  F   UNL     1       9.020  -9.601  -6.481  1.00  0.00    -0.200 F 
ENDBRANCH  23  37
BRANCH  24  48
ATOM     48  C   UNL     1       6.447  -6.395   7.176  1.00  0.00     0.064 A 
ATOM     49  C   UNL     1       7.457  -6.029   8.078  1.00  0.00     0.173 A 
ATOM     50  C   UNL     1       5.130  -6.430   7.662  1.00  0.00     0.173 A 
ATOM     51  F   UNL     1       8.734  -5.983   7.670  1.00  0.00    -0.203 F 
ATOM     52  C   UNL     1       7.167  -5.746   9.413  1.00  0.00     0.198 A 
ATOM     53  C   UNL     1       4.838  -6.117   8.989  1.00  0.00     0.198 A 
ATOM     54  F   UNL     1       4.121  -6.760   6.842  1.00  0.00    -0.203 F 
ATOM     55  F   UNL     1       8.160  -5.449  10.262  1.00  0.00    -0.200 F 
ATOM     56  C   UNL     1       5.858  -5.787   9.867  1.00  0.00     0.200 A 
ATOM     57  F   UNL     1       3.568  -6.139   9.417  1.00  0.00    -0.200 F 
ATOM     58  F   UNL     1       5.581  -5.515  11.149  1.00  0.00    -0.200 F 
ENDBRANCH  24  48
BRANCH  36  59
ATOM     59  C   UNL     1      10.178 -11.417   4.095  1.00  0.00     0.064 A 
ATOM     60  C   UNL     1       9.582 -12.520   4.723  1.00  0.00     0.173 A 
ATOM     61  C   UNL     1      11.575 -11.396   3.974  1.00  0.00     0.173 A 
ATOM     62  F   UNL     1       8.250 -12.574   4.874  1.00  0.00    -0.203 F 
ATOM     63  C   UNL     1      10.362 -13.547   5.244  1.00  0.00     0.198 A 
ATOM     64  C   UNL     1      12.347 -12.443   4.462  1.00  0.00     0.198 A 
ATOM     65  F   UNL     1      12.187 -10.365   3.371  1.00  0.00    -0.203 F 
ATOM     66  F   UNL     1       9.778 -14.562   5.895  1.00  0.00    -0.200 F 
ATOM     67  C   UNL     1      11.742 -13.512   5.105  1.00  0.00     0.200 A 
ATOM     68  F   UNL     1      13.679 -12.416   4.312  1.00  0.00    -0.200 F 
ATOM     69  F   UNL     1      12.490 -14.506   5.602  1.00  0.00    -0.200 F 
ENDBRANCH  36  59
ENDBRANCH  10  11
ENDBRANCH   3   5
ENDBRANCH   2   3
ENDBRANCH   1   2
BRANCH   1  70
ATOM     70  C   UNL     1       3.838   1.721   1.312  1.00  0.00     0.275 C 
BRANCH  70  71
ATOM     71  O   UNL     1       3.383   0.410   1.677  1.00  0.00    -0.458 OA
BRANCH  71  72
ATOM     72  C   UNL     1       2.031   0.182   1.598  1.00  0.00     0.343 C 
ATOM     73  O   UNL     1       1.204   1.024   1.270  1.00  0.00    -0.246 OA
BRANCH  72  74
ATOM     74  C   UNL     1       1.687  -1.171   1.950  1.00  0.00     0.127 A 
ATOM     75  C   UNL     1       2.294  -1.904   2.943  1.00  0.00     0.247 A 
ATOM     76  C   UNL     1       0.684  -2.049   1.441  1.00  0.00     0.128 A 
ATOM     77  O   UNL     1       1.738  -3.131   3.016  1.00  0.00    -0.363 OA
ATOM     78  N   UNL     1       0.733  -3.232   2.080  1.00  0.00    -0.079 NA
BRANCH  76  79
ATOM     79  C   UNL     1      -0.287  -1.868   0.365  1.00  0.00     0.005 A 
ATOM     80  C   UNL     1       0.119  -1.807  -0.971  1.00  0.00     0.012 A 
ATOM     81  C   UNL     1      -1.657  -1.869   0.640  1.00  0.00     0.012 A 
ATOM     82  C   UNL     1      -0.802  -1.764  -2.019  1.00  0.00     0.021 A 
ATOM     83  C   UNL     1      -2.589  -1.807  -0.405  1.00  0.00     0.021 A 
ATOM     84  C   UNL     1      -2.158  -1.762  -1.730  1.00  0.00     0.041 A 
ATOM     85  Cl  UNL     1      -3.300  -1.716  -3.014  1.00  0.00    -0.084 Cl
ENDBRANCH  76  79
ENDBRANCH  72  74
ENDBRANCH  71  72
ENDBRANCH  70  71
ENDBRANCH   1  70
TORSDOF 12
