REMARK SMILES Cc1cnn(C2(C(=O)OCCOC(=O)c3ccc(-c4c5nc(c(-c6c(F)c(F)c(F)c(F)c6F)c6ccc([nH]6)c(-c6c(F)c(F)c(F)c(F)c6F)c6nc(c(-c7c(F)c(F)c(F)c(F)c7F)c7ccc4[nH]7)C=C6)C=C5)cc3)CCN(C(=O)c3cc4ccccc4[nH]3)CC2)c1
REMARK SMILES IDX 11 1 10 2 9 3 7 4 8 5 6 6 78 7 93 8 79 9 92 10 80 11 81 12
REMARK SMILES IDX 82 13 5 14 1 15 2 16 3 17 94 18 4 19 83 20 84 21 91 22 85 23
REMARK SMILES IDX 90 24 86 26 89 27 87 28 88 29 12 30 13 31 14 32 15 33 16 34
REMARK SMILES IDX 77 35 17 36 76 37 18 38 19 39 20 40 70 41 21 42 75 43 69 44
REMARK SMILES IDX 71 45 22 46 74 47 68 48 67 49 23 51 55 52 35 53 54 54 36 55
REMARK SMILES IDX 39 56 53 57 72 58 37 59 38 60 52 62 73 63 40 64 24 65 25 66
REMARK SMILES IDX 33 67 26 68 27 69 31 70 34 71 28 72 29 73 32 74 30 75 56 76
REMARK SMILES IDX 57 77 65 78 58 79 59 80 63 81 66 82 60 83 61 84 64 85 62 86
REMARK SMILES IDX 41 87 42 88 50 89 43 90 44 91 48 92 51 93 45 94 46 95 49 96
REMARK SMILES IDX 47 97
REMARK H PARENT 91 25 71 50 39 61
REMARK Flexibility Score: inf
ROOT
ATOM      1  C   UNL     1      -1.388   7.026   4.830  1.00  0.00     0.275 C 
ENDROOT
BRANCH   1   2
ATOM      2  C   UNL     1       0.125   6.905   4.685  1.00  0.00     0.274 C 
BRANCH   2   3
ATOM      3  O   UNL     1       0.455   6.372   3.386  1.00  0.00    -0.460 OA
BRANCH   3   4
ATOM      4  C   UNL     1       0.826   5.057   3.314  1.00  0.00     0.334 C 
ATOM      5  O   UNL     1       1.164   4.432   4.314  1.00  0.00    -0.249 OA
BRANCH   4   6
ATOM      6  C   UNL     1       0.931   4.548   1.838  1.00  0.00     0.163 C 
ATOM      7  C   UNL     1       0.248   5.527   0.838  1.00  0.00     0.064 C 
ATOM      8  C   UNL     1       2.458   4.507   1.608  1.00  0.00     0.064 C 
ATOM      9  C   UNL     1       0.780   5.547  -0.582  1.00  0.00     0.123 C 
ATOM     10  C   UNL     1       2.855   4.394   0.149  1.00  0.00     0.123 C 
ATOM     11  N   UNL     1       2.218   5.433  -0.652  1.00  0.00    -0.337 N 
ATOM     12  C   UNL     1       2.895   6.201  -1.607  1.00  0.00     0.270 C 
ATOM     13  O   UNL     1       2.509   7.287  -1.979  1.00  0.00    -0.267 OA
BRANCH   6  14
ATOM     14  N   UNL     1       0.399   3.162   1.700  1.00  0.00    -0.255 N 
ATOM     15  C   UNL     1       0.603  -0.122   0.110  1.00  0.00     0.048 C 
ATOM     16  C   UNL     1       0.387   1.075   0.952  1.00  0.00    -0.013 A 
ATOM     17  C   UNL     1       0.218   1.145   2.345  1.00  0.00     0.138 A 
ATOM     18  C   UNL     1       0.351   2.396   0.555  1.00  0.00     0.113 A 
ATOM     19  N   UNL     1       0.140   2.401   2.785  1.00  0.00    -0.180 NA
ENDBRANCH   6  14
BRANCH  12  20
ATOM     20  C   UNL     1       4.089   5.578  -2.127  1.00  0.00     0.105 A 
ATOM     21  C   UNL     1       4.250   4.298  -2.623  1.00  0.00     0.042 A 
ATOM     22  N   UNL     1       5.310   6.198  -2.199  1.00  0.00    -0.351 N 
ATOM     23  C   UNL     1       5.635   4.070  -2.786  1.00  0.00     0.000 A 
ATOM     24  C   UNL     1       6.284   5.270  -2.498  1.00  0.00     0.046 A 
ATOM     25  H   UNL     1       5.467   7.160  -2.060  1.00  0.00     0.167 HD
ATOM     26  C   UNL     1       6.396   2.937  -3.120  1.00  0.00     0.010 A 
ATOM     27  C   UNL     1       7.676   5.394  -2.525  1.00  0.00     0.026 A 
ATOM     28  C   UNL     1       7.788   3.039  -3.134  1.00  0.00     0.001 A 
ATOM     29  C   UNL     1       8.415   4.249  -2.841  1.00  0.00     0.002 A 
ENDBRANCH  12  20
ENDBRANCH   4   6
ENDBRANCH   3   4
ENDBRANCH   2   3
ENDBRANCH   1   2
BRANCH   1  30
ATOM     30  O   UNL     1      -1.995   5.733   4.940  1.00  0.00    -0.458 OA
BRANCH  30  31
ATOM     31  C   UNL     1      -2.292   5.182   3.744  1.00  0.00     0.338 C 
ATOM     32  O   UNL     1      -2.008   5.627   2.644  1.00  0.00    -0.246 OA
BRANCH  31  33
ATOM     33  C   UNL     1      -3.214   4.061   3.873  1.00  0.00     0.060 A 
ATOM     34  C   UNL     1      -3.336   3.224   2.758  1.00  0.00     0.016 A 
ATOM     35  C   UNL     1      -4.180   4.112   4.881  1.00  0.00     0.016 A 
ATOM     36  C   UNL     1      -4.532   2.579   2.548  1.00  0.00     0.010 A 
ATOM     37  C   UNL     1      -5.373   3.461   4.673  1.00  0.00     0.010 A 
ATOM     38  C   UNL     1      -5.565   2.784   3.465  1.00  0.00    -0.014 A 
BRANCH  38  39
ATOM     39  C   UNL     1      -6.874   2.266   3.116  1.00  0.00     0.031 A 
ATOM     40  C   UNL     1      -6.986   0.789   3.159  1.00  0.00     0.074 A 
ATOM     41  C   UNL     1      -7.910   3.101   2.910  1.00  0.00     0.049 A 
ATOM     42  N   UNL     1      -7.457  -0.019   2.266  1.00  0.00    -0.248 NA
ATOM     43  C   UNL     1      -6.416   0.118   4.342  1.00  0.00     0.031 C 
ATOM     44  C   UNL     1      -7.943   4.552   3.135  1.00  0.00     0.029 A 
ATOM     45  N   UNL     1      -9.200   2.806   2.592  1.00  0.00    -0.354 N 
ATOM     46  C   UNL     1      -7.391  -1.285   2.840  1.00  0.00     0.074 A 
ATOM     47  C   UNL     1      -6.635  -1.163   4.057  1.00  0.00     0.031 C 
ATOM     48  C   UNL     1      -9.228   4.960   3.190  1.00  0.00     0.029 A 
ATOM     49  C   UNL     1     -10.086   3.831   2.875  1.00  0.00     0.049 A 
ATOM     50  H   UNL     1      -9.476   1.948   2.198  1.00  0.00     0.167 HD
ATOM     51  C   UNL     1      -8.168  -2.310   2.406  1.00  0.00     0.037 A 
ATOM     52  C   UNL     1     -11.431   3.722   2.960  1.00  0.00     0.037 A 
ATOM     53  C   UNL     1      -8.639  -2.104   1.067  1.00  0.00     0.049 A 
ATOM     54  C   UNL     1     -11.838   2.487   2.250  1.00  0.00     0.074 A 
ATOM     55  C   UNL     1      -8.062  -2.076  -0.184  1.00  0.00     0.029 A 
ATOM     56  N   UNL     1      -9.889  -1.562   0.936  1.00  0.00    -0.354 N 
ATOM     57  N   UNL     1     -11.719   2.304   0.965  1.00  0.00    -0.248 NA
ATOM     58  C   UNL     1     -12.091   1.281   3.028  1.00  0.00     0.031 C 
ATOM     59  C   UNL     1      -8.867  -1.190  -0.960  1.00  0.00     0.029 A 
ATOM     60  C   UNL     1      -9.899  -0.721  -0.145  1.00  0.00     0.049 A 
ATOM     61  H   UNL     1     -10.657  -1.747   1.524  1.00  0.00     0.167 HD
ATOM     62  C   UNL     1     -11.477   0.947   0.823  1.00  0.00     0.074 A 
ATOM     63  C   UNL     1     -11.885   0.355   2.088  1.00  0.00     0.031 C 
ATOM     64  C   UNL     1     -10.701   0.481  -0.198  1.00  0.00     0.037 A 
BRANCH  51  65
ATOM     65  C   UNL     1      -8.823  -3.285   3.349  1.00  0.00     0.064 A 
ATOM     66  C   UNL     1      -9.425  -4.450   2.840  1.00  0.00     0.173 A 
ATOM     67  C   UNL     1      -9.142  -2.963   4.688  1.00  0.00     0.173 A 
ATOM     68  F   UNL     1      -9.222  -4.821   1.567  1.00  0.00    -0.203 F 
ATOM     69  C   UNL     1     -10.316  -5.209   3.603  1.00  0.00     0.198 A 
ATOM     70  C   UNL     1      -9.988  -3.752   5.463  1.00  0.00     0.198 A 
ATOM     71  F   UNL     1      -8.744  -1.817   5.256  1.00  0.00    -0.203 F 
ATOM     72  F   UNL     1     -10.955  -6.245   3.045  1.00  0.00    -0.200 F 
ATOM     73  C   UNL     1     -10.597  -4.859   4.913  1.00  0.00     0.200 A 
ATOM     74  F   UNL     1     -10.267  -3.381   6.721  1.00  0.00    -0.200 F 
ATOM     75  F   UNL     1     -11.492  -5.554   5.627  1.00  0.00    -0.200 F 
ENDBRANCH  51  65
BRANCH  52  76
ATOM     76  C   UNL     1     -12.307   4.426   3.923  1.00  0.00     0.064 A 
ATOM     77  C   UNL     1     -13.681   4.565   3.687  1.00  0.00     0.173 A 
ATOM     78  C   UNL     1     -11.852   4.756   5.216  1.00  0.00     0.173 A 
ATOM     79  F   UNL     1     -14.198   4.222   2.498  1.00  0.00    -0.203 F 
ATOM     80  C   UNL     1     -14.553   4.998   4.692  1.00  0.00     0.198 A 
ATOM     81  C   UNL     1     -12.719   5.199   6.213  1.00  0.00     0.198 A 
ATOM     82  F   UNL     1     -10.570   4.567   5.565  1.00  0.00    -0.203 F 
ATOM     83  F   UNL     1     -15.869   5.064   4.451  1.00  0.00    -0.200 F 
ATOM     84  C   UNL     1     -14.072   5.308   5.955  1.00  0.00     0.200 A 
ATOM     85  F   UNL     1     -12.244   5.460   7.439  1.00  0.00    -0.200 F 
ATOM     86  F   UNL     1     -14.914   5.669   6.932  1.00  0.00    -0.200 F 
ENDBRANCH  52  76
BRANCH  64  87
ATOM     87  C   UNL     1     -10.479   1.407  -1.357  1.00  0.00     0.064 A 
ATOM     88  C   UNL     1      -9.736   2.596  -1.276  1.00  0.00     0.173 A 
ATOM     89  C   UNL     1     -10.955   1.026  -2.618  1.00  0.00     0.173 A 
ATOM     90  F   UNL     1      -9.161   2.970  -0.127  1.00  0.00    -0.203 F 
ATOM     91  C   UNL     1      -9.531   3.397  -2.398  1.00  0.00     0.198 A 
ATOM     92  C   UNL     1     -10.717   1.808  -3.744  1.00  0.00     0.198 A 
ATOM     93  F   UNL     1     -11.619  -0.132  -2.764  1.00  0.00    -0.203 F 
ATOM     94  F   UNL     1      -8.839   4.540  -2.290  1.00  0.00    -0.200 F 
ATOM     95  C   UNL     1     -10.019   3.000  -3.631  1.00  0.00     0.200 A 
ATOM     96  F   UNL     1     -11.146   1.395  -4.945  1.00  0.00    -0.200 F 
ATOM     97  F   UNL     1      -9.794   3.752  -4.718  1.00  0.00    -0.200 F 
ENDBRANCH  64  87
ENDBRANCH  38  39
ENDBRANCH  31  33
ENDBRANCH  30  31
ENDBRANCH   1  30
TORSDOF 13
