REMARK SMILES Cc1ccc(NC(=O)CN2C(=O)S/C(=C\c3cc(Cl)c(OCC(=O)OCCOC(=O)c4ccc(-c5c6nc(c(-c7c(F)c(F)c(F)c(F)c7F)c7ccc([nH]7)c(-c7c(F)c(F)c(F)c(F)c7F)c7nc(c(-c8c(F)c(F)c(F)c(F)c8F)c8ccc5[nH]8)C=C7)C=C6)cc4)c(Cl)c3)C2=O)cc1
REMARK SMILES IDX 23 1 24 2 22 3 21 4 20 5 16 6 17 7 96 8 18 9 94 10 19 11
REMARK SMILES IDX 95 12 15 13 10 14 11 15 97 16 12 17 13 18 14 19 98 20 9 21
REMARK SMILES IDX 7 22 6 23 8 25 5 26 1 27 2 28 3 29 100 30 4 31 99 32 25 33
REMARK SMILES IDX 26 34 27 35 28 36 29 37 30 38 31 39 32 40 93 41 33 42 92 43
REMARK SMILES IDX 34 44 35 45 36 46 86 47 37 48 91 49 85 50 87 51 38 52 90 53
REMARK SMILES IDX 84 54 83 55 39 57 71 58 51 59 70 60 52 61 55 62 69 63 88 64
REMARK SMILES IDX 53 65 54 66 68 68 89 69 56 70 40 71 41 72 49 73 42 74 43 75
REMARK SMILES IDX 47 76 50 77 44 78 45 79 48 80 46 81 72 82 73 83 81 84 74 85
REMARK SMILES IDX 75 86 79 87 82 88 76 89 77 90 80 91 78 92 57 93 58 94 66 95
REMARK SMILES IDX 59 96 60 97 64 98 67 99 61 100 62 101 65 102 63 103
REMARK H PARENT 6 24 87 56 55 67
REMARK Flexibility Score: inf
ROOT
ATOM      1  C   UNL     1      -7.912  -4.201 -10.301  1.00  0.00     0.344 C 
ATOM      2  O   UNL     1      -8.743  -4.070  -9.354  1.00  0.00    -0.248 OA
ENDROOT
BRANCH   1   3
ATOM      3  C   UNL     1      -6.493  -2.798 -11.192  1.00  0.00     0.352 C 
BRANCH   3   4
ATOM      4  O   UNL     1      -5.442  -1.691 -10.785  1.00  0.00    -0.479 OA
BRANCH   4   5
ATOM      5  C   UNL     1      -4.449  -1.798  -9.833  1.00  0.00     0.157 A 
ATOM      6  C   UNL     1      -2.853  -2.246  -7.453  1.00  0.00    -0.021 A 
ATOM      7  C   UNL     1      -2.505  -2.820  -8.691  1.00  0.00     0.032 A 
ATOM      8  C   UNL     1      -3.916  -1.336  -7.513  1.00  0.00     0.032 A 
ATOM      9  C   UNL     1      -3.303  -2.607  -9.865  1.00  0.00     0.085 A 
ATOM     10  C   UNL     1      -4.619  -1.032  -8.685  1.00  0.00     0.085 A 
ATOM     11  Cl  UNL     1      -2.796  -3.361 -11.335  1.00  0.00    -0.080 Cl
ATOM     12  Cl  UNL     1      -5.747   0.281  -8.610  1.00  0.00    -0.080 Cl
BRANCH   6  13
ATOM     13  C   UNL     1      -2.281  -2.708  -6.126  1.00  0.00     0.029 C 
ATOM     14  N   UNL     1      -3.026  -2.154  -2.606  1.00  0.00    -0.259 N 
ATOM     15  C   UNL     1      -3.837  -1.198  -3.142  1.00  0.00     0.294 C 
ATOM     16  C   UNL     1      -2.234  -2.808  -3.544  1.00  0.00     0.268 C 
ATOM     17  O   UNL     1      -4.941  -0.842  -2.771  1.00  0.00    -0.261 OA
ATOM     18  S   UNL     1      -3.059  -0.568  -4.560  1.00  0.00    -0.022 SA
ATOM     19  C   UNL     1      -2.406  -2.132  -4.903  1.00  0.00     0.083 C 
ATOM     20  O   UNL     1      -1.579  -3.823  -3.355  1.00  0.00    -0.268 OA
BRANCH  14  21
ATOM     21  C   UNL     1      -3.355  -2.673  -1.280  1.00  0.00     0.230 C 
BRANCH  21  22
ATOM     22  C   UNL     1      -3.784  -1.553  -0.298  1.00  0.00     0.244 C 
ATOM     23  N   UNL     1      -3.001  -0.456  -0.062  1.00  0.00    -0.325 N 
ATOM     24  H   UNL     1      -3.500   0.364   0.157  1.00  0.00     0.169 HD
ATOM     25  O   UNL     1      -4.886  -1.602   0.259  1.00  0.00    -0.273 OA
BRANCH  23  26
ATOM     26  C   UNL     1      -1.609  -0.302  -0.078  1.00  0.00     0.041 A 
ATOM     27  C   UNL     1       2.663   0.286  -0.017  1.00  0.00     0.044 C 
ATOM     28  C   UNL     1       1.175   0.110  -0.009  1.00  0.00    -0.051 A 
ATOM     29  C   UNL     1       0.641  -1.178   0.075  1.00  0.00     0.005 A 
ATOM     30  C   UNL     1       0.303   1.200  -0.087  1.00  0.00     0.005 A 
ATOM     31  C   UNL     1      -0.738  -1.379   0.052  1.00  0.00     0.026 A 
ATOM     32  C   UNL     1      -1.083   0.995  -0.108  1.00  0.00     0.026 A 
ENDBRANCH  23  26
ENDBRANCH  21  22
ENDBRANCH  14  21
ENDBRANCH   6  13
ENDBRANCH   4   5
ENDBRANCH   3   4
ENDBRANCH   1   3
BRANCH   1  33
ATOM     33  O   UNL     1      -7.992  -5.603 -10.654  1.00  0.00    -0.460 OA
BRANCH  33  34
ATOM     34  C   UNL     1      -8.239  -6.543  -9.595  1.00  0.00     0.274 C 
BRANCH  34  35
ATOM     35  C   UNL     1      -6.995  -6.647  -8.707  1.00  0.00     0.275 C 
BRANCH  35  36
ATOM     36  O   UNL     1      -6.786  -5.527  -7.808  1.00  0.00    -0.458 OA
BRANCH  36  37
ATOM     37  C   UNL     1      -6.012  -4.431  -8.033  1.00  0.00     0.338 C 
ATOM     38  O   UNL     1      -5.460  -3.830  -7.126  1.00  0.00    -0.246 OA
BRANCH  37  39
ATOM     39  C   UNL     1      -6.163  -3.785  -9.360  1.00  0.00     0.060 A 
ATOM     40  C   UNL     1      -7.365  -2.416  -9.348  1.00  0.00     0.016 A 
ATOM     41  C   UNL     1      -5.949  -4.768 -10.854  1.00  0.00     0.016 A 
ATOM     42  C   UNL     1      -8.511  -2.214 -10.726  1.00  0.00     0.010 A 
ATOM     43  C   UNL     1      -7.091  -4.524 -12.254  1.00  0.00     0.010 A 
ATOM     44  C   UNL     1      -8.430  -3.334 -12.118  1.00  0.00    -0.014 A 
BRANCH  44  45
ATOM     45  C   UNL     1      -9.677  -3.840 -12.739  1.00  0.00     0.031 A 
ATOM     46  C   UNL     1      -9.775  -3.799 -14.200  1.00  0.00     0.074 A 
ATOM     47  C   UNL     1     -10.633  -4.490 -12.018  1.00  0.00     0.049 A 
ATOM     48  N   UNL     1     -10.887  -3.785 -14.843  1.00  0.00    -0.248 NA
ATOM     49  C   UNL     1      -8.613  -3.659 -15.065  1.00  0.00     0.031 C 
ATOM     50  C   UNL     1     -11.663  -5.421 -12.491  1.00  0.00     0.029 A 
ATOM     51  N   UNL     1     -10.913  -4.423 -10.662  1.00  0.00    -0.354 N 
ATOM     52  C   UNL     1     -10.595  -3.963 -16.176  1.00  0.00     0.074 A 
ATOM     53  C   UNL     1      -9.184  -3.695 -16.271  1.00  0.00     0.031 C 
ATOM     54  C   UNL     1     -12.553  -5.662 -11.508  1.00  0.00     0.029 A 
ATOM     55  C   UNL     1     -12.217  -4.814 -10.381  1.00  0.00     0.049 A 
ATOM     56  H   UNL     1     -10.265  -4.133  -9.980  1.00  0.00     0.167 HD
ATOM     57  C   UNL     1     -11.566  -4.477 -16.984  1.00  0.00     0.037 A 
ATOM     58  C   UNL     1     -13.070  -3.967  -9.731  1.00  0.00     0.037 A 
ATOM     59  C   UNL     1     -12.796  -4.677 -16.206  1.00  0.00     0.049 A 
ATOM     60  C   UNL     1     -14.097  -3.410 -10.693  1.00  0.00     0.074 A 
ATOM     61  C   UNL     1     -13.356  -5.796 -15.612  1.00  0.00     0.029 A 
ATOM     62  N   UNL     1     -13.426  -3.576 -15.636  1.00  0.00    -0.354 N 
ATOM     63  N   UNL     1     -13.978  -3.530 -11.988  1.00  0.00    -0.248 NA
ATOM     64  C   UNL     1     -15.328  -2.721 -10.318  1.00  0.00     0.031 C 
ATOM     65  C   UNL     1     -14.300  -5.352 -14.646  1.00  0.00     0.029 A 
ATOM     66  C   UNL     1     -14.337  -3.966 -14.674  1.00  0.00     0.049 A 
ATOM     67  H   UNL     1     -13.246  -2.641 -15.886  1.00  0.00     0.167 HD
ATOM     68  C   UNL     1     -15.055  -2.980 -12.616  1.00  0.00     0.074 A 
ATOM     69  C   UNL     1     -15.878  -2.489 -11.526  1.00  0.00     0.031 C 
ATOM     70  C   UNL     1     -15.152  -2.975 -13.979  1.00  0.00     0.037 A 
BRANCH  57  71
ATOM     71  C   UNL     1     -11.376  -5.053 -18.378  1.00  0.00     0.064 A 
ATOM     72  C   UNL     1     -12.393  -5.847 -18.960  1.00  0.00     0.173 A 
ATOM     73  C   UNL     1     -10.231  -4.908 -19.187  1.00  0.00     0.173 A 
ATOM     74  F   UNL     1     -13.568  -6.039 -18.347  1.00  0.00    -0.203 F 
ATOM     75  C   UNL     1     -12.248  -6.479 -20.200  1.00  0.00     0.198 A 
ATOM     76  C   UNL     1     -10.079  -5.553 -20.420  1.00  0.00     0.198 A 
ATOM     77  F   UNL     1      -9.216  -4.111 -18.856  1.00  0.00    -0.203 F 
ATOM     78  F   UNL     1     -13.247  -7.231 -20.683  1.00  0.00    -0.200 F 
ATOM     79  C   UNL     1     -11.085  -6.342 -20.926  1.00  0.00     0.200 A 
ATOM     80  F   UNL     1      -8.942  -5.391 -21.113  1.00  0.00    -0.200 F 
ATOM     81  F   UNL     1     -10.941  -6.949 -22.111  1.00  0.00    -0.200 F 
ENDBRANCH  57  71
BRANCH  58  82
ATOM     82  C   UNL     1     -12.390  -3.264  -8.603  1.00  0.00     0.064 A 
ATOM     83  C   UNL     1     -11.935  -4.083  -7.544  1.00  0.00     0.173 A 
ATOM     84  C   UNL     1     -11.770  -2.019  -8.760  1.00  0.00     0.173 A 
ATOM     85  F   UNL     1     -12.511  -5.278  -7.333  1.00  0.00    -0.203 F 
ATOM     86  C   UNL     1     -10.798  -3.758  -6.807  1.00  0.00     0.198 A 
ATOM     87  C   UNL     1     -10.651  -1.680  -7.990  1.00  0.00     0.198 A 
ATOM     88  F   UNL     1     -12.146  -1.195  -9.748  1.00  0.00    -0.203 F 
ATOM     89  F   UNL     1     -10.286  -4.647  -5.943  1.00  0.00    -0.200 F 
ATOM     90  C   UNL     1     -10.139  -2.568  -7.051  1.00  0.00     0.200 A 
ATOM     91  F   UNL     1      -9.985  -0.545  -8.252  1.00  0.00    -0.200 F 
ATOM     92  F   UNL     1      -8.974  -2.308  -6.439  1.00  0.00    -0.200 F 
ENDBRANCH  58  82
BRANCH  70  93
ATOM     93  C   UNL     1     -16.081  -2.102 -14.788  1.00  0.00     0.064 A 
ATOM     94  C   UNL     1     -16.654  -0.916 -14.306  1.00  0.00     0.173 A 
ATOM     95  C   UNL     1     -16.305  -2.366 -16.164  1.00  0.00     0.173 A 
ATOM     96  F   UNL     1     -16.388  -0.453 -13.079  1.00  0.00    -0.203 F 
ATOM     97  C   UNL     1     -17.477  -0.117 -15.102  1.00  0.00     0.198 A 
ATOM     98  C   UNL     1     -17.045  -1.514 -16.978  1.00  0.00     0.198 A 
ATOM     99  F   UNL     1     -15.788  -3.440 -16.777  1.00  0.00    -0.203 F 
ATOM    100  F   UNL     1     -18.068   0.960 -14.566  1.00  0.00    -0.200 F 
ATOM    101  C   UNL     1     -17.663  -0.409 -16.439  1.00  0.00     0.200 A 
ATOM    102  F   UNL     1     -17.137  -1.767 -18.292  1.00  0.00    -0.200 F 
ATOM    103  F   UNL     1     -18.414   0.387 -17.210  1.00  0.00    -0.200 F 
ENDBRANCH  70  93
ENDBRANCH  44  45
ENDBRANCH  37  39
ENDBRANCH  36  37
ENDBRANCH  35  36
ENDBRANCH  34  35
ENDBRANCH  33  34
ENDBRANCH   1  33
TORSDOF 17
