REMARK SMILES Cc1c(C(=O)OCCOC(=O)c2ccc(-c3c4nc(c(-c5c(F)c(F)c(F)c(F)c5F)c5ccc([nH]5)c(-c5c(F)c(F)c(F)c(F)c5F)c5nc(c(-c6c(F)c(F)c(F)c(F)c6F)c6ccc3[nH]6)C=C5)C=C4)cc2)sc2c1=C(CSc1nncn1-c1ccccc1)CC(=O)N=2
REMARK SMILES IDX 7 1 6 2 4 3 5 4 3 5 1 6 2 7 77 8 75 9 76 10 78 11 95 12
REMARK SMILES IDX 92 13 93 14 94 15 79 16 80 17 81 18 82 19 85 20 83 21 84 22
REMARK SMILES IDX 86 23 87 24 91 25 88 26 90 27 89 28 8 29 9 30 10 31 11 32
REMARK SMILES IDX 12 33 13 34 74 35 14 36 73 37 15 38 16 39 17 40 67 41 18 42
REMARK SMILES IDX 72 43 66 44 68 45 19 46 71 47 65 48 64 49 20 51 52 52 32 53
REMARK SMILES IDX 51 54 33 55 36 56 50 57 69 58 34 59 35 60 49 62 70 63 37 64
REMARK SMILES IDX 21 65 22 66 30 67 23 68 24 69 28 70 31 71 25 72 26 73 29 74
REMARK SMILES IDX 27 75 53 76 54 77 62 78 55 79 56 80 60 81 63 82 57 83 58 84
REMARK SMILES IDX 61 85 59 86 38 87 39 88 47 89 40 90 41 91 45 92 48 93 42 94
REMARK SMILES IDX 43 95 46 96 44 97
REMARK H PARENT 68 50 36 61
REMARK Flexibility Score: inf
ROOT
ATOM      1  C   UNL     1      -1.214  -1.503  -3.347  1.00  0.00     0.275 C 
ENDROOT
BRANCH   1   2
ATOM      2  O   UNL     1      -0.477  -0.541  -2.571  1.00  0.00    -0.458 OA
BRANCH   2   3
ATOM      3  C   UNL     1      -0.154   0.615  -3.206  1.00  0.00     0.348 C 
ATOM      4  O   UNL     1      -0.347   0.825  -4.397  1.00  0.00    -0.245 OA
BRANCH   3   5
ATOM      5  C   UNL     1       0.401   1.637  -2.268  1.00  0.00     0.118 A 
ATOM      6  C   UNL     1       0.951   0.333  -0.122  1.00  0.00     0.047 C 
ATOM      7  C   UNL     1       0.930   1.519  -1.032  1.00  0.00    -0.016 A 
ATOM      8  C   UNL     1       1.284   2.796  -0.440  1.00  0.00     0.016 A 
ATOM      9  S   UNL     1       0.210   3.318  -2.774  1.00  0.00    -0.108 S 
ATOM     10  C   UNL     1       0.809   3.950  -1.255  1.00  0.00     0.128 A 
ATOM     11  C   UNL     1       2.295   3.221   0.344  1.00  0.00    -0.040 C 
ATOM     12  N   UNL     1       0.877   5.208  -1.001  1.00  0.00    -0.202 NA
ATOM     13  C   UNL     1       1.942   4.468   1.133  1.00  0.00     0.135 C 
ATOM     14  C   UNL     1       1.474   5.573   0.189  1.00  0.00     0.251 C 
ATOM     15  O   UNL     1       1.613   6.750   0.521  1.00  0.00    -0.272 OA
BRANCH  11  16
ATOM     16  C   UNL     1       3.780   3.199   0.002  1.00  0.00     0.110 C 
BRANCH  16  17
ATOM     17  S   UNL     1       4.375   1.911  -1.093  1.00  0.00    -0.081 SA
BRANCH  17  18
ATOM     18  C   UNL     1       4.747   0.656   0.046  1.00  0.00     0.195 A 
ATOM     19  N   UNL     1       5.103   0.862   1.294  1.00  0.00    -0.123 NA
ATOM     20  N   UNL     1       4.445  -0.678  -0.150  1.00  0.00    -0.277 N 
ATOM     21  N   UNL     1       4.977  -0.325   1.967  1.00  0.00    -0.138 NA
ATOM     22  C   UNL     1       4.549  -1.222   1.108  1.00  0.00     0.231 A 
BRANCH  20  23
ATOM     23  C   UNL     1       3.962  -1.321  -1.316  1.00  0.00     0.049 A 
ATOM     24  C   UNL     1       4.449  -0.962  -2.578  1.00  0.00     0.027 A 
ATOM     25  C   UNL     1       2.922  -2.252  -1.208  1.00  0.00     0.027 A 
ATOM     26  C   UNL     1       3.848  -1.472  -3.728  1.00  0.00     0.002 A 
ATOM     27  C   UNL     1       2.308  -2.736  -2.364  1.00  0.00     0.002 A 
ATOM     28  C   UNL     1       2.762  -2.337  -3.620  1.00  0.00     0.000 A 
ENDBRANCH  20  23
ENDBRANCH  17  18
ENDBRANCH  16  17
ENDBRANCH  11  16
ENDBRANCH   3   5
ENDBRANCH   2   3
ENDBRANCH   1   2
BRANCH   1  29
ATOM     29  C   UNL     1      -2.715  -1.362  -3.137  1.00  0.00     0.275 C 
BRANCH  29  30
ATOM     30  O   UNL     1      -3.238  -0.157  -3.698  1.00  0.00    -0.458 OA
BRANCH  30  31
ATOM     31  C   UNL     1      -3.298   0.887  -2.840  1.00  0.00     0.338 C 
ATOM     32  O   UNL     1      -2.664   1.031  -1.808  1.00  0.00    -0.246 OA
BRANCH  31  33
ATOM     33  C   UNL     1      -4.429   1.752  -3.205  1.00  0.00     0.060 A 
ATOM     34  C   UNL     1      -4.551   2.974  -2.538  1.00  0.00     0.016 A 
ATOM     35  C   UNL     1      -5.461   1.256  -4.016  1.00  0.00     0.016 A 
ATOM     36  C   UNL     1      -5.752   3.656  -2.604  1.00  0.00     0.010 A 
ATOM     37  C   UNL     1      -6.662   1.933  -4.072  1.00  0.00     0.010 A 
ATOM     38  C   UNL     1      -6.813   3.103  -3.329  1.00  0.00    -0.014 A 
BRANCH  38  39
ATOM     39  C   UNL     1      -8.066   3.835  -3.375  1.00  0.00     0.031 A 
ATOM     40  C   UNL     1      -8.036   5.076  -4.191  1.00  0.00     0.074 A 
ATOM     41  C   UNL     1      -9.207   3.354  -2.849  1.00  0.00     0.049 A 
ATOM     42  N   UNL     1      -8.358   6.274  -3.829  1.00  0.00    -0.248 NA
ATOM     43  C   UNL     1      -7.510   4.981  -5.562  1.00  0.00     0.031 C 
ATOM     44  C   UNL     1      -9.450   2.029  -2.276  1.00  0.00     0.029 A 
ATOM     45  N   UNL     1     -10.440   3.933  -2.829  1.00  0.00    -0.354 N 
ATOM     46  C   UNL     1      -8.207   7.070  -4.961  1.00  0.00     0.074 A 
ATOM     47  C   UNL     1      -7.581   6.250  -5.964  1.00  0.00     0.031 C 
ATOM     48  C   UNL     1     -10.783   1.832  -2.171  1.00  0.00     0.029 A 
ATOM     49  C   UNL     1     -11.474   3.050  -2.563  1.00  0.00     0.049 A 
ATOM     50  H   UNL     1     -10.583   4.894  -2.990  1.00  0.00     0.167 HD
ATOM     51  C   UNL     1      -8.783   8.299  -5.051  1.00  0.00     0.037 A 
ATOM     52  C   UNL     1     -12.797   3.288  -2.741  1.00  0.00     0.037 A 
ATOM     53  C   UNL     1      -9.111   8.827  -3.755  1.00  0.00     0.049 A 
ATOM     54  C   UNL     1     -12.987   4.761  -2.791  1.00  0.00     0.074 A 
ATOM     55  C   UNL     1      -8.377   9.142  -2.627  1.00  0.00     0.029 A 
ATOM     56  N   UNL     1     -10.421   8.803  -3.346  1.00  0.00    -0.354 N 
ATOM     57  N   UNL     1     -12.850   5.552  -1.765  1.00  0.00    -0.248 NA
ATOM     58  C   UNL     1     -12.935   5.413  -4.092  1.00  0.00     0.031 C 
ATOM     59  C   UNL     1      -9.220   8.804  -1.529  1.00  0.00     0.029 A 
ATOM     60  C   UNL     1     -10.425   8.341  -2.056  1.00  0.00     0.049 A 
ATOM     61  H   UNL     1     -11.206   9.068  -3.877  1.00  0.00     0.167 HD
ATOM     62  C   UNL     1     -12.269   6.699  -2.283  1.00  0.00     0.074 A 
ATOM     63  C   UNL     1     -12.448   6.601  -3.728  1.00  0.00     0.031 C 
ATOM     64  C   UNL     1     -11.449   7.479  -1.520  1.00  0.00     0.037 A 
BRANCH  51  65
ATOM     65  C   UNL     1      -9.344   8.874  -6.325  1.00  0.00     0.064 A 
ATOM     66  C   UNL     1      -9.776  10.215  -6.345  1.00  0.00     0.173 A 
ATOM     67  C   UNL     1      -9.755   8.084  -7.420  1.00  0.00     0.173 A 
ATOM     68  F   UNL     1      -9.459  11.051  -5.344  1.00  0.00    -0.203 F 
ATOM     69  C   UNL     1     -10.625  10.701  -7.342  1.00  0.00     0.198 A 
ATOM     70  C   UNL     1     -10.557   8.587  -8.442  1.00  0.00     0.198 A 
ATOM     71  F   UNL     1      -9.499   6.771  -7.486  1.00  0.00    -0.203 F 
ATOM     72  F   UNL     1     -11.117  11.943  -7.249  1.00  0.00    -0.200 F 
ATOM     73  C   UNL     1     -11.020   9.884  -8.386  1.00  0.00     0.200 A 
ATOM     74  F   UNL     1     -10.945   7.775  -9.435  1.00  0.00    -0.200 F 
ATOM     75  F   UNL     1     -11.886  10.327  -9.306  1.00  0.00    -0.200 F 
ENDBRANCH  51  65
BRANCH  52  76
ATOM     76  C   UNL     1     -13.860   2.337  -3.145  1.00  0.00     0.064 A 
ATOM     77  C   UNL     1     -15.217   2.688  -3.045  1.00  0.00     0.173 A 
ATOM     78  C   UNL     1     -13.572   1.172  -3.884  1.00  0.00     0.173 A 
ATOM     79  F   UNL     1     -15.580   3.804  -2.396  1.00  0.00    -0.203 F 
ATOM     80  C   UNL     1     -16.218   1.940  -3.672  1.00  0.00     0.198 A 
ATOM     81  C   UNL     1     -14.573   0.418  -4.496  1.00  0.00     0.198 A 
ATOM     82  F   UNL     1     -12.308   0.791  -4.113  1.00  0.00    -0.203 F 
ATOM     83  F   UNL     1     -17.494   2.348  -3.613  1.00  0.00    -0.200 F 
ATOM     84  C   UNL     1     -15.895   0.811  -4.405  1.00  0.00     0.200 A 
ATOM     85  F   UNL     1     -14.241  -0.655  -5.228  1.00  0.00    -0.200 F 
ATOM     86  F   UNL     1     -16.846   0.127  -5.056  1.00  0.00    -0.200 F 
ENDBRANCH  52  76
BRANCH  64  87
ATOM     87  C   UNL     1     -11.417   7.225  -0.041  1.00  0.00     0.064 A 
ATOM     88  C   UNL     1     -10.988   6.017   0.535  1.00  0.00     0.173 A 
ATOM     89  C   UNL     1     -11.697   8.290   0.824  1.00  0.00     0.173 A 
ATOM     90  F   UNL     1     -10.598   4.987  -0.227  1.00  0.00    -0.203 F 
ATOM     91  C   UNL     1     -10.896   5.870   1.918  1.00  0.00     0.198 A 
ATOM     92  C   UNL     1     -11.566   8.152   2.203  1.00  0.00     0.198 A 
ATOM     93  F   UNL     1     -12.053   9.485   0.327  1.00  0.00    -0.203 F 
ATOM     94  F   UNL     1     -10.500   4.701   2.444  1.00  0.00    -0.200 F 
ATOM     95  C   UNL     1     -11.178   6.940   2.750  1.00  0.00     0.200 A 
ATOM     96  F   UNL     1     -11.792   9.205   3.002  1.00  0.00    -0.200 F 
ATOM     97  F   UNL     1     -11.051   6.811   4.078  1.00  0.00    -0.200 F 
ENDBRANCH  64  87
ENDBRANCH  38  39
ENDBRANCH  31  33
ENDBRANCH  30  31
ENDBRANCH  29  30
ENDBRANCH   1  29
TORSDOF 15
