REMARK SMILES [NH3+][C@@]1(C(=O)OCCOC(=O)c2ccc(-c3c4nc(c(-c5c(F)c(F)c(F)c(F)c5F)c5ccc([nH]5)c(-c5c(F)c(F)c(F)c(F)c5F)c5nc(c(-c6c(F)c(F)c(F)c(F)c6F)c6ccc3[nH]6)C=C5)C=C4)cc2)CCC[C@@H](Oc2ccc3c(c2)OCO3)C1
REMARK SMILES IDX 6 1 5 2 3 3 4 4 2 5 74 6 88 7 75 8 77 9 76 10 1 11 78 15
REMARK SMILES IDX 79 16 80 17 84 18 81 19 83 20 82 21 85 22 87 23 86 24 7 25
REMARK SMILES IDX 8 26 9 27 10 28 11 29 12 30 73 31 13 32 72 33 14 34 15 35
REMARK SMILES IDX 16 36 66 37 17 38 71 39 65 40 67 41 18 42 70 43 64 44 63 45
REMARK SMILES IDX 19 47 51 48 31 49 50 50 32 51 35 52 49 53 68 54 33 55 34 56
REMARK SMILES IDX 48 58 69 59 36 60 20 61 21 62 29 63 22 64 23 65 27 66 30 67
REMARK SMILES IDX 24 68 25 69 28 70 26 71 52 72 53 73 61 74 54 75 55 76 59 77
REMARK SMILES IDX 62 78 56 79 57 80 60 81 58 82 37 83 38 84 46 85 39 86 40 87
REMARK SMILES IDX 44 88 47 89 41 90 42 91 45 92 43 93
REMARK H PARENT 1 12 1 13 1 14 67 46 35 57
REMARK Flexibility Score: inf
ROOT
ATOM      1  C   UNL     1      -4.731   0.108   0.274  1.00  0.00     0.274 C 
ENDROOT
BRANCH   1   2
ATOM      2  O   UNL     1      -3.413  -0.207  -0.215  1.00  0.00    -0.457 OA
BRANCH   2   3
ATOM      3  C   UNL     1      -2.363   0.566   0.191  1.00  0.00     0.368 C 
ATOM      4  O   UNL     1      -2.458   1.498   0.982  1.00  0.00    -0.245 OA
BRANCH   3   5
ATOM      5  C   UNL     1      -1.014   0.120  -0.481  1.00  0.00     0.196 C 
ATOM      6  C   UNL     1      -0.188  -0.797   0.433  1.00  0.00     0.081 C 
ATOM      7  C   UNL     1      -0.193   1.403  -0.777  1.00  0.00     0.126 C 
ATOM      8  C   UNL     1       1.176  -1.160  -0.157  1.00  0.00     0.011 C 
ATOM      9  C   UNL     1       1.308   1.244  -1.114  1.00  0.00     0.180 C 
ATOM     10  C   UNL     1       2.027   0.083  -0.405  1.00  0.00     0.046 C 
BRANCH   5  11
ATOM     11  N   UNL     1      -1.359  -0.675  -1.669  1.00  0.00    -0.343 N 
ATOM     12  H   UNL     1      -0.504  -0.982  -2.133  1.00  0.00     0.345 HD
ATOM     13  H   UNL     1      -1.908  -0.104  -2.312  1.00  0.00     0.345 HD
ATOM     14  H   UNL     1      -1.905  -1.489  -1.387  1.00  0.00     0.345 HD
ENDBRANCH   5  11
BRANCH   9  15
ATOM     15  O   UNL     1       1.704   1.419  -2.497  1.00  0.00    -0.490 OA
BRANCH  15  16
ATOM     16  C   UNL     1       1.062   0.626  -3.398  1.00  0.00     0.123 A 
ATOM     17  C   UNL     1       1.585  -0.642  -3.702  1.00  0.00     0.050 A 
ATOM     18  C   UNL     1      -0.125   1.079  -3.976  1.00  0.00     0.097 A 
ATOM     19  C   UNL     1       0.831  -1.546  -4.456  1.00  0.00     0.054 A 
ATOM     20  C   UNL     1      -0.875   0.146  -4.655  1.00  0.00     0.169 A 
ATOM     21  C   UNL     1      -0.421  -1.138  -4.867  1.00  0.00     0.166 A 
ATOM     22  O   UNL     1      -2.183   0.296  -5.007  1.00  0.00    -0.453 OA
ATOM     23  O   UNL     1      -1.388  -1.939  -5.394  1.00  0.00    -0.454 OA
ATOM     24  C   UNL     1      -2.540  -1.085  -5.233  1.00  0.00     0.468 C 
ENDBRANCH  15  16
ENDBRANCH   9  15
ENDBRANCH   3   5
ENDBRANCH   2   3
ENDBRANCH   1   2
BRANCH   1  25
ATOM     25  C   UNL     1      -5.206  -0.995   1.214  1.00  0.00     0.275 C 
BRANCH  25  26
ATOM     26  O   UNL     1      -4.417  -0.924   2.414  1.00  0.00    -0.458 OA
BRANCH  26  27
ATOM     27  C   UNL     1      -3.744  -2.039   2.763  1.00  0.00     0.338 C 
ATOM     28  O   UNL     1      -3.840  -3.162   2.292  1.00  0.00    -0.246 OA
BRANCH  27  29
ATOM     29  C   UNL     1      -2.756  -1.670   3.787  1.00  0.00     0.060 A 
ATOM     30  C   UNL     1      -1.778  -0.744   3.444  1.00  0.00     0.016 A 
ATOM     31  C   UNL     1      -2.717  -2.292   5.029  1.00  0.00     0.016 A 
ATOM     32  C   UNL     1      -0.703  -0.497   4.283  1.00  0.00     0.010 A 
ATOM     33  C   UNL     1      -1.696  -1.956   5.929  1.00  0.00     0.010 A 
ATOM     34  C   UNL     1      -0.662  -1.076   5.553  1.00  0.00    -0.014 A 
BRANCH  34  35
ATOM     35  C   UNL     1       0.490  -0.784   6.447  1.00  0.00     0.031 A 
ATOM     36  C   UNL     1       1.365  -1.905   6.932  1.00  0.00     0.074 A 
ATOM     37  C   UNL     1       0.792   0.489   6.774  1.00  0.00     0.049 A 
ATOM     38  N   UNL     1       2.304  -1.888   7.843  1.00  0.00    -0.248 NA
ATOM     39  C   UNL     1       1.150  -3.224   6.317  1.00  0.00     0.031 C 
ATOM     40  C   UNL     1       0.073   1.679   6.311  1.00  0.00     0.029 A 
ATOM     41  N   UNL     1       1.800   1.000   7.553  1.00  0.00    -0.354 N 
ATOM     42  C   UNL     1       2.739  -3.201   7.961  1.00  0.00     0.074 A 
ATOM     43  C   UNL     1       1.975  -3.988   7.018  1.00  0.00     0.031 C 
ATOM     44  C   UNL     1       0.694   2.776   6.766  1.00  0.00     0.029 A 
ATOM     45  C   UNL     1       1.791   2.371   7.636  1.00  0.00     0.049 A 
ATOM     46  H   UNL     1       2.467   0.437   8.010  1.00  0.00     0.167 HD
ATOM     47  C   UNL     1       3.684  -3.700   8.793  1.00  0.00     0.037 A 
ATOM     48  C   UNL     1       2.550   3.209   8.367  1.00  0.00     0.037 A 
ATOM     49  C   UNL     1       4.481  -2.898   9.685  1.00  0.00     0.049 A 
ATOM     50  C   UNL     1       3.585   2.630   9.288  1.00  0.00     0.074 A 
ATOM     51  C   UNL     1       5.450  -3.304  10.585  1.00  0.00     0.029 A 
ATOM     52  N   UNL     1       4.414  -1.514   9.768  1.00  0.00    -0.354 N 
ATOM     53  N   UNL     1       3.915   1.376   9.475  1.00  0.00    -0.248 NA
ATOM     54  C   UNL     1       4.331   3.581  10.122  1.00  0.00     0.031 C 
ATOM     55  C   UNL     1       5.954  -2.168  11.229  1.00  0.00     0.029 A 
ATOM     56  C   UNL     1       5.324  -1.051  10.705  1.00  0.00     0.049 A 
ATOM     57  H   UNL     1       3.810  -0.945   9.238  1.00  0.00     0.167 HD
ATOM     58  C   UNL     1       4.899   1.383  10.452  1.00  0.00     0.074 A 
ATOM     59  C   UNL     1       5.140   2.772  10.791  1.00  0.00     0.031 C 
ATOM     60  C   UNL     1       5.536   0.336  11.030  1.00  0.00     0.037 A 
BRANCH  47  61
ATOM     61  C   UNL     1       3.868  -5.188   8.814  1.00  0.00     0.064 A 
ATOM     62  C   UNL     1       4.509  -5.876   7.775  1.00  0.00     0.173 A 
ATOM     63  C   UNL     1       3.400  -5.936   9.907  1.00  0.00     0.173 A 
ATOM     64  F   UNL     1       4.954  -5.210   6.699  1.00  0.00    -0.203 F 
ATOM     65  C   UNL     1       4.656  -7.261   7.818  1.00  0.00     0.198 A 
ATOM     66  C   UNL     1       3.571  -7.316   9.958  1.00  0.00     0.198 A 
ATOM     67  F   UNL     1       2.779  -5.325  10.927  1.00  0.00    -0.203 F 
ATOM     68  F   UNL     1       5.232  -7.904   6.793  1.00  0.00    -0.200 F 
ATOM     69  C   UNL     1       4.192  -7.978   8.911  1.00  0.00     0.200 A 
ATOM     70  F   UNL     1       3.129  -8.006  11.019  1.00  0.00    -0.200 F 
ATOM     71  F   UNL     1       4.337  -9.310   8.951  1.00  0.00    -0.200 F 
ENDBRANCH  47  61
BRANCH  48  72
ATOM     72  C   UNL     1       2.319   4.676   8.294  1.00  0.00     0.064 A 
ATOM     73  C   UNL     1       3.274   5.530   7.726  1.00  0.00     0.173 A 
ATOM     74  C   UNL     1       1.136   5.252   8.781  1.00  0.00     0.173 A 
ATOM     75  F   UNL     1       4.433   5.030   7.272  1.00  0.00    -0.203 F 
ATOM     76  C   UNL     1       3.056   6.904   7.652  1.00  0.00     0.198 A 
ATOM     77  C   UNL     1       0.906   6.622   8.678  1.00  0.00     0.198 A 
ATOM     78  F   UNL     1       0.192   4.480   9.338  1.00  0.00    -0.203 F 
ATOM     79  F   UNL     1       4.001   7.703   7.138  1.00  0.00    -0.200 F 
ATOM     80  C   UNL     1       1.868   7.448   8.119  1.00  0.00     0.200 A 
ATOM     81  F   UNL     1      -0.249   7.140   9.118  1.00  0.00    -0.200 F 
ATOM     82  F   UNL     1       1.655   8.768   8.037  1.00  0.00    -0.200 F 
ENDBRANCH  48  72
BRANCH  60  83
ATOM     83  C   UNL     1       6.552   0.665  12.080  1.00  0.00     0.064 A 
ATOM     84  C   UNL     1       6.167   1.096  13.358  1.00  0.00     0.173 A 
ATOM     85  C   UNL     1       7.922   0.549  11.806  1.00  0.00     0.173 A 
ATOM     86  F   UNL     1       4.867   1.240  13.658  1.00  0.00    -0.203 F 
ATOM     87  C   UNL     1       7.119   1.428  14.316  1.00  0.00     0.198 A 
ATOM     88  C   UNL     1       8.872   0.860  12.775  1.00  0.00     0.198 A 
ATOM     89  F   UNL     1       8.339   0.139  10.599  1.00  0.00    -0.203 F 
ATOM     90  F   UNL     1       6.730   1.888  15.514  1.00  0.00    -0.200 F 
ATOM     91  C   UNL     1       8.470   1.307  14.025  1.00  0.00     0.200 A 
ATOM     92  F   UNL     1      10.177   0.736  12.496  1.00  0.00    -0.200 F 
ATOM     93  F   UNL     1       9.386   1.633  14.947  1.00  0.00    -0.200 F 
ENDBRANCH  60  83
ENDBRANCH  34  35
ENDBRANCH  27  29
ENDBRANCH  26  27
ENDBRANCH  25  26
ENDBRANCH   1  25
TORSDOF 14
