REMARK SMILES O=C(OCCOC(=O)c1ccc2c(c1O)C(=O)c1ccccc1C2=O)c1ccc(-c2c3nc(c(-c4c(F)c(F)c(F)c(F)c4F)c4ccc([nH]4)c(-c4c(F)c(F)c(F)c(F)c4F)c4nc(c(-c5c(F)c(F)c(F)c(F)c5F)c5ccc2[nH]5)C=C4)C=C3)cc1
REMARK SMILES IDX 4 1 3 2 2 3 1 4 26 5 27 6 88 7 28 8 87 9 29 10 30 11 31 12
REMARK SMILES IDX 81 13 32 14 86 15 80 16 82 17 33 18 85 19 79 20 78 21 34 23
REMARK SMILES IDX 66 24 46 25 65 26 47 27 50 28 64 29 83 30 48 31 49 32 63 34
REMARK SMILES IDX 84 35 51 36 35 37 36 38 44 39 37 40 38 41 42 42 45 43 39 44
REMARK SMILES IDX 40 45 43 46 41 47 67 48 68 49 76 50 69 51 70 52 74 53 77 54
REMARK SMILES IDX 71 55 72 56 75 57 73 58 52 59 53 60 61 61 54 62 55 63 59 64
REMARK SMILES IDX 62 65 56 66 57 67 60 68 58 69 5 70 6 71 7 72 8 73 9 74 10 75
REMARK SMILES IDX 14 76 11 77 13 78 12 79 16 80 24 81 17 82 18 83 23 84 25 85
REMARK SMILES IDX 19 86 22 87 20 88 21 89 15 90
REMARK H PARENT 82 22 50 33 15 91
REMARK Flexibility Score: inf
ROOT
ATOM      1  C   UNL     1       4.133  -1.552   0.076  1.00  0.00     0.275 C 
ENDROOT
BRANCH   1   2
ATOM      2  O   UNL     1       3.080  -0.750   0.636  1.00  0.00    -0.458 OA
BRANCH   2   3
ATOM      3  C   UNL     1       3.112   0.585   0.863  1.00  0.00     0.338 C 
ATOM      4  O   UNL     1       2.474   1.061   1.798  1.00  0.00    -0.246 OA
BRANCH   3   5
ATOM      5  C   UNL     1       3.683   1.530  -0.143  1.00  0.00     0.060 A 
ATOM      6  C   UNL     1       4.909   1.390  -0.798  1.00  0.00     0.016 A 
ATOM      7  C   UNL     1       2.927   2.689  -0.394  1.00  0.00     0.016 A 
ATOM      8  C   UNL     1       5.353   2.357  -1.708  1.00  0.00     0.010 A 
ATOM      9  C   UNL     1       3.355   3.648  -1.315  1.00  0.00     0.010 A 
ATOM     10  C   UNL     1       4.587   3.496  -1.961  1.00  0.00    -0.014 A 
BRANCH  10  11
ATOM     11  C   UNL     1       5.162   4.635  -2.711  1.00  0.00     0.031 A 
ATOM     12  C   UNL     1       5.629   5.828  -1.925  1.00  0.00     0.074 A 
ATOM     13  C   UNL     1       5.290   4.612  -4.048  1.00  0.00     0.049 A 
ATOM     14  N   UNL     1       6.082   6.979  -2.346  1.00  0.00    -0.248 NA
ATOM     15  C   UNL     1       5.585   5.695  -0.459  1.00  0.00     0.031 C 
ATOM     16  C   UNL     1       4.956   3.488  -4.917  1.00  0.00     0.029 A 
ATOM     17  N   UNL     1       5.720   5.586  -4.913  1.00  0.00    -0.354 N 
ATOM     18  C   UNL     1       6.396   7.695  -1.200  1.00  0.00     0.074 A 
ATOM     19  C   UNL     1       6.015   6.883  -0.067  1.00  0.00     0.031 C 
ATOM     20  C   UNL     1       5.142   3.852  -6.198  1.00  0.00     0.029 A 
ATOM     21  C   UNL     1       5.602   5.235  -6.235  1.00  0.00     0.049 A 
ATOM     22  H   UNL     1       6.079   6.453  -4.614  1.00  0.00     0.167 HD
ATOM     23  C   UNL     1       6.988   8.908  -1.099  1.00  0.00     0.037 A 
ATOM     24  C   UNL     1       5.809   5.969  -7.344  1.00  0.00     0.037 A 
ATOM     25  C   UNL     1       7.347   9.721  -2.225  1.00  0.00     0.049 A 
ATOM     26  C   UNL     1       6.259   7.394  -7.211  1.00  0.00     0.074 A 
ATOM     27  C   UNL     1       7.969  10.956  -2.243  1.00  0.00     0.029 A 
ATOM     28  N   UNL     1       7.096   9.376  -3.546  1.00  0.00    -0.354 N 
ATOM     29  N   UNL     1       6.533   8.075  -6.126  1.00  0.00    -0.248 NA
ATOM     30  C   UNL     1       6.433   8.149  -8.460  1.00  0.00     0.031 C 
ATOM     31  C   UNL     1       8.060  11.376  -3.576  1.00  0.00     0.029 A 
ATOM     32  C   UNL     1       7.533  10.384  -4.388  1.00  0.00     0.049 A 
ATOM     33  H   UNL     1       6.670   8.539  -3.840  1.00  0.00     0.167 HD
ATOM     34  C   UNL     1       6.958   9.322  -6.559  1.00  0.00     0.074 A 
ATOM     35  C   UNL     1       6.862   9.319  -8.005  1.00  0.00     0.031 C 
ATOM     36  C   UNL     1       7.426  10.359  -5.824  1.00  0.00     0.037 A 
BRANCH  23  37
ATOM     37  C   UNL     1       7.267   9.403   0.288  1.00  0.00     0.064 A 
ATOM     38  C   UNL     1       8.257   8.806   1.087  1.00  0.00     0.173 A 
ATOM     39  C   UNL     1       6.510  10.441   0.845  1.00  0.00     0.173 A 
ATOM     40  F   UNL     1       8.992   7.792   0.606  1.00  0.00    -0.203 F 
ATOM     41  C   UNL     1       8.445   9.203   2.408  1.00  0.00     0.198 A 
ATOM     42  C   UNL     1       6.720  10.853   2.158  1.00  0.00     0.198 A 
ATOM     43  F   UNL     1       5.552  11.042   0.123  1.00  0.00    -0.203 F 
ATOM     44  F   UNL     1       9.346   8.571   3.173  1.00  0.00    -0.200 F 
ATOM     45  C   UNL     1       7.677  10.226   2.942  1.00  0.00     0.200 A 
ATOM     46  F   UNL     1       5.980  11.845   2.674  1.00  0.00    -0.200 F 
ATOM     47  F   UNL     1       7.848  10.595   4.218  1.00  0.00    -0.200 F 
ENDBRANCH  23  37
BRANCH  24  48
ATOM     48  C   UNL     1       5.512   5.397  -8.677  1.00  0.00     0.064 A 
ATOM     49  C   UNL     1       6.455   4.662  -9.401  1.00  0.00     0.173 A 
ATOM     50  C   UNL     1       4.255   5.606  -9.254  1.00  0.00     0.173 A 
ATOM     51  F   UNL     1       7.689   4.483  -8.908  1.00  0.00    -0.203 F 
ATOM     52  C   UNL     1       6.139   4.135 -10.653  1.00  0.00     0.198 A 
ATOM     53  C   UNL     1       3.932   5.063 -10.495  1.00  0.00     0.198 A 
ATOM     54  F   UNL     1       3.361   6.380  -8.626  1.00  0.00    -0.203 F 
ATOM     55  F   UNL     1       7.065   3.457 -11.346  1.00  0.00    -0.200 F 
ATOM     56  C   UNL     1       4.875   4.326 -11.193  1.00  0.00     0.200 A 
ATOM     57  F   UNL     1       2.717   5.271 -11.020  1.00  0.00    -0.200 F 
ATOM     58  F   UNL     1       4.573   3.821 -12.398  1.00  0.00    -0.200 F 
ENDBRANCH  24  48
BRANCH  36  59
ATOM     59  C   UNL     1       7.954  11.540  -6.575  1.00  0.00     0.064 A 
ATOM     60  C   UNL     1       7.106  12.504  -7.134  1.00  0.00     0.173 A 
ATOM     61  C   UNL     1       9.340  11.723  -6.692  1.00  0.00     0.173 A 
ATOM     62  F   UNL     1       5.775  12.355  -7.066  1.00  0.00    -0.203 F 
ATOM     63  C   UNL     1       7.631  13.612  -7.793  1.00  0.00     0.198 A 
ATOM     64  C   UNL     1       9.860  12.842  -7.333  1.00  0.00     0.198 A 
ATOM     65  F   UNL     1      10.187  10.821  -6.175  1.00  0.00    -0.203 F 
ATOM     66  F   UNL     1       6.807  14.511  -8.349  1.00  0.00    -0.200 F 
ATOM     67  C   UNL     1       9.005  13.784  -7.884  1.00  0.00     0.200 A 
ATOM     68  F   UNL     1      11.187  13.008  -7.415  1.00  0.00    -0.200 F 
ATOM     69  F   UNL     1       9.507  14.857  -8.512  1.00  0.00    -0.200 F 
ENDBRANCH  36  59
ENDBRANCH  10  11
ENDBRANCH   3   5
ENDBRANCH   2   3
ENDBRANCH   1   2
BRANCH   1  70
ATOM     70  C   UNL     1       3.855  -1.995  -1.364  1.00  0.00     0.275 C 
BRANCH  70  71
ATOM     71  O   UNL     1       3.331  -0.939  -2.191  1.00  0.00    -0.458 OA
BRANCH  71  72
ATOM     72  C   UNL     1       1.972  -0.877  -2.223  1.00  0.00     0.342 C 
ATOM     73  O   UNL     1       1.189  -1.660  -1.716  1.00  0.00    -0.246 OA
BRANCH  72  74
ATOM     74  C   UNL     1       1.558   0.395  -2.845  1.00  0.00     0.102 A 
ATOM     75  C   UNL     1       0.646   1.165  -2.113  1.00  0.00     0.020 A 
ATOM     76  C   UNL     1       2.031   0.846  -4.089  1.00  0.00     0.142 A 
ATOM     77  C   UNL     1       0.309   2.439  -2.554  1.00  0.00     0.014 A 
ATOM     78  C   UNL     1       1.579   2.078  -4.600  1.00  0.00     0.076 A 
ATOM     79  C   UNL     1       0.805   2.903  -3.777  1.00  0.00     0.037 A 
ATOM     80  C   UNL     1       1.846   2.531  -5.996  1.00  0.00     0.198 C 
ATOM     81  C   UNL     1       0.547   4.306  -4.148  1.00  0.00     0.194 C 
ATOM     82  O   UNL     1       2.515   1.880  -6.788  1.00  0.00    -0.288 OA
ATOM     83  C   UNL     1       1.246   3.803  -6.463  1.00  0.00     0.034 A 
ATOM     84  C   UNL     1       0.699   4.701  -5.553  1.00  0.00     0.034 A 
ATOM     85  O   UNL     1       0.201   5.114  -3.296  1.00  0.00    -0.289 OA
ATOM     86  C   UNL     1       1.231   4.114  -7.827  1.00  0.00     0.013 A 
ATOM     87  C   UNL     1       0.226   5.948  -5.977  1.00  0.00     0.013 A 
ATOM     88  C   UNL     1       0.704   5.333  -8.260  1.00  0.00     0.001 A 
ATOM     89  C   UNL     1       0.232   6.263  -7.334  1.00  0.00     0.001 A 
BRANCH  76  90
ATOM     90  O   UNL     1       2.939   0.111  -4.802  1.00  0.00    -0.506 OA
ATOM     91  H   UNL     1       3.244  -0.710  -4.467  1.00  0.00     0.293 HD
ENDBRANCH  76  90
ENDBRANCH  72  74
ENDBRANCH  71  72
ENDBRANCH  70  71
ENDBRANCH   1  70
TORSDOF 12
