REMARK SMILES Cc1nn(C(C)C)c(C)c1S(=O)(=O)Nc1cccc(C(=O)OCCOC(=O)c2ccc(-c3c4nc(c(-c5c(F)c(F)c(F)c(F)c5F)c5ccc([nH]5)c(-c5c(F)c(F)c(F)c(F)c5F)c5nc(c(-c6c(F)c(F)c(F)c(F)c6F)c6ccc3[nH]6)C=C5)C=C4)cc2)c1C
REMARK SMILES IDX 23 1 22 2 20 3 21 4 19 5 15 6 16 7 91 8 17 9 92 10 18 11
REMARK SMILES IDX 14 12 11 14 12 15 13 16 10 17 1 18 2 19 3 20 4 21 8 22 9 23
REMARK SMILES IDX 5 24 6 25 7 26 24 27 25 28 26 29 27 30 28 31 29 32 90 33
REMARK SMILES IDX 30 34 89 35 31 36 32 37 33 38 83 39 34 40 88 41 82 42 84 43
REMARK SMILES IDX 35 44 87 45 81 46 80 47 36 49 68 50 48 51 67 52 49 53 52 54
REMARK SMILES IDX 66 55 85 56 50 57 51 58 65 60 86 61 53 62 37 63 38 64 46 65
REMARK SMILES IDX 39 66 40 67 44 68 47 69 41 70 42 71 45 72 43 73 69 74 70 75
REMARK SMILES IDX 78 76 71 77 72 78 76 79 79 80 73 81 74 82 77 83 75 84 54 85
REMARK SMILES IDX 55 86 63 87 56 88 57 89 61 90 64 91 58 92 59 93 62 94 60 95
REMARK H PARENT 14 13 84 48 52 59
REMARK Flexibility Score: inf
ROOT
ATOM      1  C   UNL     1       0.344  -6.428   3.145  1.00  0.00     0.275 C 
ENDROOT
BRANCH   1   2
ATOM      2  O   UNL     1       0.108  -5.325   2.253  1.00  0.00    -0.458 OA
BRANCH   2   3
ATOM      3  C   UNL     1       0.866  -4.052   2.505  1.00  0.00     0.338 C 
ATOM      4  O   UNL     1       1.028  -4.177   3.763  1.00  0.00    -0.246 OA
BRANCH   3   5
ATOM      5  C   UNL     1       1.458  -2.542   1.087  1.00  0.00     0.065 A 
ATOM      6  C   UNL     1       2.642  -0.195   0.137  1.00  0.00     0.053 A 
ATOM      7  C   UNL     1       2.248  -0.406  -1.165  1.00  0.00     0.027 A 
ATOM      8  C   UNL     1       2.351  -1.161   1.228  1.00  0.00    -0.012 A 
ATOM      9  C   UNL     1       1.490  -1.504  -1.443  1.00  0.00     0.003 A 
ATOM     10  C   UNL     1       3.075  -0.554   2.487  1.00  0.00     0.047 C 
ATOM     11  C   UNL     1       1.128  -2.435  -0.427  1.00  0.00     0.016 A 
BRANCH   6  12
ATOM     12  N   UNL     1       3.368   1.038   0.287  1.00  0.00    -0.279 N 
ATOM     13  H   UNL     1       4.346   1.006   0.183  1.00  0.00     0.180 HD
BRANCH  12  14
ATOM     14  S   UNL     1       2.665   2.542   0.631  1.00  0.00     0.265 S 
ATOM     15  O   UNL     1       3.579   3.494   0.029  1.00  0.00    -0.201 OA
ATOM     16  O   UNL     1       2.393   2.610   2.049  1.00  0.00    -0.201 OA
BRANCH  14  17
ATOM     17  C   UNL     1       1.143   2.926  -0.084  1.00  0.00     0.131 A 
ATOM     18  C   UNL     1      -0.368   0.829   0.434  1.00  0.00     0.070 C 
ATOM     19  C   UNL     1      -0.015   2.124  -0.166  1.00  0.00     0.080 A 
ATOM     20  N   UNL     1      -0.986   2.736  -0.849  1.00  0.00    -0.176 NA
ATOM     21  N   UNL     1      -0.578   4.010  -0.934  1.00  0.00    -0.266 N 
ATOM     22  C   UNL     1       0.679   4.202  -0.415  1.00  0.00     0.056 A 
ATOM     23  C   UNL     1       1.256   5.554  -0.187  1.00  0.00     0.068 C 
BRANCH  21  24
ATOM     24  C   UNL     1      -1.535   4.999  -1.429  1.00  0.00     0.101 C 
ATOM     25  C   UNL     1      -1.747   4.832  -2.933  1.00  0.00     0.033 C 
ATOM     26  C   UNL     1      -2.864   4.905  -0.671  1.00  0.00     0.033 C 
ENDBRANCH  21  24
ENDBRANCH  14  17
ENDBRANCH  12  14
ENDBRANCH   6  12
ENDBRANCH   3   5
ENDBRANCH   2   3
ENDBRANCH   1   2
BRANCH   1  27
ATOM     27  C   UNL     1       1.717  -7.038   2.829  1.00  0.00     0.275 C 
BRANCH  27  28
ATOM     28  O   UNL     1       2.849  -6.141   2.996  1.00  0.00    -0.458 OA
BRANCH  28  29
ATOM     29  C   UNL     1       3.407  -5.555   1.897  1.00  0.00     0.338 C 
ATOM     30  O   UNL     1       4.491  -5.824   1.416  1.00  0.00    -0.246 OA
BRANCH  29  31
ATOM     31  C   UNL     1       2.653  -4.339   1.528  1.00  0.00     0.060 A 
ATOM     32  C   UNL     1       2.604  -3.072   2.811  1.00  0.00     0.016 A 
ATOM     33  C   UNL     1       1.204  -4.653   0.526  1.00  0.00     0.016 A 
ATOM     34  C   UNL     1       1.030  -2.124   3.124  1.00  0.00     0.010 A 
ATOM     35  C   UNL     1      -0.360  -3.756   0.869  1.00  0.00     0.010 A 
ATOM     36  C   UNL     1      -0.444  -2.515   2.175  1.00  0.00    -0.014 A 
BRANCH  36  37
ATOM     37  C   UNL     1      -1.793  -2.490   2.757  1.00  0.00     0.031 A 
ATOM     38  C   UNL     1      -2.886  -2.116   1.843  1.00  0.00     0.074 A 
ATOM     39  C   UNL     1      -2.017  -3.086   3.959  1.00  0.00     0.049 A 
ATOM     40  N   UNL     1      -4.102  -1.955   2.206  1.00  0.00    -0.248 NA
ATOM     41  C   UNL     1      -2.695  -1.832   0.423  1.00  0.00     0.031 C 
ATOM     42  C   UNL     1      -3.262  -3.617   4.521  1.00  0.00     0.029 A 
ATOM     43  N   UNL     1      -1.111  -3.236   5.015  1.00  0.00    -0.354 N 
ATOM     44  C   UNL     1      -4.879  -1.785   1.080  1.00  0.00     0.074 A 
ATOM     45  C   UNL     1      -3.947  -1.641   0.001  1.00  0.00     0.031 C 
ATOM     46  C   UNL     1      -3.129  -3.768   5.853  1.00  0.00     0.029 A 
ATOM     47  C   UNL     1      -1.827  -3.248   6.224  1.00  0.00     0.049 A 
ATOM     48  H   UNL     1      -0.135  -3.319   4.926  1.00  0.00     0.167 HD
ATOM     49  C   UNL     1      -6.226  -1.892   1.236  1.00  0.00     0.037 A 
ATOM     50  C   UNL     1      -1.614  -2.249   7.132  1.00  0.00     0.037 A 
ATOM     51  C   UNL     1      -6.524  -1.896   2.668  1.00  0.00     0.049 A 
ATOM     52  C   UNL     1      -2.773  -1.273   7.145  1.00  0.00     0.074 A 
ATOM     53  C   UNL     1      -6.726  -2.916   3.580  1.00  0.00     0.029 A 
ATOM     54  N   UNL     1      -6.189  -0.763   3.404  1.00  0.00    -0.354 N 
ATOM     55  N   UNL     1      -3.657  -1.195   6.183  1.00  0.00    -0.248 NA
ATOM     56  C   UNL     1      -3.071  -0.360   8.245  1.00  0.00     0.031 C 
ATOM     57  C   UNL     1      -6.405  -2.403   4.870  1.00  0.00     0.029 A 
ATOM     58  C   UNL     1      -6.055  -1.067   4.745  1.00  0.00     0.049 A 
ATOM     59  H   UNL     1      -6.064   0.134   3.020  1.00  0.00     0.167 HD
ATOM     60  C   UNL     1      -4.627  -0.293   6.514  1.00  0.00     0.074 A 
ATOM     61  C   UNL     1      -4.216   0.201   7.817  1.00  0.00     0.031 C 
ATOM     62  C   UNL     1      -5.696  -0.028   5.704  1.00  0.00     0.037 A 
BRANCH  49  63
ATOM     63  C   UNL     1      -7.260  -2.177   0.169  1.00  0.00     0.064 A 
ATOM     64  C   UNL     1      -8.579  -2.505   0.560  1.00  0.00     0.173 A 
ATOM     65  C   UNL     1      -7.030  -2.254  -1.220  1.00  0.00     0.173 A 
ATOM     66  F   UNL     1      -8.957  -2.462   1.845  1.00  0.00    -0.203 F 
ATOM     67  C   UNL     1      -9.560  -2.914  -0.349  1.00  0.00     0.198 A 
ATOM     68  C   UNL     1      -8.018  -2.649  -2.131  1.00  0.00     0.198 A 
ATOM     69  F   UNL     1      -5.848  -1.971  -1.768  1.00  0.00    -0.203 F 
ATOM     70  F   UNL     1     -10.778  -3.252   0.097  1.00  0.00    -0.200 F 
ATOM     71  C   UNL     1      -9.279  -2.989  -1.696  1.00  0.00     0.200 A 
ATOM     72  F   UNL     1      -7.724  -2.713  -3.439  1.00  0.00    -0.200 F 
ATOM     73  F   UNL     1     -10.214  -3.389  -2.567  1.00  0.00    -0.200 F 
ENDBRANCH  49  63
BRANCH  50  74
ATOM     74  C   UNL     1      -0.155  -1.950   7.263  1.00  0.00     0.064 A 
ATOM     75  C   UNL     1       0.673  -3.042   7.620  1.00  0.00     0.173 A 
ATOM     76  C   UNL     1       0.458  -0.868   6.625  1.00  0.00     0.173 A 
ATOM     77  F   UNL     1       0.150  -4.082   8.290  1.00  0.00    -0.203 F 
ATOM     78  C   UNL     1       1.979  -3.150   7.151  1.00  0.00     0.198 A 
ATOM     79  C   UNL     1       1.803  -0.943   6.239  1.00  0.00     0.198 A 
ATOM     80  F   UNL     1      -0.267   0.185   6.222  1.00  0.00    -0.203 F 
ATOM     81  F   UNL     1       2.655  -4.297   7.309  1.00  0.00    -0.200 F 
ATOM     82  C   UNL     1       2.535  -2.109   6.434  1.00  0.00     0.200 A 
ATOM     83  F   UNL     1       2.338   0.049   5.511  1.00  0.00    -0.200 F 
ATOM     84  F   UNL     1       3.742  -2.251   5.866  1.00  0.00    -0.200 F 
ENDBRANCH  50  74
BRANCH  62  85
ATOM     85  C   UNL     1      -6.571   1.199   5.821  1.00  0.00     0.064 A 
ATOM     86  C   UNL     1      -6.164   2.383   6.455  1.00  0.00     0.173 A 
ATOM     87  C   UNL     1      -7.826   1.268   5.166  1.00  0.00     0.173 A 
ATOM     88  F   UNL     1      -4.924   2.532   6.939  1.00  0.00    -0.203 F 
ATOM     89  C   UNL     1      -7.004   3.492   6.561  1.00  0.00     0.198 A 
ATOM     90  C   UNL     1      -8.616   2.414   5.183  1.00  0.00     0.198 A 
ATOM     91  F   UNL     1      -8.321   0.241   4.462  1.00  0.00    -0.203 F 
ATOM     92  F   UNL     1      -6.606   4.555   7.273  1.00  0.00    -0.200 F 
ATOM     93  C   UNL     1      -8.226   3.510   5.920  1.00  0.00     0.200 A 
ATOM     94  F   UNL     1      -9.749   2.449   4.468  1.00  0.00    -0.200 F 
ATOM     95  F   UNL     1      -9.013   4.590   5.990  1.00  0.00    -0.200 F 
ENDBRANCH  62  85
ENDBRANCH  36  37
ENDBRANCH  29  31
ENDBRANCH  28  29
ENDBRANCH  27  28
ENDBRANCH   1  27
TORSDOF 15
