REMARK SMILES O=C(OCCOC(=O)c1cc(-c2ccc(N3C(=O)[C@@H]4CC=CC[C@H]4C3=O)cc2)nc2c(Cl)cccc12)c1ccc(-c2c3nc(c(-c4c(F)c(F)c(F)c(F)c4F)c4ccc([nH]4)c(-c4c(F)c(F)c(F)c(F)c4F)c4nc(c(-c5c(F)c(F)c(F)c(F)c5F)c5ccc2[nH]5)C=C4)C=C3)cc1
REMARK SMILES IDX 4 1 3 2 2 3 1 4 37 5 38 6 99 7 39 8 98 9 40 10 41 11 42 12
REMARK SMILES IDX 92 13 43 14 97 15 91 16 93 17 44 18 96 19 90 20 89 21 45 23
REMARK SMILES IDX 77 24 57 25 76 26 58 27 61 28 75 29 94 30 59 31 60 32 74 34
REMARK SMILES IDX 95 35 62 36 46 37 47 38 55 39 48 40 49 41 53 42 56 43 50 44
REMARK SMILES IDX 51 45 54 46 52 47 78 48 79 49 87 50 80 51 81 52 85 53 88 54
REMARK SMILES IDX 82 55 83 56 86 57 84 58 63 59 64 60 72 61 65 62 66 63 70 64
REMARK SMILES IDX 73 65 67 66 68 67 71 68 69 69 5 70 6 71 7 72 8 73 9 74 10 75
REMARK SMILES IDX 36 76 11 77 30 78 35 79 29 80 31 81 34 82 32 83 33 84 12 85
REMARK SMILES IDX 13 86 28 87 14 88 27 89 15 90 16 91 17 92 25 93 18 94 19 95
REMARK SMILES IDX 24 96 26 97 20 98 23 99 21 100 22 101
REMARK H PARENT 93 22 61 33
REMARK Flexibility Score: inf
ROOT
ATOM      1  C   UNL     1       3.994   1.365  -0.955  1.00  0.00     0.275 C 
ENDROOT
BRANCH   1   2
ATOM      2  O   UNL     1       2.918   0.435  -1.171  1.00  0.00    -0.458 OA
BRANCH   2   3
ATOM      3  C   UNL     1       2.736  -0.824  -0.715  1.00  0.00     0.338 C 
ATOM      4  O   UNL     1       1.753  -1.453  -1.104  1.00  0.00    -0.246 OA
BRANCH   3   5
ATOM      5  C   UNL     1       3.587  -1.470   0.336  1.00  0.00     0.060 A 
ATOM      6  C   UNL     1       4.910  -1.153   0.637  1.00  0.00     0.016 A 
ATOM      7  C   UNL     1       2.973  -2.486   1.094  1.00  0.00     0.016 A 
ATOM      8  C   UNL     1       5.571  -1.762   1.705  1.00  0.00     0.010 A 
ATOM      9  C   UNL     1       3.618  -3.085   2.181  1.00  0.00     0.010 A 
ATOM     10  C   UNL     1       4.929  -2.721   2.491  1.00  0.00    -0.014 A 
BRANCH  10  11
ATOM     11  C   UNL     1       5.710  -3.413   3.539  1.00  0.00     0.031 A 
ATOM     12  C   UNL     1       6.236  -4.784   3.258  1.00  0.00     0.074 A 
ATOM     13  C   UNL     1       6.072  -2.761   4.659  1.00  0.00     0.049 A 
ATOM     14  N   UNL     1       7.075  -5.500   3.959  1.00  0.00    -0.248 NA
ATOM     15  C   UNL     1       5.810  -5.410   1.997  1.00  0.00     0.031 C 
ATOM     16  C   UNL     1       5.718  -1.381   4.973  1.00  0.00     0.029 A 
ATOM     17  N   UNL     1       6.834  -3.158   5.728  1.00  0.00    -0.354 N 
ATOM     18  C   UNL     1       7.334  -6.622   3.190  1.00  0.00     0.074 A 
ATOM     19  C   UNL     1       6.498  -6.541   2.013  1.00  0.00     0.031 C 
ATOM     20  C   UNL     1       6.229  -1.056   6.171  1.00  0.00     0.029 A 
ATOM     21  C   UNL     1       6.922  -2.211   6.718  1.00  0.00     0.049 A 
ATOM     22  H   UNL     1       7.274  -4.037   5.780  1.00  0.00     0.167 HD
ATOM     23  C   UNL     1       8.231  -7.606   3.426  1.00  0.00     0.037 A 
ATOM     24  C   UNL     1       7.488  -2.270   7.937  1.00  0.00     0.037 A 
ATOM     25  C   UNL     1       9.015  -7.705   4.628  1.00  0.00     0.049 A 
ATOM     26  C   UNL     1       8.309  -3.478   8.274  1.00  0.00     0.074 A 
ATOM     27  C   UNL     1       9.910  -8.691   4.998  1.00  0.00     0.029 A 
ATOM     28  N   UNL     1       8.976  -6.787   5.670  1.00  0.00    -0.354 N 
ATOM     29  N   UNL     1       8.567  -4.527   7.532  1.00  0.00    -0.248 NA
ATOM     30  C   UNL     1       8.962  -3.489   9.587  1.00  0.00     0.031 C 
ATOM     31  C   UNL     1      10.372  -8.398   6.286  1.00  0.00     0.029 A 
ATOM     32  C   UNL     1       9.811  -7.199   6.696  1.00  0.00     0.049 A 
ATOM     33  H   UNL     1       8.435  -5.964   5.678  1.00  0.00     0.167 HD
ATOM     34  C   UNL     1       9.447  -5.303   8.266  1.00  0.00     0.074 A 
ATOM     35  C   UNL     1       9.684  -4.597   9.510  1.00  0.00     0.031 C 
ATOM     36  C   UNL     1      10.022  -6.485   7.931  1.00  0.00     0.037 A 
BRANCH  23  37
ATOM     37  C   UNL     1       8.382  -8.646   2.359  1.00  0.00     0.064 A 
ATOM     38  C   UNL     1       8.994  -8.346   1.131  1.00  0.00     0.173 A 
ATOM     39  C   UNL     1       7.890  -9.944   2.549  1.00  0.00     0.173 A 
ATOM     40  F   UNL     1       9.456  -7.109   0.890  1.00  0.00    -0.203 F 
ATOM     41  C   UNL     1       9.082  -9.302   0.122  1.00  0.00     0.198 A 
ATOM     42  C   UNL     1       8.003 -10.905   1.547  1.00  0.00     0.198 A 
ATOM     43  F   UNL     1       7.289 -10.277   3.700  1.00  0.00    -0.203 F 
ATOM     44  F   UNL     1       9.620  -8.977  -1.062  1.00  0.00    -0.200 F 
ATOM     45  C   UNL     1       8.591 -10.581   0.333  1.00  0.00     0.200 A 
ATOM     46  F   UNL     1       7.530 -12.142   1.752  1.00  0.00    -0.200 F 
ATOM     47  F   UNL     1       8.672 -11.499  -0.640  1.00  0.00    -0.200 F 
ENDBRANCH  23  37
BRANCH  24  48
ATOM     48  C   UNL     1       7.281  -1.173   8.919  1.00  0.00     0.064 A 
ATOM     49  C   UNL     1       8.321  -0.329   9.328  1.00  0.00     0.173 A 
ATOM     50  C   UNL     1       6.019  -0.976   9.501  1.00  0.00     0.173 A 
ATOM     51  F   UNL     1       9.550  -0.485   8.816  1.00  0.00    -0.203 F 
ATOM     52  C   UNL     1       8.113   0.652  10.298  1.00  0.00     0.198 A 
ATOM     53  C   UNL     1       5.804   0.022  10.448  1.00  0.00     0.198 A 
ATOM     54  F   UNL     1       4.989  -1.758   9.146  1.00  0.00    -0.203 F 
ATOM     55  F   UNL     1       9.136   1.415  10.705  1.00  0.00    -0.200 F 
ATOM     56  C   UNL     1       6.855   0.828  10.855  1.00  0.00     0.200 A 
ATOM     57  F   UNL     1       4.582   0.201  10.967  1.00  0.00    -0.200 F 
ATOM     58  F   UNL     1       6.656   1.772  11.786  1.00  0.00    -0.200 F 
ENDBRANCH  24  48
BRANCH  36  59
ATOM     59  C   UNL     1      10.992  -7.059   8.920  1.00  0.00     0.064 A 
ATOM     60  C   UNL     1      10.570  -7.568  10.157  1.00  0.00     0.173 A 
ATOM     61  C   UNL     1      12.363  -7.089   8.626  1.00  0.00     0.173 A 
ATOM     62  F   UNL     1       9.271  -7.540  10.492  1.00  0.00    -0.203 F 
ATOM     63  C   UNL     1      11.492  -8.049  11.082  1.00  0.00     0.198 A 
ATOM     64  C   UNL     1      13.278  -7.605   9.538  1.00  0.00     0.198 A 
ATOM     65  F   UNL     1      12.816  -6.616   7.456  1.00  0.00    -0.203 F 
ATOM     66  F   UNL     1      11.076  -8.462  12.286  1.00  0.00    -0.200 F 
ATOM     67  C   UNL     1      12.844  -8.072  10.769  1.00  0.00     0.200 A 
ATOM     68  F   UNL     1      14.581  -7.639   9.230  1.00  0.00    -0.200 F 
ATOM     69  F   UNL     1      13.730  -8.532  11.662  1.00  0.00    -0.200 F 
ENDBRANCH  36  59
ENDBRANCH  10  11
ENDBRANCH   3   5
ENDBRANCH   2   3
ENDBRANCH   1   2
BRANCH   1  70
ATOM     70  C   UNL     1       3.910   2.155   0.354  1.00  0.00     0.275 C 
BRANCH  70  71
ATOM     71  O   UNL     1       3.511   1.362   1.484  1.00  0.00    -0.458 OA
BRANCH  71  72
ATOM     72  C   UNL     1       2.194   1.429   1.800  1.00  0.00     0.339 C 
ATOM     73  O   UNL     1       1.337   2.089   1.226  1.00  0.00    -0.246 OA
BRANCH  72  74
ATOM     74  C   UNL     1       1.879   0.491   2.894  1.00  0.00     0.071 A 
ATOM     75  C   UNL     1       0.895  -0.463   2.619  1.00  0.00     0.045 A 
ATOM     76  C   UNL     1       2.458   0.596   4.181  1.00  0.00     0.016 A 
ATOM     77  C   UNL     1       0.554  -1.349   3.619  1.00  0.00     0.072 A 
ATOM     78  C   UNL     1       2.030  -0.347   5.140  1.00  0.00     0.090 A 
ATOM     79  C   UNL     1       3.390   1.597   4.563  1.00  0.00     0.011 A 
ATOM     80  N   UNL     1       1.125  -1.301   4.840  1.00  0.00    -0.246 NA
ATOM     81  C   UNL     1       2.544  -0.248   6.439  1.00  0.00     0.067 A 
ATOM     82  C   UNL     1       3.870   1.679   5.868  1.00  0.00     0.002 A 
ATOM     83  Cl  UNL     1       2.072  -1.379   7.667  1.00  0.00    -0.082 Cl
ATOM     84  C   UNL     1       3.437   0.760   6.812  1.00  0.00     0.023 A 
BRANCH  77  85
ATOM     85  C   UNL     1      -0.536  -2.316   3.493  1.00  0.00     0.000 A 
ATOM     86  C   UNL     1      -0.405  -3.531   2.808  1.00  0.00     0.012 A 
ATOM     87  C   UNL     1      -1.764  -2.038   4.105  1.00  0.00     0.012 A 
ATOM     88  C   UNL     1      -1.478  -4.432   2.719  1.00  0.00     0.027 A 
ATOM     89  C   UNL     1      -2.844  -2.914   3.983  1.00  0.00     0.027 A 
ATOM     90  C   UNL     1      -2.721  -4.117   3.280  1.00  0.00     0.052 A 
BRANCH  90  91
ATOM     91  N   UNL     1      -3.838  -4.973   3.134  1.00  0.00    -0.250 N 
ATOM     92  C   UNL     1      -3.785  -6.360   3.072  1.00  0.00     0.238 C 
ATOM     93  C   UNL     1      -5.144  -4.515   3.004  1.00  0.00     0.238 C 
ATOM     94  O   UNL     1      -2.822  -7.106   3.002  1.00  0.00    -0.274 OA
ATOM     95  C   UNL     1      -5.208  -6.817   3.255  1.00  0.00     0.096 C 
ATOM     96  C   UNL     1      -5.942  -5.698   2.543  1.00  0.00     0.096 C 
ATOM     97  O   UNL     1      -5.594  -3.384   3.099  1.00  0.00    -0.274 OA
ATOM     98  C   UNL     1      -5.640  -8.167   2.719  1.00  0.00     0.041 C 
ATOM     99  C   UNL     1      -7.424  -5.727   2.850  1.00  0.00     0.041 C 
ATOM    100  C   UNL     1      -7.150  -8.222   2.621  1.00  0.00    -0.030 C 
ATOM    101  C   UNL     1      -7.945  -7.138   2.706  1.00  0.00    -0.030 C 
ENDBRANCH  90  91
ENDBRANCH  77  85
ENDBRANCH  72  74
ENDBRANCH  71  72
ENDBRANCH  70  71
ENDBRANCH   1  70
TORSDOF 13
