REMARK SMILES Cc1cc(C)c2c(O[C@@H](C)C(=O)OCCOC(=O)c3ccc(-c4c5nc(c(-c6c(F)c(F)c(F)c(F)c6F)c6ccc([nH]6)c(-c6c(F)c(F)c(F)c(F)c6F)c6nc(c(-c7c(F)c(F)c(F)c(F)c7F)c7ccc4[nH]7)C=C6)C=C5)cc3)nsc2n1
REMARK SMILES IDX 14 1 13 2 11 3 12 4 9 5 10 6 8 7 7 8 1 9 2 10 3 11 85 12
REMARK SMILES IDX 4 13 84 14 5 15 6 16 83 17 82 18 15 19 16 20 17 21 18 22
REMARK SMILES IDX 19 23 20 24 81 25 21 26 80 27 22 28 23 29 24 30 74 31 25 32
REMARK SMILES IDX 79 33 73 34 75 35 26 36 78 37 72 38 71 39 27 41 59 42 39 43
REMARK SMILES IDX 58 44 40 45 43 46 57 47 76 48 41 49 42 50 56 52 77 53 44 54
REMARK SMILES IDX 28 55 29 56 37 57 30 58 31 59 35 60 38 61 32 62 33 63 36 64
REMARK SMILES IDX 34 65 60 66 61 67 69 68 62 69 63 70 67 71 70 72 64 73 65 74
REMARK SMILES IDX 68 75 66 76 45 77 46 78 54 79 47 80 48 81 52 82 55 83 49 84
REMARK SMILES IDX 50 85 53 86 51 87
REMARK H PARENT 75 40 43 51
REMARK Flexibility Score: inf
ROOT
ATOM      1  C   UNL     1       1.976  -2.477   4.306  1.00  0.00     0.274 C 
ENDROOT
BRANCH   1   2
ATOM      2  O   UNL     1       0.708  -1.937   4.716  1.00  0.00    -0.459 OA
BRANCH   2   3
ATOM      3  C   UNL     1      -0.147  -2.701   5.437  1.00  0.00     0.347 C 
ATOM      4  O   UNL     1       0.071  -3.866   5.752  1.00  0.00    -0.248 OA
BRANCH   3   5
ATOM      5  C   UNL     1      -1.435  -1.929   5.835  1.00  0.00     0.281 C 
ATOM      6  C   UNL     1      -2.698  -2.760   5.577  1.00  0.00     0.066 C 
BRANCH   5   7
ATOM      7  O   UNL     1      -1.841  -0.617   5.553  1.00  0.00    -0.462 OA
BRANCH   7   8
ATOM      8  C   UNL     1      -1.256   0.122   4.589  1.00  0.00     0.236 A 
ATOM      9  C   UNL     1       1.166   0.399  -0.534  1.00  0.00     0.067 C 
ATOM     10  C   UNL     1       0.436   0.200   0.759  1.00  0.00     0.039 A 
ATOM     11  C   UNL     1      -0.034  -1.056   1.103  1.00  0.00     0.027 A 
ATOM     12  N   UNL     1       0.310   1.274   1.546  1.00  0.00    -0.240 NA
ATOM     13  C   UNL     1      -0.724  -1.274   2.316  1.00  0.00    -0.034 A 
ATOM     14  C   UNL     1      -0.290   1.040   2.727  1.00  0.00     0.147 A 
ATOM     15  C   UNL     1      -1.208  -2.690   2.503  1.00  0.00     0.045 C 
ATOM     16  C   UNL     1      -0.808  -0.164   3.224  1.00  0.00     0.078 A 
ATOM     17  S   UNL     1      -0.514   2.308   3.834  1.00  0.00    -0.012 S 
ATOM     18  N   UNL     1      -1.219   1.391   4.995  1.00  0.00    -0.153 NA
ENDBRANCH   7   8
ENDBRANCH   5   7
ENDBRANCH   3   5
ENDBRANCH   2   3
ENDBRANCH   1   2
BRANCH   1  19
ATOM     19  C   UNL     1       3.079  -1.788   5.085  1.00  0.00     0.275 C 
BRANCH  19  20
ATOM     20  O   UNL     1       3.038  -2.224   6.439  1.00  0.00    -0.458 OA
BRANCH  20  21
ATOM     21  C   UNL     1       2.173  -1.554   7.231  1.00  0.00     0.338 C 
ATOM     22  O   UNL     1       1.367  -0.697   6.921  1.00  0.00    -0.246 OA
BRANCH  21  23
ATOM     23  C   UNL     1       2.417  -1.942   8.613  1.00  0.00     0.060 A 
ATOM     24  C   UNL     1       1.437  -1.627   9.560  1.00  0.00     0.016 A 
ATOM     25  C   UNL     1       3.697  -2.382   8.967  1.00  0.00     0.016 A 
ATOM     26  C   UNL     1       1.794  -1.617  10.888  1.00  0.00     0.010 A 
ATOM     27  C   UNL     1       4.056  -2.357  10.286  1.00  0.00     0.010 A 
ATOM     28  C   UNL     1       3.120  -1.909  11.217  1.00  0.00    -0.014 A 
BRANCH  28  29
ATOM     29  C   UNL     1       3.537  -1.752  12.589  1.00  0.00     0.031 A 
ATOM     30  C   UNL     1       3.146  -2.861  13.485  1.00  0.00     0.074 A 
ATOM     31  C   UNL     1       4.377  -0.760  12.935  1.00  0.00     0.049 A 
ATOM     32  N   UNL     1       2.467  -2.804  14.582  1.00  0.00    -0.248 NA
ATOM     33  C   UNL     1       3.481  -4.228  13.048  1.00  0.00     0.031 C 
ATOM     34  C   UNL     1       5.082   0.175  12.052  1.00  0.00     0.029 A 
ATOM     35  N   UNL     1       4.880  -0.471  14.161  1.00  0.00    -0.354 N 
ATOM     36  C   UNL     1       2.426  -4.109  15.060  1.00  0.00     0.074 A 
ATOM     37  C   UNL     1       2.936  -4.959  14.017  1.00  0.00     0.031 C 
ATOM     38  C   UNL     1       6.077   0.769  12.747  1.00  0.00     0.029 A 
ATOM     39  C   UNL     1       5.996   0.347  14.135  1.00  0.00     0.049 A 
ATOM     40  H   UNL     1       4.485  -0.813  14.995  1.00  0.00     0.167 HD
ATOM     41  C   UNL     1       2.191  -4.383  16.369  1.00  0.00     0.037 A 
ATOM     42  C   UNL     1       6.837   0.565  15.173  1.00  0.00     0.037 A 
ATOM     43  C   UNL     1       1.556  -3.289  17.046  1.00  0.00     0.049 A 
ATOM     44  C   UNL     1       6.125   0.159  16.414  1.00  0.00     0.074 A 
ATOM     45  C   UNL     1       0.357  -2.623  16.881  1.00  0.00     0.029 A 
ATOM     46  N   UNL     1       2.330  -2.473  17.832  1.00  0.00    -0.354 N 
ATOM     47  N   UNL     1       5.089   0.779  16.907  1.00  0.00    -0.248 NA
ATOM     48  C   UNL     1       6.322  -1.201  16.895  1.00  0.00     0.031 C 
ATOM     49  C   UNL     1       0.644  -1.258  17.173  1.00  0.00     0.029 A 
ATOM     50  C   UNL     1       1.990  -1.177  17.532  1.00  0.00     0.049 A 
ATOM     51  H   UNL     1       3.003  -2.763  18.490  1.00  0.00     0.167 HD
ATOM     52  C   UNL     1       4.288  -0.225  17.431  1.00  0.00     0.074 A 
ATOM     53  C   UNL     1       5.145  -1.403  17.494  1.00  0.00     0.031 C 
ATOM     54  C   UNL     1       2.932  -0.081  17.499  1.00  0.00     0.037 A 
BRANCH  41  55
ATOM     55  C   UNL     1       2.841  -5.532  17.081  1.00  0.00     0.064 A 
ATOM     56  C   UNL     1       2.333  -5.978  18.311  1.00  0.00     0.173 A 
ATOM     57  C   UNL     1       4.106  -6.042  16.711  1.00  0.00     0.173 A 
ATOM     58  F   UNL     1       1.167  -5.508  18.776  1.00  0.00    -0.203 F 
ATOM     59  C   UNL     1       3.053  -6.860  19.122  1.00  0.00     0.198 A 
ATOM     60  C   UNL     1       4.792  -6.967  17.492  1.00  0.00     0.198 A 
ATOM     61  F   UNL     1       4.766  -5.584  15.639  1.00  0.00    -0.203 F 
ATOM     62  F   UNL     1       2.582  -7.184  20.333  1.00  0.00    -0.200 F 
ATOM     63  C   UNL     1       4.277  -7.359  18.709  1.00  0.00     0.200 A 
ATOM     64  F   UNL     1       5.988  -7.415  17.085  1.00  0.00    -0.200 F 
ATOM     65  F   UNL     1       4.984  -8.174  19.502  1.00  0.00    -0.200 F 
ENDBRANCH  41  55
BRANCH  42  66
ATOM     66  C   UNL     1       8.303   0.774  15.127  1.00  0.00     0.064 A 
ATOM     67  C   UNL     1       8.989   1.259  16.252  1.00  0.00     0.173 A 
ATOM     68  C   UNL     1       9.097   0.254  14.085  1.00  0.00     0.173 A 
ATOM     69  F   UNL     1       8.306   1.733  17.304  1.00  0.00    -0.203 F 
ATOM     70  C   UNL     1      10.383   1.197  16.343  1.00  0.00     0.198 A 
ATOM     71  C   UNL     1      10.489   0.205  14.172  1.00  0.00     0.198 A 
ATOM     72  F   UNL     1       8.540  -0.309  13.004  1.00  0.00    -0.203 F 
ATOM     73  F   UNL     1      10.996   1.603  17.463  1.00  0.00    -0.200 F 
ATOM     74  C   UNL     1      11.130   0.661  15.307  1.00  0.00     0.200 A 
ATOM     75  F   UNL     1      11.197  -0.345  13.176  1.00  0.00    -0.200 F 
ATOM     76  F   UNL     1      12.460   0.544  15.421  1.00  0.00    -0.200 F 
ENDBRANCH  42  66
BRANCH  54  77
ATOM     77  C   UNL     1       2.363   1.289  17.254  1.00  0.00     0.064 A 
ATOM     78  C   UNL     1       2.458   1.966  16.025  1.00  0.00     0.173 A 
ATOM     79  C   UNL     1       1.562   1.869  18.247  1.00  0.00     0.173 A 
ATOM     80  F   UNL     1       3.115   1.427  14.991  1.00  0.00    -0.203 F 
ATOM     81  C   UNL     1       1.819   3.187  15.819  1.00  0.00     0.198 A 
ATOM     82  C   UNL     1       0.893   3.070  18.025  1.00  0.00     0.198 A 
ATOM     83  F   UNL     1       1.385   1.240  19.419  1.00  0.00    -0.203 F 
ATOM     84  F   UNL     1       1.936   3.817  14.640  1.00  0.00    -0.200 F 
ATOM     85  C   UNL     1       1.030   3.734  16.817  1.00  0.00     0.200 A 
ATOM     86  F   UNL     1       0.090   3.570  18.975  1.00  0.00    -0.200 F 
ATOM     87  F   UNL     1       0.378   4.885  16.604  1.00  0.00    -0.200 F 
ENDBRANCH  54  77
ENDBRANCH  28  29
ENDBRANCH  21  23
ENDBRANCH  20  21
ENDBRANCH  19  20
ENDBRANCH   1  19
TORSDOF 13
