REMARK SMILES C[NH+]1CCC2(CC1)OC[C@H](C(=O)OCCOC(=O)c1ccc(-c3c4nc(c(-c5c(F)c(F)c(F)c(F)c5F)c5ccc([nH]5)c(-c5c(F)c(F)c(F)c(F)c5F)c5nc(c(-c6c(F)c(F)c(F)c(F)c6F)c6ccc3[nH]6)C=C5)C=C4)cc1)N2C(=O)c1cc(C(F)(F)F)cc(C(F)(F)F)c1
REMARK SMILES IDX 14 1 13 2 11 3 12 4 10 5 1 6 2 7 3 8 7 9 4 11 6 12 5 13 8 14
REMARK SMILES IDX 82 15 9 16 83 17 84 18 85 19 86 20 98 21 87 22 93 23 92 24
REMARK SMILES IDX 88 25 89 26 90 27 91 28 94 29 95 30 96 31 97 32 15 33 16 34
REMARK SMILES IDX 17 35 18 36 19 37 20 38 81 39 21 40 80 41 22 42 23 43 24 44
REMARK SMILES IDX 74 45 25 46 79 47 73 48 75 49 26 50 78 51 72 52 71 53 27 55
REMARK SMILES IDX 59 56 39 57 58 58 40 59 43 60 57 61 76 62 41 63 42 64 56 66
REMARK SMILES IDX 77 67 44 68 28 69 29 70 37 71 30 72 31 73 35 74 38 75 32 76
REMARK SMILES IDX 33 77 36 78 34 79 60 80 61 81 69 82 62 83 63 84 67 85 70 86
REMARK SMILES IDX 64 87 65 88 68 89 66 90 45 91 46 92 54 93 47 94 48 95 52 96
REMARK SMILES IDX 55 97 49 98 50 99 53 100 51 101
REMARK H PARENT 2 10 75 54 43 65
REMARK Flexibility Score: inf
ROOT
ATOM      1  C   UNL     1       6.077   0.039   4.559  1.00  0.00     0.274 C 
ENDROOT
BRANCH   1   2
ATOM      2  O   UNL     1       5.035   1.008   4.338  1.00  0.00    -0.460 OA
BRANCH   2   3
ATOM      3  C   UNL     1       3.820   0.748   4.887  1.00  0.00     0.331 C 
ATOM      4  O   UNL     1       3.542  -0.292   5.476  1.00  0.00    -0.250 OA
BRANCH   3   5
ATOM      5  C   UNL     1       2.811   1.882   4.646  1.00  0.00     0.224 C 
ATOM      6  C   UNL     1       1.332   0.311  -1.177  1.00  0.00     0.332 C 
ATOM      7  N   UNL     1       0.816   0.050   0.161  1.00  0.00    -0.337 N 
ATOM      8  C   UNL     1       1.819  -0.557   1.028  1.00  0.00     0.267 C 
ATOM      9  C   UNL     1       0.118   1.198   0.734  1.00  0.00     0.267 C 
ATOM     10  H   UNL     1       0.088  -0.659   0.072  1.00  0.00     0.347 HD
ATOM     11  C   UNL     1       2.738   0.419   1.730  1.00  0.00     0.120 C 
ATOM     12  C   UNL     1       0.948   2.200   1.528  1.00  0.00     0.120 C 
ATOM     13  C   UNL     1       2.023   1.587   2.424  1.00  0.00     0.155 C 
ATOM     14  O   UNL     1       3.071   2.622   2.459  1.00  0.00    -0.352 OA
ATOM     15  N   UNL     1       1.701   1.378   3.856  1.00  0.00    -0.293 N 
ATOM     16  C   UNL     1       3.299   3.028   3.812  1.00  0.00     0.200 C 
BRANCH  15  17
ATOM     17  C   UNL     1       0.635   0.863   4.577  1.00  0.00     0.256 C 
ATOM     18  O   UNL     1       0.588   0.894   5.807  1.00  0.00    -0.269 OA
BRANCH  17  19
ATOM     19  C   UNL     1      -0.550   0.305   3.925  1.00  0.00     0.041 A 
ATOM     20  C   UNL     1      -1.737   1.045   3.914  1.00  0.00     0.027 A 
ATOM     21  C   UNL     1      -0.523  -0.994   3.424  1.00  0.00     0.027 A 
ATOM     22  C   UNL     1      -2.882   0.530   3.285  1.00  0.00     0.057 A 
ATOM     23  C   UNL     1      -1.623  -1.494   2.712  1.00  0.00     0.057 A 
ATOM     24  C   UNL     1      -2.804  -0.729   2.662  1.00  0.00     0.026 A 
BRANCH  22  25
ATOM     25  C   UNL     1      -4.165   1.326   3.281  1.00  0.00     0.416 C 
ATOM     26  F   UNL     1      -4.778   1.327   4.495  1.00  0.00    -0.166 F 
ATOM     27  F   UNL     1      -3.964   2.633   2.957  1.00  0.00    -0.166 F 
ATOM     28  F   UNL     1      -5.086   0.860   2.393  1.00  0.00    -0.166 F 
ENDBRANCH  22  25
BRANCH  23  29
ATOM     29  C   UNL     1      -1.524  -2.793   1.944  1.00  0.00     0.416 C 
ATOM     30  F   UNL     1      -2.419  -3.722   2.374  1.00  0.00    -0.166 F 
ATOM     31  F   UNL     1      -1.768  -2.624   0.615  1.00  0.00    -0.166 F 
ATOM     32  F   UNL     1      -0.298  -3.380   2.027  1.00  0.00    -0.166 F 
ENDBRANCH  23  29
ENDBRANCH  17  19
ENDBRANCH  15  17
ENDBRANCH   3   5
ENDBRANCH   2   3
ENDBRANCH   1   2
BRANCH   1  33
ATOM     33  C   UNL     1       7.213   0.700   5.333  1.00  0.00     0.275 C 
BRANCH  33  34
ATOM     34  O   UNL     1       6.718   1.182   6.596  1.00  0.00    -0.458 OA
BRANCH  34  35
ATOM     35  C   UNL     1       6.403   2.497   6.620  1.00  0.00     0.338 C 
ATOM     36  O   UNL     1       6.556   3.327   5.742  1.00  0.00    -0.246 OA
BRANCH  35  37
ATOM     37  C   UNL     1       5.750   2.810   7.894  1.00  0.00     0.060 A 
ATOM     38  C   UNL     1       4.416   2.450   8.090  1.00  0.00     0.016 A 
ATOM     39  C   UNL     1       6.435   3.567   8.842  1.00  0.00     0.016 A 
ATOM     40  C   UNL     1       3.738   2.897   9.220  1.00  0.00     0.010 A 
ATOM     41  C   UNL     1       5.775   3.952  10.008  1.00  0.00     0.010 A 
ATOM     42  C   UNL     1       4.416   3.639  10.196  1.00  0.00    -0.014 A 
BRANCH  42  43
ATOM     43  C   UNL     1       3.722   4.099  11.423  1.00  0.00     0.031 A 
ATOM     44  C   UNL     1       3.563   5.568  11.686  1.00  0.00     0.074 A 
ATOM     45  C   UNL     1       3.288   3.197  12.322  1.00  0.00     0.049 A 
ATOM     46  N   UNL     1       3.202   6.180  12.785  1.00  0.00    -0.248 NA
ATOM     47  C   UNL     1       3.866   6.472  10.566  1.00  0.00     0.031 C 
ATOM     48  C   UNL     1       3.353   1.744  12.163  1.00  0.00     0.029 A 
ATOM     49  N   UNL     1       2.724   3.372  13.561  1.00  0.00    -0.354 N 
ATOM     50  C   UNL     1       3.279   7.537  12.504  1.00  0.00     0.074 A 
ATOM     51  C   UNL     1       3.722   7.662  11.132  1.00  0.00     0.031 C 
ATOM     52  C   UNL     1       2.853   1.159  13.262  1.00  0.00     0.029 A 
ATOM     53  C   UNL     1       2.498   2.194  14.227  1.00  0.00     0.049 A 
ATOM     54  H   UNL     1       2.504   4.256  13.935  1.00  0.00     0.167 HD
ATOM     55  C   UNL     1       3.009   8.580  13.325  1.00  0.00     0.037 A 
ATOM     56  C   UNL     1       2.094   1.972  15.491  1.00  0.00     0.037 A 
ATOM     57  C   UNL     1       2.533   8.442  14.677  1.00  0.00     0.049 A 
ATOM     58  C   UNL     1       1.823   3.144  16.389  1.00  0.00     0.074 A 
ATOM     59  C   UNL     1       2.204   9.435  15.584  1.00  0.00     0.029 A 
ATOM     60  N   UNL     1       2.308   7.229  15.312  1.00  0.00    -0.354 N 
ATOM     61  N   UNL     1       1.929   4.425  16.129  1.00  0.00    -0.248 NA
ATOM     62  C   UNL     1       1.389   2.842  17.759  1.00  0.00     0.031 C 
ATOM     63  C   UNL     1       1.810   8.822  16.779  1.00  0.00     0.029 A 
ATOM     64  C   UNL     1       1.857   7.448  16.603  1.00  0.00     0.049 A 
ATOM     65  H   UNL     1       2.449   6.344  14.905  1.00  0.00     0.167 HD
ATOM     66  C   UNL     1       1.562   5.081  17.294  1.00  0.00     0.074 A 
ATOM     67  C   UNL     1       1.217   4.057  18.260  1.00  0.00     0.031 C 
ATOM     68  C   UNL     1       1.517   6.412  17.544  1.00  0.00     0.037 A 
BRANCH  55  69
ATOM     69  C   UNL     1       3.249   9.962  12.795  1.00  0.00     0.064 A 
ATOM     70  C   UNL     1       2.398  10.552  11.850  1.00  0.00     0.173 A 
ATOM     71  C   UNL     1       4.330  10.722  13.271  1.00  0.00     0.173 A 
ATOM     72  F   UNL     1       1.361   9.861  11.353  1.00  0.00    -0.203 F 
ATOM     73  C   UNL     1       2.631  11.844  11.385  1.00  0.00     0.198 A 
ATOM     74  C   UNL     1       4.545  12.022  12.822  1.00  0.00     0.198 A 
ATOM     75  F   UNL     1       5.172  10.205  14.178  1.00  0.00    -0.203 F 
ATOM     76  F   UNL     1       1.827  12.374  10.453  1.00  0.00    -0.200 F 
ATOM     77  C   UNL     1       3.699  12.580  11.876  1.00  0.00     0.200 A 
ATOM     78  F   UNL     1       5.573  12.734  13.304  1.00  0.00    -0.200 F 
ATOM     79  F   UNL     1       3.918  13.825  11.432  1.00  0.00    -0.200 F 
ENDBRANCH  55  69
BRANCH  56  80
ATOM     80  C   UNL     1       1.957   0.578  15.983  1.00  0.00     0.064 A 
ATOM     81  C   UNL     1       0.695   0.022  16.224  1.00  0.00     0.173 A 
ATOM     82  C   UNL     1       3.083  -0.232  16.198  1.00  0.00     0.173 A 
ATOM     83  F   UNL     1      -0.408   0.766  16.055  1.00  0.00    -0.203 F 
ATOM     84  C   UNL     1       0.563  -1.292  16.670  1.00  0.00     0.198 A 
ATOM     85  C   UNL     1       2.948  -1.552  16.619  1.00  0.00     0.198 A 
ATOM     86  F   UNL     1       4.313   0.256  15.980  1.00  0.00    -0.203 F 
ATOM     87  F   UNL     1      -0.654  -1.790  16.926  1.00  0.00    -0.200 F 
ATOM     88  C   UNL     1       1.689  -2.080  16.860  1.00  0.00     0.200 A 
ATOM     89  F   UNL     1       4.038  -2.314  16.789  1.00  0.00    -0.200 F 
ATOM     90  F   UNL     1       1.560  -3.346  17.279  1.00  0.00    -0.200 F 
ENDBRANCH  56  80
BRANCH  68  91
ATOM     91  C   UNL     1       1.050   6.832  18.905  1.00  0.00     0.064 A 
ATOM     92  C   UNL     1       1.879   6.716  20.030  1.00  0.00     0.173 A 
ATOM     93  C   UNL     1      -0.228   7.383  19.077  1.00  0.00     0.173 A 
ATOM     94  F   UNL     1       3.102   6.179  19.915  1.00  0.00    -0.203 F 
ATOM     95  C   UNL     1       1.435   7.120  21.286  1.00  0.00     0.198 A 
ATOM     96  C   UNL     1      -0.659   7.806  20.330  1.00  0.00     0.198 A 
ATOM     97  F   UNL     1      -1.054   7.516  18.029  1.00  0.00    -0.203 F 
ATOM     98  F   UNL     1       2.227   6.965  22.356  1.00  0.00    -0.200 F 
ATOM     99  C   UNL     1       0.170   7.670  21.434  1.00  0.00     0.200 A 
ATOM    100  F   UNL     1      -1.879   8.344  20.471  1.00  0.00    -0.200 F 
ATOM    101  F   UNL     1      -0.255   8.060  22.643  1.00  0.00    -0.200 F 
ENDBRANCH  68  91
ENDBRANCH  42  43
ENDBRANCH  35  37
ENDBRANCH  34  35
ENDBRANCH  33  34
ENDBRANCH   1  33
TORSDOF 15
