REMARK SMILES Cc1nn(C)c(C)c1C(=O)N1CC[C@H](C(=O)OCCOC(=O)c2ccc(-c3c4nc(c(-c5c(F)c(F)c(F)c(F)c5F)c5ccc([nH]5)c(-c5c(F)c(F)c(F)c(F)c5F)c5nc(c(-c6c(F)c(F)c(F)c(F)c6F)c6ccc3[nH]6)C=C5)C=C4)cc2)[C@@H]1C
REMARK SMILES IDX 18 1 17 2 15 3 16 4 14 5 11 6 12 7 86 8 13 9 87 10 9 11
REMARK SMILES IDX 10 12 8 13 1 14 2 15 3 16 4 17 6 18 5 19 7 20 19 21 20 22
REMARK SMILES IDX 21 23 22 24 23 25 24 26 85 27 25 28 84 29 26 30 27 31 28 32
REMARK SMILES IDX 78 33 29 34 83 35 77 36 79 37 30 38 82 39 76 40 75 41 31 43
REMARK SMILES IDX 63 44 43 45 62 46 44 47 47 48 61 49 80 50 45 51 46 52 60 54
REMARK SMILES IDX 81 55 48 56 32 57 33 58 41 59 34 60 35 61 39 62 42 63 36 64
REMARK SMILES IDX 37 65 40 66 38 67 64 68 65 69 73 70 66 71 67 72 71 73 74 74
REMARK SMILES IDX 68 75 69 76 72 77 70 78 49 79 50 80 58 81 51 82 52 83 56 84
REMARK SMILES IDX 59 85 53 86 54 87 57 88 55 89
REMARK H PARENT 79 42 47 53
REMARK Flexibility Score: inf
ROOT
ATOM      1  C   UNL     1      -6.333   5.288   2.880  1.00  0.00     0.274 C 
ENDROOT
BRANCH   1   2
ATOM      2  O   UNL     1      -5.735   4.079   2.354  1.00  0.00    -0.462 OA
BRANCH   2   3
ATOM      3  C   UNL     1      -5.173   4.207   1.120  1.00  0.00     0.311 C 
ATOM      4  O   UNL     1      -5.045   5.273   0.529  1.00  0.00    -0.252 OA
BRANCH   3   5
ATOM      5  C   UNL     1      -4.863   2.853   0.498  1.00  0.00     0.123 C 
ATOM      6  N   UNL     1      -2.617   2.534  -0.276  1.00  0.00    -0.335 N 
ATOM      7  C   UNL     1      -3.299   3.398  -1.221  1.00  0.00     0.121 C 
ATOM      8  C   UNL     1      -3.519   2.163   0.831  1.00  0.00     0.096 C 
ATOM      9  C   UNL     1      -4.762   3.034  -1.027  1.00  0.00     0.039 C 
ATOM     10  C   UNL     1      -2.952   2.420   2.216  1.00  0.00     0.032 C 
BRANCH   6  11
ATOM     11  C   UNL     1      -1.337   2.111  -0.616  1.00  0.00     0.257 C 
ATOM     12  O   UNL     1      -0.641   2.825  -1.341  1.00  0.00    -0.269 OA
BRANCH  11  13
ATOM     13  C   UNL     1      -0.854   0.795  -0.201  1.00  0.00     0.083 A 
ATOM     14  C   UNL     1      -2.898  -0.831  -0.594  1.00  0.00     0.069 C 
ATOM     15  C   UNL     1      -1.518  -0.469  -0.185  1.00  0.00     0.072 A 
ATOM     16  N   UNL     1      -0.695  -1.466   0.157  1.00  0.00    -0.178 NA
ATOM     17  N   UNL     1       0.518  -0.898   0.193  1.00  0.00    -0.272 N 
ATOM     18  C   UNL     1       0.486   0.459   0.005  1.00  0.00     0.048 A 
ATOM     19  C   UNL     1       1.670  -1.768   0.281  1.00  0.00     0.174 C 
ATOM     20  C   UNL     1       1.726   1.279  -0.063  1.00  0.00     0.067 C 
ENDBRANCH  11  13
ENDBRANCH   6  11
ENDBRANCH   3   5
ENDBRANCH   2   3
ENDBRANCH   1   2
BRANCH   1  21
ATOM     21  C   UNL     1      -5.425   5.976   3.897  1.00  0.00     0.275 C 
BRANCH  21  22
ATOM     22  O   UNL     1      -4.171   6.292   3.273  1.00  0.00    -0.458 OA
BRANCH  22  23
ATOM     23  C   UNL     1      -3.061   6.043   4.004  1.00  0.00     0.338 C 
ATOM     24  O   UNL     1      -3.023   5.726   5.186  1.00  0.00    -0.246 OA
BRANCH  23  25
ATOM     25  C   UNL     1      -1.851   6.112   3.148  1.00  0.00     0.060 A 
ATOM     26  C   UNL     1      -1.928   5.841   1.783  1.00  0.00     0.016 A 
ATOM     27  C   UNL     1      -0.597   6.284   3.736  1.00  0.00     0.016 A 
ATOM     28  C   UNL     1      -0.771   5.588   1.050  1.00  0.00     0.010 A 
ATOM     29  C   UNL     1       0.565   6.168   2.960  1.00  0.00     0.010 A 
ATOM     30  C   UNL     1       0.499   5.764   1.615  1.00  0.00    -0.014 A 
BRANCH  30  31
ATOM     31  C   UNL     1       1.729   5.464   0.817  1.00  0.00     0.031 A 
ATOM     32  C   UNL     1       2.780   4.517   1.346  1.00  0.00     0.074 A 
ATOM     33  C   UNL     1       1.901   5.984  -0.417  1.00  0.00     0.049 A 
ATOM     34  N   UNL     1       3.977   4.257   0.877  1.00  0.00    -0.248 NA
ATOM     35  C   UNL     1       2.446   3.765   2.566  1.00  0.00     0.031 C 
ATOM     36  C   UNL     1       0.959   6.866  -1.108  1.00  0.00     0.029 A 
ATOM     37  N   UNL     1       2.917   5.816  -1.329  1.00  0.00    -0.354 N 
ATOM     38  C   UNL     1       4.561   3.379   1.780  1.00  0.00     0.074 A 
ATOM     39  C   UNL     1       3.587   3.142   2.825  1.00  0.00     0.031 C 
ATOM     40  C   UNL     1       1.389   7.080  -2.359  1.00  0.00     0.029 A 
ATOM     41  C   UNL     1       2.696   6.455  -2.525  1.00  0.00     0.049 A 
ATOM     42  H   UNL     1       3.727   5.288  -1.142  1.00  0.00     0.167 HD
ATOM     43  C   UNL     1       5.794   2.817   1.741  1.00  0.00     0.037 A 
ATOM     44  C   UNL     1       3.466   6.565  -3.625  1.00  0.00     0.037 A 
ATOM     45  C   UNL     1       6.739   2.980   0.666  1.00  0.00     0.049 A 
ATOM     46  C   UNL     1       4.839   5.961  -3.631  1.00  0.00     0.074 A 
ATOM     47  C   UNL     1       8.014   2.452   0.550  1.00  0.00     0.029 A 
ATOM     48  N   UNL     1       6.503   3.703  -0.493  1.00  0.00    -0.354 N 
ATOM     49  N   UNL     1       5.428   5.230  -2.717  1.00  0.00    -0.248 NA
ATOM     50  C   UNL     1       5.672   6.232  -4.812  1.00  0.00     0.031 C 
ATOM     51  C   UNL     1       8.560   2.877  -0.666  1.00  0.00     0.029 A 
ATOM     52  C   UNL     1       7.610   3.635  -1.327  1.00  0.00     0.049 A 
ATOM     53  H   UNL     1       5.673   4.193  -0.695  1.00  0.00     0.167 HD
ATOM     54  C   UNL     1       6.694   4.952  -3.211  1.00  0.00     0.074 A 
ATOM     55  C   UNL     1       6.781   5.569  -4.517  1.00  0.00     0.031 C 
ATOM     56  C   UNL     1       7.697   4.255  -2.624  1.00  0.00     0.037 A 
BRANCH  43  57
ATOM     57  C   UNL     1       6.217   1.996   2.924  1.00  0.00     0.064 A 
ATOM     58  C   UNL     1       5.708   0.712   3.159  1.00  0.00     0.173 A 
ATOM     59  C   UNL     1       7.184   2.494   3.811  1.00  0.00     0.173 A 
ATOM     60  F   UNL     1       4.771   0.196   2.348  1.00  0.00    -0.203 F 
ATOM     61  C   UNL     1       6.137  -0.035   4.255  1.00  0.00     0.198 A 
ATOM     62  C   UNL     1       7.631   1.734   4.888  1.00  0.00     0.198 A 
ATOM     63  F   UNL     1       7.708   3.715   3.624  1.00  0.00    -0.203 F 
ATOM     64  F   UNL     1       5.607  -1.245   4.486  1.00  0.00    -0.200 F 
ATOM     65  C   UNL     1       7.102   0.473   5.112  1.00  0.00     0.200 A 
ATOM     66  F   UNL     1       8.573   2.221   5.706  1.00  0.00    -0.200 F 
ATOM     67  F   UNL     1       7.519  -0.253   6.159  1.00  0.00    -0.200 F 
ENDBRANCH  43  57
BRANCH  44  68
ATOM     68  C   UNL     1       2.965   7.323  -4.802  1.00  0.00     0.064 A 
ATOM     69  C   UNL     1       2.668   6.669  -6.005  1.00  0.00     0.173 A 
ATOM     70  C   UNL     1       2.763   8.710  -4.745  1.00  0.00     0.173 A 
ATOM     71  F   UNL     1       2.881   5.350  -6.121  1.00  0.00    -0.203 F 
ATOM     72  C   UNL     1       2.185   7.374  -7.105  1.00  0.00     0.198 A 
ATOM     73  C   UNL     1       2.248   9.408  -5.834  1.00  0.00     0.198 A 
ATOM     74  F   UNL     1       3.042   9.385  -3.620  1.00  0.00    -0.203 F 
ATOM     75  F   UNL     1       1.945   6.732  -8.257  1.00  0.00    -0.200 F 
ATOM     76  C   UNL     1       1.964   8.740  -7.015  1.00  0.00     0.200 A 
ATOM     77  F   UNL     1       2.025  10.725  -5.737  1.00  0.00    -0.200 F 
ATOM     78  F   UNL     1       1.486   9.415  -8.069  1.00  0.00    -0.200 F 
ENDBRANCH  44  68
BRANCH  56  79
ATOM     79  C   UNL     1       8.969   4.102  -3.404  1.00  0.00     0.064 A 
ATOM     80  C   UNL     1       9.850   5.178  -3.591  1.00  0.00     0.173 A 
ATOM     81  C   UNL     1       9.313   2.865  -3.969  1.00  0.00     0.173 A 
ATOM     82  F   UNL     1       9.557   6.385  -3.084  1.00  0.00    -0.203 F 
ATOM     83  C   UNL     1      11.014   5.028  -4.340  1.00  0.00     0.198 A 
ATOM     84  C   UNL     1      10.490   2.712  -4.696  1.00  0.00     0.198 A 
ATOM     85  F   UNL     1       8.507   1.804  -3.816  1.00  0.00    -0.203 F 
ATOM     86  F   UNL     1      11.814   6.082  -4.550  1.00  0.00    -0.200 F 
ATOM     87  C   UNL     1      11.334   3.795  -4.889  1.00  0.00     0.200 A 
ATOM     88  F   UNL     1      10.803   1.518  -5.218  1.00  0.00    -0.200 F 
ATOM     89  F   UNL     1      12.453   3.654  -5.614  1.00  0.00    -0.200 F 
ENDBRANCH  56  79
ENDBRANCH  30  31
ENDBRANCH  23  25
ENDBRANCH  22  23
ENDBRANCH  21  22
ENDBRANCH   1  21
TORSDOF 13
