REMARK SMILES CC(=O)Oc1ccc([C@H]2Nc3c(C(=O)OCCOC(=O)c4ccc(-c5c6nc(c(-c7c(F)c(F)c(F)c(F)c7F)c7ccc([nH]7)c(-c7c(F)c(F)c(F)c(F)c7F)c7nc(c(-c8c(F)c(F)c(F)c(F)c8F)c8ccc5[nH]8)C=C7)C=C6)cc4)ccc([N+](=O)[O-])c3[C@H]3C=CC[C@@H]32)cc1
REMARK SMILES IDX 16 1 15 2 13 3 14 4 12 5 9 6 10 7 95 8 11 9 91 11 94 12
REMARK SMILES IDX 90 13 92 14 93 15 84 16 86 17 85 18 8 19 5 20 6 21 97 22
REMARK SMILES IDX 7 23 96 24 4 25 2 26 1 27 3 28 87 29 88 30 89 31 17 32 18 33
REMARK SMILES IDX 19 34 20 35 21 36 22 37 83 38 23 39 82 40 24 41 25 42 26 43
REMARK SMILES IDX 76 44 27 45 81 46 75 47 77 48 28 49 80 50 74 51 73 52 29 54
REMARK SMILES IDX 61 55 41 56 60 57 42 58 45 59 59 60 78 61 43 62 44 63 58 65
REMARK SMILES IDX 79 66 46 67 30 68 31 69 39 70 32 71 33 72 37 73 40 74 34 75
REMARK SMILES IDX 35 76 38 77 36 78 62 79 63 80 71 81 64 82 65 83 69 84 72 85
REMARK SMILES IDX 66 86 67 87 70 88 68 89 47 90 48 91 56 92 49 93 50 94 54 95
REMARK SMILES IDX 57 96 51 97 52 98 55 99 53 100
REMARK H PARENT 10 10 77 53 45 64
REMARK Flexibility Score: inf
ROOT
ATOM      1  C   UNL     1       3.170  -4.594 -11.984  1.00  0.00     0.275 C 
ENDROOT
BRANCH   1   2
ATOM      2  O   UNL     1       2.208  -3.520 -12.014  1.00  0.00    -0.458 OA
BRANCH   2   3
ATOM      3  C   UNL     1       1.027  -3.827 -11.423  1.00  0.00     0.340 C 
ATOM      4  O   UNL     1       0.723  -4.907 -10.945  1.00  0.00    -0.246 OA
BRANCH   3   5
ATOM      5  C   UNL     1       0.010  -2.807 -11.726  1.00  0.00     0.084 A 
ATOM      6  C   UNL     1      -0.359  -0.177  -8.848  1.00  0.00     0.114 C 
ATOM      7  N   UNL     1       0.242  -1.268  -9.722  1.00  0.00    -0.377 N 
ATOM      8  C   UNL     1      -1.891  -0.382  -9.031  1.00  0.00     0.031 C 
ATOM      9  C   UNL     1      -0.382  -1.675 -10.944  1.00  0.00     0.060 A 
ATOM     10  H   UNL     1       1.079  -1.703  -9.440  1.00  0.00     0.161 HD
ATOM     11  C   UNL     1      -2.084   0.114 -10.491  1.00  0.00     0.056 C 
ATOM     12  C   UNL     1      -3.092   0.153  -8.241  1.00  0.00     0.034 C 
ATOM     13  C   UNL     1      -1.593  -1.015 -11.367  1.00  0.00     0.061 A 
ATOM     14  C   UNL     1      -3.482   0.621 -10.505  1.00  0.00    -0.022 C 
ATOM     15  C   UNL     1      -4.028   0.647  -9.290  1.00  0.00    -0.030 C 
ATOM     16  C   UNL     1      -0.716  -3.222 -12.867  1.00  0.00     0.025 A 
ATOM     17  C   UNL     1      -2.255  -1.443 -12.541  1.00  0.00     0.275 A 
ATOM     18  C   UNL     1      -1.837  -2.538 -13.286  1.00  0.00     0.087 A 
BRANCH   6  19
ATOM     19  C   UNL     1       0.293   0.115  -7.473  1.00  0.00    -0.025 A 
ATOM     20  C   UNL     1       1.589   1.165  -5.111  1.00  0.00     0.130 A 
ATOM     21  C   UNL     1       2.320   0.487  -6.075  1.00  0.00     0.047 A 
ATOM     22  C   UNL     1       0.241   1.399  -5.349  1.00  0.00     0.047 A 
ATOM     23  C   UNL     1       1.681  -0.005  -7.247  1.00  0.00     0.010 A 
ATOM     24  C   UNL     1      -0.390   0.838  -6.476  1.00  0.00     0.010 A 
BRANCH  20  25
ATOM     25  O   UNL     1       2.085   1.547  -3.835  1.00  0.00    -0.427 OA
BRANCH  25  26
ATOM     26  C   UNL     1       2.819   0.626  -3.063  1.00  0.00     0.308 C 
ATOM     27  C   UNL     1       2.690   0.939  -1.588  1.00  0.00     0.139 C 
ATOM     28  O   UNL     1       3.364  -0.388  -3.480  1.00  0.00    -0.252 OA
ENDBRANCH  25  26
ENDBRANCH  20  25
ENDBRANCH   6  19
BRANCH  17  29
ATOM     29  N   UNL     1      -3.414  -0.759 -13.068  1.00  0.00     0.063 N 
ATOM     30  O   UNL     1      -4.512  -1.309 -12.915  1.00  0.00    -0.258 OA
ATOM     31  O   UNL     1      -3.205   0.298 -13.679  1.00  0.00    -0.258 OA
ENDBRANCH  17  29
ENDBRANCH   3   5
ENDBRANCH   2   3
ENDBRANCH   1   2
BRANCH   1  32
ATOM     32  C   UNL     1       4.108  -4.458 -10.784  1.00  0.00     0.275 C 
BRANCH  32  33
ATOM     33  O   UNL     1       3.401  -4.599  -9.532  1.00  0.00    -0.458 OA
BRANCH  33  34
ATOM     34  C   UNL     1       2.917  -3.447  -9.019  1.00  0.00     0.338 C 
ATOM     35  O   UNL     1       3.065  -2.315  -9.471  1.00  0.00    -0.246 OA
BRANCH  34  36
ATOM     36  C   UNL     1       2.055  -3.680  -7.852  1.00  0.00     0.060 A 
ATOM     37  C   UNL     1       0.678  -3.814  -8.036  1.00  0.00     0.016 A 
ATOM     38  C   UNL     1       2.561  -3.506  -6.570  1.00  0.00     0.016 A 
ATOM     39  C   UNL     1      -0.202  -3.696  -6.969  1.00  0.00     0.010 A 
ATOM     40  C   UNL     1       1.678  -3.493  -5.481  1.00  0.00     0.010 A 
ATOM     41  C   UNL     1       0.283  -3.550  -5.669  1.00  0.00    -0.014 A 
BRANCH  41  42
ATOM     42  C   UNL     1      -0.685  -3.530  -4.539  1.00  0.00     0.031 A 
ATOM     43  C   UNL     1      -0.847  -2.365  -3.607  1.00  0.00     0.074 A 
ATOM     44  C   UNL     1      -1.446  -4.609  -4.314  1.00  0.00     0.049 A 
ATOM     45  N   UNL     1      -1.774  -2.087  -2.715  1.00  0.00    -0.248 NA
ATOM     46  C   UNL     1       0.181  -1.347  -3.715  1.00  0.00     0.031 C 
ATOM     47  C   UNL     1      -1.458  -5.838  -5.102  1.00  0.00     0.029 A 
ATOM     48  N   UNL     1      -2.327  -4.840  -3.296  1.00  0.00    -0.354 N 
ATOM     49  C   UNL     1      -1.480  -0.808  -2.254  1.00  0.00     0.074 A 
ATOM     50  C   UNL     1      -0.285  -0.408  -2.913  1.00  0.00     0.031 C 
ATOM     51  C   UNL     1      -2.278  -6.716  -4.511  1.00  0.00     0.029 A 
ATOM     52  C   UNL     1      -2.783  -6.125  -3.274  1.00  0.00     0.049 A 
ATOM     53  H   UNL     1      -2.602  -4.153  -2.647  1.00  0.00     0.167 HD
ATOM     54  C   UNL     1      -2.042  -0.031  -1.297  1.00  0.00     0.037 A 
ATOM     55  C   UNL     1      -3.471  -6.765  -2.316  1.00  0.00     0.037 A 
ATOM     56  C   UNL     1      -2.913  -0.574  -0.310  1.00  0.00     0.049 A 
ATOM     57  C   UNL     1      -3.872  -6.027  -1.070  1.00  0.00     0.074 A 
ATOM     58  C   UNL     1      -3.374   0.007   0.854  1.00  0.00     0.029 A 
ATOM     59  N   UNL     1      -3.289  -1.902  -0.294  1.00  0.00    -0.354 N 
ATOM     60  N   UNL     1      -3.682  -4.771  -0.742  1.00  0.00    -0.248 NA
ATOM     61  C   UNL     1      -4.583  -6.810  -0.053  1.00  0.00     0.031 C 
ATOM     62  C   UNL     1      -3.843  -1.028   1.667  1.00  0.00     0.029 A 
ATOM     63  C   UNL     1      -3.849  -2.201   0.925  1.00  0.00     0.049 A 
ATOM     64  H   UNL     1      -3.174  -2.536  -1.039  1.00  0.00     0.167 HD
ATOM     65  C   UNL     1      -4.265  -4.610   0.510  1.00  0.00     0.074 A 
ATOM     66  C   UNL     1      -4.818  -5.895   0.877  1.00  0.00     0.031 C 
ATOM     67  C   UNL     1      -4.352  -3.498   1.281  1.00  0.00     0.037 A 
BRANCH  54  68
ATOM     68  C   UNL     1      -1.515   1.373  -1.116  1.00  0.00     0.064 A 
ATOM     69  C   UNL     1      -1.796   2.396  -2.036  1.00  0.00     0.173 A 
ATOM     70  C   UNL     1      -0.658   1.681  -0.047  1.00  0.00     0.173 A 
ATOM     71  F   UNL     1      -2.580   2.154  -3.097  1.00  0.00    -0.203 F 
ATOM     72  C   UNL     1      -1.215   3.659  -1.907  1.00  0.00     0.198 A 
ATOM     73  C   UNL     1      -0.098   2.949   0.091  1.00  0.00     0.198 A 
ATOM     74  F   UNL     1      -0.318   0.734   0.840  1.00  0.00    -0.203 F 
ATOM     75  F   UNL     1      -1.441   4.598  -2.837  1.00  0.00    -0.200 F 
ATOM     76  C   UNL     1      -0.366   3.933  -0.846  1.00  0.00     0.200 A 
ATOM     77  F   UNL     1       0.741   3.200   1.106  1.00  0.00    -0.200 F 
ATOM     78  F   UNL     1       0.223   5.133  -0.744  1.00  0.00    -0.200 F 
ENDBRANCH  54  68
BRANCH  55  79
ATOM     79  C   UNL     1      -3.773  -8.198  -2.518  1.00  0.00     0.064 A 
ATOM     80  C   UNL     1      -5.081  -8.614  -2.780  1.00  0.00     0.173 A 
ATOM     81  C   UNL     1      -2.753  -9.163  -2.532  1.00  0.00     0.173 A 
ATOM     82  F   UNL     1      -6.081  -7.721  -2.769  1.00  0.00    -0.203 F 
ATOM     83  C   UNL     1      -5.364  -9.949  -3.044  1.00  0.00     0.198 A 
ATOM     84  C   UNL     1      -3.033 -10.493  -2.829  1.00  0.00     0.198 A 
ATOM     85  F   UNL     1      -1.480  -8.804  -2.305  1.00  0.00    -0.203 F 
ATOM     86  F   UNL     1      -6.628 -10.330  -3.267  1.00  0.00    -0.200 F 
ATOM     87  C   UNL     1      -4.339 -10.885  -3.078  1.00  0.00     0.200 A 
ATOM     88  F   UNL     1      -2.038 -11.388  -2.888  1.00  0.00    -0.200 F 
ATOM     89  F   UNL     1      -4.612 -12.168  -3.354  1.00  0.00    -0.200 F 
ENDBRANCH  55  79
BRANCH  67  90
ATOM     90  C   UNL     1      -5.073  -3.586   2.588  1.00  0.00     0.064 A 
ATOM     91  C   UNL     1      -4.543  -4.278   3.683  1.00  0.00     0.173 A 
ATOM     92  C   UNL     1      -6.248  -2.841   2.777  1.00  0.00     0.173 A 
ATOM     93  F   UNL     1      -3.416  -4.994   3.552  1.00  0.00    -0.203 F 
ATOM     94  C   UNL     1      -5.177  -4.237   4.920  1.00  0.00     0.198 A 
ATOM     95  C   UNL     1      -6.854  -2.768   4.023  1.00  0.00     0.198 A 
ATOM     96  F   UNL     1      -6.777  -2.140   1.761  1.00  0.00    -0.203 F 
ATOM     97  F   UNL     1      -4.675  -4.931   5.950  1.00  0.00    -0.200 F 
ATOM     98  C   UNL     1      -6.323  -3.472   5.092  1.00  0.00     0.200 A 
ATOM     99  F   UNL     1      -7.938  -1.999   4.194  1.00  0.00    -0.200 F 
ATOM    100  F   UNL     1      -6.913  -3.409   6.293  1.00  0.00    -0.200 F 
ENDBRANCH  67  90
ENDBRANCH  41  42
ENDBRANCH  34  36
ENDBRANCH  33  34
ENDBRANCH  32  33
ENDBRANCH   1  32
TORSDOF 15
