REMARK SMILES O=C(OCCOC(=O)C1CCN(C(=O)COc2ccc(Cl)cc2Cl)CC1)c1ccc(-c2c3nc(c(-c4c(F)c(F)c(F)c(F)c4F)c4ccc([nH]4)c(-c4c(F)c(F)c(F)c(F)c4F)c4nc(c(-c5c(F)c(F)c(F)c(F)c5F)c5ccc2[nH]5)C=C4)C=C3)cc1
REMARK SMILES IDX 5 1 4 2 3 3 2 4 1 5 27 6 28 7 89 8 29 9 88 10 30 11 31 12
REMARK SMILES IDX 32 13 82 14 33 15 87 16 81 17 83 18 34 19 86 20 80 21 79 22
REMARK SMILES IDX 35 24 67 25 47 26 66 27 48 28 51 29 65 30 84 31 49 32 50 33
REMARK SMILES IDX 64 35 85 36 52 37 36 38 37 39 45 40 38 41 39 42 43 43 46 44
REMARK SMILES IDX 40 45 41 46 44 47 42 48 68 49 69 50 77 51 70 52 71 53 75 54
REMARK SMILES IDX 78 55 72 56 73 57 76 58 74 59 53 60 54 61 62 62 55 63 56 64
REMARK SMILES IDX 60 65 63 66 57 67 58 68 61 69 59 70 6 71 7 72 8 73 9 74
REMARK SMILES IDX 10 75 26 76 11 77 25 78 12 79 13 80 14 81 15 82 16 83 17 84
REMARK SMILES IDX 18 85 23 86 19 87 22 88 24 89 20 90 21 91
REMARK H PARENT 83 23 51 34
REMARK Flexibility Score: inf
ROOT
ATOM      1  C   UNL     1       3.746  -1.472  -1.865  1.00  0.00     0.274 C 
ENDROOT
BRANCH   1   2
ATOM      2  C   UNL     1       4.429  -1.827  -0.538  1.00  0.00     0.275 C 
BRANCH   2   3
ATOM      3  O   UNL     1       3.793  -1.288   0.621  1.00  0.00    -0.458 OA
BRANCH   3   4
ATOM      4  C   UNL     1       3.829  -0.032   1.107  1.00  0.00     0.338 C 
ATOM      5  O   UNL     1       3.087   0.234   2.054  1.00  0.00    -0.246 OA
BRANCH   4   6
ATOM      6  C   UNL     1       4.652   1.093   0.538  1.00  0.00     0.060 A 
ATOM      7  C   UNL     1       5.635   1.053  -0.461  1.00  0.00     0.016 A 
ATOM      8  C   UNL     1       4.336   2.352   1.058  1.00  0.00     0.016 A 
ATOM      9  C   UNL     1       6.212   2.227  -0.987  1.00  0.00     0.010 A 
ATOM     10  C   UNL     1       4.859   3.513   0.496  1.00  0.00     0.010 A 
ATOM     11  C   UNL     1       5.790   3.482  -0.555  1.00  0.00    -0.014 A 
BRANCH  11  12
ATOM     12  C   UNL     1       6.248   4.774  -1.157  1.00  0.00     0.031 A 
ATOM     13  C   UNL     1       6.676   5.882  -0.227  1.00  0.00     0.074 A 
ATOM     14  C   UNL     1       6.109   5.051  -2.474  1.00  0.00     0.049 A 
ATOM     15  N   UNL     1       6.847   7.159  -0.459  1.00  0.00    -0.248 NA
ATOM     16  C   UNL     1       6.830   5.511   1.191  1.00  0.00     0.031 C 
ATOM     17  C   UNL     1       5.599   4.146  -3.507  1.00  0.00     0.029 A 
ATOM     18  N   UNL     1       6.341   6.221  -3.163  1.00  0.00    -0.354 N 
ATOM     19  C   UNL     1       7.041   7.727   0.791  1.00  0.00     0.074 A 
ATOM     20  C   UNL     1       6.786   6.697   1.770  1.00  0.00     0.031 C 
ATOM     21  C   UNL     1       5.524   4.800  -4.680  1.00  0.00     0.029 A 
ATOM     22  C   UNL     1       5.993   6.168  -4.493  1.00  0.00     0.049 A 
ATOM     23  H   UNL     1       6.722   7.025  -2.741  1.00  0.00     0.167 HD
ATOM     24  C   UNL     1       7.509   8.957   1.111  1.00  0.00     0.037 A 
ATOM     25  C   UNL     1       6.059   7.114  -5.452  1.00  0.00     0.037 A 
ATOM     26  C   UNL     1       7.891   9.932   0.134  1.00  0.00     0.049 A 
ATOM     27  C   UNL     1       6.653   8.459  -5.117  1.00  0.00     0.074 A 
ATOM     28  C   UNL     1       8.543  11.136   0.316  1.00  0.00     0.029 A 
ATOM     29  N   UNL     1       7.672   9.788  -1.228  1.00  0.00    -0.354 N 
ATOM     30  N   UNL     1       7.015   8.936  -3.952  1.00  0.00    -0.248 NA
ATOM     31  C   UNL     1       6.899   9.377  -6.240  1.00  0.00     0.031 C 
ATOM     32  C   UNL     1       8.718  11.725  -0.942  1.00  0.00     0.029 A 
ATOM     33  C   UNL     1       8.194  10.874  -1.905  1.00  0.00     0.049 A 
ATOM     34  H   UNL     1       7.213   9.026  -1.650  1.00  0.00     0.167 HD
ATOM     35  C   UNL     1       7.598  10.171  -4.207  1.00  0.00     0.074 A 
ATOM     36  C   UNL     1       7.520  10.382  -5.637  1.00  0.00     0.031 C 
ATOM     37  C   UNL     1       8.164  11.039  -3.335  1.00  0.00     0.037 A 
BRANCH  24  38
ATOM     38  C   UNL     1       7.727   9.233   2.571  1.00  0.00     0.064 A 
ATOM     39  C   UNL     1       8.657   8.485   3.317  1.00  0.00     0.173 A 
ATOM     40  C   UNL     1       6.957  10.183   3.253  1.00  0.00     0.173 A 
ATOM     41  F   UNL     1       9.419   7.559   2.714  1.00  0.00    -0.203 F 
ATOM     42  C   UNL     1       8.732   8.605   4.700  1.00  0.00     0.198 A 
ATOM     43  C   UNL     1       7.074  10.337   4.633  1.00  0.00     0.198 A 
ATOM     44  F   UNL     1       6.071  10.941   2.590  1.00  0.00    -0.203 F 
ATOM     45  F   UNL     1       9.534   7.787   5.397  1.00  0.00    -0.200 F 
ATOM     46  C   UNL     1       7.940   9.530   5.357  1.00  0.00     0.200 A 
ATOM     47  F   UNL     1       6.323  11.246   5.270  1.00  0.00    -0.200 F 
ATOM     48  F   UNL     1       7.997   9.631   6.692  1.00  0.00    -0.200 F 
ENDBRANCH  24  38
BRANCH  25  49
ATOM     49  C   UNL     1       5.666   6.799  -6.853  1.00  0.00     0.064 A 
ATOM     50  C   UNL     1       6.647   6.580  -7.832  1.00  0.00     0.173 A 
ATOM     51  C   UNL     1       4.324   6.747  -7.253  1.00  0.00     0.173 A 
ATOM     52  F   UNL     1       7.945   6.636  -7.500  1.00  0.00    -0.203 F 
ATOM     53  C   UNL     1       6.303   6.355  -9.164  1.00  0.00     0.198 A 
ATOM     54  C   UNL     1       3.980   6.504  -8.584  1.00  0.00     0.198 A 
ATOM     55  F   UNL     1       3.346   6.941  -6.357  1.00  0.00    -0.203 F 
ATOM     56  F   UNL     1       7.264   6.199 -10.084  1.00  0.00    -0.200 F 
ATOM     57  C   UNL     1       4.970   6.318  -9.539  1.00  0.00     0.200 A 
ATOM     58  F   UNL     1       2.690   6.459  -8.945  1.00  0.00    -0.200 F 
ATOM     59  F   UNL     1       4.639   6.112 -10.822  1.00  0.00    -0.200 F 
ENDBRANCH  25  49
BRANCH  37  60
ATOM     60  C   UNL     1       8.844  12.252  -3.893  1.00  0.00     0.064 A 
ATOM     61  C   UNL     1       8.123  13.346  -4.387  1.00  0.00     0.173 A 
ATOM     62  C   UNL     1      10.244  12.351  -3.840  1.00  0.00     0.173 A 
ATOM     63  F   UNL     1       6.786  13.289  -4.473  1.00  0.00    -0.203 F 
ATOM     64  C   UNL     1       8.779  14.498  -4.811  1.00  0.00     0.198 A 
ATOM     65  C   UNL     1      10.894  13.514  -4.238  1.00  0.00     0.198 A 
ATOM     66  F   UNL     1      10.978  11.330  -3.372  1.00  0.00    -0.203 F 
ATOM     67  F   UNL     1       8.074  15.525  -5.303  1.00  0.00    -0.200 F 
ATOM     68  C   UNL     1      10.162  14.586  -4.724  1.00  0.00     0.200 A 
ATOM     69  F   UNL     1      12.228  13.603  -4.138  1.00  0.00    -0.200 F 
ATOM     70  F   UNL     1      10.788  15.707  -5.108  1.00  0.00    -0.200 F 
ENDBRANCH  37  60
ENDBRANCH  11  12
ENDBRANCH   4   6
ENDBRANCH   3   4
ENDBRANCH   2   3
ENDBRANCH   1   2
BRANCH   1  71
ATOM     71  O   UNL     1       3.206  -0.134  -1.971  1.00  0.00    -0.462 OA
BRANCH  71  72
ATOM     72  C   UNL     1       1.876  -0.037  -1.684  1.00  0.00     0.309 C 
ATOM     73  O   UNL     1       1.231  -0.943  -1.171  1.00  0.00    -0.252 OA
BRANCH  72  74
ATOM     74  C   UNL     1       1.197   1.240  -2.185  1.00  0.00     0.103 C 
ATOM     75  C   UNL     1       2.034   2.309  -2.880  1.00  0.00     0.037 C 
ATOM     76  C   UNL     1       0.266   1.847  -1.131  1.00  0.00     0.037 C 
ATOM     77  C   UNL     1       2.526   3.449  -2.006  1.00  0.00     0.120 C 
ATOM     78  C   UNL     1       0.968   2.794  -0.173  1.00  0.00     0.120 C 
ATOM     79  N   UNL     1       1.713   3.836  -0.864  1.00  0.00    -0.340 N 
ATOM     80  C   UNL     1       2.031   5.063  -0.278  1.00  0.00     0.260 C 
ATOM     81  O   UNL     1       2.962   5.759  -0.700  1.00  0.00    -0.271 OA
BRANCH  80  82
ATOM     82  C   UNL     1       1.216   5.586   0.916  1.00  0.00     0.329 C 
BRANCH  82  83
ATOM     83  O   UNL     1      -0.194   5.647   0.861  1.00  0.00    -0.482 OA
BRANCH  83  84
ATOM     84  C   UNL     1      -0.823   6.234  -0.201  1.00  0.00     0.138 A 
ATOM     85  C   UNL     1      -0.191   6.771  -1.326  1.00  0.00     0.049 A 
ATOM     86  C   UNL     1      -2.228   6.242  -0.158  1.00  0.00     0.084 A 
ATOM     87  C   UNL     1      -0.939   7.199  -2.427  1.00  0.00     0.024 A 
ATOM     88  C   UNL     1      -2.979   6.703  -1.241  1.00  0.00     0.045 A 
ATOM     89  Cl  UNL     1      -3.084   5.682   1.238  1.00  0.00    -0.080 Cl
ATOM     90  C   UNL     1      -2.328   7.153  -2.383  1.00  0.00     0.042 A 
ATOM     91  Cl  UNL     1      -3.239   7.657  -3.751  1.00  0.00    -0.084 Cl
ENDBRANCH  83  84
ENDBRANCH  82  83
ENDBRANCH  80  82
ENDBRANCH  72  74
ENDBRANCH  71  72
ENDBRANCH   1  71
TORSDOF 14
