REMARK SMILES O=C(CN1C(=O)/C(=C2\SC(N3CCN(c4ccccc4F)CC3)=[NH+]C2=O)c2ccccc21)OCCOC(=O)c1ccc(-c2c3nc(c(-c4c(F)c(F)c(F)c(F)c4F)c4ccc([nH]4)c(-c4c(F)c(F)c(F)c(F)c4F)c4nc(c(-c5c(F)c(F)c(F)c(F)c5F)c5ccc2[nH]5)C=C4)C=C3)cc1
REMARK SMILES IDX 34 1 33 2 2 3 1 4 3 5 4 6 5 7 32 8 6 9 7 10 27 11 31 12 8 13
REMARK SMILES IDX 28 14 30 15 9 16 25 17 29 18 10 19 24 20 26 21 11 22 12 24
REMARK SMILES IDX 23 25 13 26 22 27 14 28 15 29 16 30 20 31 17 32 19 33 21 34
REMARK SMILES IDX 18 35 35 36 36 37 37 38 38 39 39 40 40 41 101 42 41 43
REMARK SMILES IDX 100 44 42 45 43 46 44 47 94 48 45 49 99 50 93 51 95 52 46 53
REMARK SMILES IDX 98 54 92 55 91 56 47 58 79 59 59 60 78 61 60 62 63 63 77 64
REMARK SMILES IDX 96 65 61 66 62 67 76 69 97 70 64 71 48 72 49 73 57 74 50 75
REMARK SMILES IDX 51 76 55 77 58 78 52 79 53 80 56 81 54 82 80 83 81 84 89 85
REMARK SMILES IDX 82 86 83 87 87 88 90 89 84 90 85 91 88 92 86 93 65 94 66 95
REMARK SMILES IDX 74 96 67 97 68 98 72 99 75 100 69 101 70 102 73 103 71 104
REMARK H PARENT 24 23 95 57 63 68
REMARK Flexibility Score: inf
ROOT
ATOM      1  C   UNL     1       4.456   0.286   0.862  1.00  0.00     0.274 C 
ENDROOT
BRANCH   1   2
ATOM      2  O   UNL     1       3.138   0.838   0.674  1.00  0.00    -0.461 OA
BRANCH   2   3
ATOM      3  C   UNL     1       2.287   0.457  -0.303  1.00  0.00     0.326 C 
ATOM      4  O   UNL     1       1.081   0.374  -0.064  1.00  0.00    -0.250 OA
BRANCH   3   5
ATOM      5  C   UNL     1       2.823  -0.004  -1.656  1.00  0.00     0.248 C 
BRANCH   5   6
ATOM      6  N   UNL     1       3.947   0.665  -2.248  1.00  0.00    -0.296 N 
ATOM      7  C   UNL     1       3.848   2.011  -2.540  1.00  0.00     0.260 C 
ATOM      8  C   UNL     1       4.952   0.056  -3.016  1.00  0.00     0.053 A 
ATOM      9  O   UNL     1       2.953   2.741  -2.159  1.00  0.00    -0.269 OA
ATOM     10  C   UNL     1       4.987   2.309  -3.485  1.00  0.00     0.071 C 
ATOM     11  C   UNL     1       5.602   1.010  -3.817  1.00  0.00     0.012 A 
ATOM     12  C   UNL     1       5.284  -1.290  -3.053  1.00  0.00     0.027 A 
ATOM     13  C   UNL     1       5.275   3.579  -3.808  1.00  0.00     0.122 C 
ATOM     14  C   UNL     1       6.598   0.592  -4.686  1.00  0.00     0.011 A 
ATOM     15  C   UNL     1       6.281  -1.703  -3.933  1.00  0.00     0.002 A 
ATOM     16  S   UNL     1       4.569   4.951  -3.029  1.00  0.00     0.007 SA
ATOM     17  C   UNL     1       6.298   4.101  -4.766  1.00  0.00     0.347 C 
ATOM     18  C   UNL     1       6.928  -0.769  -4.747  1.00  0.00     0.001 A 
ATOM     19  C   UNL     1       5.818   5.968  -3.664  1.00  0.00     0.319 C 
ATOM     20  N   UNL     1       6.574   5.436  -4.561  1.00  0.00    -0.200 N 
ATOM     21  O   UNL     1       6.811   3.433  -5.651  1.00  0.00    -0.240 OA
ATOM     22  N   UNL     1       5.900   7.231  -3.176  1.00  0.00    -0.252 N 
ATOM     23  H   UNL     1       7.272   5.929  -5.048  1.00  0.00     0.316 HD
ATOM     24  C   UNL     1       5.846   7.527  -1.733  1.00  0.00     0.258 C 
ATOM     25  C   UNL     1       5.849   8.393  -4.068  1.00  0.00     0.258 C 
ATOM     26  C   UNL     1       6.937   8.549  -1.352  1.00  0.00     0.162 C 
ATOM     27  C   UNL     1       6.894   9.446  -3.669  1.00  0.00     0.162 C 
ATOM     28  N   UNL     1       6.804   9.715  -2.228  1.00  0.00    -0.361 N 
BRANCH  28  29
ATOM     29  C   UNL     1       6.945  10.995  -1.742  1.00  0.00     0.073 A 
ATOM     30  C   UNL     1       6.025  11.978  -2.133  1.00  0.00     0.029 A 
ATOM     31  C   UNL     1       7.943  11.371  -0.831  1.00  0.00     0.146 A 
ATOM     32  C   UNL     1       6.094  13.280  -1.633  1.00  0.00     0.002 A 
ATOM     33  C   UNL     1       8.036  12.673  -0.342  1.00  0.00     0.041 A 
ATOM     34  F   UNL     1       8.856  10.474  -0.423  1.00  0.00    -0.205 F 
ATOM     35  C   UNL     1       7.105  13.629  -0.742  1.00  0.00     0.003 A 
ENDBRANCH  28  29
ENDBRANCH   5   6
ENDBRANCH   3   5
ENDBRANCH   2   3
ENDBRANCH   1   2
BRANCH   1  36
ATOM     36  C   UNL     1       4.413  -1.103   1.508  1.00  0.00     0.275 C 
BRANCH  36  37
ATOM     37  O   UNL     1       4.049  -2.088   0.522  1.00  0.00    -0.458 OA
BRANCH  37  38
ATOM     38  C   UNL     1       2.838  -2.692   0.650  1.00  0.00     0.338 C 
ATOM     39  O   UNL     1       2.031  -2.554   1.546  1.00  0.00    -0.246 OA
BRANCH  38  40
ATOM     40  C   UNL     1       2.578  -3.379  -0.637  1.00  0.00     0.060 A 
ATOM     41  C   UNL     1       3.565  -4.178  -1.220  1.00  0.00     0.016 A 
ATOM     42  C   UNL     1       1.411  -3.063  -1.347  1.00  0.00     0.016 A 
ATOM     43  C   UNL     1       3.407  -4.620  -2.535  1.00  0.00     0.010 A 
ATOM     44  C   UNL     1       1.260  -3.501  -2.667  1.00  0.00     0.010 A 
ATOM     45  C   UNL     1       2.261  -4.274  -3.273  1.00  0.00    -0.014 A 
BRANCH  45  46
ATOM     46  C   UNL     1       2.057  -4.867  -4.617  1.00  0.00     0.031 A 
ATOM     47  C   UNL     1       2.330  -4.117  -5.886  1.00  0.00     0.074 A 
ATOM     48  C   UNL     1       1.642  -6.145  -4.672  1.00  0.00     0.049 A 
ATOM     49  N   UNL     1       2.291  -4.553  -7.121  1.00  0.00    -0.248 NA
ATOM     50  C   UNL     1       2.698  -2.702  -5.758  1.00  0.00     0.031 C 
ATOM     51  C   UNL     1       1.352  -6.975  -3.503  1.00  0.00     0.029 A 
ATOM     52  N   UNL     1       1.414  -6.971  -5.741  1.00  0.00    -0.354 N 
ATOM     53  C   UNL     1       2.655  -3.478  -7.920  1.00  0.00     0.074 A 
ATOM     54  C   UNL     1       2.869  -2.354  -7.028  1.00  0.00     0.031 C 
ATOM     55  C   UNL     1       1.017  -8.204  -3.917  1.00  0.00     0.029 A 
ATOM     56  C   UNL     1       1.038  -8.238  -5.376  1.00  0.00     0.049 A 
ATOM     57  H   UNL     1       1.510  -6.683  -6.678  1.00  0.00     0.167 HD
ATOM     58  C   UNL     1       2.810  -3.442  -9.268  1.00  0.00     0.037 A 
ATOM     59  C   UNL     1       0.746  -9.313  -6.130  1.00  0.00     0.037 A 
ATOM     60  C   UNL     1       2.555  -4.553 -10.155  1.00  0.00     0.049 A 
ATOM     61  C   UNL     1       0.838  -9.219  -7.623  1.00  0.00     0.074 A 
ATOM     62  C   UNL     1       2.694  -4.609 -11.533  1.00  0.00     0.029 A 
ATOM     63  N   UNL     1       2.088  -5.799  -9.759  1.00  0.00    -0.354 N 
ATOM     64  N   UNL     1       1.227  -8.213  -8.366  1.00  0.00    -0.248 NA
ATOM     65  C   UNL     1       0.453 -10.416  -8.382  1.00  0.00     0.031 C 
ATOM     66  C   UNL     1       2.262  -5.865 -11.973  1.00  0.00     0.029 A 
ATOM     67  C   UNL     1       1.907  -6.618 -10.866  1.00  0.00     0.049 A 
ATOM     68  H   UNL     1       1.912  -6.064  -8.827  1.00  0.00     0.167 HD
ATOM     69  C   UNL     1       1.151  -8.656  -9.678  1.00  0.00     0.074 A 
ATOM     70  C   UNL     1       0.697 -10.031  -9.627  1.00  0.00     0.031 C 
ATOM     71  C   UNL     1       1.434  -7.980 -10.819  1.00  0.00     0.037 A 
BRANCH  58  72
ATOM     72  C   UNL     1       3.283  -2.152  -9.879  1.00  0.00     0.064 A 
ATOM     73  C   UNL     1       4.599  -1.700  -9.698  1.00  0.00     0.173 A 
ATOM     74  C   UNL     1       2.441  -1.396 -10.709  1.00  0.00     0.173 A 
ATOM     75  F   UNL     1       5.447  -2.384  -8.915  1.00  0.00    -0.203 F 
ATOM     76  C   UNL     1       5.048  -0.530 -10.308  1.00  0.00     0.198 A 
ATOM     77  C   UNL     1       2.900  -0.242 -11.340  1.00  0.00     0.198 A 
ATOM     78  F   UNL     1       1.177  -1.789 -10.929  1.00  0.00    -0.203 F 
ATOM     79  F   UNL     1       6.300  -0.104 -10.095  1.00  0.00    -0.200 F 
ATOM     80  C   UNL     1       4.201   0.194 -11.134  1.00  0.00     0.200 A 
ATOM     81  F   UNL     1       2.086   0.445 -12.153  1.00  0.00    -0.200 F 
ATOM     82  F   UNL     1       4.637   1.310 -11.732  1.00  0.00    -0.200 F 
ENDBRANCH  58  72
BRANCH  59  83
ATOM     83  C   UNL     1       0.391 -10.584  -5.454  1.00  0.00     0.064 A 
ATOM     84  C   UNL     1       1.296 -11.652  -5.428  1.00  0.00     0.173 A 
ATOM     85  C   UNL     1      -0.820 -10.729  -4.762  1.00  0.00     0.173 A 
ATOM     86  F   UNL     1       2.460 -11.559  -6.088  1.00  0.00    -0.203 F 
ATOM     87  C   UNL     1       1.006 -12.819  -4.729  1.00  0.00     0.198 A 
ATOM     88  C   UNL     1      -1.099 -11.887  -4.043  1.00  0.00     0.198 A 
ATOM     89  F   UNL     1      -1.712  -9.727  -4.753  1.00  0.00    -0.203 F 
ATOM     90  F   UNL     1       1.881 -13.833  -4.729  1.00  0.00    -0.200 F 
ATOM     91  C   UNL     1      -0.186 -12.931  -4.027  1.00  0.00     0.200 A 
ATOM     92  F   UNL     1      -2.241 -11.984  -3.349  1.00  0.00    -0.200 F 
ATOM     93  F   UNL     1      -0.454 -14.046  -3.333  1.00  0.00    -0.200 F 
ENDBRANCH  59  83
BRANCH  71  94
ATOM     94  C   UNL     1       1.266  -8.721 -12.116  1.00  0.00     0.064 A 
ATOM     95  C   UNL     1      -0.004  -9.058 -12.610  1.00  0.00     0.173 A 
ATOM     96  C   UNL     1       2.383  -9.079 -12.887  1.00  0.00     0.173 A 
ATOM     97  F   UNL     1      -1.105  -8.757 -11.905  1.00  0.00    -0.203 F 
ATOM     98  C   UNL     1      -0.147  -9.748 -13.812  1.00  0.00     0.198 A 
ATOM     99  C   UNL     1       2.235  -9.741 -14.103  1.00  0.00     0.198 A 
ATOM    100  F   UNL     1       3.620  -8.779 -12.464  1.00  0.00    -0.203 F 
ATOM    101  F   UNL     1      -1.367 -10.104 -14.238  1.00  0.00    -0.200 F 
ATOM    102  C   UNL     1       0.972 -10.082 -14.561  1.00  0.00     0.200 A 
ATOM    103  F   UNL     1       3.317 -10.053 -14.831  1.00  0.00    -0.200 F 
ATOM    104  F   UNL     1       0.832 -10.742 -15.719  1.00  0.00    -0.200 F 
ENDBRANCH  71  94
ENDBRANCH  45  46
ENDBRANCH  38  40
ENDBRANCH  37  38
ENDBRANCH  36  37
ENDBRANCH   1  36
TORSDOF 13
