REMARK SMILES CCOC(=O)c1c(NC(=O)c2ncccc2C(=O)OCCOC(=O)c2ccc(-c3c4nc(c(-c5c(F)c(F)c(F)c(F)c5F)c5ccc([nH]5)c(-c5c(F)c(F)c(F)c(F)c5F)c5nc(c(-c6c(F)c(F)c(F)c(F)c6F)c6ccc3[nH]6)C=C5)C=C4)cc2)sc2c1CC[C@H](C)C2
REMARK SMILES IDX 19 1 17 2 18 3 16 4 11 5 12 6 13 7 15 8 14 9 9 10 8 11 10 13
REMARK SMILES IDX 7 14 6 15 90 16 88 17 89 18 91 19 95 20 92 21 93 22 94 23
REMARK SMILES IDX 4 24 5 25 3 26 2 27 1 28 20 29 21 30 22 31 23 32 24 33 25 34
REMARK SMILES IDX 26 35 87 36 27 37 86 38 28 39 29 40 30 41 80 42 31 43 85 44
REMARK SMILES IDX 79 45 81 46 32 47 84 48 78 49 77 50 33 52 65 53 45 54 64 55
REMARK SMILES IDX 46 56 49 57 63 58 82 59 47 60 48 61 62 63 83 64 50 65 34 66
REMARK SMILES IDX 35 67 43 68 36 69 37 70 41 71 44 72 38 73 39 74 42 75 40 76
REMARK SMILES IDX 66 77 67 78 75 79 68 80 69 81 73 82 76 83 70 84 71 85 74 86
REMARK SMILES IDX 72 87 51 88 52 89 60 90 53 91 54 92 58 93 61 94 55 95 56 96
REMARK SMILES IDX 59 97 57 98
REMARK H PARENT 8 12 81 51 49 62
REMARK Flexibility Score: inf
ROOT
ATOM      1  O   UNL     1       3.933   0.346   4.390  1.00  0.00    -0.458 OA
ENDROOT
BRANCH   1   2
ATOM      2  C   UNL     1       2.960  -0.564   4.597  1.00  0.00     0.340 C 
ATOM      3  O   UNL     1       2.864  -1.347   5.530  1.00  0.00    -0.246 OA
BRANCH   2   4
ATOM      4  C   UNL     1       2.116  -0.717   3.419  1.00  0.00     0.091 A 
ATOM      5  C   UNL     1       0.866  -0.143   3.325  1.00  0.00     0.142 A 
ATOM      6  N   UNL     1      -0.146  -0.714   2.595  1.00  0.00    -0.250 NA
ATOM      7  C   UNL     1       0.143  -1.817   1.873  1.00  0.00     0.112 A 
ATOM      8  C   UNL     1       2.410  -1.804   2.586  1.00  0.00     0.020 A 
ATOM      9  C   UNL     1       1.415  -2.344   1.777  1.00  0.00     0.021 A 
BRANCH   5  10
ATOM     10  C   UNL     1       0.464   1.139   3.938  1.00  0.00     0.275 C 
ATOM     11  N   UNL     1       0.985   2.369   3.600  1.00  0.00    -0.311 N 
ATOM     12  H   UNL     1       0.413   3.108   3.911  1.00  0.00     0.171 HD
ATOM     13  O   UNL     1      -0.487   1.136   4.727  1.00  0.00    -0.267 OA
BRANCH  11  14
ATOM     14  C   UNL     1       2.097   2.828   2.940  1.00  0.00     0.110 A 
ATOM     15  C   UNL     1       3.030   2.510   1.967  1.00  0.00     0.098 A 
ATOM     16  C   UNL     1       4.236   3.312   2.163  1.00  0.00    -0.017 A 
ATOM     17  S   UNL     1       2.378   4.462   3.352  1.00  0.00    -0.122 S 
ATOM     18  C   UNL     1       4.034   4.208   3.191  1.00  0.00     0.011 A 
ATOM     19  C   UNL     1       5.523   3.364   1.389  1.00  0.00     0.038 C 
ATOM     20  C   UNL     1       5.072   5.032   3.848  1.00  0.00     0.050 C 
ATOM     21  C   UNL     1       6.616   4.247   2.072  1.00  0.00     0.008 C 
ATOM     22  C   UNL     1       6.060   5.505   2.787  1.00  0.00    -0.009 C 
ATOM     23  C   UNL     1       7.152   6.347   3.446  1.00  0.00     0.008 C 
BRANCH  15  24
ATOM     24  C   UNL     1       2.734   1.620   0.874  1.00  0.00     0.341 C 
ATOM     25  O   UNL     1       3.351   0.594   0.626  1.00  0.00    -0.246 OA
BRANCH  24  26
ATOM     26  O   UNL     1       1.656   2.087   0.177  1.00  0.00    -0.462 OA
BRANCH  26  27
ATOM     27  C   UNL     1       0.631   1.125  -0.038  1.00  0.00     0.230 C 
ATOM     28  C   UNL     1       0.764   0.408  -1.355  1.00  0.00     0.049 C 
ENDBRANCH  26  27
ENDBRANCH  24  26
ENDBRANCH  15  24
ENDBRANCH  11  14
ENDBRANCH   5  10
ENDBRANCH   2   4
ENDBRANCH   1   2
BRANCH   1  29
ATOM     29  C   UNL     1       4.927   0.372   5.434  1.00  0.00     0.275 C 
BRANCH  29  30
ATOM     30  C   UNL     1       5.288   1.808   5.754  1.00  0.00     0.275 C 
BRANCH  30  31
ATOM     31  O   UNL     1       4.520   2.478   6.772  1.00  0.00    -0.458 OA
BRANCH  31  32
ATOM     32  C   UNL     1       3.171   2.435   6.756  1.00  0.00     0.338 C 
ATOM     33  O   UNL     1       2.460   1.492   6.445  1.00  0.00    -0.246 OA
BRANCH  32  34
ATOM     34  C   UNL     1       2.661   3.816   6.896  1.00  0.00     0.060 A 
ATOM     35  C   UNL     1       1.365   4.075   6.444  1.00  0.00     0.016 A 
ATOM     36  C   UNL     1       3.540   4.869   7.174  1.00  0.00     0.016 A 
ATOM     37  C   UNL     1       1.058   5.356   6.006  1.00  0.00     0.010 A 
ATOM     38  C   UNL     1       3.210   6.156   6.788  1.00  0.00     0.010 A 
ATOM     39  C   UNL     1       2.017   6.384   6.099  1.00  0.00    -0.014 A 
BRANCH  39  40
ATOM     40  C   UNL     1       1.635   7.762   5.748  1.00  0.00     0.031 A 
ATOM     41  C   UNL     1       0.353   8.155   6.407  1.00  0.00     0.074 A 
ATOM     42  C   UNL     1       2.473   8.617   5.114  1.00  0.00     0.049 A 
ATOM     43  N   UNL     1      -0.652   8.790   5.897  1.00  0.00    -0.248 NA
ATOM     44  C   UNL     1       0.070   7.571   7.740  1.00  0.00     0.031 C 
ATOM     45  C   UNL     1       3.750   8.322   4.479  1.00  0.00     0.029 A 
ATOM     46  N   UNL     1       2.464   9.986   5.087  1.00  0.00    -0.354 N 
ATOM     47  C   UNL     1      -1.594   8.850   6.922  1.00  0.00     0.074 A 
ATOM     48  C   UNL     1      -1.213   7.878   7.902  1.00  0.00     0.031 C 
ATOM     49  C   UNL     1       4.545   9.408   4.459  1.00  0.00     0.029 A 
ATOM     50  C   UNL     1       3.751  10.529   4.899  1.00  0.00     0.049 A 
ATOM     51  H   UNL     1       1.649  10.530   5.186  1.00  0.00     0.167 HD
ATOM     52  C   UNL     1      -2.403   9.930   7.066  1.00  0.00     0.037 A 
ATOM     53  C   UNL     1       4.126  11.808   5.147  1.00  0.00     0.037 A 
ATOM     54  C   UNL     1      -2.615  10.588   5.805  1.00  0.00     0.049 A 
ATOM     55  C   UNL     1       2.875  12.604   5.198  1.00  0.00     0.074 A 
ATOM     56  C   UNL     1      -3.167  10.192   4.603  1.00  0.00     0.029 A 
ATOM     57  N   UNL     1      -1.887  11.717   5.529  1.00  0.00    -0.354 N 
ATOM     58  N   UNL     1       2.116  12.799   4.152  1.00  0.00    -0.248 NA
ATOM     59  C   UNL     1       2.214  12.706   6.490  1.00  0.00     0.031 C 
ATOM     60  C   UNL     1      -2.363  10.809   3.603  1.00  0.00     0.029 A 
ATOM     61  C   UNL     1      -1.418  11.610   4.244  1.00  0.00     0.049 A 
ATOM     62  H   UNL     1      -1.729  12.470   6.143  1.00  0.00     0.167 HD
ATOM     63  C   UNL     1       0.825  12.615   4.626  1.00  0.00     0.074 A 
ATOM     64  C   UNL     1       0.946  12.602   6.082  1.00  0.00     0.031 C 
ATOM     65  C   UNL     1      -0.175  12.191   3.799  1.00  0.00     0.037 A 
BRANCH  52  66
ATOM     66  C   UNL     1      -2.621  10.592   8.409  1.00  0.00     0.064 A 
ATOM     67  C   UNL     1      -3.544  11.648   8.502  1.00  0.00     0.173 A 
ATOM     68  C   UNL     1      -1.770  10.435   9.532  1.00  0.00     0.173 A 
ATOM     69  F   UNL     1      -4.391  11.903   7.494  1.00  0.00    -0.203 F 
ATOM     70  C   UNL     1      -3.554  12.524   9.592  1.00  0.00     0.198 A 
ATOM     71  C   UNL     1      -1.820  11.275  10.639  1.00  0.00     0.198 A 
ATOM     72  F   UNL     1      -0.778   9.541   9.575  1.00  0.00    -0.203 F 
ATOM     73  F   UNL     1      -4.364  13.590   9.577  1.00  0.00    -0.200 F 
ATOM     74  C   UNL     1      -2.687  12.341  10.654  1.00  0.00     0.200 A 
ATOM     75  F   UNL     1      -0.956  11.085  11.647  1.00  0.00    -0.200 F 
ATOM     76  F   UNL     1      -2.649  13.217  11.666  1.00  0.00    -0.200 F 
ENDBRANCH  52  66
BRANCH  53  77
ATOM     77  C   UNL     1       5.420  12.290   5.692  1.00  0.00     0.064 A 
ATOM     78  C   UNL     1       5.788  13.642   5.613  1.00  0.00     0.173 A 
ATOM     79  C   UNL     1       6.204  11.480   6.540  1.00  0.00     0.173 A 
ATOM     80  F   UNL     1       5.072  14.491   4.862  1.00  0.00    -0.203 F 
ATOM     81  C   UNL     1       6.860  14.157   6.353  1.00  0.00     0.198 A 
ATOM     82  C   UNL     1       7.275  11.993   7.274  1.00  0.00     0.198 A 
ATOM     83  F   UNL     1       5.890  10.192   6.745  1.00  0.00    -0.203 F 
ATOM     84  F   UNL     1       7.148  15.465   6.293  1.00  0.00    -0.200 F 
ATOM     85  C   UNL     1       7.596  13.335   7.191  1.00  0.00     0.200 A 
ATOM     86  F   UNL     1       7.956  11.191   8.106  1.00  0.00    -0.200 F 
ATOM     87  F   UNL     1       8.584  13.838   7.944  1.00  0.00    -0.200 F 
ENDBRANCH  53  77
BRANCH  65  88
ATOM     88  C   UNL     1       0.115  12.121   2.324  1.00  0.00     0.064 A 
ATOM     89  C   UNL     1       1.042  11.235   1.746  1.00  0.00     0.173 A 
ATOM     90  C   UNL     1      -0.693  12.861   1.453  1.00  0.00     0.173 A 
ATOM     91  F   UNL     1       1.783  10.421   2.509  1.00  0.00    -0.203 F 
ATOM     92  C   UNL     1       1.175  11.125   0.361  1.00  0.00     0.198 A 
ATOM     93  C   UNL     1      -0.584  12.725   0.072  1.00  0.00     0.198 A 
ATOM     94  F   UNL     1      -1.635  13.680   1.948  1.00  0.00    -0.203 F 
ATOM     95  F   UNL     1       2.070  10.274  -0.164  1.00  0.00    -0.200 F 
ATOM     96  C   UNL     1       0.356  11.865  -0.474  1.00  0.00     0.200 A 
ATOM     97  F   UNL     1      -1.413  13.405  -0.730  1.00  0.00    -0.200 F 
ATOM     98  F   UNL     1       0.451  11.729  -1.804  1.00  0.00    -0.200 F 
ENDBRANCH  65  88
ENDBRANCH  39  40
ENDBRANCH  32  34
ENDBRANCH  31  32
ENDBRANCH  30  31
ENDBRANCH  29  30
ENDBRANCH   1  29
TORSDOF 16
