REMARK SMILES COc1cc(/C=C/C(=O)OCCOC(=O)c2ccc(-c3c4nc(c(-c5c(F)c(F)c(F)c(F)c5F)c5ccc([nH]5)c(-c5c(F)c(F)c(F)c(F)c5F)c5nc(c(-c6c(F)c(F)c(F)c(F)c6F)c6ccc3[nH]6)C=C5)C=C4)cc2)cc(S(=O)(=O)Nc2ccc3c(c2)OCCO3)c1OC
REMARK SMILES IDX 11 1 10 2 8 3 9 4 7 5 6 6 5 7 3 8 4 9 95 10 80 11 79 12 2 13
REMARK SMILES IDX 1 14 96 15 97 16 81 17 82 18 83 19 84 20 85 22 86 23 90 24
REMARK SMILES IDX 87 25 89 26 88 27 91 28 94 29 92 30 93 31 12 32 13 33 14 34
REMARK SMILES IDX 15 35 16 36 17 37 78 38 18 39 77 40 19 41 20 42 21 43 71 44
REMARK SMILES IDX 22 45 76 46 70 47 72 48 23 49 75 50 69 51 68 52 24 54 56 55
REMARK SMILES IDX 36 56 55 57 37 58 40 59 54 60 73 61 38 62 39 63 53 65 74 66
REMARK SMILES IDX 41 67 25 68 26 69 34 70 27 71 28 72 32 73 35 74 29 75 30 76
REMARK SMILES IDX 33 77 31 78 57 79 58 80 66 81 59 82 60 83 64 84 67 85 61 86
REMARK SMILES IDX 62 87 65 88 63 89 42 90 43 91 51 92 44 93 45 94 49 95 52 96
REMARK SMILES IDX 46 97 47 98 50 99 48 100
REMARK H PARENT 84 21 72 53 40 64
REMARK Flexibility Score: inf
ROOT
ATOM      1  C   UNL     1      -2.813   7.287  -6.008  1.00  0.00     0.275 C 
ENDROOT
BRANCH   1   2
ATOM      2  O   UNL     1      -1.903   6.614  -5.113  1.00  0.00    -0.459 OA
BRANCH   2   3
ATOM      3  C   UNL     1      -2.472   6.078  -4.010  1.00  0.00     0.330 C 
ATOM      4  O   UNL     1      -3.650   6.175  -3.690  1.00  0.00    -0.247 OA
BRANCH   3   5
ATOM      5  C   UNL     1      -1.544   5.275  -3.185  1.00  0.00     0.094 C 
ATOM      6  C   UNL     1      -0.277   4.917  -3.460  1.00  0.00     0.016 C 
BRANCH   6   7
ATOM      7  C   UNL     1       0.541   4.093  -2.537  1.00  0.00    -0.020 A 
ATOM      8  C   UNL     1       0.747   2.592  -0.609  1.00  0.00     0.162 A 
ATOM      9  C   UNL     1      -0.025   3.196  -1.620  1.00  0.00     0.058 A 
ATOM     10  C   UNL     1       2.131   2.837  -0.512  1.00  0.00     0.181 A 
ATOM     11  C   UNL     1       2.724   3.615  -1.522  1.00  0.00     0.134 A 
ATOM     12  C   UNL     1       1.932   4.240  -2.517  1.00  0.00     0.034 A 
BRANCH   8  13
ATOM     13  O   UNL     1       0.029   1.994   0.399  1.00  0.00    -0.493 OA
ATOM     14  C   UNL     1      -0.251   0.615   0.170  1.00  0.00     0.278 C 
ENDBRANCH   8  13
BRANCH  10  15
ATOM     15  O   UNL     1       2.947   2.481   0.524  1.00  0.00    -0.492 OA
ATOM     16  C   UNL     1       2.492   1.563   1.507  1.00  0.00     0.278 C 
ENDBRANCH  10  15
BRANCH  11  17
ATOM     17  S   UNL     1       4.477   3.997  -1.567  1.00  0.00     0.265 S 
ATOM     18  O   UNL     1       4.822   4.161  -2.970  1.00  0.00    -0.201 OA
ATOM     19  O   UNL     1       4.686   5.085  -0.637  1.00  0.00    -0.201 OA
BRANCH  17  20
ATOM     20  N   UNL     1       5.398   2.692  -0.984  1.00  0.00    -0.279 N 
ATOM     21  H   UNL     1       6.155   2.861  -0.378  1.00  0.00     0.180 HD
BRANCH  20  22
ATOM     22  C   UNL     1       5.082   1.358  -1.365  1.00  0.00     0.053 A 
ATOM     23  C   UNL     1       5.021   0.387  -0.356  1.00  0.00     0.031 A 
ATOM     24  C   UNL     1       4.702   1.044  -2.663  1.00  0.00     0.077 A 
ATOM     25  C   UNL     1       4.301  -0.786  -0.571  1.00  0.00     0.052 A 
ATOM     26  C   UNL     1       3.921  -0.082  -2.860  1.00  0.00     0.163 A 
ATOM     27  C   UNL     1       3.653  -0.942  -1.789  1.00  0.00     0.161 A 
ATOM     28  O   UNL     1       3.310  -0.185  -4.081  1.00  0.00    -0.486 OA
ATOM     29  O   UNL     1       2.622  -1.847  -1.853  1.00  0.00    -0.486 OA
ATOM     30  C   UNL     1       2.136  -1.009  -4.065  1.00  0.00     0.271 C 
ATOM     31  C   UNL     1       1.601  -1.243  -2.663  1.00  0.00     0.271 C 
ENDBRANCH  20  22
ENDBRANCH  17  20
ENDBRANCH  11  17
ENDBRANCH   6   7
ENDBRANCH   3   5
ENDBRANCH   2   3
ENDBRANCH   1   2
BRANCH   1  32
ATOM     32  C   UNL     1      -3.216   6.392  -7.185  1.00  0.00     0.275 C 
BRANCH  32  33
ATOM     33  O   UNL     1      -4.007   5.261  -6.769  1.00  0.00    -0.458 OA
BRANCH  33  34
ATOM     34  C   UNL     1      -3.297   4.160  -6.438  1.00  0.00     0.338 C 
ATOM     35  O   UNL     1      -2.082   4.022  -6.474  1.00  0.00    -0.246 OA
BRANCH  34  36
ATOM     36  C   UNL     1      -4.184   3.112  -5.908  1.00  0.00     0.060 A 
ATOM     37  C   UNL     1      -3.878   2.564  -4.658  1.00  0.00     0.016 A 
ATOM     38  C   UNL     1      -5.229   2.590  -6.673  1.00  0.00     0.016 A 
ATOM     39  C   UNL     1      -4.598   1.471  -4.180  1.00  0.00     0.010 A 
ATOM     40  C   UNL     1      -5.955   1.495  -6.189  1.00  0.00     0.010 A 
ATOM     41  C   UNL     1      -5.628   0.913  -4.950  1.00  0.00    -0.014 A 
BRANCH  41  42
ATOM     42  C   UNL     1      -6.307  -0.326  -4.490  1.00  0.00     0.031 A 
ATOM     43  C   UNL     1      -6.015  -1.635  -5.171  1.00  0.00     0.074 A 
ATOM     44  C   UNL     1      -7.153  -0.286  -3.443  1.00  0.00     0.049 A 
ATOM     45  N   UNL     1      -6.534  -2.818  -4.955  1.00  0.00    -0.248 NA
ATOM     46  C   UNL     1      -4.999  -1.612  -6.235  1.00  0.00     0.031 C 
ATOM     47  C   UNL     1      -7.485   0.912  -2.673  1.00  0.00     0.029 A 
ATOM     48  N   UNL     1      -7.888  -1.282  -2.849  1.00  0.00    -0.354 N 
ATOM     49  C   UNL     1      -5.916  -3.675  -5.857  1.00  0.00     0.074 A 
ATOM     50  C   UNL     1      -5.005  -2.872  -6.645  1.00  0.00     0.031 C 
ATOM     51  C   UNL     1      -8.357   0.581  -1.706  1.00  0.00     0.029 A 
ATOM     52  C   UNL     1      -8.679  -0.839  -1.816  1.00  0.00     0.049 A 
ATOM     53  H   UNL     1      -7.851  -2.223  -3.135  1.00  0.00     0.167 HD
ATOM     54  C   UNL     1      -6.083  -5.011  -6.005  1.00  0.00     0.037 A 
ATOM     55  C   UNL     1      -9.579  -1.501  -1.064  1.00  0.00     0.037 A 
ATOM     56  C   UNL     1      -6.990  -5.810  -5.221  1.00  0.00     0.049 A 
ATOM     57  C   UNL     1      -9.804  -2.972  -1.308  1.00  0.00     0.074 A 
ATOM     58  C   UNL     1      -7.242  -7.168  -5.307  1.00  0.00     0.029 A 
ATOM     59  N   UNL     1      -7.795  -5.320  -4.203  1.00  0.00    -0.354 N 
ATOM     60  N   UNL     1      -9.210  -3.773  -2.159  1.00  0.00    -0.248 NA
ATOM     61  C   UNL     1     -10.826  -3.631  -0.482  1.00  0.00     0.031 C 
ATOM     62  C   UNL     1      -8.227  -7.493  -4.370  1.00  0.00     0.029 A 
ATOM     63  C   UNL     1      -8.550  -6.348  -3.661  1.00  0.00     0.049 A 
ATOM     64  H   UNL     1      -7.826  -4.381  -3.909  1.00  0.00     0.167 HD
ATOM     65  C   UNL     1      -9.753  -5.033  -1.941  1.00  0.00     0.074 A 
ATOM     66  C   UNL     1     -10.716  -4.893  -0.869  1.00  0.00     0.031 C 
ATOM     67  C   UNL     1      -9.480  -6.201  -2.572  1.00  0.00     0.037 A 
BRANCH  54  68
ATOM     68  C   UNL     1      -5.275  -5.704  -7.065  1.00  0.00     0.064 A 
ATOM     69  C   UNL     1      -3.895  -5.906  -6.919  1.00  0.00     0.173 A 
ATOM     70  C   UNL     1      -5.897  -6.224  -8.211  1.00  0.00     0.173 A 
ATOM     71  F   UNL     1      -3.251  -5.418  -5.848  1.00  0.00    -0.203 F 
ATOM     72  C   UNL     1      -3.164  -6.590  -7.888  1.00  0.00     0.198 A 
ATOM     73  C   UNL     1      -5.169  -6.931  -9.164  1.00  0.00     0.198 A 
ATOM     74  F   UNL     1      -7.216  -6.064  -8.396  1.00  0.00    -0.203 F 
ATOM     75  F   UNL     1      -1.840  -6.739  -7.744  1.00  0.00    -0.200 F 
ATOM     76  C   UNL     1      -3.803  -7.109  -9.004  1.00  0.00     0.200 A 
ATOM     77  F   UNL     1      -5.790  -7.445 -10.234  1.00  0.00    -0.200 F 
ATOM     78  F   UNL     1      -3.100  -7.779  -9.929  1.00  0.00    -0.200 F 
ENDBRANCH  54  68
BRANCH  55  79
ATOM     79  C   UNL     1     -10.357  -0.787  -0.015  1.00  0.00     0.064 A 
ATOM     80  C   UNL     1     -10.203  -1.105   1.342  1.00  0.00     0.173 A 
ATOM     81  C   UNL     1     -11.311   0.185  -0.352  1.00  0.00     0.173 A 
ATOM     82  F   UNL     1      -9.322  -2.045   1.713  1.00  0.00    -0.203 F 
ATOM     83  C   UNL     1     -10.997  -0.505   2.317  1.00  0.00     0.198 A 
ATOM     84  C   UNL     1     -12.080   0.809   0.628  1.00  0.00     0.198 A 
ATOM     85  F   UNL     1     -11.501   0.525  -1.635  1.00  0.00    -0.203 F 
ATOM     86  F   UNL     1     -10.877  -0.879   3.598  1.00  0.00    -0.200 F 
ATOM     87  C   UNL     1     -11.933   0.454   1.960  1.00  0.00     0.200 A 
ATOM     88  F   UNL     1     -12.975   1.744   0.279  1.00  0.00    -0.200 F 
ATOM     89  F   UNL     1     -12.703   1.024   2.897  1.00  0.00    -0.200 F 
ENDBRANCH  55  79
BRANCH  67  90
ATOM     90  C   UNL     1     -10.176  -7.436  -2.073  1.00  0.00     0.064 A 
ATOM     91  C   UNL     1     -11.547  -7.649  -2.275  1.00  0.00     0.173 A 
ATOM     92  C   UNL     1      -9.447  -8.436  -1.409  1.00  0.00     0.173 A 
ATOM     93  F   UNL     1     -12.292  -6.719  -2.890  1.00  0.00    -0.203 F 
ATOM     94  C   UNL     1     -12.169  -8.803  -1.802  1.00  0.00     0.198 A 
ATOM     95  C   UNL     1     -10.065  -9.602  -0.968  1.00  0.00     0.198 A 
ATOM     96  F   UNL     1      -8.131  -8.286  -1.198  1.00  0.00    -0.203 F 
ATOM     97  F   UNL     1     -13.491  -8.960  -1.957  1.00  0.00    -0.200 F 
ATOM     98  C   UNL     1     -11.427  -9.781  -1.157  1.00  0.00     0.200 A 
ATOM     99  F   UNL     1      -9.343 -10.552  -0.359  1.00  0.00    -0.200 F 
ATOM    100  F   UNL     1     -12.027 -10.892  -0.708  1.00  0.00    -0.200 F 
ENDBRANCH  67  90
ENDBRANCH  41  42
ENDBRANCH  34  36
ENDBRANCH  33  34
ENDBRANCH  32  33
ENDBRANCH   1  32
TORSDOF 17
