REMARK SMILES C[C@](NC(=O)CSCc1cccs1)(C(=O)OCCOC(=O)c1ccc(-c2c3nc(c(-c4c(F)c(F)c(F)c(F)c4F)c4ccc([nH]4)c(-c4c(F)c(F)c(F)c(F)c4F)c4nc(c(-c5c(F)c(F)c(F)c(F)c5F)c5ccc2[nH]5)C=C4)C=C3)cc1)C(F)(F)F
REMARK SMILES IDX 16 1 14 2 15 3 2 4 1 5 85 6 86 7 87 8 88 9 3 10 4 11 5 13
REMARK SMILES IDX 6 14 7 15 8 16 9 17 10 18 13 19 11 20 12 21 17 22 18 23
REMARK SMILES IDX 19 24 20 25 21 26 22 27 23 28 84 29 24 30 83 31 25 32 26 33
REMARK SMILES IDX 27 34 77 35 28 36 82 37 76 38 78 39 29 40 81 41 75 42 74 43
REMARK SMILES IDX 30 45 62 46 42 47 61 48 43 49 46 50 60 51 79 52 44 53 45 54
REMARK SMILES IDX 59 56 80 57 47 58 31 59 32 60 40 61 33 62 34 63 38 64 41 65
REMARK SMILES IDX 35 66 36 67 39 68 37 69 63 70 64 71 72 72 65 73 66 74 70 75
REMARK SMILES IDX 73 76 67 77 68 78 71 79 69 80 48 81 49 82 57 83 50 84 51 85
REMARK SMILES IDX 55 86 58 87 52 88 53 89 56 90 54 91
REMARK H PARENT 3 12 78 44 46 55
REMARK Flexibility Score: inf
ROOT
ATOM      1  O   UNL     1      -1.492   1.130  -0.241  1.00  0.00    -0.460 OA
ENDROOT
BRANCH   1   2
ATOM      2  C   UNL     1      -0.905   2.008   0.631  1.00  0.00     0.341 C 
ATOM      3  O   UNL     1      -1.537   2.723   1.399  1.00  0.00    -0.249 OA
BRANCH   2   4
ATOM      4  C   UNL     1       0.625   2.076   0.443  1.00  0.00     0.231 C 
ATOM      5  C   UNL     1       0.894   3.497  -0.054  1.00  0.00     0.058 C 
BRANCH   4   6
ATOM      6  C   UNL     1       1.230   1.862   1.836  1.00  0.00     0.422 C 
ATOM      7  F   UNL     1       1.056   0.587   2.253  1.00  0.00    -0.168 F 
ATOM      8  F   UNL     1       2.566   2.084   1.835  1.00  0.00    -0.168 F 
ATOM      9  F   UNL     1       0.716   2.677   2.781  1.00  0.00    -0.168 F 
ENDBRANCH   4   6
BRANCH   4  10
ATOM     10  N   UNL     1       1.014   1.015  -0.545  1.00  0.00    -0.332 N 
ATOM     11  C   UNL     1       2.178   0.567  -1.074  1.00  0.00     0.231 C 
ATOM     12  H   UNL     1       0.234   0.525  -0.893  1.00  0.00     0.164 HD
ATOM     13  O   UNL     1       2.111  -0.486  -1.716  1.00  0.00    -0.274 OA
BRANCH  11  14
ATOM     14  C   UNL     1       3.496   1.300  -0.947  1.00  0.00     0.169 C 
BRANCH  14  15
ATOM     15  S   UNL     1       3.544   2.846  -1.903  1.00  0.00    -0.146 SA
BRANCH  15  16
ATOM     16  C   UNL     1       2.911   2.284  -3.517  1.00  0.00     0.116 C 
BRANCH  16  17
ATOM     17  C   UNL     1       4.042   1.941  -4.423  1.00  0.00     0.014 A 
ATOM     18  C   UNL     1       4.790   2.803  -5.202  1.00  0.00     0.016 A 
ATOM     19  S   UNL     1       4.561   0.319  -4.598  1.00  0.00    -0.148 S 
ATOM     20  C   UNL     1       5.812   2.127  -5.923  1.00  0.00     0.012 A 
ATOM     21  C   UNL     1       5.805   0.772  -5.678  1.00  0.00     0.065 A 
ENDBRANCH  16  17
ENDBRANCH  15  16
ENDBRANCH  14  15
ENDBRANCH  11  14
ENDBRANCH   4  10
ENDBRANCH   2   4
ENDBRANCH   1   2
BRANCH   1  22
ATOM     22  C   UNL     1      -2.936   1.165  -0.314  1.00  0.00     0.274 C 
BRANCH  22  23
ATOM     23  C   UNL     1      -3.552  -0.009   0.438  1.00  0.00     0.275 C 
BRANCH  23  24
ATOM     24  O   UNL     1      -3.189   0.084   1.825  1.00  0.00    -0.458 OA
BRANCH  24  25
ATOM     25  C   UNL     1      -2.673  -1.035   2.376  1.00  0.00     0.338 C 
ATOM     26  O   UNL     1      -2.554  -2.134   1.857  1.00  0.00    -0.246 OA
BRANCH  25  27
ATOM     27  C   UNL     1      -2.206  -0.737   3.740  1.00  0.00     0.060 A 
ATOM     28  C   UNL     1      -1.310   0.309   3.941  1.00  0.00     0.016 A 
ATOM     29  C   UNL     1      -2.547  -1.575   4.798  1.00  0.00     0.016 A 
ATOM     30  C   UNL     1      -0.662   0.457   5.163  1.00  0.00     0.010 A 
ATOM     31  C   UNL     1      -1.978  -1.358   6.057  1.00  0.00     0.010 A 
ATOM     32  C   UNL     1      -0.994  -0.368   6.243  1.00  0.00    -0.014 A 
BRANCH  32  33
ATOM     33  C   UNL     1      -0.263  -0.249   7.535  1.00  0.00     0.031 A 
ATOM     34  C   UNL     1       0.473  -1.440   8.087  1.00  0.00     0.074 A 
ATOM     35  C   UNL     1      -0.220   0.919   8.205  1.00  0.00     0.049 A 
ATOM     36  N   UNL     1       0.970  -1.627   9.283  1.00  0.00    -0.248 NA
ATOM     37  C   UNL     1       0.663  -2.580   7.175  1.00  0.00     0.031 C 
ATOM     38  C   UNL     1      -0.820   2.178   7.761  1.00  0.00     0.029 A 
ATOM     39  N   UNL     1       0.371   1.240   9.402  1.00  0.00    -0.354 N 
ATOM     40  C   UNL     1       1.452  -2.929   9.293  1.00  0.00     0.074 A 
ATOM     41  C   UNL     1       1.213  -3.481   7.976  1.00  0.00     0.031 C 
ATOM     42  C   UNL     1      -0.523   3.143   8.645  1.00  0.00     0.029 A 
ATOM     43  C   UNL     1       0.202   2.554   9.765  1.00  0.00     0.049 A 
ATOM     44  H   UNL     1       0.870   0.590   9.949  1.00  0.00     0.167 HD
ATOM     45  C   UNL     1       2.029  -3.604  10.315  1.00  0.00     0.037 A 
ATOM     46  C   UNL     1       0.550   3.203  10.892  1.00  0.00     0.037 A 
ATOM     47  C   UNL     1       2.343  -3.026  11.594  1.00  0.00     0.049 A 
ATOM     48  C   UNL     1       1.203   2.439  12.008  1.00  0.00     0.074 A 
ATOM     49  C   UNL     1       2.921  -3.628  12.699  1.00  0.00     0.029 A 
ATOM     50  N   UNL     1       2.134  -1.696  11.927  1.00  0.00    -0.354 N 
ATOM     51  N   UNL     1       1.542   1.175  12.055  1.00  0.00    -0.248 NA
ATOM     52  C   UNL     1       1.488   3.185  13.242  1.00  0.00     0.031 C 
ATOM     53  C   UNL     1       3.050  -2.663  13.705  1.00  0.00     0.029 A 
ATOM     54  C   UNL     1       2.576  -1.457  13.217  1.00  0.00     0.049 A 
ATOM     55  H   UNL     1       1.731  -1.022  11.333  1.00  0.00     0.167 HD
ATOM     56  C   UNL     1       2.072   0.970  13.321  1.00  0.00     0.074 A 
ATOM     57  C   UNL     1       2.038   2.248  14.002  1.00  0.00     0.031 C 
ATOM     58  C   UNL     1       2.530  -0.178  13.875  1.00  0.00     0.037 A 
BRANCH  45  59
ATOM     59  C   UNL     1       2.316  -5.060  10.108  1.00  0.00     0.064 A 
ATOM     60  C   UNL     1       3.398  -5.505   9.337  1.00  0.00     0.173 A 
ATOM     61  C   UNL     1       1.503  -6.026  10.723  1.00  0.00     0.173 A 
ATOM     62  F   UNL     1       4.191  -4.620   8.715  1.00  0.00    -0.203 F 
ATOM     63  C   UNL     1       3.647  -6.866   9.175  1.00  0.00     0.198 A 
ATOM     64  C   UNL     1       1.768  -7.384  10.577  1.00  0.00     0.198 A 
ATOM     65  F   UNL     1       0.456  -5.650  11.473  1.00  0.00    -0.203 F 
ATOM     66  F   UNL     1       4.665  -7.272   8.404  1.00  0.00    -0.200 F 
ATOM     67  C   UNL     1       2.836  -7.803   9.799  1.00  0.00     0.200 A 
ATOM     68  F   UNL     1       0.988  -8.288  11.188  1.00  0.00    -0.200 F 
ATOM     69  F   UNL     1       3.081  -9.112   9.646  1.00  0.00    -0.200 F 
ENDBRANCH  45  59
BRANCH  46  70
ATOM     70  C   UNL     1       0.237   4.648  11.035  1.00  0.00     0.064 A 
ATOM     71  C   UNL     1       1.256   5.609  11.024  1.00  0.00     0.173 A 
ATOM     72  C   UNL     1      -1.085   5.097  11.169  1.00  0.00     0.173 A 
ATOM     73  F   UNL     1       2.538   5.224  10.927  1.00  0.00    -0.203 F 
ATOM     74  C   UNL     1       0.965   6.966  11.140  1.00  0.00     0.198 A 
ATOM     75  C   UNL     1      -1.377   6.455  11.258  1.00  0.00     0.198 A 
ATOM     76  F   UNL     1      -2.095   4.215  11.189  1.00  0.00    -0.203 F 
ATOM     77  F   UNL     1       1.959   7.864  11.157  1.00  0.00    -0.200 F 
ATOM     78  C   UNL     1      -0.352   7.389  11.248  1.00  0.00     0.200 A 
ATOM     79  F   UNL     1      -2.651   6.860  11.349  1.00  0.00    -0.200 F 
ATOM     80  F   UNL     1      -0.633   8.695  11.348  1.00  0.00    -0.200 F 
ENDBRANCH  46  70
BRANCH  58  81
ATOM     81  C   UNL     1       3.034  -0.099  15.283  1.00  0.00     0.064 A 
ATOM     82  C   UNL     1       2.148  -0.038  16.368  1.00  0.00     0.173 A 
ATOM     83  C   UNL     1       4.410  -0.117  15.550  1.00  0.00     0.173 A 
ATOM     84  F   UNL     1       0.824  -0.002  16.157  1.00  0.00    -0.203 F 
ATOM     85  C   UNL     1       2.625   0.019  17.674  1.00  0.00     0.198 A 
ATOM     86  C   UNL     1       4.882  -0.078  16.858  1.00  0.00     0.198 A 
ATOM     87  F   UNL     1       5.293  -0.177  14.542  1.00  0.00    -0.203 F 
ATOM     88  F   UNL     1       1.763   0.111  18.696  1.00  0.00    -0.200 F 
ATOM     89  C   UNL     1       3.990  -0.006  17.918  1.00  0.00     0.200 A 
ATOM     90  F   UNL     1       6.201  -0.107  17.094  1.00  0.00    -0.200 F 
ATOM     91  F   UNL     1       4.447   0.049  19.177  1.00  0.00    -0.200 F 
ENDBRANCH  58  81
ENDBRANCH  32  33
ENDBRANCH  25  27
ENDBRANCH  24  25
ENDBRANCH  23  24
ENDBRANCH  22  23
ENDBRANCH   1  22
TORSDOF 17
