REMARK SMILES CC(C)[C@H](NC(=O)[C@H](C)NC(=O)C[NH3+])C(=O)OCCOC(=O)c1ccc(-c2c3nc(c(-c4c(F)c(F)c(F)c(F)c4F)c4ccc([nH]4)c(-c4c(F)c(F)c(F)c(F)c4F)c4nc(c(-c5c(F)c(F)c(F)c(F)c5F)c5ccc2[nH]5)C=C4)C=C3)cc1
REMARK SMILES IDX 17 1 15 2 16 3 4 4 2 5 1 6 3 7 5 8 6 9 7 11 8 12 9 13 10 14
REMARK SMILES IDX 11 15 12 17 13 18 14 19 18 23 19 24 20 25 21 26 22 27 23 28
REMARK SMILES IDX 24 29 85 30 25 31 84 32 26 33 27 34 28 35 78 36 29 37 83 38
REMARK SMILES IDX 77 39 79 40 30 41 82 42 76 43 75 44 31 46 63 47 43 48 62 49
REMARK SMILES IDX 44 50 47 51 61 52 80 53 45 54 46 55 60 57 81 58 48 59 32 60
REMARK SMILES IDX 33 61 41 62 34 63 35 64 39 65 42 66 36 67 37 68 40 69 38 70
REMARK SMILES IDX 64 71 65 72 73 73 66 74 67 75 71 76 74 77 68 78 69 79 72 80
REMARK SMILES IDX 70 81 49 82 50 83 58 84 51 85 52 86 56 87 59 88 53 89 54 90
REMARK SMILES IDX 57 91 55 92
REMARK H PARENT 5 10 10 16 14 20 14 21 14 22 79 45 47 56
REMARK Flexibility Score: inf
ROOT
ATOM      1  O   UNL     1      -4.458   3.304  -3.719  1.00  0.00    -0.461 OA
ENDROOT
BRANCH   1   2
ATOM      2  C   UNL     1      -3.281   2.622  -3.850  1.00  0.00     0.329 C 
ATOM      3  O   UNL     1      -2.894   1.774  -3.055  1.00  0.00    -0.250 OA
BRANCH   2   4
ATOM      4  C   UNL     1      -2.456   3.100  -5.079  1.00  0.00     0.194 C 
BRANCH   4   5
ATOM      5  C   UNL     1      -1.032   3.494  -4.598  1.00  0.00     0.017 C 
ATOM      6  C   UNL     1      -0.132   2.243  -4.602  1.00  0.00     0.010 C 
ATOM      7  C   UNL     1      -0.360   4.577  -5.442  1.00  0.00     0.010 C 
ENDBRANCH   4   5
BRANCH   4   8
ATOM      8  N   UNL     1      -3.142   4.146  -5.851  1.00  0.00    -0.341 N 
ATOM      9  C   UNL     1      -3.982   4.079  -6.926  1.00  0.00     0.243 C 
ATOM     10  H   UNL     1      -2.963   5.061  -5.536  1.00  0.00     0.164 HD
ATOM     11  O   UNL     1      -4.366   5.169  -7.367  1.00  0.00    -0.273 OA
BRANCH   9  12
ATOM     12  C   UNL     1      -4.301   2.754  -7.691  1.00  0.00     0.168 C 
ATOM     13  C   UNL     1      -5.635   2.905  -8.423  1.00  0.00     0.041 C 
BRANCH  12  14
ATOM     14  N   UNL     1      -4.342   1.581  -6.823  1.00  0.00    -0.340 N 
ATOM     15  C   UNL     1      -3.481   0.519  -6.901  1.00  0.00     0.275 C 
ATOM     16  H   UNL     1      -5.040   1.551  -6.130  1.00  0.00     0.164 HD
ATOM     17  O   UNL     1      -3.045   0.039  -5.853  1.00  0.00    -0.268 OA
BRANCH  15  18
ATOM     18  C   UNL     1      -2.996  -0.016  -8.245  1.00  0.00     0.360 C 
BRANCH  18  19
ATOM     19  N   UNL     1      -4.035   0.049  -9.277  1.00  0.00    -0.350 N 
ATOM     20  H   UNL     1      -4.829  -0.527  -8.998  1.00  0.00     0.344 HD
ATOM     21  H   UNL     1      -3.659  -0.296 -10.160  1.00  0.00     0.344 HD
ATOM     22  H   UNL     1      -4.340   1.016  -9.393  1.00  0.00     0.344 HD
ENDBRANCH  18  19
ENDBRANCH  15  18
ENDBRANCH  12  14
ENDBRANCH   9  12
ENDBRANCH   4   8
ENDBRANCH   2   4
ENDBRANCH   1   2
BRANCH   1  23
ATOM     23  C   UNL     1      -5.152   3.135  -2.464  1.00  0.00     0.274 C 
BRANCH  23  24
ATOM     24  C   UNL     1      -6.483   2.413  -2.651  1.00  0.00     0.275 C 
BRANCH  24  25
ATOM     25  O   UNL     1      -6.260   1.081  -3.148  1.00  0.00    -0.458 OA
BRANCH  25  26
ATOM     26  C   UNL     1      -6.978   0.730  -4.238  1.00  0.00     0.338 C 
ATOM     27  O   UNL     1      -7.799   1.427  -4.825  1.00  0.00    -0.246 OA
BRANCH  26  28
ATOM     28  C   UNL     1      -6.606  -0.616  -4.728  1.00  0.00     0.060 A 
ATOM     29  C   UNL     1      -5.312  -1.099  -4.575  1.00  0.00     0.016 A 
ATOM     30  C   UNL     1      -7.509  -1.331  -5.519  1.00  0.00     0.016 A 
ATOM     31  C   UNL     1      -4.881  -2.176  -5.360  1.00  0.00     0.010 A 
ATOM     32  C   UNL     1      -7.097  -2.487  -6.202  1.00  0.00     0.010 A 
ATOM     33  C   UNL     1      -5.751  -2.886  -6.203  1.00  0.00    -0.014 A 
BRANCH  33  34
ATOM     34  C   UNL     1      -5.256  -3.964  -7.130  1.00  0.00     0.031 A 
ATOM     35  C   UNL     1      -5.652  -3.974  -8.597  1.00  0.00     0.074 A 
ATOM     36  C   UNL     1      -4.410  -4.932  -6.712  1.00  0.00     0.049 A 
ATOM     37  N   UNL     1      -5.516  -4.924  -9.493  1.00  0.00    -0.248 NA
ATOM     38  C   UNL     1      -6.274  -2.752  -9.132  1.00  0.00     0.031 C 
ATOM     39  C   UNL     1      -3.843  -5.052  -5.371  1.00  0.00     0.029 A 
ATOM     40  N   UNL     1      -3.872  -6.006  -7.389  1.00  0.00    -0.354 N 
ATOM     41  C   UNL     1      -6.088  -4.439 -10.665  1.00  0.00     0.074 A 
ATOM     42  C   UNL     1      -6.552  -3.099 -10.381  1.00  0.00     0.031 C 
ATOM     43  C   UNL     1      -2.998  -6.090  -5.336  1.00  0.00     0.029 A 
ATOM     44  C   UNL     1      -3.074  -6.804  -6.605  1.00  0.00     0.049 A 
ATOM     45  H   UNL     1      -4.043  -6.185  -8.342  1.00  0.00     0.167 HD
ATOM     46  C   UNL     1      -6.233  -5.056 -11.864  1.00  0.00     0.037 A 
ATOM     47  C   UNL     1      -2.526  -8.015  -6.827  1.00  0.00     0.037 A 
ATOM     48  C   UNL     1      -5.743  -6.374 -12.179  1.00  0.00     0.049 A 
ATOM     49  C   UNL     1      -2.781  -8.727  -8.122  1.00  0.00     0.074 A 
ATOM     50  C   UNL     1      -5.863  -7.080 -13.366  1.00  0.00     0.029 A 
ATOM     51  N   UNL     1      -5.029  -7.181 -11.309  1.00  0.00    -0.354 N 
ATOM     52  N   UNL     1      -3.439  -8.315  -9.176  1.00  0.00    -0.248 NA
ATOM     53  C   UNL     1      -2.252 -10.094  -8.240  1.00  0.00     0.031 C 
ATOM     54  C   UNL     1      -5.254  -8.329 -13.201  1.00  0.00     0.029 A 
ATOM     55  C   UNL     1      -4.715  -8.382 -11.928  1.00  0.00     0.049 A 
ATOM     56  H   UNL     1      -4.780  -6.938 -10.388  1.00  0.00     0.167 HD
ATOM     57  C   UNL     1      -3.408  -9.368 -10.079  1.00  0.00     0.074 A 
ATOM     58  C   UNL     1      -2.645 -10.431  -9.460  1.00  0.00     0.031 C 
ATOM     59  C   UNL     1      -3.972  -9.446 -11.308  1.00  0.00     0.037 A 
BRANCH  46  60
ATOM     60  C   UNL     1      -7.000  -4.338 -12.937  1.00  0.00     0.064 A 
ATOM     61  C   UNL     1      -6.438  -3.289 -13.678  1.00  0.00     0.173 A 
ATOM     62  C   UNL     1      -8.290  -4.771 -13.284  1.00  0.00     0.173 A 
ATOM     63  F   UNL     1      -5.214  -2.830 -13.376  1.00  0.00    -0.203 F 
ATOM     64  C   UNL     1      -7.143  -2.697 -14.725  1.00  0.00     0.198 A 
ATOM     65  C   UNL     1      -8.982  -4.192 -14.344  1.00  0.00     0.198 A 
ATOM     66  F   UNL     1      -8.869  -5.775 -12.608  1.00  0.00    -0.203 F 
ATOM     67  F   UNL     1      -6.596  -1.682 -15.408  1.00  0.00    -0.200 F 
ATOM     68  C   UNL     1      -8.408  -3.155 -15.063  1.00  0.00     0.200 A 
ATOM     69  F   UNL     1     -10.198  -4.646 -14.677  1.00  0.00    -0.200 F 
ATOM     70  F   UNL     1      -9.075  -2.597 -16.082  1.00  0.00    -0.200 F 
ENDBRANCH  46  60
BRANCH  47  71
ATOM     71  C   UNL     1      -1.764  -8.678  -5.735  1.00  0.00     0.064 A 
ATOM     72  C   UNL     1      -0.382  -8.877  -5.829  1.00  0.00     0.173 A 
ATOM     73  C   UNL     1      -2.409  -9.101  -4.561  1.00  0.00     0.173 A 
ATOM     74  F   UNL     1       0.271  -8.527  -6.947  1.00  0.00    -0.203 F 
ATOM     75  C   UNL     1       0.331  -9.461  -4.784  1.00  0.00     0.198 A 
ATOM     76  C   UNL     1      -1.691  -9.650  -3.503  1.00  0.00     0.198 A 
ATOM     77  F   UNL     1      -3.734  -8.944  -4.429  1.00  0.00    -0.203 F 
ATOM     78  F   UNL     1       1.649  -9.668  -4.907  1.00  0.00    -0.200 F 
ATOM     79  C   UNL     1      -0.322  -9.832  -3.616  1.00  0.00     0.200 A 
ATOM     80  F   UNL     1      -2.324  -9.991  -2.373  1.00  0.00    -0.200 F 
ATOM     81  F   UNL     1       0.369 -10.370  -2.602  1.00  0.00    -0.200 F 
ENDBRANCH  47  71
BRANCH  59  82
ATOM     82  C   UNL     1      -3.770 -10.718 -12.074  1.00  0.00     0.064 A 
ATOM     83  C   UNL     1      -4.453 -11.894 -11.733  1.00  0.00     0.173 A 
ATOM     84  C   UNL     1      -2.886 -10.762 -13.162  1.00  0.00     0.173 A 
ATOM     85  F   UNL     1      -5.296 -11.906 -10.689  1.00  0.00    -0.203 F 
ATOM     86  C   UNL     1      -4.237 -13.076 -12.436  1.00  0.00     0.198 A 
ATOM     87  C   UNL     1      -2.689 -11.940 -13.877  1.00  0.00     0.198 A 
ATOM     88  F   UNL     1      -2.211  -9.662 -13.530  1.00  0.00    -0.203 F 
ATOM     89  F   UNL     1      -4.863 -14.201 -12.062  1.00  0.00    -0.200 F 
ATOM     90  C   UNL     1      -3.358 -13.098 -13.509  1.00  0.00     0.200 A 
ATOM     91  F   UNL     1      -1.845 -11.957 -14.918  1.00  0.00    -0.200 F 
ATOM     92  F   UNL     1      -3.146 -14.238 -14.181  1.00  0.00    -0.200 F 
ENDBRANCH  59  82
ENDBRANCH  33  34
ENDBRANCH  26  28
ENDBRANCH  25  26
ENDBRANCH  24  25
ENDBRANCH  23  24
ENDBRANCH   1  23
TORSDOF 17
