REMARK SMILES O=C(OCCOC(=O)c1ccc2c(c1)NC1=[NH+]S(=O)(=O)[NH+]=C1N2)c1ccc(-c2c3nc(c(-c4c(F)c(F)c(F)c(F)c4F)c4ccc([nH]4)c(-c4c(F)c(F)c(F)c(F)c4F)c4nc(c(-c5c(F)c(F)c(F)c(F)c5F)c5ccc2[nH]5)C=C4)C=C3)cc1
REMARK SMILES IDX 4 1 3 2 2 3 1 4 24 5 25 6 86 7 26 8 85 9 27 10 28 11 29 12
REMARK SMILES IDX 79 13 30 14 84 15 78 16 80 17 31 18 83 19 77 20 76 21 32 23
REMARK SMILES IDX 64 24 44 25 63 26 45 27 48 28 62 29 81 30 46 31 47 32 61 34
REMARK SMILES IDX 82 35 49 36 33 37 34 38 42 39 35 40 36 41 40 42 43 43 37 44
REMARK SMILES IDX 38 45 41 46 39 47 65 48 66 49 74 50 67 51 68 52 72 53 75 54
REMARK SMILES IDX 69 55 70 56 73 57 71 58 50 59 51 60 59 61 52 62 53 63 57 64
REMARK SMILES IDX 60 65 54 66 55 67 58 68 56 69 5 70 6 71 7 72 8 73 9 74 10 75
REMARK SMILES IDX 14 76 11 77 13 78 12 79 15 80 23 81 16 82 22 84 17 86 21 87
REMARK SMILES IDX 18 88 19 91 20 92
REMARK H PARENT 80 22 48 33 15 83 23 85 17 89 21 90
REMARK Flexibility Score: inf
ROOT
ATOM      1  C   UNL     1       3.305  -1.629   0.571  1.00  0.00     0.275 C 
ENDROOT
BRANCH   1   2
ATOM      2  O   UNL     1       3.114  -0.493   1.464  1.00  0.00    -0.458 OA
BRANCH   2   3
ATOM      3  C   UNL     1       3.628   0.758   1.324  1.00  0.00     0.338 C 
ATOM      4  O   UNL     1       3.222   1.715   1.970  1.00  0.00    -0.246 OA
BRANCH   3   5
ATOM      5  C   UNL     1       4.592   0.951   0.231  1.00  0.00     0.060 A 
ATOM      6  C   UNL     1       4.212   1.830  -0.777  1.00  0.00     0.016 A 
ATOM      7  C   UNL     1       5.700   0.115   0.084  1.00  0.00     0.016 A 
ATOM      8  C   UNL     1       4.739   1.638  -2.037  1.00  0.00     0.010 A 
ATOM      9  C   UNL     1       6.237  -0.068  -1.183  1.00  0.00     0.010 A 
ATOM     10  C   UNL     1       5.677   0.617  -2.262  1.00  0.00    -0.014 A 
BRANCH  10  11
ATOM     11  C   UNL     1       6.139   0.441  -3.642  1.00  0.00     0.031 A 
ATOM     12  C   UNL     1       6.662   1.703  -4.240  1.00  0.00     0.074 A 
ATOM     13  C   UNL     1       6.179  -0.740  -4.295  1.00  0.00     0.049 A 
ATOM     14  N   UNL     1       6.344   2.268  -5.362  1.00  0.00    -0.248 NA
ATOM     15  C   UNL     1       7.549   2.514  -3.382  1.00  0.00     0.031 C 
ATOM     16  C   UNL     1       5.894  -2.072  -3.758  1.00  0.00     0.029 A 
ATOM     17  N   UNL     1       6.598  -1.010  -5.570  1.00  0.00    -0.354 N 
ATOM     18  C   UNL     1       7.116   3.425  -5.416  1.00  0.00     0.074 A 
ATOM     19  C   UNL     1       7.703   3.610  -4.116  1.00  0.00     0.031 C 
ATOM     20  C   UNL     1       6.369  -3.008  -4.608  1.00  0.00     0.029 A 
ATOM     21  C   UNL     1       6.909  -2.349  -5.784  1.00  0.00     0.049 A 
ATOM     22  H   UNL     1       6.671  -0.322  -6.270  1.00  0.00     0.167 HD
ATOM     23  C   UNL     1       7.433   4.040  -6.583  1.00  0.00     0.037 A 
ATOM     24  C   UNL     1       7.654  -2.863  -6.796  1.00  0.00     0.037 A 
ATOM     25  C   UNL     1       6.508   3.743  -7.634  1.00  0.00     0.049 A 
ATOM     26  C   UNL     1       7.703  -1.854  -7.879  1.00  0.00     0.074 A 
ATOM     27  C   UNL     1       5.174   4.013  -7.857  1.00  0.00     0.029 A 
ATOM     28  N   UNL     1       6.861   2.786  -8.548  1.00  0.00    -0.354 N 
ATOM     29  N   UNL     1       6.699  -1.535  -8.643  1.00  0.00    -0.248 NA
ATOM     30  C   UNL     1       8.819  -0.919  -7.892  1.00  0.00     0.031 C 
ATOM     31  C   UNL     1       4.684   2.910  -8.611  1.00  0.00     0.029 A 
ATOM     32  C   UNL     1       5.749   2.035  -8.826  1.00  0.00     0.049 A 
ATOM     33  H   UNL     1       7.757   2.660  -8.937  1.00  0.00     0.167 HD
ATOM     34  C   UNL     1       6.867  -0.184  -8.895  1.00  0.00     0.074 A 
ATOM     35  C   UNL     1       8.245   0.106  -8.522  1.00  0.00     0.031 C 
ATOM     36  C   UNL     1       5.789   0.621  -9.115  1.00  0.00     0.037 A 
BRANCH  23  37
ATOM     37  C   UNL     1       8.795   4.635  -6.809  1.00  0.00     0.064 A 
ATOM     38  C   UNL     1       9.015   5.533  -7.864  1.00  0.00     0.173 A 
ATOM     39  C   UNL     1       9.954   4.152  -6.158  1.00  0.00     0.173 A 
ATOM     40  F   UNL     1       7.987   5.995  -8.591  1.00  0.00    -0.203 F 
ATOM     41  C   UNL     1      10.307   5.917  -8.239  1.00  0.00     0.198 A 
ATOM     42  C   UNL     1      11.233   4.585  -6.490  1.00  0.00     0.198 A 
ATOM     43  F   UNL     1       9.896   3.167  -5.251  1.00  0.00    -0.203 F 
ATOM     44  F   UNL     1      10.483   6.700  -9.311  1.00  0.00    -0.200 F 
ATOM     45  C   UNL     1      11.412   5.452  -7.545  1.00  0.00     0.200 A 
ATOM     46  F   UNL     1      12.288   4.097  -5.822  1.00  0.00    -0.200 F 
ATOM     47  F   UNL     1      12.650   5.795  -7.923  1.00  0.00    -0.200 F 
ENDBRANCH  23  37
BRANCH  24  48
ATOM     48  C   UNL     1       8.588  -4.021  -6.774  1.00  0.00     0.064 A 
ATOM     49  C   UNL     1       9.108  -4.548  -7.970  1.00  0.00     0.173 A 
ATOM     50  C   UNL     1       9.213  -4.448  -5.586  1.00  0.00     0.173 A 
ATOM     51  F   UNL     1       8.602  -4.169  -9.152  1.00  0.00    -0.203 F 
ATOM     52  C   UNL     1      10.211  -5.410  -7.978  1.00  0.00     0.198 A 
ATOM     53  C   UNL     1      10.302  -5.320  -5.594  1.00  0.00     0.198 A 
ATOM     54  F   UNL     1       8.850  -3.953  -4.395  1.00  0.00    -0.203 F 
ATOM     55  F   UNL     1      10.727  -5.825  -9.143  1.00  0.00    -0.200 F 
ATOM     56  C   UNL     1      10.814  -5.785  -6.790  1.00  0.00     0.200 A 
ATOM     57  F   UNL     1      10.895  -5.650  -4.438  1.00  0.00    -0.200 F 
ATOM     58  F   UNL     1      11.911  -6.556  -6.798  1.00  0.00    -0.200 F 
ENDBRANCH  24  48
BRANCH  36  59
ATOM     59  C   UNL     1       4.481  -0.047  -9.436  1.00  0.00     0.064 A 
ATOM     60  C   UNL     1       3.789  -0.888  -8.547  1.00  0.00     0.173 A 
ATOM     61  C   UNL     1       3.846   0.286 -10.640  1.00  0.00     0.173 A 
ATOM     62  F   UNL     1       4.288  -1.172  -7.337  1.00  0.00    -0.203 F 
ATOM     63  C   UNL     1       2.536  -1.404  -8.875  1.00  0.00     0.198 A 
ATOM     64  C   UNL     1       2.577  -0.197 -10.945  1.00  0.00     0.198 A 
ATOM     65  F   UNL     1       4.439   1.128 -11.502  1.00  0.00    -0.203 F 
ATOM     66  F   UNL     1       1.899  -2.217  -8.019  1.00  0.00    -0.200 F 
ATOM     67  C   UNL     1       1.927  -1.050 -10.068  1.00  0.00     0.200 A 
ATOM     68  F   UNL     1       1.972   0.190 -12.077  1.00  0.00    -0.200 F 
ATOM     69  F   UNL     1       0.701  -1.506 -10.361  1.00  0.00    -0.200 F 
ENDBRANCH  36  59
ENDBRANCH  10  11
ENDBRANCH   3   5
ENDBRANCH   2   3
ENDBRANCH   1   2
BRANCH   1  70
ATOM     70  C   UNL     1       2.734  -1.503  -0.851  1.00  0.00     0.275 C 
BRANCH  70  71
ATOM     71  O   UNL     1       2.054  -0.262  -1.040  1.00  0.00    -0.458 OA
BRANCH  71  72
ATOM     72  C   UNL     1       1.463  -0.099  -2.248  1.00  0.00     0.338 C 
ATOM     73  O   UNL     1       1.302  -0.945  -3.109  1.00  0.00    -0.246 OA
BRANCH  72  74
ATOM     74  C   UNL     1       1.214   1.348  -2.422  1.00  0.00     0.064 A 
ATOM     75  C   UNL     1       1.655   1.971  -3.596  1.00  0.00     0.020 A 
ATOM     76  C   UNL     1       0.661   2.103  -1.380  1.00  0.00     0.072 A 
ATOM     77  C   UNL     1       1.592   3.362  -3.713  1.00  0.00     0.057 A 
ATOM     78  C   UNL     1       0.572   3.491  -1.499  1.00  0.00     0.173 A 
ATOM     79  C   UNL     1       1.056   4.132  -2.675  1.00  0.00     0.172 A 
ATOM     80  N   UNL     1       0.018   4.255  -0.455  1.00  0.00    -0.229 N 
ATOM     81  N   UNL     1       0.994   5.534  -2.786  1.00  0.00    -0.229 N 
ATOM     82  C   UNL     1      -0.109   5.612  -0.560  1.00  0.00     0.383 C 
ATOM     83  H   UNL     1      -0.284   3.804   0.366  1.00  0.00     0.313 HD
ATOM     84  C   UNL     1       0.420   6.298  -1.806  1.00  0.00     0.383 C 
ATOM     85  H   UNL     1       1.369   5.973  -3.583  1.00  0.00     0.313 HD
ATOM     86  N   UNL     1      -0.633   6.435   0.276  1.00  0.00    -0.122 N 
ATOM     87  N   UNL     1       0.249   7.572  -1.781  1.00  0.00    -0.122 N 
ATOM     88  S   UNL     1      -0.513   7.931  -0.376  1.00  0.00     0.469 S 
ATOM     89  H   UNL     1      -1.033   6.208   1.147  1.00  0.00     0.331 HD
ATOM     90  H   UNL     1       0.525   8.212  -2.476  1.00  0.00     0.331 HD
ATOM     91  O   UNL     1      -1.855   8.392  -0.700  1.00  0.00    -0.143 OA
ATOM     92  O   UNL     1       0.369   8.721   0.439  1.00  0.00    -0.143 OA
ENDBRANCH  72  74
ENDBRANCH  71  72
ENDBRANCH  70  71
ENDBRANCH   1  70
TORSDOF 11
