REMARK SMILES CC(C)(C)c1csc(NC(=O)Cn2cccc2C(=O)OCCOC(=O)c2ccc(-c3c4nc(c(-c5c(F)c(F)c(F)c(F)c5F)c5ccc([nH]5)c(-c5c(F)c(F)c(F)c(F)c5F)c5nc(c(-c6c(F)c(F)c(F)c(F)c6F)c6ccc3[nH]6)C=C5)C=C4)cc2)n1
REMARK SMILES IDX 21 1 20 2 18 3 19 4 17 5 13 6 14 7 15 8 16 9 12 10 10 11
REMARK SMILES IDX 9 12 11 14 8 15 5 16 6 17 89 18 7 19 2 20 1 21 3 22 4 23
REMARK SMILES IDX 22 24 23 25 24 26 25 27 26 28 27 29 88 30 28 31 87 32 29 33
REMARK SMILES IDX 30 34 31 35 81 36 32 37 86 38 80 39 82 40 33 41 85 42 79 43
REMARK SMILES IDX 78 44 34 46 66 47 46 48 65 49 47 50 50 51 64 52 83 53 48 54
REMARK SMILES IDX 49 55 63 57 84 58 51 59 35 60 36 61 44 62 37 63 38 64 42 65
REMARK SMILES IDX 45 66 39 67 40 68 43 69 41 70 67 71 68 72 76 73 69 74 70 75
REMARK SMILES IDX 74 76 77 77 71 78 72 79 75 80 73 81 52 82 53 83 61 84 54 85
REMARK SMILES IDX 55 86 59 87 62 88 56 89 57 90 60 91 58 92
REMARK H PARENT 9 13 82 45 50 56
REMARK Flexibility Score: inf
ROOT
ATOM      1  C   UNL     1       1.251  10.568   2.906  1.00  0.00     0.275 C 
ENDROOT
BRANCH   1   2
ATOM      2  O   UNL     1       1.681   9.216   2.677  1.00  0.00    -0.457 OA
BRANCH   2   3
ATOM      3  C   UNL     1       1.795   8.451   3.802  1.00  0.00     0.355 C 
ATOM      4  O   UNL     1       1.722   8.882   4.931  1.00  0.00    -0.244 OA
BRANCH   3   5
ATOM      5  C   UNL     1       1.927   7.037   3.476  1.00  0.00     0.128 A 
ATOM      6  N   UNL     1       2.228   6.401   2.281  1.00  0.00    -0.333 N 
ATOM      7  C   UNL     1       2.383   5.053   2.532  1.00  0.00     0.087 A 
ATOM      8  C   UNL     1       1.984   4.784   3.815  1.00  0.00     0.020 A 
ATOM      9  C   UNL     1       1.708   6.025   4.410  1.00  0.00     0.035 A 
BRANCH   6  10
ATOM     10  C   UNL     1       2.478   6.997   0.968  1.00  0.00     0.222 C 
BRANCH  10  11
ATOM     11  C   UNL     1       1.242   7.053   0.077  1.00  0.00     0.246 C 
ATOM     12  N   UNL     1       0.647   5.939  -0.443  1.00  0.00    -0.300 N 
ATOM     13  H   UNL     1      -0.286   6.072  -0.725  1.00  0.00     0.172 HD
ATOM     14  O   UNL     1       0.722   8.146  -0.185  1.00  0.00    -0.273 OA
BRANCH  12  15
ATOM     15  C   UNL     1       1.118   4.670  -0.641  1.00  0.00     0.189 A 
ATOM     16  C   UNL     1       1.081   2.468  -0.919  1.00  0.00     0.059 A 
ATOM     17  C   UNL     1       2.448   2.690  -0.953  1.00  0.00     0.093 A 
ATOM     18  N   UNL     1       0.328   3.631  -0.779  1.00  0.00    -0.224 NA
ATOM     19  S   UNL     1       2.765   4.368  -0.967  1.00  0.00    -0.105 S 
BRANCH  16  20
ATOM     20  C   UNL     1       0.395   1.117  -1.076  1.00  0.00     0.005 C 
ATOM     21  C   UNL     1       0.878   0.128   0.005  1.00  0.00     0.017 C 
ATOM     22  C   UNL     1       0.733   0.543  -2.468  1.00  0.00     0.017 C 
ATOM     23  C   UNL     1      -1.137   1.230  -0.962  1.00  0.00     0.017 C 
ENDBRANCH  16  20
ENDBRANCH  12  15
ENDBRANCH  10  11
ENDBRANCH   6  10
ENDBRANCH   3   5
ENDBRANCH   2   3
ENDBRANCH   1   2
BRANCH   1  24
ATOM     24  C   UNL     1      -0.271  10.713   2.853  1.00  0.00     0.275 C 
BRANCH  24  25
ATOM     25  O   UNL     1      -0.967   9.972   3.863  1.00  0.00    -0.458 OA
BRANCH  25  26
ATOM     26  C   UNL     1      -1.283   8.712   3.487  1.00  0.00     0.338 C 
ATOM     27  O   UNL     1      -0.828   8.085   2.543  1.00  0.00    -0.246 OA
BRANCH  26  28
ATOM     28  C   UNL     1      -2.413   8.187   4.256  1.00  0.00     0.060 A 
ATOM     29  C   UNL     1      -2.574   6.798   4.271  1.00  0.00     0.016 A 
ATOM     30  C   UNL     1      -3.423   9.048   4.702  1.00  0.00     0.016 A 
ATOM     31  C   UNL     1      -3.792   6.265   4.643  1.00  0.00     0.010 A 
ATOM     32  C   UNL     1      -4.653   8.515   5.055  1.00  0.00     0.010 A 
ATOM     33  C   UNL     1      -4.838   7.127   4.995  1.00  0.00    -0.014 A 
BRANCH  33  34
ATOM     34  C   UNL     1      -6.103   6.514   5.431  1.00  0.00     0.031 A 
ATOM     35  C   UNL     1      -6.064   6.146   6.912  1.00  0.00     0.074 A 
ATOM     36  C   UNL     1      -7.055   6.319   4.470  1.00  0.00     0.049 A 
ATOM     37  N   UNL     1      -6.743   5.248   7.557  1.00  0.00    -0.248 NA
ATOM     38  C   UNL     1      -5.084   6.826   7.804  1.00  0.00     0.031 C 
ATOM     39  C   UNL     1      -6.926   6.756   3.063  1.00  0.00     0.029 A 
ATOM     40  N   UNL     1      -8.301   5.720   4.458  1.00  0.00    -0.354 N 
ATOM     41  C   UNL     1      -6.439   5.402   8.924  1.00  0.00     0.074 A 
ATOM     42  C   UNL     1      -5.320   6.288   9.001  1.00  0.00     0.031 C 
ATOM     43  C   UNL     1      -7.991   6.361   2.335  1.00  0.00     0.029 A 
ATOM     44  C   UNL     1      -8.925   5.646   3.183  1.00  0.00     0.049 A 
ATOM     45  H   UNL     1      -8.726   5.370   5.274  1.00  0.00     0.167 HD
ATOM     46  C   UNL     1      -7.237   4.918   9.916  1.00  0.00     0.037 A 
ATOM     47  C   UNL     1     -10.100   5.038   2.827  1.00  0.00     0.037 A 
ATOM     48  C   UNL     1      -8.323   4.186   9.359  1.00  0.00     0.049 A 
ATOM     49  C   UNL     1     -10.733   4.639   4.089  1.00  0.00     0.074 A 
ATOM     50  C   UNL     1      -8.392   2.973   8.727  1.00  0.00     0.029 A 
ATOM     51  N   UNL     1      -9.485   4.881   9.132  1.00  0.00    -0.354 N 
ATOM     52  N   UNL     1     -11.289   5.472   4.915  1.00  0.00    -0.248 NA
ATOM     53  C   UNL     1     -10.752   3.223   4.470  1.00  0.00     0.031 C 
ATOM     54  C   UNL     1      -9.429   3.140   7.789  1.00  0.00     0.029 A 
ATOM     55  C   UNL     1     -10.048   4.380   7.988  1.00  0.00     0.049 A 
ATOM     56  H   UNL     1      -9.847   5.608   9.689  1.00  0.00     0.167 HD
ATOM     57  C   UNL     1     -11.391   4.719   6.058  1.00  0.00     0.074 A 
ATOM     58  C   UNL     1     -11.362   3.333   5.648  1.00  0.00     0.031 C 
ATOM     59  C   UNL     1     -10.906   5.245   7.211  1.00  0.00     0.037 A 
BRANCH  46  60
ATOM     60  C   UNL     1      -7.312   5.243  11.379  1.00  0.00     0.064 A 
ATOM     61  C   UNL     1      -8.013   4.347  12.222  1.00  0.00     0.173 A 
ATOM     62  C   UNL     1      -7.067   6.522  11.897  1.00  0.00     0.173 A 
ATOM     63  F   UNL     1      -8.263   3.087  11.829  1.00  0.00    -0.203 F 
ATOM     64  C   UNL     1      -8.557   4.752  13.438  1.00  0.00     0.198 A 
ATOM     65  C   UNL     1      -7.570   6.907  13.143  1.00  0.00     0.198 A 
ATOM     66  F   UNL     1      -6.440   7.458  11.175  1.00  0.00    -0.203 F 
ATOM     67  F   UNL     1      -9.343   3.915  14.130  1.00  0.00    -0.200 F 
ATOM     68  C   UNL     1      -8.350   6.040  13.890  1.00  0.00     0.200 A 
ATOM     69  F   UNL     1      -7.363   8.157  13.581  1.00  0.00    -0.200 F 
ATOM     70  F   UNL     1      -8.931   6.458  15.022  1.00  0.00    -0.200 F 
ENDBRANCH  46  60
BRANCH  47  71
ATOM     71  C   UNL     1     -10.882   4.671   1.582  1.00  0.00     0.064 A 
ATOM     72  C   UNL     1     -10.440   4.806   0.262  1.00  0.00     0.173 A 
ATOM     73  C   UNL     1     -12.133   3.992   1.710  1.00  0.00     0.173 A 
ATOM     74  F   UNL     1      -9.321   5.475  -0.029  1.00  0.00    -0.203 F 
ATOM     75  C   UNL     1     -11.134   4.229  -0.819  1.00  0.00     0.198 A 
ATOM     76  C   UNL     1     -12.787   3.369   0.648  1.00  0.00     0.198 A 
ATOM     77  F   UNL     1     -12.762   3.887   2.889  1.00  0.00    -0.203 F 
ATOM     78  F   UNL     1     -10.664   4.382  -2.065  1.00  0.00    -0.200 F 
ATOM     79  C   UNL     1     -12.279   3.476  -0.621  1.00  0.00     0.200 A 
ATOM     80  F   UNL     1     -13.890   2.641   0.881  1.00  0.00    -0.200 F 
ATOM     81  F   UNL     1     -12.886   2.860  -1.644  1.00  0.00    -0.200 F 
ENDBRANCH  47  71
BRANCH  59  82
ATOM     82  C   UNL     1     -10.934   6.767   7.224  1.00  0.00     0.064 A 
ATOM     83  C   UNL     1     -12.153   7.446   7.055  1.00  0.00     0.173 A 
ATOM     84  C   UNL     1      -9.782   7.570   7.217  1.00  0.00     0.173 A 
ATOM     85  F   UNL     1     -13.308   6.762   7.076  1.00  0.00    -0.203 F 
ATOM     86  C   UNL     1     -12.205   8.827   6.842  1.00  0.00     0.198 A 
ATOM     87  C   UNL     1      -9.829   8.950   7.009  1.00  0.00     0.198 A 
ATOM     88  F   UNL     1      -8.581   7.033   7.412  1.00  0.00    -0.203 F 
ATOM     89  F   UNL     1     -13.388   9.431   6.663  1.00  0.00    -0.200 F 
ATOM     90  C   UNL     1     -11.042   9.578   6.809  1.00  0.00     0.200 A 
ATOM     91  F   UNL     1      -8.694   9.666   7.003  1.00  0.00    -0.200 F 
ATOM     92  F   UNL     1     -11.091  10.902   6.603  1.00  0.00    -0.200 F 
ENDBRANCH  59  82
ENDBRANCH  33  34
ENDBRANCH  26  28
ENDBRANCH  25  26
ENDBRANCH  24  25
ENDBRANCH   1  24
TORSDOF 15
