REMARK SMILES C[C@H](NC(=O)c1cccc(NC(=O)/C=C/C(=O)OCCOC(=O)c2ccc(-c3c4nc(c(-c5c(F)c(F)c(F)c(F)c5F)c5ccc([nH]5)c(-c5c(F)c(F)c(F)c(F)c5F)c5nc(c(-c6c(F)c(F)c(F)c(F)c6F)c6ccc3[nH]6)C=C5)C=C4)cc2)c1)c1ccccc1
REMARK SMILES IDX 18 1 16 2 17 3 15 4 14 5 12 6 11 7 13 9 10 10 6 11 7 12
REMARK SMILES IDX 87 13 8 14 9 15 4 16 3 17 5 19 2 20 1 21 88 22 89 23 93 24
REMARK SMILES IDX 90 25 92 26 91 27 19 28 20 29 21 30 22 31 23 32 24 33 25 34
REMARK SMILES IDX 86 35 26 36 85 37 27 38 28 39 29 40 79 41 30 42 84 43 78 44
REMARK SMILES IDX 80 45 31 46 83 47 77 48 76 49 32 51 64 52 44 53 63 54 45 55
REMARK SMILES IDX 48 56 62 57 81 58 46 59 47 60 61 62 82 63 49 64 33 65 34 66
REMARK SMILES IDX 42 67 35 68 36 69 40 70 43 71 37 72 38 73 41 74 39 75 65 76
REMARK SMILES IDX 66 77 74 78 67 79 68 80 72 81 75 82 69 83 70 84 73 85 71 86
REMARK SMILES IDX 50 87 51 88 59 89 52 90 53 91 57 92 60 93 54 94 55 95 58 96
REMARK SMILES IDX 56 97
REMARK H PARENT 11 8 3 18 80 50 48 61
REMARK Flexibility Score: inf
ROOT
ATOM      1  O   UNL     1       8.518  -5.697   0.534  1.00  0.00    -0.459 OA
ENDROOT
BRANCH   1   2
ATOM      2  C   UNL     1       7.202  -5.478   0.337  1.00  0.00     0.331 C 
ATOM      3  O   UNL     1       6.285  -5.772   1.078  1.00  0.00    -0.247 OA
BRANCH   2   4
ATOM      4  C   UNL     1       7.009  -4.770  -0.936  1.00  0.00     0.099 C 
ATOM      5  C   UNL     1       6.216  -5.362  -1.839  1.00  0.00     0.079 C 
BRANCH   5   6
ATOM      6  C   UNL     1       5.675  -4.599  -2.978  1.00  0.00     0.248 C 
ATOM      7  N   UNL     1       4.816  -3.553  -2.761  1.00  0.00    -0.322 N 
ATOM      8  H   UNL     1       4.594  -3.040  -3.572  1.00  0.00     0.170 HD
ATOM      9  O   UNL     1       5.991  -4.921  -4.121  1.00  0.00    -0.270 OA
BRANCH   7  10
ATOM     10  C   UNL     1       4.191  -3.075  -1.591  1.00  0.00     0.042 A 
ATOM     11  C   UNL     1       3.028  -1.293  -0.470  1.00  0.00     0.041 A 
ATOM     12  C   UNL     1       3.140  -1.948   0.755  1.00  0.00     0.014 A 
ATOM     13  C   UNL     1       3.588  -1.815  -1.637  1.00  0.00     0.040 A 
ATOM     14  C   UNL     1       3.642  -3.236   0.779  1.00  0.00     0.003 A 
ATOM     15  C   UNL     1       4.109  -3.807  -0.401  1.00  0.00     0.026 A 
BRANCH  11  16
ATOM     16  C   UNL     1       2.174  -0.106  -0.491  1.00  0.00     0.251 C 
ATOM     17  N   UNL     1       0.812  -0.288  -0.498  1.00  0.00    -0.346 N 
ATOM     18  H   UNL     1       0.289   0.506  -0.244  1.00  0.00     0.164 HD
ATOM     19  O   UNL     1       2.684   1.004  -0.414  1.00  0.00    -0.269 OA
BRANCH  17  20
ATOM     20  C   UNL     1       0.005  -1.483  -0.826  1.00  0.00     0.109 C 
ATOM     21  C   UNL     1       0.286  -2.668   0.117  1.00  0.00     0.036 C 
BRANCH  20  22
ATOM     22  C   UNL     1      -1.506  -1.234  -0.867  1.00  0.00    -0.026 A 
ATOM     23  C   UNL     1      -2.111   0.013  -0.659  1.00  0.00     0.006 A 
ATOM     24  C   UNL     1      -2.362  -2.329  -1.121  1.00  0.00     0.006 A 
ATOM     25  C   UNL     1      -3.503   0.139  -0.615  1.00  0.00     0.000 A 
ATOM     26  C   UNL     1      -3.749  -2.212  -1.044  1.00  0.00     0.000 A 
ATOM     27  C   UNL     1      -4.320  -0.975  -0.779  1.00  0.00     0.000 A 
ENDBRANCH  20  22
ENDBRANCH  17  20
ENDBRANCH  11  16
ENDBRANCH   7  10
ENDBRANCH   5   6
ENDBRANCH   2   4
ENDBRANCH   1   2
BRANCH   1  28
ATOM     28  C   UNL     1       8.861  -6.301   1.795  1.00  0.00     0.275 C 
BRANCH  28  29
ATOM     29  C   UNL     1       9.570  -5.270   2.667  1.00  0.00     0.275 C 
BRANCH  29  30
ATOM     30  O   UNL     1       8.620  -4.304   3.162  1.00  0.00    -0.458 OA
BRANCH  30  31
ATOM     31  C   UNL     1       8.703  -3.061   2.637  1.00  0.00     0.338 C 
ATOM     32  O   UNL     1       9.488  -2.661   1.790  1.00  0.00    -0.246 OA
BRANCH  31  33
ATOM     33  C   UNL     1       7.662  -2.201   3.224  1.00  0.00     0.060 A 
ATOM     34  C   UNL     1       6.328  -2.517   3.013  1.00  0.00     0.016 A 
ATOM     35  C   UNL     1       8.000  -1.008   3.868  1.00  0.00     0.016 A 
ATOM     36  C   UNL     1       5.343  -1.594   3.372  1.00  0.00     0.010 A 
ATOM     37  C   UNL     1       6.992  -0.120   4.287  1.00  0.00     0.010 A 
ATOM     38  C   UNL     1       5.640  -0.372   3.998  1.00  0.00    -0.014 A 
BRANCH  38  39
ATOM     39  C   UNL     1       4.555   0.644   4.253  1.00  0.00     0.031 A 
ATOM     40  C   UNL     1       4.709   2.076   3.778  1.00  0.00     0.074 A 
ATOM     41  C   UNL     1       3.379   0.307   4.829  1.00  0.00     0.049 A 
ATOM     42  N   UNL     1       4.003   3.140   4.086  1.00  0.00    -0.248 NA
ATOM     43  C   UNL     1       5.807   2.348   2.838  1.00  0.00     0.031 C 
ATOM     44  C   UNL     1       3.002  -1.033   5.277  1.00  0.00     0.029 A 
ATOM     45  N   UNL     1       2.264   1.068   5.115  1.00  0.00    -0.354 N 
ATOM     46  C   UNL     1       4.608   4.208   3.430  1.00  0.00     0.074 A 
ATOM     47  C   UNL     1       5.740   3.666   2.709  1.00  0.00     0.031 C 
ATOM     48  C   UNL     1       1.730  -1.018   5.703  1.00  0.00     0.029 A 
ATOM     49  C   UNL     1       1.244   0.357   5.704  1.00  0.00     0.049 A 
ATOM     50  H   UNL     1       2.204   2.030   4.916  1.00  0.00     0.167 HD
ATOM     51  C   UNL     1       4.257   5.519   3.426  1.00  0.00     0.037 A 
ATOM     52  C   UNL     1       0.078   0.755   6.254  1.00  0.00     0.037 A 
ATOM     53  C   UNL     1       3.086   6.059   4.072  1.00  0.00     0.049 A 
ATOM     54  C   UNL     1      -0.260   2.220   6.304  1.00  0.00     0.074 A 
ATOM     55  C   UNL     1       2.673   7.380   4.155  1.00  0.00     0.029 A 
ATOM     56  N   UNL     1       2.118   5.302   4.713  1.00  0.00    -0.354 N 
ATOM     57  N   UNL     1       0.396   3.239   5.809  1.00  0.00    -0.248 NA
ATOM     58  C   UNL     1      -1.488   2.593   7.024  1.00  0.00     0.031 C 
ATOM     59  C   UNL     1       1.476   7.425   4.877  1.00  0.00     0.029 A 
ATOM     60  C   UNL     1       1.116   6.129   5.202  1.00  0.00     0.049 A 
ATOM     61  H   UNL     1       2.138   4.323   4.808  1.00  0.00     0.167 HD
ATOM     62  C   UNL     1      -0.335   4.368   6.152  1.00  0.00     0.074 A 
ATOM     63  C   UNL     1      -1.504   3.909   6.871  1.00  0.00     0.031 C 
ATOM     64  C   UNL     1      -0.052   5.670   5.907  1.00  0.00     0.037 A 
BRANCH  51  65
ATOM     65  C   UNL     1       5.177   6.490   2.738  1.00  0.00     0.064 A 
ATOM     66  C   UNL     1       5.274   6.571   1.342  1.00  0.00     0.173 A 
ATOM     67  C   UNL     1       5.937   7.394   3.499  1.00  0.00     0.173 A 
ATOM     68  F   UNL     1       4.576   5.729   0.566  1.00  0.00    -0.203 F 
ATOM     69  C   UNL     1       6.117   7.501   0.735  1.00  0.00     0.198 A 
ATOM     70  C   UNL     1       6.752   8.343   2.889  1.00  0.00     0.198 A 
ATOM     71  F   UNL     1       5.871   7.372   4.839  1.00  0.00    -0.203 F 
ATOM     72  F   UNL     1       6.227   7.532  -0.601  1.00  0.00    -0.200 F 
ATOM     73  C   UNL     1       6.848   8.390   1.508  1.00  0.00     0.200 A 
ATOM     74  F   UNL     1       7.442   9.214   3.639  1.00  0.00    -0.200 F 
ATOM     75  F   UNL     1       7.649   9.291   0.921  1.00  0.00    -0.200 F 
ENDBRANCH  51  65
BRANCH  52  76
ATOM     76  C   UNL     1      -0.817  -0.245   6.903  1.00  0.00     0.064 A 
ATOM     77  C   UNL     1      -2.106  -0.498   6.416  1.00  0.00     0.173 A 
ATOM     78  C   UNL     1      -0.403  -0.953   8.043  1.00  0.00     0.173 A 
ATOM     79  F   UNL     1      -2.567   0.179   5.354  1.00  0.00    -0.203 F 
ATOM     80  C   UNL     1      -2.948  -1.413   7.048  1.00  0.00     0.198 A 
ATOM     81  C   UNL     1      -1.227  -1.899   8.646  1.00  0.00     0.198 A 
ATOM     82  F   UNL     1       0.816  -0.742   8.561  1.00  0.00    -0.203 F 
ATOM     83  F   UNL     1      -4.196  -1.597   6.596  1.00  0.00    -0.200 F 
ATOM     84  C   UNL     1      -2.503  -2.121   8.155  1.00  0.00     0.200 A 
ATOM     85  F   UNL     1      -0.783  -2.593   9.703  1.00  0.00    -0.200 F 
ATOM     86  F   UNL     1      -3.307  -3.011   8.753  1.00  0.00    -0.200 F 
ENDBRANCH  52  76
BRANCH  64  87
ATOM     87  C   UNL     1      -1.041   6.694   6.385  1.00  0.00     0.064 A 
ATOM     88  C   UNL     1      -1.183   6.999   7.747  1.00  0.00     0.173 A 
ATOM     89  C   UNL     1      -1.839   7.395   5.469  1.00  0.00     0.173 A 
ATOM     90  F   UNL     1      -0.457   6.344   8.665  1.00  0.00    -0.203 F 
ATOM     91  C   UNL     1      -2.108   7.948   8.176  1.00  0.00     0.198 A 
ATOM     92  C   UNL     1      -2.743   8.363   5.899  1.00  0.00     0.198 A 
ATOM     93  F   UNL     1      -1.741   7.143   4.155  1.00  0.00    -0.203 F 
ATOM     94  F   UNL     1      -2.263   8.187   9.486  1.00  0.00    -0.200 F 
ATOM     95  C   UNL     1      -2.882   8.634   7.252  1.00  0.00     0.200 A 
ATOM     96  F   UNL     1      -3.483   9.031   5.004  1.00  0.00    -0.200 F 
ATOM     97  F   UNL     1      -3.770   9.548   7.666  1.00  0.00    -0.200 F 
ENDBRANCH  64  87
ENDBRANCH  38  39
ENDBRANCH  31  33
ENDBRANCH  30  31
ENDBRANCH  29  30
ENDBRANCH  28  29
ENDBRANCH   1  28
TORSDOF 16
