REMARK SMILES CC(=O)N[C@H]1[C@@H](Oc2ccc(C)c(C)c2)O[C@H]2CO[C@H](c3ccco3)O[C@@H]2[C@H]1OCC(=O)OCCOC(=O)c1ccc(-c2c3nc(c(-c4c(F)c(F)c(F)c(F)c4F)c4ccc([nH]4)c(-c4c(F)c(F)c(F)c(F)c4F)c4nc(c(-c5c(F)c(F)c(F)c(F)c5F)c5ccc2[nH]5)C=C4)C=C3)cc1
REMARK SMILES IDX 34 1 33 2 31 3 32 4 30 5 29 6 28 7 5 8 6 9 16 10 27 11 17 12
REMARK SMILES IDX 26 13 18 14 20 15 19 16 4 17 1 18 2 19 3 20 7 22 8 23 9 24
REMARK SMILES IDX 15 25 10 26 13 27 11 28 14 29 12 30 21 31 22 32 25 33 23 34
REMARK SMILES IDX 24 35 35 36 36 37 37 38 38 39 39 40 40 41 101 42 41 43
REMARK SMILES IDX 100 44 42 45 43 46 44 47 94 48 45 49 99 50 93 51 95 52 46 53
REMARK SMILES IDX 98 54 92 55 91 56 47 58 79 59 59 60 78 61 60 62 63 63 77 64
REMARK SMILES IDX 96 65 61 66 62 67 76 69 97 70 64 71 48 72 49 73 57 74 50 75
REMARK SMILES IDX 51 76 55 77 58 78 52 79 53 80 56 81 54 82 80 83 81 84 89 85
REMARK SMILES IDX 82 86 83 87 87 88 90 89 84 90 85 91 88 92 86 93 65 94 66 95
REMARK SMILES IDX 74 96 67 97 68 98 72 99 75 100 69 101 70 102 73 103 71 104
REMARK H PARENT 4 21 95 57 63 68
REMARK Flexibility Score: inf
ROOT
ATOM      1  C   UNL     1       6.897  -0.058  -2.220  1.00  0.00     0.274 C 
ENDROOT
BRANCH   1   2
ATOM      2  O   UNL     1       5.650  -0.333  -1.550  1.00  0.00    -0.460 OA
BRANCH   2   3
ATOM      3  C   UNL     1       5.445   0.348  -0.388  1.00  0.00     0.332 C 
ATOM      4  O   UNL     1       6.232   1.151   0.102  1.00  0.00    -0.250 OA
BRANCH   3   5
ATOM      5  C   UNL     1       4.117  -0.014   0.278  1.00  0.00     0.283 C 
BRANCH   5   6
ATOM      6  O   UNL     1       3.125  -0.734  -0.426  1.00  0.00    -0.361 OA
BRANCH   6   7
ATOM      7  C   UNL     1       2.391  -0.045  -1.444  1.00  0.00     0.179 C 
ATOM      8  C   UNL     1       1.631  -1.122  -2.255  1.00  0.00     0.182 C 
ATOM      9  C   UNL     1       0.764  -0.440  -3.384  1.00  0.00     0.333 C 
ATOM     10  O   UNL     1       0.003   0.702  -2.986  1.00  0.00    -0.332 OA
ATOM     11  C   UNL     1       1.348   0.997  -0.992  1.00  0.00     0.184 C 
ATOM     12  C   UNL     1       0.727   1.657  -2.226  1.00  0.00     0.180 C 
ATOM     13  O   UNL     1       1.853   1.985  -0.108  1.00  0.00    -0.337 OA
ATOM     14  C   UNL     1      -0.254   2.744  -1.773  1.00  0.00     0.199 C 
ATOM     15  C   UNL     1       0.764   2.806   0.328  1.00  0.00     0.319 C 
ATOM     16  O   UNL     1       0.303   3.590  -0.770  1.00  0.00    -0.343 OA
BRANCH   8  17
ATOM     17  N   UNL     1       0.936  -2.201  -1.480  1.00  0.00    -0.345 N 
ATOM     18  C   UNL     1       0.457  -1.504   0.910  1.00  0.00     0.114 C 
ATOM     19  C   UNL     1       0.452  -2.465  -0.244  1.00  0.00     0.217 C 
ATOM     20  O   UNL     1      -0.073  -3.573  -0.082  1.00  0.00    -0.275 OA
ATOM     21  H   UNL     1       0.779  -2.977  -2.066  1.00  0.00     0.164 HD
ENDBRANCH   8  17
BRANCH   9  22
ATOM     22  O   UNL     1      -0.017  -1.374  -4.150  1.00  0.00    -0.463 OA
BRANCH  22  23
ATOM     23  C   UNL     1      -1.176  -1.890  -3.636  1.00  0.00     0.123 A 
ATOM     24  C   UNL     1      -1.835  -1.466  -2.487  1.00  0.00     0.047 A 
ATOM     25  C   UNL     1      -1.693  -2.983  -4.335  1.00  0.00     0.050 A 
ATOM     26  C   UNL     1      -2.905  -2.199  -1.972  1.00  0.00     0.007 A 
ATOM     27  C   UNL     1      -2.790  -3.719  -3.845  1.00  0.00    -0.045 A 
ATOM     28  C   UNL     1      -3.365  -3.354  -2.616  1.00  0.00    -0.048 A 
ATOM     29  C   UNL     1      -3.290  -4.871  -4.673  1.00  0.00     0.045 C 
ATOM     30  C   UNL     1      -4.448  -4.159  -1.955  1.00  0.00     0.044 C 
ENDBRANCH  22  23
ENDBRANCH   9  22
BRANCH  15  31
ATOM     31  C   UNL     1       1.233   3.716   1.405  1.00  0.00     0.159 A 
ATOM     32  C   UNL     1       0.770   4.928   1.882  1.00  0.00     0.051 A 
ATOM     33  O   UNL     1       2.303   3.309   2.156  1.00  0.00    -0.464 OA
ATOM     34  C   UNL     1       1.609   5.285   2.964  1.00  0.00     0.042 A 
ATOM     35  C   UNL     1       2.530   4.272   3.086  1.00  0.00     0.195 A 
ENDBRANCH  15  31
ENDBRANCH   6   7
ENDBRANCH   5   6
ENDBRANCH   3   5
ENDBRANCH   2   3
ENDBRANCH   1   2
BRANCH   1  36
ATOM     36  C   UNL     1       6.666   0.847  -3.428  1.00  0.00     0.275 C 
BRANCH  36  37
ATOM     37  O   UNL     1       6.080   2.090  -3.001  1.00  0.00    -0.458 OA
BRANCH  37  38
ATOM     38  C   UNL     1       4.910   2.432  -3.588  1.00  0.00     0.338 C 
ATOM     39  O   UNL     1       4.314   1.836  -4.468  1.00  0.00    -0.246 OA
BRANCH  38  40
ATOM     40  C   UNL     1       4.371   3.648  -2.953  1.00  0.00     0.060 A 
ATOM     41  C   UNL     1       4.220   3.690  -1.572  1.00  0.00     0.016 A 
ATOM     42  C   UNL     1       3.880   4.694  -3.739  1.00  0.00     0.016 A 
ATOM     43  C   UNL     1       3.515   4.739  -0.988  1.00  0.00     0.010 A 
ATOM     44  C   UNL     1       3.234   5.783  -3.132  1.00  0.00     0.010 A 
ATOM     45  C   UNL     1       2.998   5.800  -1.748  1.00  0.00    -0.014 A 
BRANCH  45  46
ATOM     46  C   UNL     1       2.179   6.866  -1.086  1.00  0.00     0.031 A 
ATOM     47  C   UNL     1       0.759   7.150  -1.523  1.00  0.00     0.074 A 
ATOM     48  C   UNL     1       2.664   7.538  -0.021  1.00  0.00     0.049 A 
ATOM     49  N   UNL     1      -0.080   8.062  -1.088  1.00  0.00    -0.248 NA
ATOM     50  C   UNL     1       0.206   6.305  -2.590  1.00  0.00     0.031 C 
ATOM     51  C   UNL     1       3.990   7.348   0.565  1.00  0.00     0.029 A 
ATOM     52  N   UNL     1       2.082   8.488   0.786  1.00  0.00    -0.354 N 
ATOM     53  C   UNL     1      -1.232   7.924  -1.853  1.00  0.00     0.074 A 
ATOM     54  C   UNL     1      -0.995   6.834  -2.774  1.00  0.00     0.031 C 
ATOM     55  C   UNL     1       4.086   8.079   1.685  1.00  0.00     0.029 A 
ATOM     56  C   UNL     1       2.870   8.869   1.844  1.00  0.00     0.049 A 
ATOM     57  H   UNL     1       1.185   8.860   0.620  1.00  0.00     0.167 HD
ATOM     58  C   UNL     1      -2.381   8.642  -1.806  1.00  0.00     0.037 A 
ATOM     59  C   UNL     1       2.659   9.768   2.825  1.00  0.00     0.037 A 
ATOM     60  C   UNL     1      -2.645   9.717  -0.886  1.00  0.00     0.049 A 
ATOM     61  C   UNL     1       1.399  10.585   2.828  1.00  0.00     0.074 A 
ATOM     62  C   UNL     1      -3.772  10.518  -0.792  1.00  0.00     0.029 A 
ATOM     63  N   UNL     1      -1.775  10.138   0.107  1.00  0.00    -0.354 N 
ATOM     64  N   UNL     1       0.351  10.493   2.049  1.00  0.00    -0.248 NA
ATOM     65  C   UNL     1       1.314  11.661   3.827  1.00  0.00     0.031 C 
ATOM     66  C   UNL     1      -3.566  11.450   0.232  1.00  0.00     0.029 A 
ATOM     67  C   UNL     1      -2.329  11.202   0.802  1.00  0.00     0.049 A 
ATOM     68  H   UNL     1      -0.893   9.741   0.291  1.00  0.00     0.167 HD
ATOM     69  C   UNL     1      -0.503  11.514   2.440  1.00  0.00     0.074 A 
ATOM     70  C   UNL     1       0.123  12.180   3.563  1.00  0.00     0.031 C 
ATOM     71  C   UNL     1      -1.689  11.881   1.898  1.00  0.00     0.037 A 
BRANCH  58  72
ATOM     72  C   UNL     1      -3.435   8.326  -2.826  1.00  0.00     0.064 A 
ATOM     73  C   UNL     1      -4.260   7.198  -2.715  1.00  0.00     0.173 A 
ATOM     74  C   UNL     1      -3.645   9.192  -3.911  1.00  0.00     0.173 A 
ATOM     75  F   UNL     1      -4.088   6.332  -1.705  1.00  0.00    -0.203 F 
ATOM     76  C   UNL     1      -5.247   6.940  -3.664  1.00  0.00     0.198 A 
ATOM     77  C   UNL     1      -4.646   8.942  -4.845  1.00  0.00     0.198 A 
ATOM     78  F   UNL     1      -2.884  10.287  -4.058  1.00  0.00    -0.203 F 
ATOM     79  F   UNL     1      -6.003   5.838  -3.559  1.00  0.00    -0.200 F 
ATOM     80  C   UNL     1      -5.443   7.814  -4.724  1.00  0.00     0.200 A 
ATOM     81  F   UNL     1      -4.839   9.793  -5.862  1.00  0.00    -0.200 F 
ATOM     82  F   UNL     1      -6.397   7.567  -5.632  1.00  0.00    -0.200 F 
ENDBRANCH  58  72
BRANCH  59  83
ATOM     83  C   UNL     1       3.693   9.969   3.872  1.00  0.00     0.064 A 
ATOM     84  C   UNL     1       3.456   9.576   5.196  1.00  0.00     0.173 A 
ATOM     85  C   UNL     1       4.938  10.539   3.571  1.00  0.00     0.173 A 
ATOM     86  F   UNL     1       2.269   9.051   5.537  1.00  0.00    -0.203 F 
ATOM     87  C   UNL     1       4.429   9.743   6.179  1.00  0.00     0.198 A 
ATOM     88  C   UNL     1       5.921  10.676   4.547  1.00  0.00     0.198 A 
ATOM     89  F   UNL     1       5.209  10.938   2.320  1.00  0.00    -0.203 F 
ATOM     90  F   UNL     1       4.168   9.387   7.444  1.00  0.00    -0.200 F 
ATOM     91  C   UNL     1       5.665  10.282   5.851  1.00  0.00     0.200 A 
ATOM     92  F   UNL     1       7.118  11.184   4.222  1.00  0.00    -0.200 F 
ATOM     93  F   UNL     1       6.607  10.425   6.793  1.00  0.00    -0.200 F 
ENDBRANCH  59  83
BRANCH  71  94
ATOM     94  C   UNL     1      -2.370  13.080   2.488  1.00  0.00     0.064 A 
ATOM     95  C   UNL     1      -1.883  14.376   2.255  1.00  0.00     0.173 A 
ATOM     96  C   UNL     1      -3.524  12.943   3.271  1.00  0.00     0.173 A 
ATOM     97  F   UNL     1      -0.772  14.558   1.524  1.00  0.00    -0.203 F 
ATOM     98  C   UNL     1      -2.515  15.488   2.804  1.00  0.00     0.198 A 
ATOM     99  C   UNL     1      -4.168  14.059   3.799  1.00  0.00     0.198 A 
ATOM    100  F   UNL     1      -4.031  11.726   3.520  1.00  0.00    -0.203 F 
ATOM    101  F   UNL     1      -2.007  16.712   2.603  1.00  0.00    -0.200 F 
ATOM    102  C   UNL     1      -3.659  15.329   3.571  1.00  0.00     0.200 A 
ATOM    103  F   UNL     1      -5.277  13.906   4.535  1.00  0.00    -0.200 F 
ATOM    104  F   UNL     1      -4.266  16.401   4.100  1.00  0.00    -0.200 F 
ENDBRANCH  71  94
ENDBRANCH  45  46
ENDBRANCH  38  40
ENDBRANCH  37  38
ENDBRANCH  36  37
ENDBRANCH   1  36
TORSDOF 17
