REMARK SMILES CC[C@H](C)CN(CC)C(=O)Nc1ccc(C(=O)OCCOC(=O)c2ccc(-c3c4nc(c(-c5c(F)c(F)c(F)c(F)c5F)c5ccc([nH]5)c(-c5c(F)c(F)c(F)c(F)c5F)c5nc(c(-c6c(F)c(F)c(F)c(F)c6F)c6ccc3[nH]6)C=C5)C=C4)cc2)cc1Cl
REMARK SMILES IDX 18 1 16 2 17 3 15 4 12 5 13 6 88 7 14 8 87 9 89 10 11 11
REMARK SMILES IDX 9 12 10 13 6 15 5 16 3 17 4 18 2 19 1 20 7 21 8 22 19 23
REMARK SMILES IDX 20 24 21 25 22 26 23 27 24 28 25 29 86 30 26 31 85 32 27 33
REMARK SMILES IDX 28 34 29 35 79 36 30 37 84 38 78 39 80 40 31 41 83 42 77 43
REMARK SMILES IDX 76 44 32 46 64 47 44 48 63 49 45 50 48 51 62 52 81 53 46 54
REMARK SMILES IDX 47 55 61 57 82 58 49 59 33 60 34 61 42 62 35 63 36 64 40 65
REMARK SMILES IDX 43 66 37 67 38 68 41 69 39 70 65 71 66 72 74 73 67 74 68 75
REMARK SMILES IDX 72 76 75 77 69 78 70 79 73 80 71 81 50 82 51 83 59 84 52 85
REMARK SMILES IDX 53 86 57 87 60 88 54 89 55 90 58 91 56 92
REMARK H PARENT 11 14 80 45 48 56
REMARK Flexibility Score: inf
ROOT
ATOM      1  O   UNL     1       3.976 -10.065   1.660  1.00  0.00    -0.458 OA
ENDROOT
BRANCH   1   2
ATOM      2  C   UNL     1       4.496  -8.930   1.137  1.00  0.00     0.338 C 
ATOM      3  O   UNL     1       5.668  -8.601   1.143  1.00  0.00    -0.246 OA
BRANCH   2   4
ATOM      4  C   UNL     1       3.446  -8.115   0.471  1.00  0.00     0.061 A 
ATOM      5  C   UNL     1       1.579  -6.356  -0.600  1.00  0.00     0.061 A 
ATOM      6  C   UNL     1       2.937  -6.126  -0.825  1.00  0.00     0.028 A 
ATOM      7  C   UNL     1       1.148  -7.544   0.006  1.00  0.00     0.065 A 
ATOM      8  C   UNL     1       3.868  -6.986  -0.254  1.00  0.00     0.018 A 
ATOM      9  C   UNL     1       2.084  -8.425   0.548  1.00  0.00     0.038 A 
ATOM     10  Cl  UNL     1      -0.530  -7.931   0.141  1.00  0.00    -0.082 Cl
BRANCH   5  11
ATOM     11  N   UNL     1       0.701  -5.322  -0.907  1.00  0.00    -0.306 N 
ATOM     12  C   UNL     1       0.151  -4.363  -0.118  1.00  0.00     0.321 C 
ATOM     13  O   UNL     1      -0.737  -3.694  -0.661  1.00  0.00    -0.248 OA
ATOM     14  H   UNL     1       0.433  -5.278  -1.853  1.00  0.00     0.171 HD
BRANCH  12  15
ATOM     15  N   UNL     1       0.572  -4.096   1.171  1.00  0.00    -0.325 N 
BRANCH  15  16
ATOM     16  C   UNL     1      -0.056  -2.945   1.837  1.00  0.00     0.124 C 
BRANCH  16  17
ATOM     17  C   UNL     1       0.807  -1.665   1.733  1.00  0.00     0.005 C 
ATOM     18  C   UNL     1       0.871  -1.128   0.301  1.00  0.00     0.009 C 
BRANCH  17  19
ATOM     19  C   UNL     1       0.334  -0.592   2.731  1.00  0.00     0.002 C 
ATOM     20  C   UNL     1      -1.009   0.044   2.403  1.00  0.00     0.004 C 
ENDBRANCH  17  19
ENDBRANCH  16  17
ENDBRANCH  15  16
BRANCH  15  21
ATOM     21  C   UNL     1       1.607  -4.755   1.979  1.00  0.00     0.118 C 
ATOM     22  C   UNL     1       1.046  -5.780   2.953  1.00  0.00     0.027 C 
ENDBRANCH  15  21
ENDBRANCH  12  15
ENDBRANCH   5  11
ENDBRANCH   2   4
ENDBRANCH   1   2
BRANCH   1  23
ATOM     23  C   UNL     1       4.937 -11.012   2.159  1.00  0.00     0.275 C 
BRANCH  23  24
ATOM     24  C   UNL     1       5.154 -12.134   1.144  1.00  0.00     0.275 C 
BRANCH  24  25
ATOM     25  O   UNL     1       5.745 -11.629  -0.070  1.00  0.00    -0.458 OA
BRANCH  25  26
ATOM     26  C   UNL     1       4.887 -11.424  -1.093  1.00  0.00     0.338 C 
ATOM     27  O   UNL     1       3.685 -11.638  -1.118  1.00  0.00    -0.246 OA
BRANCH  26  28
ATOM     28  C   UNL     1       5.601 -10.804  -2.217  1.00  0.00     0.060 A 
ATOM     29  C   UNL     1       5.718  -9.416  -2.250  1.00  0.00     0.016 A 
ATOM     30  C   UNL     1       6.043 -11.571  -3.291  1.00  0.00     0.016 A 
ATOM     31  C   UNL     1       6.229  -8.775  -3.373  1.00  0.00     0.010 A 
ATOM     32  C   UNL     1       6.620 -10.932  -4.395  1.00  0.00     0.010 A 
ATOM     33  C   UNL     1       6.700  -9.527  -4.455  1.00  0.00    -0.014 A 
BRANCH  33  34
ATOM     34  C   UNL     1       7.245  -8.851  -5.661  1.00  0.00     0.031 A 
ATOM     35  C   UNL     1       6.566  -9.034  -6.988  1.00  0.00     0.074 A 
ATOM     36  C   UNL     1       8.347  -8.081  -5.574  1.00  0.00     0.049 A 
ATOM     37  N   UNL     1       6.993  -8.733  -8.188  1.00  0.00    -0.248 NA
ATOM     38  C   UNL     1       5.229  -9.650  -6.963  1.00  0.00     0.031 C 
ATOM     39  C   UNL     1       9.066  -7.766  -4.339  1.00  0.00     0.029 A 
ATOM     40  N   UNL     1       9.063  -7.432  -6.549  1.00  0.00    -0.354 N 
ATOM     41  C   UNL     1       6.010  -9.177  -9.061  1.00  0.00     0.074 A 
ATOM     42  C   UNL     1       4.957  -9.759  -8.256  1.00  0.00     0.031 C 
ATOM     43  C   UNL     1      10.116  -6.981  -4.629  1.00  0.00     0.029 A 
ATOM     44  C   UNL     1      10.192  -6.808  -6.075  1.00  0.00     0.049 A 
ATOM     45  H   UNL     1       8.794  -7.415  -7.496  1.00  0.00     0.167 HD
ATOM     46  C   UNL     1       5.996  -9.110 -10.414  1.00  0.00     0.037 A 
ATOM     47  C   UNL     1      11.205  -6.213  -6.734  1.00  0.00     0.037 A 
ATOM     48  C   UNL     1       7.022  -8.480 -11.203  1.00  0.00     0.049 A 
ATOM     49  C   UNL     1      11.184  -6.182  -8.237  1.00  0.00     0.074 A 
ATOM     50  C   UNL     1       7.090  -8.341 -12.579  1.00  0.00     0.029 A 
ATOM     51  N   UNL     1       8.153  -7.869 -10.683  1.00  0.00    -0.354 N 
ATOM     52  N   UNL     1      10.279  -6.651  -9.061  1.00  0.00    -0.248 NA
ATOM     53  C   UNL     1      12.335  -5.556  -8.904  1.00  0.00     0.031 C 
ATOM     54  C   UNL     1       8.280  -7.676 -12.893  1.00  0.00     0.029 A 
ATOM     55  C   UNL     1       8.932  -7.364 -11.711  1.00  0.00     0.049 A 
ATOM     56  H   UNL     1       8.371  -7.805  -9.725  1.00  0.00     0.167 HD
ATOM     57  C   UNL     1      10.741  -6.366 -10.338  1.00  0.00     0.074 A 
ATOM     58  C   UNL     1      12.000  -5.668 -10.181  1.00  0.00     0.031 C 
ATOM     59  C   UNL     1      10.176  -6.661 -11.534  1.00  0.00     0.037 A 
BRANCH  46  60
ATOM     60  C   UNL     1       4.858  -9.768 -11.135  1.00  0.00     0.064 A 
ATOM     61  C   UNL     1       3.570  -9.216 -11.155  1.00  0.00     0.173 A 
ATOM     62  C   UNL     1       5.077 -10.950 -11.860  1.00  0.00     0.173 A 
ATOM     63  F   UNL     1       3.306  -8.096 -10.466  1.00  0.00    -0.203 F 
ATOM     64  C   UNL     1       2.539  -9.832 -11.860  1.00  0.00     0.198 A 
ATOM     65  C   UNL     1       4.051 -11.550 -12.585  1.00  0.00     0.198 A 
ATOM     66  F   UNL     1       6.293 -11.518 -11.877  1.00  0.00    -0.203 F 
ATOM     67  F   UNL     1       1.306  -9.307 -11.835  1.00  0.00    -0.200 F 
ATOM     68  C   UNL     1       2.781 -10.993 -12.580  1.00  0.00     0.200 A 
ATOM     69  F   UNL     1       4.291 -12.664 -13.289  1.00  0.00    -0.200 F 
ATOM     70  F   UNL     1       1.790 -11.578 -13.266  1.00  0.00    -0.200 F 
ENDBRANCH  46  60
BRANCH  47  71
ATOM     71  C   UNL     1      12.352  -5.650  -5.975  1.00  0.00     0.064 A 
ATOM     72  C   UNL     1      12.577  -4.268  -5.925  1.00  0.00     0.173 A 
ATOM     73  C   UNL     1      13.246  -6.483  -5.284  1.00  0.00     0.173 A 
ATOM     74  F   UNL     1      11.766  -3.433  -6.591  1.00  0.00    -0.203 F 
ATOM     75  C   UNL     1      13.659  -3.741  -5.222  1.00  0.00     0.198 A 
ATOM     76  C   UNL     1      14.308  -5.953  -4.557  1.00  0.00     0.198 A 
ATOM     77  F   UNL     1      13.076  -7.813  -5.302  1.00  0.00    -0.203 F 
ATOM     78  F   UNL     1      13.876  -2.419  -5.225  1.00  0.00    -0.200 F 
ATOM     79  C   UNL     1      14.518  -4.583  -4.532  1.00  0.00     0.200 A 
ATOM     80  F   UNL     1      15.128  -6.769  -3.880  1.00  0.00    -0.200 F 
ATOM     81  F   UNL     1      15.553  -4.074  -3.850  1.00  0.00    -0.200 F 
ENDBRANCH  47  71
BRANCH  59  82
ATOM     82  C   UNL     1      10.894  -6.198 -12.765  1.00  0.00     0.064 A 
ATOM     83  C   UNL     1      12.050  -6.843 -13.225  1.00  0.00     0.173 A 
ATOM     84  C   UNL     1      10.390  -5.128 -13.518  1.00  0.00     0.173 A 
ATOM     85  F   UNL     1      12.578  -7.861 -12.529  1.00  0.00    -0.203 F 
ATOM     86  C   UNL     1      12.687  -6.422 -14.389  1.00  0.00     0.198 A 
ATOM     87  C   UNL     1      11.015  -4.725 -14.695  1.00  0.00     0.198 A 
ATOM     88  F   UNL     1       9.284  -4.482 -13.120  1.00  0.00    -0.203 F 
ATOM     89  F   UNL     1      13.812  -7.029 -14.793  1.00  0.00    -0.200 F 
ATOM     90  C   UNL     1      12.165  -5.369 -15.127  1.00  0.00     0.200 A 
ATOM     91  F   UNL     1      10.504  -3.714 -15.411  1.00  0.00    -0.200 F 
ATOM     92  F   UNL     1      12.774  -4.970 -16.252  1.00  0.00    -0.200 F 
ENDBRANCH  59  82
ENDBRANCH  33  34
ENDBRANCH  26  28
ENDBRANCH  25  26
ENDBRANCH  24  25
ENDBRANCH  23  24
ENDBRANCH   1  23
TORSDOF 17
