REMARK SMILES C[C@H]1CCC[C@H](Nc2ncc(C(=O)OCCOC(=O)c3ccc(-c4c5nc(c(-c6c(F)c(F)c(F)c(F)c6F)c6ccc([nH]6)c(-c6c(F)c(F)c(F)c(F)c6F)c6nc(c(-c7c(F)c(F)c(F)c(F)c7F)c7ccc4[nH]7)C=C6)C=C5)cc3)cc2Cl)C1
REMARK SMILES IDX 15 1 14 2 12 3 13 4 11 5 8 6 9 7 84 8 10 9 83 10 85 11 7 12
REMARK SMILES IDX 6 14 1 15 2 16 3 17 86 18 4 19 5 20 16 21 17 22 18 23 19 24
REMARK SMILES IDX 20 25 21 26 82 27 22 28 81 29 23 30 24 31 25 32 75 33 26 34
REMARK SMILES IDX 80 35 74 36 76 37 27 38 79 39 73 40 72 41 28 43 60 44 40 45
REMARK SMILES IDX 59 46 41 47 44 48 58 49 77 50 42 51 43 52 57 54 78 55 45 56
REMARK SMILES IDX 29 57 30 58 38 59 31 60 32 61 36 62 39 63 33 64 34 65 37 66
REMARK SMILES IDX 35 67 61 68 62 69 70 70 63 71 64 72 68 73 71 74 65 75 66 76
REMARK SMILES IDX 69 77 67 78 46 79 47 80 55 81 48 82 49 83 53 84 56 85 50 86
REMARK SMILES IDX 51 87 54 88 52 89
REMARK H PARENT 7 13 76 42 44 53
REMARK Flexibility Score: inf
ROOT
ATOM      1  C   UNL     1      -3.522  -7.908   4.902  1.00  0.00     0.275 C 
ENDROOT
BRANCH   1   2
ATOM      2  O   UNL     1      -2.821  -6.852   4.212  1.00  0.00    -0.458 OA
BRANCH   2   3
ATOM      3  C   UNL     1      -3.595  -5.865   3.701  1.00  0.00     0.339 C 
ATOM      4  O   UNL     1      -4.808  -5.785   3.753  1.00  0.00    -0.246 OA
BRANCH   3   5
ATOM      5  C   UNL     1      -2.761  -4.803   3.115  1.00  0.00     0.080 A 
ATOM      6  C   UNL     1      -1.399  -2.676   1.997  1.00  0.00     0.145 A 
ATOM      7  N   UNL     1      -2.468  -2.425   2.776  1.00  0.00    -0.237 NA
ATOM      8  C   UNL     1      -0.964  -3.989   1.750  1.00  0.00     0.084 A 
ATOM      9  C   UNL     1      -3.142  -3.481   3.273  1.00  0.00     0.129 A 
ATOM     10  C   UNL     1      -1.640  -5.062   2.340  1.00  0.00     0.041 A 
ATOM     11  Cl  UNL     1       0.403  -4.377   0.775  1.00  0.00    -0.080 Cl
BRANCH   6  12
ATOM     12  N   UNL     1      -0.856  -1.516   1.496  1.00  0.00    -0.366 N 
ATOM     13  H   UNL     1      -0.469  -0.848   2.108  1.00  0.00     0.162 HD
BRANCH  12  14
ATOM     14  C   UNL     1      -0.852  -1.275   0.056  1.00  0.00     0.081 C 
ATOM     15  C   UNL     1       2.677   0.293  -0.279  1.00  0.00     0.008 C 
ATOM     16  C   UNL     1       1.222   0.186   0.164  1.00  0.00    -0.012 C 
ATOM     17  C   UNL     1       0.406   1.414  -0.251  1.00  0.00     0.003 C 
ATOM     18  C   UNL     1       0.589  -1.083  -0.418  1.00  0.00     0.028 C 
ATOM     19  C   UNL     1      -1.053   1.289   0.187  1.00  0.00     0.002 C 
ATOM     20  C   UNL     1      -1.695  -0.025  -0.271  1.00  0.00     0.025 C 
ENDBRANCH  12  14
ENDBRANCH   6  12
ENDBRANCH   3   5
ENDBRANCH   2   3
ENDBRANCH   1   2
BRANCH   1  21
ATOM     21  C   UNL     1      -3.429  -7.752   6.422  1.00  0.00     0.275 C 
BRANCH  21  22
ATOM     22  O   UNL     1      -4.217  -6.636   6.884  1.00  0.00    -0.458 OA
BRANCH  22  23
ATOM     23  C   UNL     1      -3.510  -5.517   7.155  1.00  0.00     0.338 C 
ATOM     24  O   UNL     1      -2.304  -5.360   7.060  1.00  0.00    -0.246 OA
BRANCH  23  25
ATOM     25  C   UNL     1      -4.410  -4.394   7.454  1.00  0.00     0.060 A 
ATOM     26  C   UNL     1      -4.867  -3.660   6.371  1.00  0.00     0.016 A 
ATOM     27  C   UNL     1      -4.611  -3.920   8.746  1.00  0.00     0.016 A 
ATOM     28  C   UNL     1      -5.375  -2.381   6.545  1.00  0.00     0.010 A 
ATOM     29  C   UNL     1      -5.277  -2.696   8.930  1.00  0.00     0.010 A 
ATOM     30  C   UNL     1      -5.627  -1.888   7.830  1.00  0.00    -0.014 A 
BRANCH  30  31
ATOM     31  C   UNL     1      -6.253  -0.540   7.989  1.00  0.00     0.031 A 
ATOM     32  C   UNL     1      -5.598   0.523   8.834  1.00  0.00     0.074 A 
ATOM     33  C   UNL     1      -7.404  -0.252   7.344  1.00  0.00     0.049 A 
ATOM     34  N   UNL     1      -6.060   1.696   9.197  1.00  0.00    -0.248 NA
ATOM     35  C   UNL     1      -4.256   0.227   9.355  1.00  0.00     0.031 C 
ATOM     36  C   UNL     1      -8.131  -1.167   6.460  1.00  0.00     0.029 A 
ATOM     37  N   UNL     1      -8.161   0.895   7.315  1.00  0.00    -0.354 N 
ATOM     38  C   UNL     1      -5.093   2.248  10.030  1.00  0.00     0.074 A 
ATOM     39  C   UNL     1      -4.025   1.277  10.131  1.00  0.00     0.031 C 
ATOM     40  C   UNL     1      -9.187  -0.533   5.934  1.00  0.00     0.029 A 
ATOM     41  C   UNL     1      -9.286   0.791   6.532  1.00  0.00     0.049 A 
ATOM     42  H   UNL     1      -7.921   1.712   7.809  1.00  0.00     0.167 HD
ATOM     43  C   UNL     1      -5.100   3.453  10.651  1.00  0.00     0.037 A 
ATOM     44  C   UNL     1     -10.317   1.637   6.349  1.00  0.00     0.037 A 
ATOM     45  C   UNL     1      -6.146   4.435  10.506  1.00  0.00     0.049 A 
ATOM     46  C   UNL     1     -10.323   2.944   7.087  1.00  0.00     0.074 A 
ATOM     47  C   UNL     1      -6.231   5.697  11.071  1.00  0.00     0.029 A 
ATOM     48  N   UNL     1      -7.290   4.268   9.737  1.00  0.00    -0.354 N 
ATOM     49  N   UNL     1      -9.421   3.439   7.898  1.00  0.00    -0.248 NA
ATOM     50  C   UNL     1     -11.500   3.802   6.898  1.00  0.00     0.031 C 
ATOM     51  C   UNL     1      -7.451   6.266  10.694  1.00  0.00     0.029 A 
ATOM     52  C   UNL     1      -8.098   5.391   9.838  1.00  0.00     0.049 A 
ATOM     53  H   UNL     1      -7.496   3.470   9.199  1.00  0.00     0.167 HD
ATOM     54  C   UNL     1      -9.910   4.672   8.303  1.00  0.00     0.074 A 
ATOM     55  C   UNL     1     -11.178   4.860   7.628  1.00  0.00     0.031 C 
ATOM     56  C   UNL     1      -9.360   5.565   9.163  1.00  0.00     0.037 A 
BRANCH  43  57
ATOM     57  C   UNL     1      -3.961   3.767  11.584  1.00  0.00     0.064 A 
ATOM     58  C   UNL     1      -2.655   3.996  11.126  1.00  0.00     0.173 A 
ATOM     59  C   UNL     1      -4.194   3.872  12.966  1.00  0.00     0.173 A 
ATOM     60  F   UNL     1      -2.372   3.901   9.818  1.00  0.00    -0.203 F 
ATOM     61  C   UNL     1      -1.621   4.282  12.015  1.00  0.00     0.198 A 
ATOM     62  C   UNL     1      -3.166   4.194  13.848  1.00  0.00     0.198 A 
ATOM     63  F   UNL     1      -5.425   3.674  13.462  1.00  0.00    -0.203 F 
ATOM     64  F   UNL     1      -0.371   4.441  11.559  1.00  0.00    -0.200 F 
ATOM     65  C   UNL     1      -1.879   4.388  13.374  1.00  0.00     0.200 A 
ATOM     66  F   UNL     1      -3.422   4.314  15.158  1.00  0.00    -0.200 F 
ATOM     67  F   UNL     1      -0.884   4.671  14.227  1.00  0.00    -0.200 F 
ENDBRANCH  43  57
BRANCH  44  68
ATOM     68  C   UNL     1     -11.450   1.243   5.469  1.00  0.00     0.064 A 
ATOM     69  C   UNL     1     -11.710   1.925   4.273  1.00  0.00     0.173 A 
ATOM     70  C   UNL     1     -12.290   0.166   5.799  1.00  0.00     0.173 A 
ATOM     71  F   UNL     1     -10.954   2.977   3.924  1.00  0.00    -0.203 F 
ATOM     72  C   UNL     1     -12.770   1.554   3.448  1.00  0.00     0.198 A 
ATOM     73  C   UNL     1     -13.324  -0.229   4.955  1.00  0.00     0.198 A 
ATOM     74  F   UNL     1     -12.086  -0.522   6.932  1.00  0.00    -0.203 F 
ATOM     75  F   UNL     1     -13.025   2.252   2.333  1.00  0.00    -0.200 F 
ATOM     76  C   UNL     1     -13.569   0.471   3.784  1.00  0.00     0.200 A 
ATOM     77  F   UNL     1     -14.079  -1.288   5.274  1.00  0.00    -0.200 F 
ATOM     78  F   UNL     1     -14.579   0.105   2.983  1.00  0.00    -0.200 F 
ENDBRANCH  44  68
BRANCH  56  79
ATOM     79  C   UNL     1     -10.114   6.843   9.391  1.00  0.00     0.064 A 
ATOM     80  C   UNL     1     -11.326   6.871  10.098  1.00  0.00     0.173 A 
ATOM     81  C   UNL     1      -9.609   8.060   8.909  1.00  0.00     0.173 A 
ATOM     82  F   UNL     1     -11.862   5.732  10.565  1.00  0.00    -0.203 F 
ATOM     83  C   UNL     1     -12.021   8.063  10.283  1.00  0.00     0.198 A 
ATOM     84  C   UNL     1     -10.288   9.256   9.127  1.00  0.00     0.198 A 
ATOM     85  F   UNL     1      -8.452   8.091   8.230  1.00  0.00    -0.203 F 
ATOM     86  F   UNL     1     -13.207   8.056  10.907  1.00  0.00    -0.200 F 
ATOM     87  C   UNL     1     -11.498   9.255   9.804  1.00  0.00     0.200 A 
ATOM     88  F   UNL     1      -9.773  10.408   8.676  1.00  0.00    -0.200 F 
ATOM     89  F   UNL     1     -12.165  10.403   9.985  1.00  0.00    -0.200 F 
ENDBRANCH  56  79
ENDBRANCH  30  31
ENDBRANCH  23  25
ENDBRANCH  22  23
ENDBRANCH  21  22
ENDBRANCH   1  21
TORSDOF 13
