REMARK SMILES Cc1ccc(-c2cc(Cl)cc3c2O[C@H](C(F)(F)F)C(C(=O)OCCOC(=O)c2ccc(-c4c5nc(c(-c6c(F)c(F)c(F)c(F)c6F)c6ccc([nH]6)c(-c6c(F)c(F)c(F)c(F)c6F)c6nc(c(-c7c(F)c(F)c(F)c(F)c7F)c7ccc4[nH]7)C=C6)C=C5)cc2)=C3)cc1F
REMARK SMILES IDX 24 1 23 2 22 3 20 4 21 5 19 6 6 7 7 8 12 9 8 10 11 11 13 12
REMARK SMILES IDX 9 13 10 14 91 15 14 16 5 17 1 18 2 19 3 20 93 21 4 22 92 23
REMARK SMILES IDX 94 24 15 25 16 26 17 27 18 28 25 29 26 30 27 31 28 32 29 33
REMARK SMILES IDX 90 34 30 35 89 36 31 37 32 38 33 39 83 40 34 41 88 42 82 43
REMARK SMILES IDX 84 44 35 45 87 46 81 47 80 48 36 50 68 51 48 52 67 53 49 54
REMARK SMILES IDX 52 55 66 56 85 57 50 58 51 59 65 61 86 62 53 63 37 64 38 65
REMARK SMILES IDX 46 66 39 67 40 68 44 69 47 70 41 71 42 72 45 73 43 74 69 75
REMARK SMILES IDX 70 76 78 77 71 78 72 79 76 80 79 81 73 82 74 83 77 84 75 85
REMARK SMILES IDX 54 86 55 87 63 88 56 89 57 90 61 91 64 92 58 93 59 94 62 95
REMARK SMILES IDX 60 96
REMARK H PARENT 84 49 52 60
REMARK Flexibility Score: inf
ROOT
ATOM      1  C   UNL     1      -4.468  -4.716   7.540  1.00  0.00     0.275 C 
ENDROOT
BRANCH   1   2
ATOM      2  C   UNL     1      -3.151  -4.965   6.792  1.00  0.00     0.275 C 
BRANCH   2   3
ATOM      3  O   UNL     1      -3.088  -4.266   5.525  1.00  0.00    -0.459 OA
BRANCH   3   4
ATOM      4  C   UNL     1      -3.058  -5.025   4.401  1.00  0.00     0.338 C 
ATOM      5  O   UNL     1      -3.196  -6.237   4.327  1.00  0.00    -0.246 OA
BRANCH   4   6
ATOM      6  C   UNL     1      -2.890  -4.156   3.216  1.00  0.00     0.087 C 
ATOM      7  C   UNL     1      -2.627  -1.520  -0.051  1.00  0.00     0.026 A 
ATOM      8  C   UNL     1      -3.580  -1.619  -1.078  1.00  0.00     0.033 A 
ATOM      9  C   UNL     1      -2.712  -2.411   1.043  1.00  0.00     0.135 A 
ATOM     10  C   UNL     1      -4.545  -2.623  -1.043  1.00  0.00     0.042 A 
ATOM     11  C   UNL     1      -3.654  -3.441   1.050  1.00  0.00     0.019 A 
ATOM     12  O   UNL     1      -1.874  -2.179   2.106  1.00  0.00    -0.475 OA
ATOM     13  Cl  UNL     1      -5.727  -2.725  -2.291  1.00  0.00    -0.084 Cl
ATOM     14  C   UNL     1      -4.564  -3.553  -0.006  1.00  0.00     0.032 A 
ATOM     15  C   UNL     1      -3.716  -4.347   2.183  1.00  0.00     0.027 C 
ATOM     16  C   UNL     1      -1.764  -3.166   3.162  1.00  0.00     0.316 C 
BRANCH   7  17
ATOM     17  C   UNL     1      -1.519  -0.560  -0.147  1.00  0.00    -0.012 A 
ATOM     18  C   UNL     1       1.860   2.127  -0.062  1.00  0.00     0.047 C 
ATOM     19  C   UNL     1       0.674   1.218  -0.146  1.00  0.00    -0.015 A 
ATOM     20  C   UNL     1      -0.636   1.708  -0.105  1.00  0.00     0.007 A 
ATOM     21  C   UNL     1       0.871  -0.160  -0.227  1.00  0.00     0.126 A 
ATOM     22  C   UNL     1      -1.724   0.826  -0.110  1.00  0.00     0.009 A 
ATOM     23  C   UNL     1      -0.203  -1.040  -0.235  1.00  0.00     0.048 A 
ATOM     24  F   UNL     1       2.115  -0.658  -0.274  1.00  0.00    -0.207 F 
ENDBRANCH   7  17
BRANCH  16  25
ATOM     25  C   UNL     1      -0.419  -3.896   3.019  1.00  0.00     0.430 C 
ATOM     26  F   UNL     1       0.613  -3.025   2.937  1.00  0.00    -0.167 F 
ATOM     27  F   UNL     1      -0.180  -4.693   4.088  1.00  0.00    -0.167 F 
ATOM     28  F   UNL     1      -0.380  -4.676   1.913  1.00  0.00    -0.167 F 
ENDBRANCH  16  25
ENDBRANCH   4   6
ENDBRANCH   3   4
ENDBRANCH   2   3
ENDBRANCH   1   2
BRANCH   1  29
ATOM     29  O   UNL     1      -5.533  -5.373   6.840  1.00  0.00    -0.458 OA
BRANCH  29  30
ATOM     30  C   UNL     1      -6.528  -4.577   6.361  1.00  0.00     0.338 C 
ATOM     31  O   UNL     1      -6.760  -3.428   6.637  1.00  0.00    -0.246 OA
BRANCH  30  32
ATOM     32  C   UNL     1      -7.011  -5.277   5.151  1.00  0.00     0.060 A 
ATOM     33  C   UNL     1      -7.239  -6.658   5.133  1.00  0.00     0.016 A 
ATOM     34  C   UNL     1      -6.926  -4.550   3.967  1.00  0.00     0.016 A 
ATOM     35  C   UNL     1      -7.172  -7.347   3.921  1.00  0.00     0.010 A 
ATOM     36  C   UNL     1      -6.886  -5.240   2.767  1.00  0.00     0.010 A 
ATOM     37  C   UNL     1      -6.886  -6.644   2.748  1.00  0.00    -0.014 A 
BRANCH  37  38
ATOM     38  C   UNL     1      -6.337  -7.290   1.548  1.00  0.00     0.031 A 
ATOM     39  C   UNL     1      -7.070  -7.333   0.260  1.00  0.00     0.074 A 
ATOM     40  C   UNL     1      -5.078  -7.799   1.551  1.00  0.00     0.049 A 
ATOM     41  N   UNL     1      -6.932  -8.292  -0.600  1.00  0.00    -0.248 NA
ATOM     42  C   UNL     1      -8.010  -6.306  -0.172  1.00  0.00     0.031 C 
ATOM     43  C   UNL     1      -4.283  -8.145   0.371  1.00  0.00     0.029 A 
ATOM     44  N   UNL     1      -4.286  -8.216   2.625  1.00  0.00    -0.354 N 
ATOM     45  C   UNL     1      -7.537  -7.898  -1.768  1.00  0.00     0.074 A 
ATOM     46  C   UNL     1      -8.245  -6.681  -1.436  1.00  0.00     0.031 C 
ATOM     47  C   UNL     1      -3.253  -8.918   0.738  1.00  0.00     0.029 A 
ATOM     48  C   UNL     1      -3.393  -9.202   2.151  1.00  0.00     0.049 A 
ATOM     49  H   UNL     1      -4.341  -7.881   3.549  1.00  0.00     0.167 HD
ATOM     50  C   UNL     1      -7.289  -8.562  -2.934  1.00  0.00     0.037 A 
ATOM     51  C   UNL     1      -3.304 -10.441   2.715  1.00  0.00     0.037 A 
ATOM     52  C   UNL     1      -6.280  -9.601  -2.777  1.00  0.00     0.049 A 
ATOM     53  C   UNL     1      -3.682 -11.576   1.797  1.00  0.00     0.074 A 
ATOM     54  C   UNL     1      -4.919  -9.615  -3.034  1.00  0.00     0.029 A 
ATOM     55  N   UNL     1      -6.554 -10.743  -2.036  1.00  0.00    -0.354 N 
ATOM     56  N   UNL     1      -4.178 -11.405   0.605  1.00  0.00    -0.248 NA
ATOM     57  C   UNL     1      -3.624 -12.988   2.175  1.00  0.00     0.031 C 
ATOM     58  C   UNL     1      -4.369 -10.770  -2.436  1.00  0.00     0.029 A 
ATOM     59  C   UNL     1      -5.392 -11.456  -1.805  1.00  0.00     0.049 A 
ATOM     60  H   UNL     1      -7.449 -11.008  -1.721  1.00  0.00     0.167 HD
ATOM     61  C   UNL     1      -4.637 -12.603   0.129  1.00  0.00     0.074 A 
ATOM     62  C   UNL     1      -4.204 -13.574   1.113  1.00  0.00     0.031 C 
ATOM     63  C   UNL     1      -5.395 -12.669  -1.004  1.00  0.00     0.037 A 
BRANCH  50  64
ATOM     64  C   UNL     1      -7.784  -8.097  -4.281  1.00  0.00     0.064 A 
ATOM     65  C   UNL     1      -7.013  -8.262  -5.452  1.00  0.00     0.173 A 
ATOM     66  C   UNL     1      -9.038  -7.490  -4.472  1.00  0.00     0.173 A 
ATOM     67  F   UNL     1      -5.829  -8.887  -5.433  1.00  0.00    -0.203 F 
ATOM     68  C   UNL     1      -7.428  -7.782  -6.696  1.00  0.00     0.198 A 
ATOM     69  C   UNL     1      -9.432  -6.966  -5.707  1.00  0.00     0.198 A 
ATOM     70  F   UNL     1      -9.929  -7.421  -3.472  1.00  0.00    -0.203 F 
ATOM     71  F   UNL     1      -6.655  -7.972  -7.775  1.00  0.00    -0.200 F 
ATOM     72  C   UNL     1      -8.625  -7.107  -6.818  1.00  0.00     0.200 A 
ATOM     73  F   UNL     1     -10.605  -6.324  -5.813  1.00  0.00    -0.200 F 
ATOM     74  F   UNL     1      -9.006  -6.613  -8.004  1.00  0.00    -0.200 F 
ENDBRANCH  50  64
BRANCH  51  75
ATOM     75  C   UNL     1      -3.553 -10.410   4.175  1.00  0.00     0.064 A 
ATOM     76  C   UNL     1      -2.557  -9.831   4.982  1.00  0.00     0.173 A 
ATOM     77  C   UNL     1      -4.861 -10.460   4.671  1.00  0.00     0.173 A 
ATOM     78  F   UNL     1      -1.285  -9.795   4.554  1.00  0.00    -0.203 F 
ATOM     79  C   UNL     1      -2.890  -9.175   6.162  1.00  0.00     0.198 A 
ATOM     80  C   UNL     1      -5.188  -9.802   5.854  1.00  0.00     0.198 A 
ATOM     81  F   UNL     1      -5.842 -11.011   3.941  1.00  0.00    -0.203 F 
ATOM     82  F   UNL     1      -1.947  -8.520   6.854  1.00  0.00    -0.200 F 
ATOM     83  C   UNL     1      -4.213  -9.122   6.572  1.00  0.00     0.200 A 
ATOM     84  F   UNL     1      -6.467  -9.743   6.253  1.00  0.00    -0.200 F 
ATOM     85  F   UNL     1      -4.553  -8.384   7.638  1.00  0.00    -0.200 F 
ENDBRANCH  51  75
BRANCH  63  86
ATOM     86  C   UNL     1      -6.144 -13.884  -1.484  1.00  0.00     0.064 A 
ATOM     87  C   UNL     1      -6.685 -14.857  -0.626  1.00  0.00     0.173 A 
ATOM     88  C   UNL     1      -6.451 -14.037  -2.856  1.00  0.00     0.173 A 
ATOM     89  F   UNL     1      -6.574 -14.750   0.705  1.00  0.00    -0.203 F 
ATOM     90  C   UNL     1      -7.410 -15.948  -1.112  1.00  0.00     0.198 A 
ATOM     91  C   UNL     1      -7.221 -15.098  -3.332  1.00  0.00     0.198 A 
ATOM     92  F   UNL     1      -6.030 -13.148  -3.767  1.00  0.00    -0.203 F 
ATOM     93  F   UNL     1      -7.864 -16.875  -0.258  1.00  0.00    -0.200 F 
ATOM     94  C   UNL     1      -7.683 -16.065  -2.462  1.00  0.00     0.200 A 
ATOM     95  F   UNL     1      -7.527 -15.168  -4.635  1.00  0.00    -0.200 F 
ATOM     96  F   UNL     1      -8.408 -17.094  -2.919  1.00  0.00    -0.200 F 
ENDBRANCH  63  86
ENDBRANCH  37  38
ENDBRANCH  30  32
ENDBRANCH  29  30
ENDBRANCH   1  29
TORSDOF 13
