REMARK SMILES Cc1ccccc1N[C@H](C(=O)OCCOC(=O)c1ccc(-c2c3nc(c(-c4c(F)c(F)c(F)c(F)c4F)c4ccc([nH]4)c(-c4c(F)c(F)c(F)c(F)c4F)c4nc(c(-c5c(F)c(F)c(F)c(F)c5F)c5ccc2[nH]5)C=C4)C=C3)cc1)c1ccccc1
REMARK SMILES IDX 13 1 12 2 10 3 11 4 9 5 8 6 7 8 1 9 2 10 3 11 4 12 6 13 5 14
REMARK SMILES IDX 81 15 82 16 86 17 83 18 85 19 84 20 14 21 15 22 16 23 17 24
REMARK SMILES IDX 18 25 19 26 80 27 20 28 79 29 21 30 22 31 23 32 73 33 24 34
REMARK SMILES IDX 78 35 72 36 74 37 25 38 77 39 71 40 70 41 26 43 58 44 38 45
REMARK SMILES IDX 57 46 39 47 42 48 56 49 75 50 40 51 41 52 55 54 76 55 43 56
REMARK SMILES IDX 27 57 28 58 36 59 29 60 30 61 34 62 37 63 31 64 32 65 35 66
REMARK SMILES IDX 33 67 59 68 60 69 68 70 61 71 62 72 66 73 69 74 63 75 64 76
REMARK SMILES IDX 67 77 65 78 44 79 45 80 53 81 46 82 47 83 51 84 54 85 48 86
REMARK SMILES IDX 49 87 52 88 50 89
REMARK H PARENT 8 7 74 42 42 53
REMARK Flexibility Score: inf
ROOT
ATOM      1  C   UNL     1       3.389   1.158   2.125  1.00  0.00     0.274 C 
ENDROOT
BRANCH   1   2
ATOM      2  O   UNL     1       2.769   2.432   1.825  1.00  0.00    -0.460 OA
BRANCH   2   3
ATOM      3  C   UNL     1       1.531   2.799   2.224  1.00  0.00     0.333 C 
ATOM      4  O   UNL     1       0.827   2.084   2.934  1.00  0.00    -0.249 OA
BRANCH   3   5
ATOM      5  C   UNL     1       0.997   4.125   1.520  1.00  0.00     0.221 C 
BRANCH   5   6
ATOM      6  N   UNL     1      -0.436   4.208   1.935  1.00  0.00    -0.368 N 
ATOM      7  H   UNL     1      -0.833   3.316   2.061  1.00  0.00     0.161 HD
BRANCH   6   8
ATOM      8  C   UNL     1      -1.336   5.207   2.185  1.00  0.00     0.038 A 
ATOM      9  C   UNL     1      -2.344   3.964   4.193  1.00  0.00     0.046 C 
ATOM     10  C   UNL     1      -2.062   5.211   3.394  1.00  0.00    -0.028 A 
ATOM     11  C   UNL     1      -2.586   6.419   3.884  1.00  0.00     0.005 A 
ATOM     12  C   UNL     1      -2.525   7.577   3.118  1.00  0.00     0.000 A 
ATOM     13  C   UNL     1      -1.496   6.307   1.343  1.00  0.00     0.026 A 
ATOM     14  C   UNL     1      -2.054   7.501   1.814  1.00  0.00     0.002 A 
ENDBRANCH   6   8
ENDBRANCH   5   6
BRANCH   5  15
ATOM     15  C   UNL     1       1.976   5.325   1.520  1.00  0.00    -0.015 A 
ATOM     16  C   UNL     1       1.600   6.671   1.582  1.00  0.00     0.006 A 
ATOM     17  C   UNL     1       3.351   5.133   1.238  1.00  0.00     0.006 A 
ATOM     18  C   UNL     1       2.500   7.737   1.427  1.00  0.00     0.000 A 
ATOM     19  C   UNL     1       4.276   6.182   1.140  1.00  0.00     0.000 A 
ATOM     20  C   UNL     1       3.848   7.491   1.252  1.00  0.00     0.000 A 
ENDBRANCH   5  15
ENDBRANCH   3   5
ENDBRANCH   2   3
ENDBRANCH   1   2
BRANCH   1  21
ATOM     21  C   UNL     1       2.529  -0.130   2.197  1.00  0.00     0.275 C 
BRANCH  21  22
ATOM     22  O   UNL     1       1.906  -0.596   0.973  1.00  0.00    -0.458 OA
BRANCH  22  23
ATOM     23  C   UNL     1       0.694  -0.085   0.599  1.00  0.00     0.338 C 
ATOM     24  O   UNL     1      -0.386  -0.501   0.938  1.00  0.00    -0.246 OA
BRANCH  23  25
ATOM     25  C   UNL     1       0.912   0.999  -0.395  1.00  0.00     0.060 A 
ATOM     26  C   UNL     1      -0.113   1.785  -0.949  1.00  0.00     0.016 A 
ATOM     27  C   UNL     1       2.235   1.309  -0.666  1.00  0.00     0.016 A 
ATOM     28  C   UNL     1       0.226   2.843  -1.810  1.00  0.00     0.010 A 
ATOM     29  C   UNL     1       2.548   2.530  -1.167  1.00  0.00     0.010 A 
ATOM     30  C   UNL     1       1.573   3.186  -1.923  1.00  0.00    -0.014 A 
BRANCH  30  31
ATOM     31  C   UNL     1       2.253   3.870  -3.018  1.00  0.00     0.031 A 
ATOM     32  C   UNL     1       2.686   5.267  -2.896  1.00  0.00     0.074 A 
ATOM     33  C   UNL     1       2.961   2.939  -3.713  1.00  0.00     0.049 A 
ATOM     34  N   UNL     1       3.740   5.704  -3.479  1.00  0.00    -0.248 NA
ATOM     35  C   UNL     1       2.015   6.285  -2.098  1.00  0.00     0.031 C 
ATOM     36  C   UNL     1       4.286   2.974  -4.316  1.00  0.00     0.029 A 
ATOM     37  N   UNL     1       2.564   1.605  -3.933  1.00  0.00    -0.354 N 
ATOM     38  C   UNL     1       3.994   6.983  -3.053  1.00  0.00     0.074 A 
ATOM     39  C   UNL     1       2.879   7.311  -2.199  1.00  0.00     0.031 C 
ATOM     40  C   UNL     1       4.398   1.917  -5.148  1.00  0.00     0.029 A 
ATOM     41  C   UNL     1       3.094   1.266  -5.188  1.00  0.00     0.049 A 
ATOM     42  H   UNL     1       2.031   1.034  -3.335  1.00  0.00     0.167 HD
ATOM     43  C   UNL     1       5.157   7.549  -3.488  1.00  0.00     0.037 A 
ATOM     44  C   UNL     1       2.181   1.314  -6.208  1.00  0.00     0.037 A 
ATOM     45  C   UNL     1       5.609   6.825  -4.681  1.00  0.00     0.049 A 
ATOM     46  C   UNL     1       2.360   2.572  -7.053  1.00  0.00     0.074 A 
ATOM     47  C   UNL     1       6.496   5.807  -4.974  1.00  0.00     0.029 A 
ATOM     48  N   UNL     1       4.762   6.906  -5.769  1.00  0.00    -0.354 N 
ATOM     49  N   UNL     1       3.248   3.504  -6.820  1.00  0.00    -0.248 NA
ATOM     50  C   UNL     1       1.523   2.897  -8.201  1.00  0.00     0.031 C 
ATOM     51  C   UNL     1       6.026   5.173  -6.184  1.00  0.00     0.029 A 
ATOM     52  C   UNL     1       4.889   5.835  -6.628  1.00  0.00     0.049 A 
ATOM     53  H   UNL     1       4.134   7.650  -5.915  1.00  0.00     0.167 HD
ATOM     54  C   UNL     1       3.102   4.536  -7.694  1.00  0.00     0.074 A 
ATOM     55  C   UNL     1       1.996   4.110  -8.541  1.00  0.00     0.031 C 
ATOM     56  C   UNL     1       3.870   5.669  -7.667  1.00  0.00     0.037 A 
BRANCH  43  57
ATOM     57  C   UNL     1       5.912   8.713  -2.899  1.00  0.00     0.064 A 
ATOM     58  C   UNL     1       7.130   9.128  -3.482  1.00  0.00     0.173 A 
ATOM     59  C   UNL     1       5.590   9.358  -1.691  1.00  0.00     0.173 A 
ATOM     60  F   UNL     1       7.534   8.639  -4.663  1.00  0.00    -0.203 F 
ATOM     61  C   UNL     1       7.987  10.046  -2.865  1.00  0.00     0.198 A 
ATOM     62  C   UNL     1       6.447  10.275  -1.071  1.00  0.00     0.198 A 
ATOM     63  F   UNL     1       4.441   9.124  -1.056  1.00  0.00    -0.203 F 
ATOM     64  F   UNL     1       9.150  10.367  -3.449  1.00  0.00    -0.200 F 
ATOM     65  C   UNL     1       7.655  10.604  -1.648  1.00  0.00     0.200 A 
ATOM     66  F   UNL     1       6.099  10.817   0.106  1.00  0.00    -0.200 F 
ATOM     67  F   UNL     1       8.492  11.453  -1.035  1.00  0.00    -0.200 F 
ENDBRANCH  43  57
BRANCH  44  68
ATOM     68  C   UNL     1       0.870   0.712  -5.732  1.00  0.00     0.064 A 
ATOM     69  C   UNL     1       0.922  -0.595  -5.178  1.00  0.00     0.173 A 
ATOM     70  C   UNL     1      -0.228   1.503  -5.357  1.00  0.00     0.173 A 
ATOM     71  F   UNL     1       1.957  -1.402  -5.468  1.00  0.00    -0.203 F 
ATOM     72  C   UNL     1       0.030  -1.015  -4.188  1.00  0.00     0.198 A 
ATOM     73  C   UNL     1      -1.149   1.055  -4.399  1.00  0.00     0.198 A 
ATOM     74  F   UNL     1      -0.346   2.760  -5.808  1.00  0.00    -0.203 F 
ATOM     75  F   UNL     1       0.228  -2.183  -3.559  1.00  0.00    -0.200 F 
ATOM     76  C   UNL     1      -0.994  -0.180  -3.784  1.00  0.00     0.200 A 
ATOM     77  F   UNL     1      -2.131   1.871  -3.986  1.00  0.00    -0.200 F 
ATOM     78  F   UNL     1      -1.793  -0.536  -2.768  1.00  0.00    -0.200 F 
ENDBRANCH  44  68
BRANCH  56  79
ATOM     79  C   UNL     1       3.655   6.756  -8.680  1.00  0.00     0.064 A 
ATOM     80  C   UNL     1       3.596   6.458 -10.049  1.00  0.00     0.173 A 
ATOM     81  C   UNL     1       3.583   8.122  -8.337  1.00  0.00     0.173 A 
ATOM     82  F   UNL     1       3.723   5.193 -10.479  1.00  0.00    -0.203 F 
ATOM     83  C   UNL     1       3.398   7.453 -11.003  1.00  0.00     0.198 A 
ATOM     84  C   UNL     1       3.478   9.121  -9.298  1.00  0.00     0.198 A 
ATOM     85  F   UNL     1       3.570   8.533  -7.060  1.00  0.00    -0.203 F 
ATOM     86  F   UNL     1       3.240   7.113 -12.289  1.00  0.00    -0.200 F 
ATOM     87  C   UNL     1       3.356   8.785 -10.630  1.00  0.00     0.200 A 
ATOM     88  F   UNL     1       3.475  10.407  -8.920  1.00  0.00    -0.200 F 
ATOM     89  F   UNL     1       3.185   9.742 -11.550  1.00  0.00    -0.200 F 
ENDBRANCH  56  79
ENDBRANCH  30  31
ENDBRANCH  23  25
ENDBRANCH  22  23
ENDBRANCH  21  22
ENDBRANCH   1  21
TORSDOF 14
