REMARK SMILES CCOC(=O)C1=NN(c2ccc(Cl)cc2[N+](=O)[O-])[C@@](C)(C(=O)OCCOC(=O)c2ccc(-c3c4nc(c(-c5c(F)c(F)c(F)c(F)c5F)c5ccc([nH]5)c(-c5c(F)c(F)c(F)c(F)c5F)c5nc(c(-c6c(F)c(F)c(F)c(F)c6F)c6ccc3[nH]6)C=C5)C=C4)cc2)C1
REMARK SMILES IDX 24 1 23 2 21 3 22 4 19 5 6 6 7 7 92 8 8 9 20 10 4 11 5 12
REMARK SMILES IDX 3 13 2 14 1 15 9 16 10 17 15 18 11 19 14 20 12 21 13 22
REMARK SMILES IDX 16 23 17 24 18 25 25 26 26 27 27 28 28 29 29 30 30 31 91 32
REMARK SMILES IDX 31 33 90 34 32 35 33 36 34 37 84 38 35 39 89 40 83 41 85 42
REMARK SMILES IDX 36 43 88 44 82 45 81 46 37 48 69 49 49 50 68 51 50 52 53 53
REMARK SMILES IDX 67 54 86 55 51 56 52 57 66 59 87 60 54 61 38 62 39 63 47 64
REMARK SMILES IDX 40 65 41 66 45 67 48 68 42 69 43 70 46 71 44 72 70 73 71 74
REMARK SMILES IDX 79 75 72 76 73 77 77 78 80 79 74 80 75 81 78 82 76 83 55 84
REMARK SMILES IDX 56 85 64 86 57 87 58 88 62 89 65 90 59 91 60 92 63 93 61 94
REMARK H PARENT 85 47 53 58
REMARK Flexibility Score: inf
ROOT
ATOM      1  C   UNL     1       6.810  -2.651   6.804  1.00  0.00     0.274 C 
ENDROOT
BRANCH   1   2
ATOM      2  O   UNL     1       5.548  -1.948   6.843  1.00  0.00    -0.460 OA
BRANCH   2   3
ATOM      3  C   UNL     1       5.438  -0.829   6.081  1.00  0.00     0.334 C 
ATOM      4  O   UNL     1       6.363  -0.338   5.438  1.00  0.00    -0.249 OA
BRANCH   3   5
ATOM      5  C   UNL     1       4.045  -0.171   6.142  1.00  0.00     0.163 C 
ATOM      6  C   UNL     1       2.576  -0.964   4.535  1.00  0.00     0.149 C 
ATOM      7  N   UNL     1       2.238  -1.611   5.606  1.00  0.00    -0.168 NA
ATOM      8  C   UNL     1       3.562   0.138   4.708  1.00  0.00     0.108 C 
ATOM      9  N   UNL     1       2.976  -1.085   6.629  1.00  0.00    -0.241 N 
ATOM     10  C   UNL     1       4.202   1.136   6.914  1.00  0.00     0.050 C 
BRANCH   6  11
ATOM     11  C   UNL     1       1.962  -1.223   3.187  1.00  0.00     0.354 C 
ATOM     12  O   UNL     1       2.339  -2.117   2.455  1.00  0.00    -0.245 OA
BRANCH  11  13
ATOM     13  O   UNL     1       1.007  -0.299   2.958  1.00  0.00    -0.461 OA
BRANCH  13  14
ATOM     14  C   UNL     1       0.293  -0.448   1.721  1.00  0.00     0.230 C 
ATOM     15  C   UNL     1       0.913   0.437   0.657  1.00  0.00     0.049 C 
ENDBRANCH  13  14
ENDBRANCH  11  13
ENDBRANCH   6  11
BRANCH   9  16
ATOM     16  C   UNL     1       2.693  -1.511   7.920  1.00  0.00     0.138 A 
ATOM     17  C   UNL     1       2.535  -0.589   8.968  1.00  0.00     0.037 A 
ATOM     18  C   UNL     1       2.435  -2.855   8.265  1.00  0.00     0.295 A 
ATOM     19  C   UNL     1       2.184  -0.982  10.268  1.00  0.00     0.023 A 
ATOM     20  C   UNL     1       2.093  -3.275   9.562  1.00  0.00     0.108 A 
ATOM     21  C   UNL     1       1.971  -2.323  10.560  1.00  0.00     0.048 A 
ATOM     22  Cl  UNL     1       1.544  -2.797  12.155  1.00  0.00    -0.084 Cl
BRANCH  18  23
ATOM     23  N   UNL     1       2.586  -3.914   7.291  1.00  0.00     0.065 N 
ATOM     24  O   UNL     1       3.733  -4.348   7.118  1.00  0.00    -0.258 OA
ATOM     25  O   UNL     1       1.549  -4.401   6.819  1.00  0.00    -0.258 OA
ENDBRANCH  18  23
ENDBRANCH   9  16
ENDBRANCH   3   5
ENDBRANCH   2   3
ENDBRANCH   1   2
BRANCH   1  26
ATOM     26  C   UNL     1       6.768  -3.801   5.798  1.00  0.00     0.275 C 
BRANCH  26  27
ATOM     27  O   UNL     1       6.533  -3.254   4.494  1.00  0.00    -0.458 OA
BRANCH  27  28
ATOM     28  C   UNL     1       5.931  -4.078   3.604  1.00  0.00     0.338 C 
ATOM     29  O   UNL     1       5.665  -5.254   3.762  1.00  0.00    -0.246 OA
BRANCH  28  30
ATOM     30  C   UNL     1       5.658  -3.322   2.354  1.00  0.00     0.060 A 
ATOM     31  C   UNL     1       5.634  -1.924   2.335  1.00  0.00     0.016 A 
ATOM     32  C   UNL     1       5.394  -4.027   1.179  1.00  0.00     0.016 A 
ATOM     33  C   UNL     1       5.281  -1.236   1.175  1.00  0.00     0.010 A 
ATOM     34  C   UNL     1       5.130  -3.335  -0.007  1.00  0.00     0.010 A 
ATOM     35  C   UNL     1       5.047  -1.932  -0.018  1.00  0.00    -0.014 A 
BRANCH  35  36
ATOM     36  C   UNL     1       4.704  -1.206  -1.271  1.00  0.00     0.031 A 
ATOM     37  C   UNL     1       3.418  -1.506  -1.991  1.00  0.00     0.074 A 
ATOM     38  C   UNL     1       5.543  -0.279  -1.777  1.00  0.00     0.049 A 
ATOM     39  N   UNL     1       3.035  -1.140  -3.189  1.00  0.00    -0.248 NA
ATOM     40  C   UNL     1       2.432  -2.329  -1.272  1.00  0.00     0.031 C 
ATOM     41  C   UNL     1       6.801   0.153  -1.165  1.00  0.00     0.029 A 
ATOM     42  N   UNL     1       5.464   0.467  -2.928  1.00  0.00    -0.354 N 
ATOM     43  C   UNL     1       1.794  -1.728  -3.386  1.00  0.00     0.074 A 
ATOM     44  C   UNL     1       1.479  -2.470  -2.183  1.00  0.00     0.031 C 
ATOM     45  C   UNL     1       7.356   1.109  -1.924  1.00  0.00     0.029 A 
ATOM     46  C   UNL     1       6.546   1.289  -3.124  1.00  0.00     0.049 A 
ATOM     47  H   UNL     1       4.704   0.417  -3.552  1.00  0.00     0.167 HD
ATOM     48  C   UNL     1       0.991  -1.655  -4.474  1.00  0.00     0.037 A 
ATOM     49  C   UNL     1       6.886   2.060  -4.175  1.00  0.00     0.037 A 
ATOM     50  C   UNL     1       1.280  -0.884  -5.654  1.00  0.00     0.049 A 
ATOM     51  C   UNL     1       6.021   2.060  -5.401  1.00  0.00     0.074 A 
ATOM     52  C   UNL     1       0.508  -0.723  -6.792  1.00  0.00     0.029 A 
ATOM     53  N   UNL     1       2.432  -0.137  -5.843  1.00  0.00    -0.354 N 
ATOM     54  N   UNL     1       4.883   1.446  -5.606  1.00  0.00    -0.248 NA
ATOM     55  C   UNL     1       6.511   2.824  -6.557  1.00  0.00     0.031 C 
ATOM     56  C   UNL     1       1.206   0.103  -7.682  1.00  0.00     0.029 A 
ATOM     57  C   UNL     1       2.401   0.473  -7.086  1.00  0.00     0.049 A 
ATOM     58  H   UNL     1       3.164  -0.052  -5.190  1.00  0.00     0.167 HD
ATOM     59  C   UNL     1       4.527   1.734  -6.915  1.00  0.00     0.074 A 
ATOM     60  C   UNL     1       5.556   2.602  -7.449  1.00  0.00     0.031 C 
ATOM     61  C   UNL     1       3.447   1.309  -7.613  1.00  0.00     0.037 A 
BRANCH  48  62
ATOM     62  C   UNL     1      -0.278  -2.451  -4.450  1.00  0.00     0.064 A 
ATOM     63  C   UNL     1      -1.402  -2.017  -3.736  1.00  0.00     0.173 A 
ATOM     64  C   UNL     1      -0.383  -3.635  -5.195  1.00  0.00     0.173 A 
ATOM     65  F   UNL     1      -1.343  -0.899  -2.997  1.00  0.00    -0.203 F 
ATOM     66  C   UNL     1      -2.587  -2.748  -3.760  1.00  0.00     0.198 A 
ATOM     67  C   UNL     1      -1.574  -4.354  -5.230  1.00  0.00     0.198 A 
ATOM     68  F   UNL     1       0.667  -4.087  -5.897  1.00  0.00    -0.203 F 
ATOM     69  F   UNL     1      -3.645  -2.329  -3.051  1.00  0.00    -0.200 F 
ATOM     70  C   UNL     1      -2.674  -3.911  -4.511  1.00  0.00     0.200 A 
ATOM     71  F   UNL     1      -1.658  -5.474  -5.962  1.00  0.00    -0.200 F 
ATOM     72  F   UNL     1      -3.819  -4.607  -4.541  1.00  0.00    -0.200 F 
ENDBRANCH  48  62
BRANCH  49  73
ATOM     73  C   UNL     1       8.148   2.840  -4.132  1.00  0.00     0.064 A 
ATOM     74  C   UNL     1       8.127   4.233  -3.995  1.00  0.00     0.173 A 
ATOM     75  C   UNL     1       9.398   2.204  -4.192  1.00  0.00     0.173 A 
ATOM     76  F   UNL     1       6.956   4.885  -3.961  1.00  0.00    -0.203 F 
ATOM     77  C   UNL     1       9.311   4.963  -3.911  1.00  0.00     0.198 A 
ATOM     78  C   UNL     1      10.579   2.932  -4.085  1.00  0.00     0.198 A 
ATOM     79  F   UNL     1       9.467   0.872  -4.328  1.00  0.00    -0.203 F 
ATOM     80  F   UNL     1       9.267   6.297  -3.799  1.00  0.00    -0.200 F 
ATOM     81  C   UNL     1      10.536   4.311  -3.945  1.00  0.00     0.200 A 
ATOM     82  F   UNL     1      11.759   2.297  -4.106  1.00  0.00    -0.200 F 
ATOM     83  F   UNL     1      11.673   5.012  -3.846  1.00  0.00    -0.200 F 
ENDBRANCH  49  73
BRANCH  61  84
ATOM     84  C   UNL     1       3.337   1.762  -9.035  1.00  0.00     0.064 A 
ATOM     85  C   UNL     1       4.090   1.151 -10.047  1.00  0.00     0.173 A 
ATOM     86  C   UNL     1       2.457   2.792  -9.394  1.00  0.00     0.173 A 
ATOM     87  F   UNL     1       4.958   0.173  -9.745  1.00  0.00    -0.203 F 
ATOM     88  C   UNL     1       3.975   1.565 -11.370  1.00  0.00     0.198 A 
ATOM     89  C   UNL     1       2.333   3.193 -10.720  1.00  0.00     0.198 A 
ATOM     90  F   UNL     1       1.717   3.405  -8.458  1.00  0.00    -0.203 F 
ATOM     91  F   UNL     1       4.727   0.991 -12.319  1.00  0.00    -0.200 F 
ATOM     92  C   UNL     1       3.094   2.583 -11.707  1.00  0.00     0.200 A 
ATOM     93  F   UNL     1       1.480   4.175 -11.045  1.00  0.00    -0.200 F 
ATOM     94  F   UNL     1       2.985   2.982 -12.981  1.00  0.00    -0.200 F 
ENDBRANCH  61  84
ENDBRANCH  35  36
ENDBRANCH  28  30
ENDBRANCH  27  28
ENDBRANCH  26  27
ENDBRANCH   1  26
TORSDOF 16
