REMARK SMILES CCOC(=O)c1sc(NC(=O)CCC(=O)OCCOC(=O)c2ccc(-c3c4nc(c(-c5c(F)c(F)c(F)c(F)c5F)c5ccc([nH]5)c(-c5c(F)c(F)c(F)c(F)c5F)c5nc(c(-c6c(F)c(F)c(F)c(F)c6F)c6ccc3[nH]6)C=C5)C=C4)cc2)c(C#N)c1C
REMARK SMILES IDX 14 1 15 2 13 3 12 4 10 5 9 6 11 8 8 9 6 10 7 11 88 12 85 13
REMARK SMILES IDX 89 14 4 15 5 16 3 17 2 18 1 19 86 20 87 21 16 22 17 23 18 24
REMARK SMILES IDX 19 25 20 26 21 27 22 28 23 29 84 30 24 31 83 32 25 33 26 34
REMARK SMILES IDX 27 35 77 36 28 37 82 38 76 39 78 40 29 41 81 42 75 43 74 44
REMARK SMILES IDX 30 46 62 47 42 48 61 49 43 50 46 51 60 52 79 53 44 54 45 55
REMARK SMILES IDX 59 57 80 58 47 59 31 60 32 61 40 62 33 63 34 64 38 65 41 66
REMARK SMILES IDX 35 67 36 68 39 69 37 70 63 71 64 72 72 73 65 74 66 75 70 76
REMARK SMILES IDX 73 77 67 78 68 79 71 80 69 81 48 82 49 83 57 84 50 85 51 86
REMARK SMILES IDX 55 87 58 88 52 89 53 90 56 91 54 92
REMARK H PARENT 9 7 78 45 46 56
REMARK Flexibility Score: inf
ROOT
ATOM      1  C   UNL     1       6.960  -0.934  -4.851  1.00  0.00     0.306 C 
ATOM      2  O   UNL     1       7.489  -0.122  -4.097  1.00  0.00    -0.252 OA
ENDROOT
BRANCH   1   3
ATOM      3  C   UNL     1       7.293  -2.412  -4.866  1.00  0.00     0.132 C 
BRANCH   3   4
ATOM      4  C   UNL     1       6.180  -3.469  -5.161  1.00  0.00     0.112 C 
BRANCH   4   5
ATOM      5  C   UNL     1       5.372  -3.304  -6.426  1.00  0.00     0.225 C 
ATOM      6  N   UNL     1       4.090  -2.922  -6.660  1.00  0.00    -0.317 N 
ATOM      7  H   UNL     1       3.922  -3.026  -7.625  1.00  0.00     0.170 HD
ATOM      8  O   UNL     1       5.996  -3.541  -7.481  1.00  0.00    -0.275 OA
BRANCH   6   9
ATOM      9  C   UNL     1       2.911  -2.439  -6.078  1.00  0.00     0.114 A 
ATOM     10  C   UNL     1       1.230  -1.284  -4.604  1.00  0.00     0.118 A 
ATOM     11  S   UNL     1       2.359  -2.625  -4.465  1.00  0.00    -0.109 S 
ATOM     12  C   UNL     1       1.034  -0.984  -5.944  1.00  0.00    -0.006 A 
ATOM     13  C   UNL     1       1.961  -1.698  -6.785  1.00  0.00     0.091 A 
ATOM     14  C   UNL     1       0.184   0.173  -6.397  1.00  0.00     0.048 C 
BRANCH  10  15
ATOM     15  C   UNL     1       0.964  -0.250  -3.582  1.00  0.00     0.348 C 
ATOM     16  O   UNL     1       1.493   0.855  -3.661  1.00  0.00    -0.245 OA
BRANCH  15  17
ATOM     17  O   UNL     1       0.053  -0.540  -2.600  1.00  0.00    -0.462 OA
BRANCH  17  18
ATOM     18  C   UNL     1      -0.278   0.610  -1.754  1.00  0.00     0.230 C 
ATOM     19  C   UNL     1       0.170   0.455  -0.314  1.00  0.00     0.049 C 
ENDBRANCH  17  18
ENDBRANCH  15  17
ENDBRANCH  10  15
BRANCH  13  20
ATOM     20  C   UNL     1       2.071  -1.430  -8.185  1.00  0.00     0.103 C 
ATOM     21  N   UNL     1       2.179  -1.177  -9.322  1.00  0.00    -0.192 NA
ENDBRANCH  13  20
ENDBRANCH   6   9
ENDBRANCH   4   5
ENDBRANCH   3   4
ENDBRANCH   1   3
BRANCH   1  22
ATOM     22  O   UNL     1       5.987  -0.622  -5.734  1.00  0.00    -0.462 OA
BRANCH  22  23
ATOM     23  C   UNL     1       5.325   0.607  -5.431  1.00  0.00     0.274 C 
BRANCH  23  24
ATOM     24  C   UNL     1       4.268   0.400  -4.343  1.00  0.00     0.275 C 
BRANCH  24  25
ATOM     25  O   UNL     1       4.577   0.128  -2.938  1.00  0.00    -0.458 OA
BRANCH  25  26
ATOM     26  C   UNL     1       4.824  -1.166  -2.576  1.00  0.00     0.338 C 
ATOM     27  O   UNL     1       5.324  -1.995  -3.302  1.00  0.00    -0.246 OA
BRANCH  26  28
ATOM     28  C   UNL     1       4.117  -1.758  -1.424  1.00  0.00     0.060 A 
ATOM     29  C   UNL     1       4.363  -3.063  -0.955  1.00  0.00     0.016 A 
ATOM     30  C   UNL     1       2.840  -1.317  -1.289  1.00  0.00     0.016 A 
ATOM     31  C   UNL     1       3.283  -3.906  -0.543  1.00  0.00     0.010 A 
ATOM     32  C   UNL     1       1.921  -2.031  -0.558  1.00  0.00     0.010 A 
ATOM     33  C   UNL     1       1.976  -3.412  -0.499  1.00  0.00    -0.014 A 
BRANCH  33  34
ATOM     34  C   UNL     1       0.790  -4.052   0.141  1.00  0.00     0.031 A 
ATOM     35  C   UNL     1       0.822  -3.802   1.623  1.00  0.00     0.074 A 
ATOM     36  C   UNL     1      -0.353  -4.516  -0.445  1.00  0.00     0.049 A 
ATOM     37  N   UNL     1       1.381  -4.549   2.523  1.00  0.00    -0.248 NA
ATOM     38  C   UNL     1       0.527  -2.441   2.123  1.00  0.00     0.031 C 
ATOM     39  C   UNL     1      -0.749  -4.602  -1.858  1.00  0.00     0.029 A 
ATOM     40  N   UNL     1      -1.477  -5.029   0.180  1.00  0.00    -0.354 N 
ATOM     41  C   UNL     1       1.303  -3.800   3.696  1.00  0.00     0.074 A 
ATOM     42  C   UNL     1       1.187  -2.442   3.281  1.00  0.00     0.031 C 
ATOM     43  C   UNL     1      -2.064  -4.942  -1.966  1.00  0.00     0.029 A 
ATOM     44  C   UNL     1      -2.602  -5.222  -0.647  1.00  0.00     0.049 A 
ATOM     45  H   UNL     1      -1.489  -5.245   1.141  1.00  0.00     0.167 HD
ATOM     46  C   UNL     1       0.911  -4.343   4.881  1.00  0.00     0.037 A 
ATOM     47  C   UNL     1      -3.861  -5.596  -0.249  1.00  0.00     0.037 A 
ATOM     48  C   UNL     1       0.926  -5.780   4.784  1.00  0.00     0.049 A 
ATOM     49  C   UNL     1      -3.715  -6.218   1.095  1.00  0.00     0.074 A 
ATOM     50  C   UNL     1       1.904  -6.715   4.507  1.00  0.00     0.029 A 
ATOM     51  N   UNL     1      -0.274  -6.393   4.514  1.00  0.00    -0.354 N 
ATOM     52  N   UNL     1      -3.068  -7.332   1.293  1.00  0.00    -0.248 NA
ATOM     53  C   UNL     1      -3.805  -5.319   2.236  1.00  0.00     0.031 C 
ATOM     54  C   UNL     1       1.277  -7.650   3.632  1.00  0.00     0.029 A 
ATOM     55  C   UNL     1      -0.072  -7.317   3.521  1.00  0.00     0.049 A 
ATOM     56  H   UNL     1      -1.131  -6.201   4.958  1.00  0.00     0.167 HD
ATOM     57  C   UNL     1      -2.287  -7.079   2.410  1.00  0.00     0.074 A 
ATOM     58  C   UNL     1      -2.796  -5.819   2.955  1.00  0.00     0.031 C 
ATOM     59  C   UNL     1      -1.106  -7.733   2.603  1.00  0.00     0.037 A 
BRANCH  46  60
ATOM     60  C   UNL     1       0.122  -3.613   5.955  1.00  0.00     0.064 A 
ATOM     61  C   UNL     1      -0.086  -4.270   7.182  1.00  0.00     0.173 A 
ATOM     62  C   UNL     1      -0.648  -2.439   5.771  1.00  0.00     0.173 A 
ATOM     63  F   UNL     1       0.591  -5.390   7.478  1.00  0.00    -0.203 F 
ATOM     64  C   UNL     1      -1.051  -3.843   8.100  1.00  0.00     0.198 A 
ATOM     65  C   UNL     1      -1.572  -1.987   6.711  1.00  0.00     0.198 A 
ATOM     66  F   UNL     1      -0.636  -1.721   4.645  1.00  0.00    -0.203 F 
ATOM     67  F   UNL     1      -1.296  -4.577   9.193  1.00  0.00    -0.200 F 
ATOM     68  C   UNL     1      -1.800  -2.708   7.859  1.00  0.00     0.200 A 
ATOM     69  F   UNL     1      -2.294  -0.888   6.446  1.00  0.00    -0.200 F 
ATOM     70  F   UNL     1      -2.768  -2.332   8.704  1.00  0.00    -0.200 F 
ENDBRANCH  46  60
BRANCH  47  71
ATOM     71  C   UNL     1      -5.212  -5.150  -0.728  1.00  0.00     0.064 A 
ATOM     72  C   UNL     1      -6.413  -5.804  -0.364  1.00  0.00     0.173 A 
ATOM     73  C   UNL     1      -5.370  -3.871  -1.291  1.00  0.00     0.173 A 
ATOM     74  F   UNL     1      -6.376  -7.000   0.241  1.00  0.00    -0.203 F 
ATOM     75  C   UNL     1      -7.676  -5.208  -0.545  1.00  0.00     0.198 A 
ATOM     76  C   UNL     1      -6.626  -3.275  -1.464  1.00  0.00     0.198 A 
ATOM     77  F   UNL     1      -4.296  -3.128  -1.589  1.00  0.00    -0.203 F 
ATOM     78  F   UNL     1      -8.788  -5.840  -0.140  1.00  0.00    -0.200 F 
ATOM     79  C   UNL     1      -7.778  -3.938  -1.084  1.00  0.00     0.200 A 
ATOM     80  F   UNL     1      -6.704  -2.024  -1.940  1.00  0.00    -0.200 F 
ATOM     81  F   UNL     1      -8.972  -3.337  -1.198  1.00  0.00    -0.200 F 
ENDBRANCH  47  71
BRANCH  59  82
ATOM     82  C   UNL     1      -0.771  -8.875   1.678  1.00  0.00     0.064 A 
ATOM     83  C   UNL     1      -0.526  -8.738   0.299  1.00  0.00     0.173 A 
ATOM     84  C   UNL     1      -0.531 -10.130   2.246  1.00  0.00     0.173 A 
ATOM     85  F   UNL     1      -0.638  -7.551  -0.307  1.00  0.00    -0.203 F 
ATOM     86  C   UNL     1      -0.093  -9.817  -0.475  1.00  0.00     0.198 A 
ATOM     87  C   UNL     1      -0.066 -11.196   1.482  1.00  0.00     0.198 A 
ATOM     88  F   UNL     1      -0.693 -10.307   3.567  1.00  0.00    -0.203 F 
ATOM     89  F   UNL     1       0.133  -9.658  -1.788  1.00  0.00    -0.200 F 
ATOM     90  C   UNL     1       0.143 -11.044   0.120  1.00  0.00     0.200 A 
ATOM     91  F   UNL     1       0.212 -12.365   2.074  1.00  0.00    -0.200 F 
ATOM     92  F   UNL     1       0.598 -12.071  -0.610  1.00  0.00    -0.200 F 
ENDBRANCH  59  82
ENDBRANCH  33  34
ENDBRANCH  26  28
ENDBRANCH  25  26
ENDBRANCH  24  25
ENDBRANCH  23  24
ENDBRANCH  22  23
ENDBRANCH   1  22
TORSDOF 18
