REMARK SMILES Cc1cccc(-c2ncc(C[NH+]3CCC4(CC3)NC(=O)C[C@H]4C(=O)OCCOC(=O)c3ccc(-c4c5nc(c(-c6c(F)c(F)c(F)c(F)c6F)c6ccc([nH]6)c(-c6c(F)c(F)c(F)c(F)c6F)c6nc(c(-c7c(F)c(F)c(F)c(F)c7F)c7ccc4[nH]7)C=C6)C=C5)cc3)cn2)c1
REMARK SMILES IDX 26 1 25 2 23 3 24 4 22 5 12 6 13 7 17 8 14 10 16 11 15 12
REMARK SMILES IDX 18 13 19 14 21 16 20 17 11 18 10 19 7 20 8 21 95 22 9 23
REMARK SMILES IDX 94 24 6 25 1 26 2 27 3 28 96 29 4 30 5 31 27 32 28 33 29 34
REMARK SMILES IDX 30 35 31 36 32 37 93 38 33 39 92 40 34 41 35 42 36 43 86 44
REMARK SMILES IDX 37 45 91 46 85 47 87 48 38 49 90 50 84 51 83 52 39 54 71 55
REMARK SMILES IDX 51 56 70 57 52 58 55 59 69 60 88 61 53 62 54 63 68 65 89 66
REMARK SMILES IDX 56 67 40 68 41 69 49 70 42 71 43 72 47 73 50 74 44 75 45 76
REMARK SMILES IDX 48 77 46 78 72 79 73 80 81 81 74 82 75 83 79 84 82 85 76 86
REMARK SMILES IDX 77 87 80 88 78 89 57 90 58 91 66 92 59 93 60 94 64 95 67 96
REMARK SMILES IDX 61 97 62 98 65 99 63 100
REMARK H PARENT 12 9 18 15 87 53 55 64
REMARK Flexibility Score: inf
ROOT
ATOM      1  C   UNL     1      -0.661   4.622  -4.329  1.00  0.00     0.274 C 
ENDROOT
BRANCH   1   2
ATOM      2  O   UNL     1       0.126   4.679  -3.077  1.00  0.00    -0.462 OA
BRANCH   2   3
ATOM      3  C   UNL     1      -0.284   5.563  -2.167  1.00  0.00     0.311 C 
ATOM      4  O   UNL     1      -1.294   6.207  -2.398  1.00  0.00    -0.252 OA
BRANCH   3   5
ATOM      5  C   UNL     1       0.348   5.750  -0.795  1.00  0.00     0.134 C 
ATOM      6  N   UNL     1      -3.448   6.195   0.761  1.00  0.00    -0.331 N 
ATOM      7  C   UNL     1      -2.391   6.619   1.681  1.00  0.00     0.264 C 
ATOM      8  C   UNL     1      -2.867   5.879  -0.513  1.00  0.00     0.264 C 
ATOM      9  H   UNL     1      -4.024   7.037   0.785  1.00  0.00     0.348 HD
ATOM     10  C   UNL     1      -0.931   6.037   1.542  1.00  0.00     0.091 C 
ATOM     11  C   UNL     1      -1.873   4.716  -0.321  1.00  0.00     0.091 C 
ATOM     12  C   UNL     1      -0.575   5.171   0.293  1.00  0.00     0.064 C 
ATOM     13  N   UNL     1       0.202   4.028   0.748  1.00  0.00    -0.349 N 
ATOM     14  C   UNL     1       1.480   3.978   0.277  1.00  0.00     0.221 C 
ATOM     15  H   UNL     1      -0.168   3.343   1.350  1.00  0.00     0.164 HD
ATOM     16  C   UNL     1       1.733   5.175  -0.565  1.00  0.00     0.117 C 
ATOM     17  O   UNL     1       2.306   3.107   0.551  1.00  0.00    -0.275 OA
BRANCH   6  18
ATOM     18  C   UNL     1      -4.586   5.329   1.121  1.00  0.00     0.302 C 
BRANCH  18  19
ATOM     19  C   UNL     1      -4.367   3.833   0.977  1.00  0.00     0.043 A 
ATOM     20  C   UNL     1      -3.001   1.515   0.487  1.00  0.00     0.159 A 
ATOM     21  N   UNL     1      -3.010   1.996   1.750  1.00  0.00    -0.236 NA
ATOM     22  N   UNL     1      -3.743   2.022  -0.521  1.00  0.00    -0.236 NA
ATOM     23  C   UNL     1      -3.724   3.126   1.973  1.00  0.00     0.124 A 
ATOM     24  C   UNL     1      -4.424   3.169  -0.248  1.00  0.00     0.124 A 
BRANCH  20  25
ATOM     25  C   UNL     1      -2.049   0.425   0.190  1.00  0.00     0.019 A 
ATOM     26  C   UNL     1       1.746  -0.306   0.149  1.00  0.00     0.044 C 
ATOM     27  C   UNL     1       0.254  -0.479   0.065  1.00  0.00    -0.050 A 
ATOM     28  C   UNL     1      -0.268  -1.751  -0.166  1.00  0.00     0.003 A 
ATOM     29  C   UNL     1      -0.643   0.595   0.230  1.00  0.00     0.015 A 
ATOM     30  C   UNL     1      -1.646  -1.937  -0.254  1.00  0.00     0.001 A 
ATOM     31  C   UNL     1      -2.524  -0.861  -0.088  1.00  0.00     0.012 A 
ENDBRANCH  20  25
ENDBRANCH  18  19
ENDBRANCH   6  18
ENDBRANCH   3   5
ENDBRANCH   2   3
ENDBRANCH   1   2
BRANCH   1  32
ATOM     32  C   UNL     1      -1.974   5.482  -4.660  1.00  0.00     0.275 C 
BRANCH  32  33
ATOM     33  O   UNL     1      -2.208   6.966  -4.704  1.00  0.00    -0.458 OA
BRANCH  33  34
ATOM     34  C   UNL     1      -1.684   8.021  -4.002  1.00  0.00     0.338 C 
ATOM     35  O   UNL     1      -2.340   8.932  -3.521  1.00  0.00    -0.246 OA
BRANCH  34  36
ATOM     36  C   UNL     1      -0.216   8.015  -3.946  1.00  0.00     0.060 A 
ATOM     37  C   UNL     1       0.523   8.400  -2.802  1.00  0.00     0.016 A 
ATOM     38  C   UNL     1       0.354   7.301  -4.975  1.00  0.00     0.016 A 
ATOM     39  C   UNL     1       1.840   7.953  -2.666  1.00  0.00     0.010 A 
ATOM     40  C   UNL     1       1.506   6.635  -4.702  1.00  0.00     0.010 A 
ATOM     41  C   UNL     1       2.296   7.031  -3.611  1.00  0.00    -0.014 A 
BRANCH  41  42
ATOM     42  C   UNL     1       3.683   6.781  -3.964  1.00  0.00     0.031 A 
ATOM     43  C   UNL     1       4.377   5.561  -3.515  1.00  0.00     0.074 A 
ATOM     44  C   UNL     1       3.936   7.559  -5.048  1.00  0.00     0.049 A 
ATOM     45  N   UNL     1       5.582   5.525  -3.052  1.00  0.00    -0.248 NA
ATOM     46  C   UNL     1       3.718   4.245  -3.474  1.00  0.00     0.031 C 
ATOM     47  C   UNL     1       4.830   7.450  -6.175  1.00  0.00     0.029 A 
ATOM     48  N   UNL     1       3.195   8.724  -5.361  1.00  0.00    -0.354 N 
ATOM     49  C   UNL     1       5.946   4.189  -3.105  1.00  0.00     0.074 A 
ATOM     50  C   UNL     1       4.712   3.442  -3.068  1.00  0.00     0.031 C 
ATOM     51  C   UNL     1       4.854   8.646  -6.810  1.00  0.00     0.029 A 
ATOM     52  C   UNL     1       4.006   9.585  -6.071  1.00  0.00     0.049 A 
ATOM     53  H   UNL     1       2.257   8.892  -5.112  1.00  0.00     0.167 HD
ATOM     54  C   UNL     1       7.112   3.824  -3.724  1.00  0.00     0.037 A 
ATOM     55  C   UNL     1       4.357  10.705  -5.377  1.00  0.00     0.037 A 
ATOM     56  C   UNL     1       7.614   4.962  -4.487  1.00  0.00     0.049 A 
ATOM     57  C   UNL     1       5.780  10.522  -4.933  1.00  0.00     0.074 A 
ATOM     58  C   UNL     1       7.522   5.256  -5.838  1.00  0.00     0.029 A 
ATOM     59  N   UNL     1       7.965   6.140  -3.846  1.00  0.00    -0.354 N 
ATOM     60  N   UNL     1       6.307   9.373  -4.603  1.00  0.00    -0.248 NA
ATOM     61  C   UNL     1       6.740  11.612  -4.969  1.00  0.00     0.031 C 
ATOM     62  C   UNL     1       7.841   6.625  -6.006  1.00  0.00     0.029 A 
ATOM     63  C   UNL     1       8.065   7.173  -4.754  1.00  0.00     0.049 A 
ATOM     64  H   UNL     1       8.120   6.227  -2.878  1.00  0.00     0.167 HD
ATOM     65  C   UNL     1       7.661   9.526  -4.509  1.00  0.00     0.074 A 
ATOM     66  C   UNL     1       7.878  10.949  -4.712  1.00  0.00     0.031 C 
ATOM     67  C   UNL     1       8.521   8.482  -4.331  1.00  0.00     0.037 A 
BRANCH  54  68
ATOM     68  C   UNL     1       7.587   2.407  -3.989  1.00  0.00     0.064 A 
ATOM     69  C   UNL     1       8.529   2.131  -5.009  1.00  0.00     0.173 A 
ATOM     70  C   UNL     1       7.220   1.291  -3.211  1.00  0.00     0.173 A 
ATOM     71  F   UNL     1       9.049   3.102  -5.769  1.00  0.00    -0.203 F 
ATOM     72  C   UNL     1       9.002   0.845  -5.278  1.00  0.00     0.198 A 
ATOM     73  C   UNL     1       7.683  -0.004  -3.493  1.00  0.00     0.198 A 
ATOM     74  F   UNL     1       6.436   1.428  -2.133  1.00  0.00    -0.203 F 
ATOM     75  F   UNL     1       9.890   0.658  -6.266  1.00  0.00    -0.200 F 
ATOM     76  C   UNL     1       8.569  -0.227  -4.529  1.00  0.00     0.200 A 
ATOM     77  F   UNL     1       7.275  -1.038  -2.742  1.00  0.00    -0.200 F 
ATOM     78  F   UNL     1       9.024  -1.460  -4.788  1.00  0.00    -0.200 F 
ENDBRANCH  54  68
BRANCH  55  79
ATOM     79  C   UNL     1       3.231  11.269  -4.535  1.00  0.00     0.064 A 
ATOM     80  C   UNL     1       1.992  11.553  -5.165  1.00  0.00     0.173 A 
ATOM     81  C   UNL     1       3.222  11.271  -3.133  1.00  0.00     0.173 A 
ATOM     82  F   UNL     1       1.907  11.545  -6.506  1.00  0.00    -0.203 F 
ATOM     83  C   UNL     1       0.809  11.741  -4.444  1.00  0.00     0.198 A 
ATOM     84  C   UNL     1       2.035  11.483  -2.410  1.00  0.00     0.198 A 
ATOM     85  F   UNL     1       4.335  10.983  -2.445  1.00  0.00    -0.203 F 
ATOM     86  F   UNL     1      -0.356  11.888  -5.093  1.00  0.00    -0.200 F 
ATOM     87  C   UNL     1       0.830  11.699  -3.063  1.00  0.00     0.200 A 
ATOM     88  F   UNL     1       2.041  11.384  -1.071  1.00  0.00    -0.200 F 
ATOM     89  F   UNL     1      -0.311  11.796  -2.365  1.00  0.00    -0.200 F 
ENDBRANCH  55  79
BRANCH  67  90
ATOM     90  C   UNL     1       9.940   8.610  -3.851  1.00  0.00     0.064 A 
ATOM     91  C   UNL     1      10.395   9.703  -3.100  1.00  0.00     0.173 A 
ATOM     92  C   UNL     1      10.854   7.534  -3.983  1.00  0.00     0.173 A 
ATOM     93  F   UNL     1       9.581  10.713  -2.765  1.00  0.00    -0.203 F 
ATOM     94  C   UNL     1      11.695   9.764  -2.608  1.00  0.00     0.198 A 
ATOM     95  C   UNL     1      12.120   7.561  -3.412  1.00  0.00     0.198 A 
ATOM     96  F   UNL     1      10.539   6.405  -4.636  1.00  0.00    -0.203 F 
ATOM     97  F   UNL     1      12.102  10.866  -1.964  1.00  0.00    -0.200 F 
ATOM     98  C   UNL     1      12.552   8.690  -2.751  1.00  0.00     0.200 A 
ATOM     99  F   UNL     1      12.906   6.479  -3.490  1.00  0.00    -0.200 F 
ATOM    100  F   UNL     1      13.784   8.734  -2.230  1.00  0.00    -0.200 F 
ENDBRANCH  67  90
ENDBRANCH  41  42
ENDBRANCH  34  36
ENDBRANCH  33  34
ENDBRANCH  32  33
ENDBRANCH   1  32
TORSDOF 14
