REMARK SMILES O=C(OCCOC(=O)c1ccc(-c2c3nc(c(-c4c(F)c(F)c(F)c(F)c4F)c4ccc([nH]4)c(-c4c(F)c(F)c(F)c(F)c4F)c4nc(c(-c5c(F)c(F)c(F)c(F)c5F)c5ccc2[nH]5)C=C4)C=C3)cc1)C1=Cc2cc(Cl)cc(-c3ccc(CO)cc3)c2O[C@@H]1C(F)(F)F
REMARK SMILES IDX 4 1 3 2 2 3 1 4 72 5 73 6 90 7 74 8 89 9 75 10 88 11 76 12
REMARK SMILES IDX 79 13 77 14 78 15 91 16 92 17 93 18 94 19 80 20 81 21 87 22
REMARK SMILES IDX 82 23 86 24 83 25 84 26 85 27 5 29 6 30 7 31 8 32 9 33 10 34
REMARK SMILES IDX 71 35 11 36 70 37 12 38 13 39 14 40 64 41 15 42 69 43 63 44
REMARK SMILES IDX 65 45 16 46 68 47 62 48 61 49 17 51 49 52 29 53 48 54 30 55
REMARK SMILES IDX 33 56 47 57 66 58 31 59 32 60 46 62 67 63 34 64 18 65 19 66
REMARK SMILES IDX 27 67 20 68 21 69 25 70 28 71 22 72 23 73 26 74 24 75 50 76
REMARK SMILES IDX 51 77 59 78 52 79 53 80 57 81 60 82 54 83 55 84 58 85 56 86
REMARK SMILES IDX 35 87 36 88 44 89 37 90 38 91 42 92 45 93 39 94 40 95 43 96
REMARK SMILES IDX 41 97
REMARK H PARENT 85 28 65 50 33 61
REMARK Flexibility Score: inf
ROOT
ATOM      1  C   UNL     1       4.021   0.749   0.957  1.00  0.00     0.275 C 
ENDROOT
BRANCH   1   2
ATOM      2  O   UNL     1       3.117   1.999   1.179  1.00  0.00    -0.459 OA
BRANCH   2   3
ATOM      3  C   UNL     1       3.302   2.955   0.260  1.00  0.00     0.338 C 
ATOM      4  O   UNL     1       2.668   3.956   0.043  1.00  0.00    -0.246 OA
BRANCH   3   5
ATOM      5  C   UNL     1       4.168   2.156  -0.575  1.00  0.00     0.087 C 
ATOM      6  C   UNL     1       5.529   2.089  -0.088  1.00  0.00     0.027 C 
ATOM      7  C   UNL     1       2.953   0.674  -0.751  1.00  0.00     0.316 C 
ATOM      8  C   UNL     1       6.235   0.615   0.629  1.00  0.00     0.019 A 
ATOM      9  O   UNL     1       3.662  -0.918   0.113  1.00  0.00    -0.475 OA
ATOM     10  C   UNL     1       7.479   0.775   1.175  1.00  0.00     0.032 A 
ATOM     11  C   UNL     1       5.327  -0.853   0.881  1.00  0.00     0.135 A 
ATOM     12  C   UNL     1       7.923  -0.303   1.928  1.00  0.00     0.042 A 
ATOM     13  C   UNL     1       5.824  -1.834   1.713  1.00  0.00     0.026 A 
ATOM     14  Cl  UNL     1       9.479  -0.158   2.673  1.00  0.00    -0.084 Cl
ATOM     15  C   UNL     1       7.153  -1.501   2.177  1.00  0.00     0.033 A 
BRANCH   7  16
ATOM     16  C   UNL     1       2.580   1.117  -2.256  1.00  0.00     0.430 C 
ATOM     17  F   UNL     1       1.311   0.819  -2.557  1.00  0.00    -0.167 F 
ATOM     18  F   UNL     1       2.590   2.486  -2.351  1.00  0.00    -0.167 F 
ATOM     19  F   UNL     1       3.415   0.773  -3.254  1.00  0.00    -0.167 F 
ENDBRANCH   7  16
BRANCH  13  20
ATOM     20  C   UNL     1       5.239  -3.038   2.296  1.00  0.00    -0.015 A 
ATOM     21  C   UNL     1       5.150  -3.125   3.705  1.00  0.00     0.009 A 
ATOM     22  C   UNL     1       5.044  -4.204   1.556  1.00  0.00     0.009 A 
ATOM     23  C   UNL     1       4.935  -4.342   4.353  1.00  0.00     0.007 A 
ATOM     24  C   UNL     1       4.823  -5.429   2.207  1.00  0.00     0.007 A 
ATOM     25  C   UNL     1       4.786  -5.513   3.607  1.00  0.00    -0.023 A 
BRANCH  25  26
ATOM     26  C   UNL     1       4.627  -6.832   4.315  1.00  0.00     0.191 C 
BRANCH  26  27
ATOM     27  O   UNL     1       5.814  -7.171   5.025  1.00  0.00    -0.392 OA
ATOM     28  H   UNL     1       6.553  -7.247   4.401  1.00  0.00     0.211 HD
ENDBRANCH  26  27
ENDBRANCH  25  26
ENDBRANCH  13  20
ENDBRANCH   3   5
ENDBRANCH   2   3
ENDBRANCH   1   2
BRANCH   1  29
ATOM     29  C   UNL     1       4.827   0.066  -0.935  1.00  0.00     0.275 C 
BRANCH  29  30
ATOM     30  O   UNL     1       3.983  -0.986  -2.055  1.00  0.00    -0.458 OA
BRANCH  30  31
ATOM     31  C   UNL     1       3.018  -1.968  -2.149  1.00  0.00     0.338 C 
ATOM     32  O   UNL     1       2.517  -2.643  -1.269  1.00  0.00    -0.246 OA
BRANCH  31  33
ATOM     33  C   UNL     1       2.346  -1.786  -3.485  1.00  0.00     0.060 A 
ATOM     34  C   UNL     1       0.997  -1.380  -3.518  1.00  0.00     0.016 A 
ATOM     35  C   UNL     1       3.128  -1.630  -4.626  1.00  0.00     0.016 A 
ATOM     36  C   UNL     1       0.534  -0.566  -4.576  1.00  0.00     0.010 A 
ATOM     37  C   UNL     1       2.655  -0.846  -5.685  1.00  0.00     0.010 A 
ATOM     38  C   UNL     1       1.396  -0.221  -5.627  1.00  0.00    -0.014 A 
BRANCH  38  39
ATOM     39  C   UNL     1       0.959   0.599  -6.795  1.00  0.00     0.031 A 
ATOM     40  C   UNL     1       0.366  -0.170  -7.935  1.00  0.00     0.074 A 
ATOM     41  C   UNL     1       1.197   1.924  -6.931  1.00  0.00     0.049 A 
ATOM     42  N   UNL     1       0.098   0.208  -9.155  1.00  0.00    -0.248 NA
ATOM     43  C   UNL     1       0.088  -1.589  -7.660  1.00  0.00     0.031 C 
ATOM     44  C   UNL     1       1.765   2.807  -5.915  1.00  0.00     0.029 A 
ATOM     45  N   UNL     1       1.014   2.761  -8.017  1.00  0.00    -0.354 N 
ATOM     46  C   UNL     1      -0.350  -0.935  -9.798  1.00  0.00     0.074 A 
ATOM     47  C   UNL     1      -0.274  -2.024  -8.852  1.00  0.00     0.031 C 
ATOM     48  C   UNL     1       1.905   4.048  -6.427  1.00  0.00     0.029 A 
ATOM     49  C   UNL     1       1.464   4.051  -7.822  1.00  0.00     0.049 A 
ATOM     50  H   UNL     1       0.598   2.462  -8.858  1.00  0.00     0.167 HD
ATOM     51  C   UNL     1      -0.797  -1.072 -11.065  1.00  0.00     0.037 A 
ATOM     52  C   UNL     1       1.528   5.098  -8.679  1.00  0.00     0.037 A 
ATOM     53  C   UNL     1      -0.869   0.001 -12.011  1.00  0.00     0.049 A 
ATOM     54  C   UNL     1       1.060   4.908 -10.112  1.00  0.00     0.074 A 
ATOM     55  C   UNL     1      -1.346  -0.028 -13.306  1.00  0.00     0.029 A 
ATOM     56  N   UNL     1      -0.438   1.295 -11.762  1.00  0.00    -0.354 N 
ATOM     57  N   UNL     1       0.554   3.842 -10.687  1.00  0.00    -0.248 NA
ATOM     58  C   UNL     1       1.176   6.065 -11.018  1.00  0.00     0.031 C 
ATOM     59  C   UNL     1      -1.153   1.239 -13.864  1.00  0.00     0.029 A 
ATOM     60  C   UNL     1      -0.611   2.070 -12.894  1.00  0.00     0.049 A 
ATOM     61  H   UNL     1      -0.065   1.614 -10.908  1.00  0.00     0.167 HD
ATOM     62  C   UNL     1       0.260   4.211 -11.996  1.00  0.00     0.074 A 
ATOM     63  C   UNL     1       0.630   5.601 -12.134  1.00  0.00     0.031 C 
ATOM     64  C   UNL     1      -0.267   3.464 -12.997  1.00  0.00     0.037 A 
BRANCH  51  65
ATOM     65  C   UNL     1      -1.208  -2.448 -11.483  1.00  0.00     0.064 A 
ATOM     66  C   UNL     1      -2.345  -3.070 -10.941  1.00  0.00     0.173 A 
ATOM     67  C   UNL     1      -0.427  -3.174 -12.391  1.00  0.00     0.173 A 
ATOM     68  F   UNL     1      -3.102  -2.425 -10.040  1.00  0.00    -0.203 F 
ATOM     69  C   UNL     1      -2.656  -4.387 -11.259  1.00  0.00     0.198 A 
ATOM     70  C   UNL     1      -0.764  -4.479 -12.736  1.00  0.00     0.198 A 
ATOM     71  F   UNL     1       0.674  -2.627 -12.927  1.00  0.00    -0.203 F 
ATOM     72  F   UNL     1      -3.696  -4.988 -10.665  1.00  0.00    -0.200 F 
ATOM     73  C   UNL     1      -1.870  -5.088 -12.160  1.00  0.00     0.200 A 
ATOM     74  F   UNL     1      -0.006  -5.155 -13.610  1.00  0.00    -0.200 F 
ATOM     75  F   UNL     1      -2.167  -6.360 -12.460  1.00  0.00    -0.200 F 
ENDBRANCH  51  65
BRANCH  52  76
ATOM     76  C   UNL     1       2.065   6.432  -8.261  1.00  0.00     0.064 A 
ATOM     77  C   UNL     1       1.244   7.574  -8.260  1.00  0.00     0.173 A 
ATOM     78  C   UNL     1       3.424   6.624  -7.967  1.00  0.00     0.173 A 
ATOM     79  F   UNL     1      -0.054   7.464  -8.576  1.00  0.00    -0.203 F 
ATOM     80  C   UNL     1       1.765   8.849  -8.024  1.00  0.00     0.198 A 
ATOM     81  C   UNL     1       3.938   7.896  -7.699  1.00  0.00     0.198 A 
ATOM     82  F   UNL     1       4.265   5.580  -7.970  1.00  0.00    -0.203 F 
ATOM     83  F   UNL     1       0.970   9.924  -8.116  1.00  0.00    -0.200 F 
ATOM     84  C   UNL     1       3.112   9.008  -7.741  1.00  0.00     0.200 A 
ATOM     85  F   UNL     1       5.242   8.046  -7.428  1.00  0.00    -0.200 F 
ATOM     86  F   UNL     1       3.617  10.233  -7.536  1.00  0.00    -0.200 F 
ENDBRANCH  52  76
BRANCH  64  87
ATOM     87  C   UNL     1      -0.527   4.128 -14.319  1.00  0.00     0.064 A 
ATOM     88  C   UNL     1       0.515   4.465 -15.193  1.00  0.00     0.173 A 
ATOM     89  C   UNL     1      -1.846   4.311 -14.766  1.00  0.00     0.173 A 
ATOM     90  F   UNL     1       1.792   4.319 -14.810  1.00  0.00    -0.203 F 
ATOM     91  C   UNL     1       0.247   4.965 -16.465  1.00  0.00     0.198 A 
ATOM     92  C   UNL     1      -2.110   4.779 -16.050  1.00  0.00     0.198 A 
ATOM     93  F   UNL     1      -2.880   3.991 -13.973  1.00  0.00    -0.203 F 
ATOM     94  F   UNL     1       1.258   5.302 -17.277  1.00  0.00    -0.200 F 
ATOM     95  C   UNL     1      -1.064   5.107 -16.898  1.00  0.00     0.200 A 
ATOM     96  F   UNL     1      -3.377   4.892 -16.473  1.00  0.00    -0.200 F 
ATOM     97  F   UNL     1      -1.318   5.556 -18.134  1.00  0.00    -0.200 F 
ENDBRANCH  64  87
ENDBRANCH  38  39
ENDBRANCH  31  33
ENDBRANCH  30  31
ENDBRANCH  29  30
ENDBRANCH   1  29
TORSDOF 15
