REMARK SMILES CCC(CC)(NC(=O)N(C)CCS(C)(=O)=O)C(=O)OCCOC(=O)c1ccc(-c2c3nc(c(-c4c(F)c(F)c(F)c(F)c4F)c4ccc([nH]4)c(-c4c(F)c(F)c(F)c(F)c4F)c4nc(c(-c5c(F)c(F)c(F)c(F)c5F)c5ccc2[nH]5)C=C4)C=C3)cc1
REMARK SMILES IDX 19 1 17 2 18 3 3 4 2 5 1 6 4 7 5 8 6 9 7 10 8 12 9 13 10 14
REMARK SMILES IDX 11 15 12 16 13 17 14 18 15 19 16 20 20 21 21 22 22 23 23 24
REMARK SMILES IDX 24 25 25 26 26 27 87 28 27 29 86 30 28 31 29 32 30 33 80 34
REMARK SMILES IDX 31 35 85 36 79 37 81 38 32 39 84 40 78 41 77 42 33 44 65 45
REMARK SMILES IDX 45 46 64 47 46 48 49 49 63 50 82 51 47 52 48 53 62 55 83 56
REMARK SMILES IDX 50 57 34 58 35 59 43 60 36 61 37 62 41 63 44 64 38 65 39 66
REMARK SMILES IDX 42 67 40 68 66 69 67 70 75 71 68 72 69 73 73 74 76 75 70 76
REMARK SMILES IDX 71 77 74 78 72 79 51 80 52 81 60 82 53 83 54 84 58 85 61 86
REMARK SMILES IDX 55 87 56 88 59 89 57 90
REMARK H PARENT 6 11 81 43 49 54
REMARK Flexibility Score: inf
ROOT
ATOM      1  O   UNL     1       3.406  -0.633  -2.797  1.00  0.00    -0.460 OA
ENDROOT
BRANCH   1   2
ATOM      2  C   UNL     1       2.416  -0.735  -1.868  1.00  0.00     0.332 C 
ATOM      3  O   UNL     1       2.620  -1.098  -0.715  1.00  0.00    -0.249 OA
BRANCH   2   4
ATOM      4  C   UNL     1       0.984  -0.467  -2.470  1.00  0.00     0.139 C 
BRANCH   4   5
ATOM      5  C   UNL     1       0.079   0.328  -1.494  1.00  0.00     0.037 C 
ATOM      6  C   UNL     1      -0.082  -0.270  -0.095  1.00  0.00     0.007 C 
ENDBRANCH   4   5
BRANCH   4   7
ATOM      7  C   UNL     1       0.430  -1.898  -2.749  1.00  0.00     0.037 C 
ATOM      8  C   UNL     1      -1.063  -1.971  -3.054  1.00  0.00     0.007 C 
ENDBRANCH   4   7
BRANCH   4   9
ATOM      9  N   UNL     1       1.049   0.191  -3.798  1.00  0.00    -0.322 N 
ATOM     10  C   UNL     1       1.697   1.352  -4.110  1.00  0.00     0.318 C 
ATOM     11  H   UNL     1       0.574  -0.257  -4.534  1.00  0.00     0.166 HD
ATOM     12  O   UNL     1       1.482   2.404  -3.523  1.00  0.00    -0.249 OA
BRANCH  10  13
ATOM     13  N   UNL     1       2.563   1.217  -5.195  1.00  0.00    -0.327 N 
ATOM     14  C   UNL     1       3.103  -0.084  -5.598  1.00  0.00     0.148 C 
BRANCH  13  15
ATOM     15  C   UNL     1       3.167   2.409  -5.787  1.00  0.00     0.137 C 
BRANCH  15  16
ATOM     16  C   UNL     1       3.332   2.362  -7.301  1.00  0.00     0.158 C 
BRANCH  16  17
ATOM     17  S   UNL     1       1.795   2.302  -8.205  1.00  0.00     0.149 S 
ATOM     18  C   UNL     1       1.057   3.887  -7.905  1.00  0.00     0.158 C 
ATOM     19  O   UNL     1       2.142   2.254  -9.614  1.00  0.00    -0.229 OA
ATOM     20  O   UNL     1       0.925   1.285  -7.646  1.00  0.00    -0.229 OA
ENDBRANCH  16  17
ENDBRANCH  15  16
ENDBRANCH  13  15
ENDBRANCH  10  13
ENDBRANCH   4   9
ENDBRANCH   2   4
ENDBRANCH   1   2
BRANCH   1  21
ATOM     21  C   UNL     1       4.772  -0.817  -2.364  1.00  0.00     0.274 C 
BRANCH  21  22
ATOM     22  C   UNL     1       5.469   0.542  -2.333  1.00  0.00     0.275 C 
BRANCH  22  23
ATOM     23  O   UNL     1       4.822   1.331  -1.326  1.00  0.00    -0.458 OA
BRANCH  23  24
ATOM     24  C   UNL     1       4.766   2.666  -1.525  1.00  0.00     0.338 C 
ATOM     25  O   UNL     1       5.352   3.316  -2.381  1.00  0.00    -0.246 OA
BRANCH  24  26
ATOM     26  C   UNL     1       3.873   3.220  -0.488  1.00  0.00     0.060 A 
ATOM     27  C   UNL     1       2.671   2.566  -0.218  1.00  0.00     0.016 A 
ATOM     28  C   UNL     1       4.209   4.367   0.225  1.00  0.00     0.016 A 
ATOM     29  C   UNL     1       1.800   3.040   0.756  1.00  0.00     0.010 A 
ATOM     30  C   UNL     1       3.366   4.805   1.258  1.00  0.00     0.010 A 
ATOM     31  C   UNL     1       2.156   4.141   1.538  1.00  0.00    -0.014 A 
BRANCH  31  32
ATOM     32  C   UNL     1       1.251   4.590   2.631  1.00  0.00     0.031 A 
ATOM     33  C   UNL     1       0.626   5.954   2.577  1.00  0.00     0.074 A 
ATOM     34  C   UNL     1       0.963   3.765   3.658  1.00  0.00     0.049 A 
ATOM     35  N   UNL     1      -0.047   6.596   3.498  1.00  0.00    -0.248 NA
ATOM     36  C   UNL     1       0.784   6.696   1.318  1.00  0.00     0.031 C 
ATOM     37  C   UNL     1       1.445   2.390   3.804  1.00  0.00     0.029 A 
ATOM     38  N   UNL     1       0.188   3.962   4.777  1.00  0.00    -0.354 N 
ATOM     39  C   UNL     1      -0.359   7.830   2.945  1.00  0.00     0.074 A 
ATOM     40  C   UNL     1       0.207   7.852   1.612  1.00  0.00     0.031 C 
ATOM     41  C   UNL     1       0.945   1.864   4.933  1.00  0.00     0.029 A 
ATOM     42  C   UNL     1       0.172   2.885   5.631  1.00  0.00     0.049 A 
ATOM     43  H   UNL     1      -0.308   4.795   4.950  1.00  0.00     0.167 HD
ATOM     44  C   UNL     1      -1.056   8.851   3.501  1.00  0.00     0.037 A 
ATOM     45  C   UNL     1      -0.364   2.749   6.860  1.00  0.00     0.037 A 
ATOM     46  C   UNL     1      -1.641   8.814   4.817  1.00  0.00     0.049 A 
ATOM     47  C   UNL     1      -1.091   3.914   7.474  1.00  0.00     0.074 A 
ATOM     48  C   UNL     1      -2.332   9.810   5.486  1.00  0.00     0.029 A 
ATOM     49  N   UNL     1      -1.617   7.711   5.659  1.00  0.00    -0.354 N 
ATOM     50  N   UNL     1      -1.315   5.106   6.976  1.00  0.00    -0.248 NA
ATOM     51  C   UNL     1      -1.630   3.719   8.827  1.00  0.00     0.031 C 
ATOM     52  C   UNL     1      -2.700   9.319   6.744  1.00  0.00     0.029 A 
ATOM     53  C   UNL     1      -2.279   8.004   6.842  1.00  0.00     0.049 A 
ATOM     54  H   UNL     1      -1.192   6.849   5.448  1.00  0.00     0.167 HD
ATOM     55  C   UNL     1      -2.027   5.797   7.946  1.00  0.00     0.074 A 
ATOM     56  C   UNL     1      -2.225   4.882   9.050  1.00  0.00     0.031 C 
ATOM     57  C   UNL     1      -2.469   7.079   7.929  1.00  0.00     0.037 A 
BRANCH  44  58
ATOM     58  C   UNL     1      -1.193  10.110   2.696  1.00  0.00     0.064 A 
ATOM     59  C   UNL     1      -2.027  10.182   1.570  1.00  0.00     0.173 A 
ATOM     60  C   UNL     1      -0.494  11.268   3.070  1.00  0.00     0.173 A 
ATOM     61  F   UNL     1      -2.703   9.098   1.161  1.00  0.00    -0.203 F 
ATOM     62  C   UNL     1      -2.135  11.359   0.834  1.00  0.00     0.198 A 
ATOM     63  C   UNL     1      -0.627  12.451   2.348  1.00  0.00     0.198 A 
ATOM     64  F   UNL     1       0.314  11.255   4.141  1.00  0.00    -0.203 F 
ATOM     65  F   UNL     1      -2.900  11.391  -0.267  1.00  0.00    -0.200 F 
ATOM     66  C   UNL     1      -1.441  12.494   1.227  1.00  0.00     0.200 A 
ATOM     67  F   UNL     1       0.036  13.550   2.736  1.00  0.00    -0.200 F 
ATOM     68  F   UNL     1      -1.550  13.627   0.519  1.00  0.00    -0.200 F 
ENDBRANCH  44  58
BRANCH  45  69
ATOM     69  C   UNL     1      -0.186   1.479   7.615  1.00  0.00     0.064 A 
ATOM     70  C   UNL     1      -1.277   0.654   7.920  1.00  0.00     0.173 A 
ATOM     71  C   UNL     1       1.080   1.077   8.069  1.00  0.00     0.173 A 
ATOM     72  F   UNL     1      -2.513   1.008   7.535  1.00  0.00    -0.203 F 
ATOM     73  C   UNL     1      -1.113  -0.513   8.665  1.00  0.00     0.198 A 
ATOM     74  C   UNL     1       1.248  -0.107   8.783  1.00  0.00     0.198 A 
ATOM     75  F   UNL     1       2.158   1.831   7.811  1.00  0.00    -0.203 F 
ATOM     76  F   UNL     1      -2.181  -1.254   8.989  1.00  0.00    -0.200 F 
ATOM     77  C   UNL     1       0.150  -0.896   9.089  1.00  0.00     0.200 A 
ATOM     78  F   UNL     1       2.473  -0.480   9.180  1.00  0.00    -0.200 F 
ATOM     79  F   UNL     1       0.308  -2.020   9.802  1.00  0.00    -0.200 F 
ENDBRANCH  45  69
BRANCH  57  80
ATOM     80  C   UNL     1      -3.236   7.549   9.131  1.00  0.00     0.064 A 
ATOM     81  C   UNL     1      -2.603   7.788  10.360  1.00  0.00     0.173 A 
ATOM     82  C   UNL     1      -4.618   7.772   9.048  1.00  0.00     0.173 A 
ATOM     83  F   UNL     1      -1.286   7.572  10.494  1.00  0.00    -0.203 F 
ATOM     84  C   UNL     1      -3.333   8.201  11.471  1.00  0.00     0.198 A 
ATOM     85  C   UNL     1      -5.340   8.213  10.154  1.00  0.00     0.198 A 
ATOM     86  F   UNL     1      -5.269   7.564   7.894  1.00  0.00    -0.203 F 
ATOM     87  F   UNL     1      -2.717   8.368  12.650  1.00  0.00    -0.200 F 
ATOM     88  C   UNL     1      -4.698   8.417  11.367  1.00  0.00     0.200 A 
ATOM     89  F   UNL     1      -6.657   8.432  10.049  1.00  0.00    -0.200 F 
ATOM     90  F   UNL     1      -5.399   8.812  12.438  1.00  0.00    -0.200 F 
ENDBRANCH  57  80
ENDBRANCH  31  32
ENDBRANCH  24  26
ENDBRANCH  23  24
ENDBRANCH  22  23
ENDBRANCH  21  22
ENDBRANCH   1  21
TORSDOF 18
