REMARK SMILES O=C(OCCOC(=O)[C@@H]1CCCC[C@@H]1C(=O)Nc1nc(-c2ccc(Cl)c(Cl)c2)cs1)c1ccc(-c2c3nc(c(-c4c(F)c(F)c(F)c(F)c4F)c4ccc([nH]4)c(-c4c(F)c(F)c(F)c(F)c4F)c4nc(c(-c5c(F)c(F)c(F)c(F)c5F)c5ccc2[nH]5)C=C4)C=C3)cc1
REMARK SMILES IDX 5 1 4 2 3 3 2 4 1 5 31 6 32 7 93 8 33 9 92 10 34 11 35 12
REMARK SMILES IDX 36 13 86 14 37 15 91 16 85 17 87 18 38 19 90 20 84 21 83 22
REMARK SMILES IDX 39 24 71 25 51 26 70 27 52 28 55 29 69 30 88 31 53 32 54 33
REMARK SMILES IDX 68 35 89 36 56 37 40 38 41 39 49 40 42 41 43 42 47 43 50 44
REMARK SMILES IDX 44 45 45 46 48 47 46 48 72 49 73 50 81 51 74 52 75 53 79 54
REMARK SMILES IDX 82 55 76 56 77 57 80 58 78 59 57 60 58 61 66 62 59 63 60 64
REMARK SMILES IDX 64 65 67 66 61 67 62 68 65 69 63 70 6 71 7 72 8 73 9 74
REMARK SMILES IDX 10 75 14 76 11 77 13 78 12 79 15 80 16 81 17 82 18 84 19 85
REMARK SMILES IDX 30 86 20 87 29 88 21 89 22 90 28 91 23 92 26 93 24 94 27 95
REMARK SMILES IDX 25 96
REMARK H PARENT 87 23 55 34 17 83
REMARK Flexibility Score: inf
ROOT
ATOM      1  C   UNL     1       3.914  -2.065  -0.835  1.00  0.00     0.274 C 
ENDROOT
BRANCH   1   2
ATOM      2  C   UNL     1       4.389  -1.585   0.537  1.00  0.00     0.275 C 
BRANCH   2   3
ATOM      3  O   UNL     1       3.538  -0.606   1.145  1.00  0.00    -0.458 OA
BRANCH   3   4
ATOM      4  C   UNL     1       3.622   0.743   1.083  1.00  0.00     0.338 C 
ATOM      5  O   UNL     1       2.996   1.410   1.905  1.00  0.00    -0.246 OA
BRANCH   4   6
ATOM      6  C   UNL     1       4.317   1.477  -0.028  1.00  0.00     0.060 A 
ATOM      7  C   UNL     1       5.413   1.039  -0.786  1.00  0.00     0.016 A 
ATOM      8  C   UNL     1       3.756   2.718  -0.360  1.00  0.00     0.016 A 
ATOM      9  C   UNL     1       5.847   1.732  -1.930  1.00  0.00     0.010 A 
ATOM     10  C   UNL     1       4.166   3.398  -1.508  1.00  0.00     0.010 A 
ATOM     11  C   UNL     1       5.197   2.895  -2.329  1.00  0.00    -0.014 A 
BRANCH  11  12
ATOM     12  C   UNL     1       5.627   3.701  -3.503  1.00  0.00     0.031 A 
ATOM     13  C   UNL     1       6.103   5.087  -3.195  1.00  0.00     0.074 A 
ATOM     14  C   UNL     1       5.476   3.305  -4.785  1.00  0.00     0.049 A 
ATOM     15  N   UNL     1       6.279   6.110  -3.985  1.00  0.00    -0.248 NA
ATOM     16  C   UNL     1       6.335   5.373  -1.767  1.00  0.00     0.031 C 
ATOM     17  C   UNL     1       5.026   1.992  -5.245  1.00  0.00     0.029 A 
ATOM     18  N   UNL     1       5.629   4.016  -5.956  1.00  0.00    -0.354 N 
ATOM     19  C   UNL     1       6.606   7.155  -3.137  1.00  0.00     0.074 A 
ATOM     20  C   UNL     1       6.431   6.688  -1.783  1.00  0.00     0.031 C 
ATOM     21  C   UNL     1       4.847   2.019  -6.579  1.00  0.00     0.029 A 
ATOM     22  C   UNL     1       5.209   3.340  -7.080  1.00  0.00     0.049 A 
ATOM     23  H   UNL     1       6.004   4.926  -5.986  1.00  0.00     0.167 HD
ATOM     24  C   UNL     1       7.107   8.371  -3.449  1.00  0.00     0.037 A 
ATOM     25  C   UNL     1       5.131   3.747  -8.364  1.00  0.00     0.037 A 
ATOM     26  C   UNL     1       7.331   8.801  -4.795  1.00  0.00     0.049 A 
ATOM     27  C   UNL     1       5.647   5.120  -8.717  1.00  0.00     0.074 A 
ATOM     28  C   UNL     1       7.904   9.971  -5.247  1.00  0.00     0.029 A 
ATOM     29  N   UNL     1       6.982   8.055  -5.913  1.00  0.00    -0.354 N 
ATOM     30  N   UNL     1       6.080   6.068  -7.920  1.00  0.00    -0.248 NA
ATOM     31  C   UNL     1       5.714   5.467 -10.145  1.00  0.00     0.031 C 
ATOM     32  C   UNL     1       7.867   9.951  -6.645  1.00  0.00     0.029 A 
ATOM     33  C   UNL     1       7.318   8.745  -7.061  1.00  0.00     0.049 A 
ATOM     34  H   UNL     1       6.559   7.166  -5.891  1.00  0.00     0.167 HD
ATOM     35  C   UNL     1       6.534   7.088  -8.745  1.00  0.00     0.074 A 
ATOM     36  C   UNL     1       6.299   6.657 -10.108  1.00  0.00     0.031 C 
ATOM     37  C   UNL     1       7.114   8.265  -8.405  1.00  0.00     0.037 A 
BRANCH  24  38
ATOM     38  C   UNL     1       7.457   9.255  -2.290  1.00  0.00     0.064 A 
ATOM     39  C   UNL     1       8.455   8.886  -1.369  1.00  0.00     0.173 A 
ATOM     40  C   UNL     1       6.702  10.401  -2.016  1.00  0.00     0.173 A 
ATOM     41  F   UNL     1       9.191   7.782  -1.575  1.00  0.00    -0.203 F 
ATOM     42  C   UNL     1       8.612   9.574  -0.171  1.00  0.00     0.198 A 
ATOM     43  C   UNL     1       6.898  11.117  -0.838  1.00  0.00     0.198 A 
ATOM     44  F   UNL     1       5.745  10.802  -2.865  1.00  0.00    -0.203 F 
ATOM     45  F   UNL     1       9.474   9.121   0.751  1.00  0.00    -0.200 F 
ATOM     46  C   UNL     1       7.832  10.688   0.095  1.00  0.00     0.200 A 
ATOM     47  F   UNL     1       6.152  12.201  -0.585  1.00  0.00    -0.200 F 
ATOM     48  F   UNL     1       7.960  11.331   1.263  1.00  0.00    -0.200 F 
ENDBRANCH  24  38
BRANCH  25  49
ATOM     49  C   UNL     1       4.620   2.832  -9.424  1.00  0.00     0.064 A 
ATOM     50  C   UNL     1       5.495   2.232 -10.342  1.00  0.00     0.173 A 
ATOM     51  C   UNL     1       3.251   2.559  -9.564  1.00  0.00     0.173 A 
ATOM     52  F   UNL     1       6.812   2.477 -10.266  1.00  0.00    -0.203 F 
ATOM     53  C   UNL     1       5.022   1.418 -11.371  1.00  0.00     0.198 A 
ATOM     54  C   UNL     1       2.779   1.729 -10.583  1.00  0.00     0.198 A 
ATOM     55  F   UNL     1       2.368   3.103  -8.714  1.00  0.00    -0.203 F 
ATOM     56  F   UNL     1       5.880   0.896 -12.259  1.00  0.00    -0.200 F 
ATOM     57  C   UNL     1       3.664   1.165 -11.491  1.00  0.00     0.200 A 
ATOM     58  F   UNL     1       1.466   1.484 -10.694  1.00  0.00    -0.200 F 
ATOM     59  F   UNL     1       3.209   0.389 -12.484  1.00  0.00    -0.200 F 
ENDBRANCH  25  49
BRANCH  37  60
ATOM     60  C   UNL     1       7.621   9.149  -9.504  1.00  0.00     0.064 A 
ATOM     61  C   UNL     1       6.757   9.925 -10.285  1.00  0.00     0.173 A 
ATOM     62  C   UNL     1       9.005   9.331  -9.662  1.00  0.00     0.173 A 
ATOM     63  F   UNL     1       5.429   9.774 -10.177  1.00  0.00    -0.203 F 
ATOM     64  C   UNL     1       7.261  10.866 -11.179  1.00  0.00     0.198 A 
ATOM     65  C   UNL     1       9.503  10.292 -10.534  1.00  0.00     0.198 A 
ATOM     66  F   UNL     1       9.870   8.613  -8.930  1.00  0.00    -0.203 F 
ATOM     67  F   UNL     1       6.420  11.597 -11.923  1.00  0.00    -0.200 F 
ATOM     68  C   UNL     1       8.631  11.062 -11.288  1.00  0.00     0.200 A 
ATOM     69  F   UNL     1      10.825  10.495 -10.621  1.00  0.00    -0.200 F 
ATOM     70  F   UNL     1       9.111  11.999 -12.117  1.00  0.00    -0.200 F 
ENDBRANCH  37  60
ENDBRANCH  11  12
ENDBRANCH   4   6
ENDBRANCH   3   4
ENDBRANCH   2   3
ENDBRANCH   1   2
BRANCH   1  71
ATOM     71  O   UNL     1       3.425  -1.020  -1.699  1.00  0.00    -0.462 OA
BRANCH  71  72
ATOM     72  C   UNL     1       2.075  -1.008  -1.910  1.00  0.00     0.309 C 
ATOM     73  O   UNL     1       1.297  -1.793  -1.377  1.00  0.00    -0.252 OA
BRANCH  72  74
ATOM     74  C   UNL     1       1.660  -0.027  -3.014  1.00  0.00     0.111 C 
ATOM     75  C   UNL     1       2.359   1.311  -2.951  1.00  0.00     0.016 C 
ATOM     76  C   UNL     1       0.143   0.169  -3.025  1.00  0.00     0.093 C 
ATOM     77  C   UNL     1       1.891   2.344  -3.972  1.00  0.00     0.001 C 
ATOM     78  C   UNL     1      -0.322   1.211  -4.060  1.00  0.00     0.014 C 
ATOM     79  C   UNL     1       0.390   2.549  -3.910  1.00  0.00     0.001 C 
BRANCH  76  80
ATOM     80  C   UNL     1      -0.447   0.542  -1.641  1.00  0.00     0.230 C 
ATOM     81  O   UNL     1       0.147   1.304  -0.873  1.00  0.00    -0.274 OA
ATOM     82  N   UNL     1      -1.737   0.197  -1.346  1.00  0.00    -0.302 N 
ATOM     83  H   UNL     1      -2.207   0.693  -0.637  1.00  0.00     0.172 HD
BRANCH  82  84
ATOM     84  C   UNL     1      -2.397  -0.801  -1.989  1.00  0.00     0.189 A 
ATOM     85  N   UNL     1      -1.854  -1.812  -2.605  1.00  0.00    -0.220 NA
ATOM     86  S   UNL     1      -4.088  -0.683  -2.086  1.00  0.00    -0.105 S 
ATOM     87  C   UNL     1      -2.777  -2.418  -3.410  1.00  0.00     0.084 A 
ATOM     88  C   UNL     1      -4.061  -1.926  -3.292  1.00  0.00     0.097 A 
BRANCH  87  89
ATOM     89  C   UNL     1      -2.335  -3.464  -4.308  1.00  0.00     0.003 A 
ATOM     90  C   UNL     1      -1.577  -4.526  -3.797  1.00  0.00     0.012 A 
ATOM     91  C   UNL     1      -2.561  -3.378  -5.685  1.00  0.00     0.032 A 
ATOM     92  C   UNL     1      -1.108  -5.531  -4.644  1.00  0.00     0.023 A 
ATOM     93  C   UNL     1      -2.077  -4.377  -6.537  1.00  0.00     0.060 A 
ATOM     94  C   UNL     1      -1.366  -5.465  -6.014  1.00  0.00     0.059 A 
ATOM     95  Cl  UNL     1      -2.381  -4.199  -8.229  1.00  0.00    -0.083 Cl
ATOM     96  Cl  UNL     1      -0.778  -6.752  -7.005  1.00  0.00    -0.083 Cl
ENDBRANCH  87  89
ENDBRANCH  82  84
ENDBRANCH  76  80
ENDBRANCH  72  74
ENDBRANCH  71  72
ENDBRANCH   1  71
TORSDOF 14
