REMARK SMILES Cc1ncc(CC(=O)N2CCc3c(c(C(=O)OCCOC(=O)c4ccc(-c5c6nc(c(-c7c(F)c(F)c(F)c(F)c7F)c7ccc([nH]7)c(-c7c(F)c(F)c(F)c(F)c7F)c7nc(c(-c8c(F)c(F)c(F)c(F)c8F)c8ccc5[nH]8)C=C7)C=C6)cc4)nn3CC3CC3)C2)c(=O)[nH]1
REMARK SMILES IDX 18 1 17 2 15 3 16 4 14 5 9 6 10 7 92 8 11 9 13 10 12 11
REMARK SMILES IDX 87 12 86 13 7 14 8 15 6 16 5 17 1 18 2 19 3 20 95 21 4 22
REMARK SMILES IDX 93 23 94 25 88 26 89 27 90 28 91 29 19 30 20 31 21 32 22 33
REMARK SMILES IDX 23 34 24 35 85 36 25 37 84 38 26 39 27 40 28 41 78 42 29 43
REMARK SMILES IDX 83 44 77 45 79 46 30 47 82 48 76 49 75 50 31 52 63 53 43 54
REMARK SMILES IDX 62 55 44 56 47 57 61 58 80 59 45 60 46 61 60 63 81 64 48 65
REMARK SMILES IDX 32 66 33 67 41 68 34 69 35 70 39 71 42 72 36 73 37 74 40 75
REMARK SMILES IDX 38 76 64 77 65 78 73 79 66 80 67 81 71 82 74 83 68 84 69 85
REMARK SMILES IDX 72 86 70 87 49 88 50 89 58 90 51 91 52 92 56 93 59 94 53 95
REMARK SMILES IDX 54 96 57 97 55 98
REMARK H PARENT 95 24 79 51 47 62
REMARK Flexibility Score: inf
ROOT
ATOM      1  C   UNL     1       3.899   7.105   7.441  1.00  0.00     0.275 C 
ENDROOT
BRANCH   1   2
ATOM      2  O   UNL     1       2.760   6.569   6.750  1.00  0.00    -0.457 OA
BRANCH   2   3
ATOM      3  C   UNL     1       3.015   5.725   5.703  1.00  0.00     0.359 C 
ATOM      4  O   UNL     1       4.143   5.479   5.278  1.00  0.00    -0.244 OA
BRANCH   3   5
ATOM      5  C   UNL     1       1.807   5.071   5.174  1.00  0.00     0.175 A 
ATOM      6  N   UNL     1       2.235   2.231   2.700  1.00  0.00    -0.338 N 
ATOM      7  C   UNL     1       0.982   1.551   3.084  1.00  0.00     0.126 C 
ATOM      8  C   UNL     1       2.845   3.070   3.754  1.00  0.00     0.159 C 
ATOM      9  C   UNL     1      -0.153   2.558   3.352  1.00  0.00     0.078 C 
ATOM     10  C   UNL     1       1.757   3.918   4.340  1.00  0.00     0.028 A 
ATOM     11  C   UNL     1       0.410   3.667   4.165  1.00  0.00     0.046 A 
ATOM     12  N   UNL     1      -0.265   4.633   4.844  1.00  0.00    -0.268 N 
ATOM     13  N   UNL     1       0.560   5.519   5.439  1.00  0.00    -0.165 NA
BRANCH   6  14
ATOM     14  C   UNL     1       2.957   2.030   1.536  1.00  0.00     0.227 C 
ATOM     15  O   UNL     1       4.191   2.105   1.546  1.00  0.00    -0.275 OA
BRANCH  14  16
ATOM     16  C   UNL     1       2.230   2.036   0.179  1.00  0.00     0.143 C 
BRANCH  16  17
ATOM     17  C   UNL     1       1.026   1.183  -0.005  1.00  0.00     0.045 A 
ATOM     18  C   UNL     1      -2.381  -1.316  -0.103  1.00  0.00     0.087 C 
ATOM     19  C   UNL     1      -1.199  -0.393  -0.127  1.00  0.00     0.105 A 
ATOM     20  N   UNL     1      -1.357   0.889  -0.192  1.00  0.00    -0.243 NA
ATOM     21  N   UNL     1       0.024  -0.996  -0.053  1.00  0.00    -0.311 N 
ATOM     22  C   UNL     1      -0.222   1.653  -0.152  1.00  0.00     0.123 A 
ATOM     23  C   UNL     1       1.188  -0.285  -0.009  1.00  0.00     0.254 A 
ATOM     24  H   UNL     1       0.068  -1.979  -0.032  1.00  0.00     0.171 HD
ATOM     25  O   UNL     1       2.284  -0.827   0.057  1.00  0.00    -0.269 OA
ENDBRANCH  16  17
ENDBRANCH  14  16
ENDBRANCH   6  14
BRANCH  12  26
ATOM     26  C   UNL     1      -1.707   4.835   4.902  1.00  0.00     0.148 C 
BRANCH  26  27
ATOM     27  C   UNL     1      -2.393   4.256   6.110  1.00  0.00     0.011 C 
ATOM     28  C   UNL     1      -1.687   3.674   7.316  1.00  0.00     0.006 C 
ATOM     29  C   UNL     1      -2.346   5.019   7.413  1.00  0.00     0.006 C 
ENDBRANCH  26  27
ENDBRANCH  12  26
ENDBRANCH   3   5
ENDBRANCH   2   3
ENDBRANCH   1   2
BRANCH   1  30
ATOM     30  C   UNL     1       4.346   6.220   8.601  1.00  0.00     0.275 C 
BRANCH  30  31
ATOM     31  O   UNL     1       5.018   5.037   8.162  1.00  0.00    -0.458 OA
BRANCH  31  32
ATOM     32  C   UNL     1       4.210   3.972   7.974  1.00  0.00     0.338 C 
ATOM     33  O   UNL     1       2.992   3.965   7.907  1.00  0.00    -0.246 OA
BRANCH  32  34
ATOM     34  C   UNL     1       4.988   2.735   8.011  1.00  0.00     0.060 A 
ATOM     35  C   UNL     1       4.389   1.586   7.487  1.00  0.00     0.016 A 
ATOM     36  C   UNL     1       6.171   2.678   8.759  1.00  0.00     0.016 A 
ATOM     37  C   UNL     1       4.920   0.355   7.808  1.00  0.00     0.010 A 
ATOM     38  C   UNL     1       6.699   1.447   9.084  1.00  0.00     0.010 A 
ATOM     39  C   UNL     1       6.036   0.298   8.651  1.00  0.00    -0.014 A 
BRANCH  39  40
ATOM     40  C   UNL     1       6.559  -1.015   8.979  1.00  0.00     0.031 A 
ATOM     41  C   UNL     1       7.176  -1.716   7.821  1.00  0.00     0.074 A 
ATOM     42  C   UNL     1       6.579  -1.473  10.245  1.00  0.00     0.049 A 
ATOM     43  N   UNL     1       6.906  -2.893   7.358  1.00  0.00    -0.248 NA
ATOM     44  C   UNL     1       8.139  -0.956   7.003  1.00  0.00     0.031 C 
ATOM     45  C   UNL     1       6.248  -0.740  11.470  1.00  0.00     0.029 A 
ATOM     46  N   UNL     1       7.014  -2.672  10.717  1.00  0.00    -0.354 N 
ATOM     47  C   UNL     1       7.778  -3.087   6.288  1.00  0.00     0.074 A 
ATOM     48  C   UNL     1       8.406  -1.821   6.027  1.00  0.00     0.031 C 
ATOM     49  C   UNL     1       6.720  -1.422  12.537  1.00  0.00     0.029 A 
ATOM     50  C   UNL     1       7.274  -2.684  12.080  1.00  0.00     0.049 A 
ATOM     51  H   UNL     1       7.134  -3.462  10.142  1.00  0.00     0.167 HD
ATOM     52  C   UNL     1       8.093  -4.337   5.856  1.00  0.00     0.037 A 
ATOM     53  C   UNL     1       7.981  -3.625  12.754  1.00  0.00     0.037 A 
ATOM     54  C   UNL     1       7.072  -5.284   6.217  1.00  0.00     0.049 A 
ATOM     55  C   UNL     1       8.052  -4.835  11.896  1.00  0.00     0.074 A 
ATOM     56  C   UNL     1       5.731  -5.421   5.916  1.00  0.00     0.029 A 
ATOM     57  N   UNL     1       7.297  -6.101   7.295  1.00  0.00    -0.354 N 
ATOM     58  N   UNL     1       7.030  -5.593  11.615  1.00  0.00    -0.248 NA
ATOM     59  C   UNL     1       9.184  -4.953  10.989  1.00  0.00     0.031 C 
ATOM     60  C   UNL     1       5.133  -5.929   7.107  1.00  0.00     0.029 A 
ATOM     61  C   UNL     1       6.150  -6.119   8.044  1.00  0.00     0.049 A 
ATOM     62  H   UNL     1       8.130  -6.586   7.495  1.00  0.00     0.167 HD
ATOM     63  C   UNL     1       7.210  -5.947  10.286  1.00  0.00     0.074 A 
ATOM     64  C   UNL     1       8.596  -5.605   9.983  1.00  0.00     0.031 C 
ATOM     65  C   UNL     1       6.140  -6.216   9.483  1.00  0.00     0.037 A 
BRANCH  52  66
ATOM     66  C   UNL     1       9.495  -4.754   5.476  1.00  0.00     0.064 A 
ATOM     67  C   UNL     1       9.710  -6.064   5.002  1.00  0.00     0.173 A 
ATOM     68  C   UNL     1      10.659  -4.050   5.859  1.00  0.00     0.173 A 
ATOM     69  F   UNL     1       8.678  -6.831   4.618  1.00  0.00    -0.203 F 
ATOM     70  C   UNL     1      10.976  -6.655   5.015  1.00  0.00     0.198 A 
ATOM     71  C   UNL     1      11.927  -4.626   5.821  1.00  0.00     0.198 A 
ATOM     72  F   UNL     1      10.616  -2.825   6.393  1.00  0.00    -0.203 F 
ATOM     73  F   UNL     1      11.108  -7.949   4.693  1.00  0.00    -0.200 F 
ATOM     74  C   UNL     1      12.082  -5.939   5.436  1.00  0.00     0.200 A 
ATOM     75  F   UNL     1      12.983  -3.920   6.250  1.00  0.00    -0.200 F 
ATOM     76  F   UNL     1      13.282  -6.526   5.522  1.00  0.00    -0.200 F 
ENDBRANCH  52  66
BRANCH  53  77
ATOM     77  C   UNL     1       8.875  -3.432  13.922  1.00  0.00     0.064 A 
ATOM     78  C   UNL     1       9.291  -4.522  14.704  1.00  0.00     0.173 A 
ATOM     79  C   UNL     1       9.555  -2.216  14.134  1.00  0.00     0.173 A 
ATOM     80  F   UNL     1       8.731  -5.728  14.532  1.00  0.00    -0.203 F 
ATOM     81  C   UNL     1      10.338  -4.407  15.626  1.00  0.00     0.198 A 
ATOM     82  C   UNL     1      10.591  -2.099  15.061  1.00  0.00     0.198 A 
ATOM     83  F   UNL     1       9.296  -1.139  13.378  1.00  0.00    -0.203 F 
ATOM     84  F   UNL     1      10.749  -5.484  16.309  1.00  0.00    -0.200 F 
ATOM     85  C   UNL     1      10.992  -3.198  15.797  1.00  0.00     0.200 A 
ATOM     86  F   UNL     1      11.239  -0.932  15.189  1.00  0.00    -0.200 F 
ATOM     87  F   UNL     1      12.032  -3.101  16.637  1.00  0.00    -0.200 F 
ENDBRANCH  53  77
BRANCH  65  88
ATOM     88  C   UNL     1       4.801  -6.390  10.141  1.00  0.00     0.064 A 
ATOM     89  C   UNL     1       4.137  -5.375  10.852  1.00  0.00     0.173 A 
ATOM     90  C   UNL     1       4.106  -7.586   9.924  1.00  0.00     0.173 A 
ATOM     91  F   UNL     1       4.691  -4.167  11.011  1.00  0.00    -0.203 F 
ATOM     92  C   UNL     1       2.856  -5.572  11.364  1.00  0.00     0.198 A 
ATOM     93  C   UNL     1       2.812  -7.766  10.402  1.00  0.00     0.198 A 
ATOM     94  F   UNL     1       4.668  -8.568   9.201  1.00  0.00    -0.203 F 
ATOM     95  F   UNL     1       2.248  -4.594  12.052  1.00  0.00    -0.200 F 
ATOM     96  C   UNL     1       2.192  -6.765  11.131  1.00  0.00     0.200 A 
ATOM     97  F   UNL     1       2.154  -8.902  10.129  1.00  0.00    -0.200 F 
ATOM     98  F   UNL     1       0.943  -6.940  11.585  1.00  0.00    -0.200 F 
ENDBRANCH  65  88
ENDBRANCH  39  40
ENDBRANCH  32  34
ENDBRANCH  31  32
ENDBRANCH  30  31
ENDBRANCH   1  30
TORSDOF 16
