REMARK SMILES CC(C)(C)OC(=O)[C@@H](C(=O)OCCOC(=O)c1ccc(-c2c3nc(c(-c4c(F)c(F)c(F)c(F)c4F)c4ccc([nH]4)c(-c4c(F)c(F)c(F)c(F)c4F)c4nc(c(-c5c(F)c(F)c(F)c(F)c5F)c5ccc2[nH]5)C=C4)C=C3)cc1)[C@@H]([NH3+])Cc1cccc(F)c1
REMARK SMILES IDX 12 1 11 2 9 3 10 4 8 5 6 6 7 7 5 8 2 9 1 10 3 11 4 12 80 13
REMARK SMILES IDX 81 14 82 18 83 19 84 20 89 21 85 22 87 23 86 24 88 25 13 26
REMARK SMILES IDX 14 27 15 28 16 29 17 30 18 31 79 32 19 33 78 34 20 35 21 36
REMARK SMILES IDX 22 37 72 38 23 39 77 40 71 41 73 42 24 43 76 44 70 45 69 46
REMARK SMILES IDX 25 48 57 49 37 50 56 51 38 52 41 53 55 54 74 55 39 56 40 57
REMARK SMILES IDX 54 59 75 60 42 61 26 62 27 63 35 64 28 65 29 66 33 67 36 68
REMARK SMILES IDX 30 69 31 70 34 71 32 72 58 73 59 74 67 75 60 76 61 77 65 78
REMARK SMILES IDX 68 79 62 80 63 81 66 82 64 83 43 84 44 85 52 86 45 87 46 88
REMARK SMILES IDX 50 89 53 90 47 91 48 92 51 93 49 94
REMARK H PARENT 81 15 81 16 81 17 73 47 41 58
REMARK Flexibility Score: inf
ROOT
ATOM      1  C   UNL     1      -1.002  -2.099  -5.065  1.00  0.00     0.274 C 
ENDROOT
BRANCH   1   2
ATOM      2  O   UNL     1      -0.714  -2.905  -3.894  1.00  0.00    -0.461 OA
BRANCH   2   3
ATOM      3  C   UNL     1       0.590  -3.252  -3.789  1.00  0.00     0.326 C 
ATOM      4  O   UNL     1       1.453  -2.727  -4.459  1.00  0.00    -0.251 OA
BRANCH   3   5
ATOM      5  C   UNL     1       0.905  -4.323  -2.789  1.00  0.00     0.266 C 
BRANCH   5   6
ATOM      6  C   UNL     1       0.529  -3.812  -1.407  1.00  0.00     0.327 C 
ATOM      7  O   UNL     1      -0.086  -4.492  -0.596  1.00  0.00    -0.251 OA
BRANCH   6   8
ATOM      8  O   UNL     1       0.962  -2.535  -1.179  1.00  0.00    -0.459 OA
BRANCH   8   9
ATOM      9  C   UNL     1       0.544  -1.802   0.017  1.00  0.00     0.104 C 
ATOM     10  C   UNL     1       1.206  -0.413  -0.045  1.00  0.00     0.056 C 
ATOM     11  C   UNL     1       1.039  -2.473   1.302  1.00  0.00     0.056 C 
ATOM     12  C   UNL     1      -0.976  -1.599   0.015  1.00  0.00     0.056 C 
ENDBRANCH   8   9
ENDBRANCH   6   8
ENDBRANCH   5   6
BRANCH   5  13
ATOM     13  C   UNL     1       2.413  -4.744  -2.889  1.00  0.00     0.211 C 
BRANCH  13  14
ATOM     14  N   UNL     1       2.781  -5.697  -1.812  1.00  0.00    -0.354 N 
ATOM     15  H   UNL     1       2.286  -6.577  -1.954  1.00  0.00     0.344 HD
ATOM     16  H   UNL     1       2.522  -5.303  -0.908  1.00  0.00     0.344 HD
ATOM     17  H   UNL     1       3.787  -5.864  -1.835  1.00  0.00     0.344 HD
ENDBRANCH  13  14
BRANCH  13  18
ATOM     18  C   UNL     1       2.912  -5.430  -4.226  1.00  0.00     0.102 C 
BRANCH  18  19
ATOM     19  C   UNL     1       2.684  -4.791  -5.582  1.00  0.00    -0.039 A 
ATOM     20  C   UNL     1       3.421  -3.667  -5.991  1.00  0.00     0.004 A 
ATOM     21  C   UNL     1       1.673  -5.249  -6.433  1.00  0.00     0.043 A 
ATOM     22  C   UNL     1       3.104  -2.958  -7.157  1.00  0.00     0.003 A 
ATOM     23  C   UNL     1       1.368  -4.547  -7.601  1.00  0.00     0.123 A 
ATOM     24  C   UNL     1       2.058  -3.395  -7.960  1.00  0.00     0.039 A 
ATOM     25  F   UNL     1       0.357  -4.969  -8.373  1.00  0.00    -0.207 F 
ENDBRANCH  18  19
ENDBRANCH  13  18
ENDBRANCH   5  13
ENDBRANCH   3   5
ENDBRANCH   2   3
ENDBRANCH   1   2
BRANCH   1  26
ATOM     26  C   UNL     1      -0.534  -0.621  -5.035  1.00  0.00     0.275 C 
BRANCH  26  27
ATOM     27  O   UNL     1       0.898  -0.432  -5.200  1.00  0.00    -0.458 OA
BRANCH  27  28
ATOM     28  C   UNL     1       1.577  -0.022  -4.094  1.00  0.00     0.338 C 
ATOM     29  O   UNL     1       1.071   0.393  -3.064  1.00  0.00    -0.246 OA
BRANCH  28  30
ATOM     30  C   UNL     1       3.039  -0.300  -4.183  1.00  0.00     0.060 A 
ATOM     31  C   UNL     1       3.594  -1.216  -3.277  1.00  0.00     0.016 A 
ATOM     32  C   UNL     1       3.881   0.345  -5.085  1.00  0.00     0.016 A 
ATOM     33  C   UNL     1       4.945  -1.581  -3.338  1.00  0.00     0.010 A 
ATOM     34  C   UNL     1       5.256   0.029  -5.107  1.00  0.00     0.010 A 
ATOM     35  C   UNL     1       5.796  -0.958  -4.257  1.00  0.00    -0.014 A 
BRANCH  35  36
ATOM     36  C   UNL     1       7.265  -1.218  -4.204  1.00  0.00     0.031 A 
ATOM     37  C   UNL     1       8.099  -0.397  -3.262  1.00  0.00     0.074 A 
ATOM     38  C   UNL     1       7.866  -2.176  -4.939  1.00  0.00     0.049 A 
ATOM     39  N   UNL     1       9.399  -0.362  -3.112  1.00  0.00    -0.248 NA
ATOM     40  C   UNL     1       7.361   0.504  -2.364  1.00  0.00     0.031 C 
ATOM     41  C   UNL     1       7.190  -3.115  -5.823  1.00  0.00     0.029 A 
ATOM     42  N   UNL     1       9.197  -2.514  -5.062  1.00  0.00    -0.354 N 
ATOM     43  C   UNL     1       9.636   0.569  -2.111  1.00  0.00     0.074 A 
ATOM     44  C   UNL     1       8.347   1.084  -1.698  1.00  0.00     0.031 C 
ATOM     45  C   UNL     1       8.097  -3.915  -6.407  1.00  0.00     0.029 A 
ATOM     46  C   UNL     1       9.434  -3.503  -5.990  1.00  0.00     0.049 A 
ATOM     47  H   UNL     1       9.911  -2.088  -4.536  1.00  0.00     0.167 HD
ATOM     48  C   UNL     1      10.819   0.966  -1.587  1.00  0.00     0.037 A 
ATOM     49  C   UNL     1      10.590  -3.991  -6.486  1.00  0.00     0.037 A 
ATOM     50  C   UNL     1      12.105   0.482  -2.015  1.00  0.00     0.049 A 
ATOM     51  C   UNL     1      11.900  -3.439  -5.981  1.00  0.00     0.074 A 
ATOM     52  C   UNL     1      13.360   0.854  -1.567  1.00  0.00     0.029 A 
ATOM     53  N   UNL     1      12.302  -0.473  -3.003  1.00  0.00    -0.354 N 
ATOM     54  N   UNL     1      12.118  -2.542  -5.052  1.00  0.00    -0.248 NA
ATOM     55  C   UNL     1      13.127  -3.965  -6.601  1.00  0.00     0.031 C 
ATOM     56  C   UNL     1      14.317   0.170  -2.322  1.00  0.00     0.029 A 
ATOM     57  C   UNL     1      13.659  -0.682  -3.195  1.00  0.00     0.049 A 
ATOM     58  H   UNL     1      11.584  -0.934  -3.494  1.00  0.00     0.167 HD
ATOM     59  C   UNL     1      13.498  -2.421  -4.951  1.00  0.00     0.074 A 
ATOM     60  C   UNL     1      14.071  -3.345  -5.905  1.00  0.00     0.031 C 
ATOM     61  C   UNL     1      14.224  -1.615  -4.137  1.00  0.00     0.037 A 
BRANCH  48  62
ATOM     62  C   UNL     1      10.770   2.030  -0.530  1.00  0.00     0.064 A 
ATOM     63  C   UNL     1      10.267   1.773   0.754  1.00  0.00     0.173 A 
ATOM     64  C   UNL     1      11.225   3.327  -0.811  1.00  0.00     0.173 A 
ATOM     65  F   UNL     1       9.800   0.554   1.066  1.00  0.00    -0.203 F 
ATOM     66  C   UNL     1      10.186   2.786   1.706  1.00  0.00     0.198 A 
ATOM     67  C   UNL     1      11.174   4.328   0.154  1.00  0.00     0.198 A 
ATOM     68  F   UNL     1      11.716   3.624  -2.023  1.00  0.00    -0.203 F 
ATOM     69  F   UNL     1       9.641   2.535   2.904  1.00  0.00    -0.200 F 
ATOM     70  C   UNL     1      10.644   4.061   1.407  1.00  0.00     0.200 A 
ATOM     71  F   UNL     1      11.627   5.556  -0.134  1.00  0.00    -0.200 F 
ATOM     72  F   UNL     1      10.563   5.035   2.323  1.00  0.00    -0.200 F 
ENDBRANCH  48  62
BRANCH  49  73
ATOM     73  C   UNL     1      10.578  -5.024  -7.561  1.00  0.00     0.064 A 
ATOM     74  C   UNL     1      11.095  -6.310  -7.344  1.00  0.00     0.173 A 
ATOM     75  C   UNL     1      10.100  -4.729  -8.848  1.00  0.00     0.173 A 
ATOM     76  F   UNL     1      11.598  -6.634  -6.143  1.00  0.00    -0.203 F 
ATOM     77  C   UNL     1      11.156  -7.249  -8.373  1.00  0.00     0.198 A 
ATOM     78  C   UNL     1      10.130  -5.679  -9.867  1.00  0.00     0.198 A 
ATOM     79  F   UNL     1       9.606  -3.512  -9.119  1.00  0.00    -0.203 F 
ATOM     80  F   UNL     1      11.714  -8.447  -8.152  1.00  0.00    -0.200 F 
ATOM     81  C   UNL     1      10.668  -6.935  -9.633  1.00  0.00     0.200 A 
ATOM     82  F   UNL     1       9.651  -5.373 -11.081  1.00  0.00    -0.200 F 
ATOM     83  F   UNL     1      10.732  -7.836 -10.623  1.00  0.00    -0.200 F 
ENDBRANCH  49  73
BRANCH  61  84
ATOM     84  C   UNL     1      15.722  -1.729  -4.196  1.00  0.00     0.064 A 
ATOM     85  C   UNL     1      16.459  -1.278  -5.301  1.00  0.00     0.173 A 
ATOM     86  C   UNL     1      16.433  -2.254  -3.105  1.00  0.00     0.173 A 
ATOM     87  F   UNL     1      15.829  -0.781  -6.376  1.00  0.00    -0.203 F 
ATOM     88  C   UNL     1      17.849  -1.369  -5.320  1.00  0.00     0.198 A 
ATOM     89  C   UNL     1      17.824  -2.311  -3.114  1.00  0.00     0.198 A 
ATOM     90  F   UNL     1      15.779  -2.695  -2.020  1.00  0.00    -0.203 F 
ATOM     91  F   UNL     1      18.529  -0.975  -6.406  1.00  0.00    -0.200 F 
ATOM     92  C   UNL     1      18.531  -1.876  -4.224  1.00  0.00     0.200 A 
ATOM     93  F   UNL     1      18.480  -2.786  -2.046  1.00  0.00    -0.200 F 
ATOM     94  F   UNL     1      19.869  -1.950  -4.239  1.00  0.00    -0.200 F 
ENDBRANCH  61  84
ENDBRANCH  35  36
ENDBRANCH  28  30
ENDBRANCH  27  28
ENDBRANCH  26  27
ENDBRANCH   1  26
TORSDOF 18
