REMARK SMILES C[C@]12CC[C@H]3[C@@H](CCC4=CC(=O)C=C[C@@]43C)[C@@H]1CC[C@H]2O[C@@H]1O[C@H](C(=O)OCCOC(=O)c2ccc(-c3c4nc(c(-c5c(F)c(F)c(F)c(F)c5F)c5ccc([nH]5)c(-c5c(F)c(F)c(F)c(F)c5F)c5nc(c(-c6c(F)c(F)c(F)c(F)c6F)c6ccc3[nH]6)C=C5)C=C4)cc2)[C@@H](O)[C@H](O)[C@H]1O
REMARK SMILES IDX 28 1 27 2 25 3 26 4 24 5 22 6 23 7 100 8 98 9 96 10 21 11
REMARK SMILES IDX 20 12 1 13 2 14 3 15 17 16 4 17 6 18 18 19 19 20 5 21 7 22
REMARK SMILES IDX 15 23 8 24 9 25 14 26 16 27 10 28 13 29 11 30 12 31 101 32
REMARK SMILES IDX 99 34 97 36 29 38 30 39 31 40 32 41 33 42 34 43 95 44 35 45
REMARK SMILES IDX 94 46 36 47 37 48 38 49 88 50 39 51 93 52 87 53 89 54 40 55
REMARK SMILES IDX 92 56 86 57 85 58 41 60 73 61 53 62 72 63 54 64 57 65 71 66
REMARK SMILES IDX 90 67 55 68 56 69 70 71 91 72 58 73 42 74 43 75 51 76 44 77
REMARK SMILES IDX 45 78 49 79 52 80 46 81 47 82 50 83 48 84 74 85 75 86 83 87
REMARK SMILES IDX 76 88 77 89 81 90 84 91 78 92 79 93 82 94 80 95 59 96 60 97
REMARK SMILES IDX 68 98 61 99 62 100 66 101 69 102 63 103 64 104 67 105 65 106
REMARK H PARENT 101 33 99 35 97 37 89 59 57 70
REMARK Flexibility Score: inf
ROOT
ATOM      1  C   UNL     1       4.869  -5.086  -1.188  1.00  0.00     0.274 C 
ENDROOT
BRANCH   1   2
ATOM      2  O   UNL     1       4.146  -3.869  -1.466  1.00  0.00    -0.460 OA
BRANCH   2   3
ATOM      3  C   UNL     1       4.069  -2.956  -0.473  1.00  0.00     0.338 C 
ATOM      4  O   UNL     1       4.526  -3.098   0.658  1.00  0.00    -0.249 OA
BRANCH   3   5
ATOM      5  C   UNL     1       3.346  -1.671  -0.889  1.00  0.00     0.262 C 
ATOM      6  C   UNL     1       2.739  -0.112  -2.621  1.00  0.00     0.282 C 
ATOM      7  O   UNL     1       3.302  -1.383  -2.282  1.00  0.00    -0.332 OA
ATOM      8  C   UNL     1       1.458   0.277  -1.830  1.00  0.00     0.202 C 
ATOM      9  C   UNL     1       1.451  -0.213  -0.376  1.00  0.00     0.180 C 
ATOM     10  C   UNL     1       1.926  -1.672  -0.319  1.00  0.00     0.186 C 
BRANCH   6  11
ATOM     11  O   UNL     1       2.671   0.105  -4.041  1.00  0.00    -0.346 OA
BRANCH  11  12
ATOM     12  C   UNL     1       1.784  -0.491  -4.995  1.00  0.00     0.127 C 
ATOM     13  C   UNL     1       1.369  -2.232  -6.808  1.00  0.00     0.014 C 
ATOM     14  C   UNL     1       2.049  -1.963  -5.428  1.00  0.00    -0.003 C 
ATOM     15  C   UNL     1       3.506  -2.408  -5.525  1.00  0.00     0.010 C 
ATOM     16  C   UNL     1       1.343  -2.701  -4.287  1.00  0.00     0.001 C 
ATOM     17  C   UNL     1       3.619  -3.937  -5.695  1.00  0.00     0.006 C 
ATOM     18  C   UNL     1       1.390  -4.227  -4.376  1.00  0.00    -0.003 C 
ATOM     19  C   UNL     1      -0.002  -1.972  -4.153  1.00  0.00     0.007 C 
ATOM     20  C   UNL     1       0.280  -0.530  -4.655  1.00  0.00     0.033 C 
ATOM     21  C   UNL     1       2.859  -4.729  -4.603  1.00  0.00     0.006 C 
ATOM     22  C   UNL     1       0.865  -4.843  -3.063  1.00  0.00     0.009 C 
ATOM     23  C   UNL     1       2.905  -6.300  -4.743  1.00  0.00     0.010 C 
ATOM     24  C   UNL     1       0.934  -6.368  -3.055  1.00  0.00     0.032 C 
ATOM     25  C   UNL     1       2.291  -6.893  -3.463  1.00  0.00    -0.056 C 
ATOM     26  C   UNL     1       4.318  -6.828  -4.968  1.00  0.00    -0.012 C 
ATOM     27  C   UNL     1       2.102  -6.806  -5.958  1.00  0.00     0.021 C 
ATOM     28  C   UNL     1       2.914  -7.809  -2.699  1.00  0.00     0.052 C 
ATOM     29  C   UNL     1       4.925  -7.757  -4.217  1.00  0.00     0.048 C 
ATOM     30  C   UNL     1       4.269  -8.303  -3.014  1.00  0.00     0.178 C 
ATOM     31  O   UNL     1       4.854  -9.079  -2.270  1.00  0.00    -0.290 OA
ENDBRANCH  11  12
ENDBRANCH   6  11
BRANCH   8  32
ATOM     32  O   UNL     1       1.218   1.690  -1.897  1.00  0.00    -0.385 OA
ATOM     33  H   UNL     1       1.944   2.163  -1.459  1.00  0.00     0.211 HD
ENDBRANCH   8  32
BRANCH   9  34
ATOM     34  O   UNL     1       0.134  -0.078   0.177  1.00  0.00    -0.387 OA
ATOM     35  H   UNL     1      -0.490  -0.612  -0.339  1.00  0.00     0.211 HD
ENDBRANCH   9  34
BRANCH  10  36
ATOM     36  O   UNL     1       1.802  -2.175   1.008  1.00  0.00    -0.387 OA
ATOM     37  H   UNL     1       2.318  -1.620   1.614  1.00  0.00     0.211 HD
ENDBRANCH  10  36
ENDBRANCH   3   5
ENDBRANCH   2   3
ENDBRANCH   1   2
BRANCH   1  38
ATOM     38  C   UNL     1       5.932  -5.324  -2.261  1.00  0.00     0.275 C 
BRANCH  38  39
ATOM     39  O   UNL     1       7.037  -4.452  -2.038  1.00  0.00    -0.458 OA
BRANCH  39  40
ATOM     40  C   UNL     1       6.916  -3.229  -2.599  1.00  0.00     0.338 C 
ATOM     41  O   UNL     1       6.157  -2.857  -3.471  1.00  0.00    -0.246 OA
BRANCH  40  42
ATOM     42  C   UNL     1       7.686  -2.350  -1.725  1.00  0.00     0.060 A 
ATOM     43  C   UNL     1       7.023  -1.258  -1.158  1.00  0.00     0.016 A 
ATOM     44  C   UNL     1       8.996  -2.684  -1.380  1.00  0.00     0.016 A 
ATOM     45  C   UNL     1       7.671  -0.494  -0.207  1.00  0.00     0.010 A 
ATOM     46  C   UNL     1       9.653  -1.911  -0.441  1.00  0.00     0.010 A 
ATOM     47  C   UNL     1       8.994  -0.807   0.124  1.00  0.00    -0.014 A 
BRANCH  47  48
ATOM     48  C   UNL     1       9.777   0.165   0.892  1.00  0.00     0.031 A 
ATOM     49  C   UNL     1      10.670   1.075   0.110  1.00  0.00     0.074 A 
ATOM     50  C   UNL     1       9.661   0.209   2.227  1.00  0.00     0.049 A 
ATOM     51  N   UNL     1      11.540   1.948   0.533  1.00  0.00    -0.248 NA
ATOM     52  C   UNL     1      10.584   0.974  -1.361  1.00  0.00     0.031 C 
ATOM     53  C   UNL     1       8.772  -0.635   3.027  1.00  0.00     0.029 A 
ATOM     54  N   UNL     1      10.299   0.994   3.144  1.00  0.00    -0.354 N 
ATOM     55  C   UNL     1      12.120   2.476  -0.613  1.00  0.00     0.074 A 
ATOM     56  C   UNL     1      11.529   1.812  -1.749  1.00  0.00     0.031 C 
ATOM     57  C   UNL     1       8.929  -0.325   4.325  1.00  0.00     0.029 A 
ATOM     58  C   UNL     1       9.956   0.704   4.441  1.00  0.00     0.049 A 
ATOM     59  H   UNL     1      10.942   1.698   2.899  1.00  0.00     0.167 HD
ATOM     60  C   UNL     1      13.063   3.440  -0.689  1.00  0.00     0.037 A 
ATOM     61  C   UNL     1      10.455   1.212   5.582  1.00  0.00     0.037 A 
ATOM     62  C   UNL     1      13.611   4.079   0.474  1.00  0.00     0.049 A 
ATOM     63  C   UNL     1      11.521   2.272   5.463  1.00  0.00     0.074 A 
ATOM     64  C   UNL     1      14.568   5.071   0.550  1.00  0.00     0.029 A 
ATOM     65  N   UNL     1      13.232   3.778   1.778  1.00  0.00    -0.354 N 
ATOM     66  N   UNL     1      12.072   2.776   4.382  1.00  0.00    -0.248 NA
ATOM     67  C   UNL     1      12.028   2.842   6.715  1.00  0.00     0.031 C 
ATOM     68  C   UNL     1      14.803   5.336   1.903  1.00  0.00     0.029 A 
ATOM     69  C   UNL     1      13.944   4.559   2.668  1.00  0.00     0.049 A 
ATOM     70  H   UNL     1      12.558   3.107   2.030  1.00  0.00     0.167 HD
ATOM     71  C   UNL     1      12.962   3.745   4.819  1.00  0.00     0.074 A 
ATOM     72  C   UNL     1      12.864   3.766   6.266  1.00  0.00     0.031 C 
ATOM     73  C   UNL     1      13.788   4.549   4.101  1.00  0.00     0.037 A 
BRANCH  60  74
ATOM     74  C   UNL     1      13.568   3.817  -2.050  1.00  0.00     0.064 A 
ATOM     75  C   UNL     1      12.764   4.489  -2.984  1.00  0.00     0.173 A 
ATOM     76  C   UNL     1      14.883   3.505  -2.427  1.00  0.00     0.173 A 
ATOM     77  F   UNL     1      11.489   4.785  -2.688  1.00  0.00    -0.203 F 
ATOM     78  C   UNL     1      13.251   4.817  -4.247  1.00  0.00     0.198 A 
ATOM     79  C   UNL     1      15.377   3.861  -3.679  1.00  0.00     0.198 A 
ATOM     80  F   UNL     1      15.692   2.850  -1.579  1.00  0.00    -0.203 F 
ATOM     81  F   UNL     1      12.447   5.413  -5.140  1.00  0.00    -0.200 F 
ATOM     82  C   UNL     1      14.559   4.512  -4.590  1.00  0.00     0.200 A 
ATOM     83  F   UNL     1      16.643   3.570  -4.006  1.00  0.00    -0.200 F 
ATOM     84  F   UNL     1      15.029   4.836  -5.802  1.00  0.00    -0.200 F 
ENDBRANCH  60  74
BRANCH  61  85
ATOM     85  C   UNL     1       9.966   0.731   6.901  1.00  0.00     0.064 A 
ATOM     86  C   UNL     1       9.267   1.579   7.772  1.00  0.00     0.173 A 
ATOM     87  C   UNL     1      10.194  -0.587   7.327  1.00  0.00     0.173 A 
ATOM     88  F   UNL     1       9.031   2.852   7.420  1.00  0.00    -0.203 F 
ATOM     89  C   UNL     1       8.845   1.140   9.025  1.00  0.00     0.198 A 
ATOM     90  C   UNL     1       9.742  -1.036   8.567  1.00  0.00     0.198 A 
ATOM     91  F   UNL     1      10.850  -1.446   6.533  1.00  0.00    -0.203 F 
ATOM     92  F   UNL     1       8.228   1.990   9.858  1.00  0.00    -0.200 F 
ATOM     93  C   UNL     1       9.078  -0.169   9.420  1.00  0.00     0.200 A 
ATOM     94  F   UNL     1       9.954  -2.306   8.935  1.00  0.00    -0.200 F 
ATOM     95  F   UNL     1       8.671  -0.591  10.625  1.00  0.00    -0.200 F 
ENDBRANCH  61  85
BRANCH  73  96
ATOM     96  C   UNL     1      14.589   5.552   4.875  1.00  0.00     0.064 A 
ATOM     97  C   UNL     1      15.664   5.170   5.690  1.00  0.00     0.173 A 
ATOM     98  C   UNL     1      14.296   6.919   4.760  1.00  0.00     0.173 A 
ATOM     99  F   UNL     1      15.973   3.873   5.838  1.00  0.00    -0.203 F 
ATOM    100  C   UNL     1      16.392   6.122   6.395  1.00  0.00     0.198 A 
ATOM    101  C   UNL     1      15.052   7.870   5.436  1.00  0.00     0.198 A 
ATOM    102  F   UNL     1      13.285   7.332   3.980  1.00  0.00    -0.203 F 
ATOM    103  F   UNL     1      17.376   5.733   7.218  1.00  0.00    -0.200 F 
ATOM    104  C   UNL     1      16.091   7.470   6.261  1.00  0.00     0.200 A 
ATOM    105  F   UNL     1      14.773   9.172   5.289  1.00  0.00    -0.200 F 
ATOM    106  F   UNL     1      16.800   8.385   6.936  1.00  0.00    -0.200 F 
ENDBRANCH  73  96
ENDBRANCH  47  48
ENDBRANCH  40  42
ENDBRANCH  39  40
ENDBRANCH  38  39
ENDBRANCH   1  38
TORSDOF 16
