REMARK SMILES CCOc1cc(F)ccc1NC(=O)CC1(C(=O)OCCOC(=O)c2ccc(-c3c4nc(c(-c5c(F)c(F)c(F)c(F)c5F)c5ccc([nH]5)c(-c5c(F)c(F)c(F)c(F)c5F)c5nc(c(-c6c(F)c(F)c(F)c(F)c6F)c6ccc3[nH]6)C=C5)C=C4)cc2)CCCCC1
REMARK SMILES IDX 18 1 16 2 17 3 15 4 87 5 91 6 88 7 90 8 89 9 14 10 12 11
REMARK SMILES IDX 11 12 13 14 10 15 4 16 5 17 6 18 9 19 7 20 8 21 3 22 2 23
REMARK SMILES IDX 1 24 19 25 20 26 21 27 22 28 23 29 24 30 25 31 86 32 26 33
REMARK SMILES IDX 85 34 27 35 28 36 29 37 79 38 30 39 84 40 78 41 80 42 31 43
REMARK SMILES IDX 83 44 77 45 76 46 32 48 64 49 44 50 63 51 45 52 48 53 62 54
REMARK SMILES IDX 81 55 46 56 47 57 61 59 82 60 49 61 33 62 34 63 42 64 35 65
REMARK SMILES IDX 36 66 40 67 43 68 37 69 38 70 41 71 39 72 65 73 66 74 74 75
REMARK SMILES IDX 67 76 68 77 72 78 75 79 69 80 70 81 73 82 71 83 50 84 51 85
REMARK SMILES IDX 59 86 52 87 53 88 57 89 60 90 54 91 55 92 58 93 56 94
REMARK H PARENT 11 13 80 47 48 58
REMARK Flexibility Score: inf
ROOT
ATOM      1  O   UNL     1       7.072   0.675  -5.796  1.00  0.00    -0.462 OA
ENDROOT
BRANCH   1   2
ATOM      2  C   UNL     1       5.959   0.558  -6.563  1.00  0.00     0.312 C 
ATOM      3  O   UNL     1       5.984   0.351  -7.772  1.00  0.00    -0.252 OA
BRANCH   2   4
ATOM      4  C   UNL     1       4.644   0.703  -5.763  1.00  0.00     0.077 C 
ATOM      5  C   UNL     1       3.915   1.959  -6.293  1.00  0.00     0.019 C 
ATOM      6  C   UNL     1       4.868   0.826  -4.237  1.00  0.00     0.019 C 
ATOM      7  C   UNL     1       4.577   3.262  -5.845  1.00  0.00     0.001 C 
ATOM      8  C   UNL     1       5.446   2.159  -3.763  1.00  0.00     0.001 C 
ATOM      9  C   UNL     1       4.672   3.341  -4.327  1.00  0.00     0.000 C 
BRANCH   4  10
ATOM     10  C   UNL     1       3.846  -0.587  -6.113  1.00  0.00     0.119 C 
BRANCH  10  11
ATOM     11  C   UNL     1       2.415  -0.710  -5.629  1.00  0.00     0.225 C 
ATOM     12  N   UNL     1       2.076  -1.185  -4.400  1.00  0.00    -0.323 N 
ATOM     13  H   UNL     1       1.104  -1.184  -4.242  1.00  0.00     0.170 HD
ATOM     14  O   UNL     1       1.498  -0.314  -6.358  1.00  0.00    -0.275 OA
BRANCH  12  15
ATOM     15  C   UNL     1       2.810  -1.675  -3.305  1.00  0.00     0.084 A 
ATOM     16  C   UNL     1       2.250  -1.457  -2.030  1.00  0.00     0.145 A 
ATOM     17  C   UNL     1       2.967  -1.758  -0.874  1.00  0.00     0.087 A 
ATOM     18  C   UNL     1       4.244  -2.289  -0.990  1.00  0.00     0.127 A 
ATOM     19  C   UNL     1       4.049  -2.308  -3.391  1.00  0.00     0.033 A 
ATOM     20  F   UNL     1       4.956  -2.544   0.114  1.00  0.00    -0.207 F 
ATOM     21  C   UNL     1       4.779  -2.592  -2.234  1.00  0.00     0.041 A 
BRANCH  16  22
ATOM     22  O   UNL     1       0.950  -1.018  -1.958  1.00  0.00    -0.492 OA
BRANCH  22  23
ATOM     23  C   UNL     1       0.801   0.297  -1.413  1.00  0.00     0.226 C 
ATOM     24  C   UNL     1       0.443   0.243   0.063  1.00  0.00     0.049 C 
ENDBRANCH  22  23
ENDBRANCH  16  22
ENDBRANCH  12  15
ENDBRANCH  10  11
ENDBRANCH   4  10
ENDBRANCH   2   4
ENDBRANCH   1   2
BRANCH   1  25
ATOM     25  C   UNL     1       8.349   0.628  -6.463  1.00  0.00     0.274 C 
BRANCH  25  26
ATOM     26  C   UNL     1       9.117  -0.631  -6.068  1.00  0.00     0.275 C 
BRANCH  26  27
ATOM     27  O   UNL     1       8.510  -1.791  -6.665  1.00  0.00    -0.458 OA
BRANCH  27  28
ATOM     28  C   UNL     1       7.705  -2.504  -5.854  1.00  0.00     0.338 C 
ATOM     29  O   UNL     1       7.455  -2.312  -4.672  1.00  0.00    -0.246 OA
BRANCH  28  30
ATOM     30  C   UNL     1       7.066  -3.572  -6.624  1.00  0.00     0.060 A 
ATOM     31  C   UNL     1       5.902  -3.277  -7.330  1.00  0.00     0.016 A 
ATOM     32  C   UNL     1       7.524  -4.884  -6.522  1.00  0.00     0.016 A 
ATOM     33  C   UNL     1       5.124  -4.307  -7.847  1.00  0.00     0.010 A 
ATOM     34  C   UNL     1       6.793  -5.907  -7.130  1.00  0.00     0.010 A 
ATOM     35  C   UNL     1       5.566  -5.634  -7.765  1.00  0.00    -0.014 A 
BRANCH  35  36
ATOM     36  C   UNL     1       4.746  -6.748  -8.310  1.00  0.00     0.031 A 
ATOM     37  C   UNL     1       4.271  -7.843  -7.396  1.00  0.00     0.074 A 
ATOM     38  C   UNL     1       4.432  -6.791  -9.619  1.00  0.00     0.049 A 
ATOM     39  N   UNL     1       3.782  -9.019  -7.695  1.00  0.00    -0.248 NA
ATOM     40  C   UNL     1       4.372  -7.584  -5.950  1.00  0.00     0.031 C 
ATOM     41  C   UNL     1       4.759  -5.761 -10.605  1.00  0.00     0.029 A 
ATOM     42  N   UNL     1       3.765  -7.746 -10.345  1.00  0.00    -0.354 N 
ATOM     43  C   UNL     1       3.579  -9.663  -6.481  1.00  0.00     0.074 A 
ATOM     44  C   UNL     1       3.982  -8.743  -5.439  1.00  0.00     0.031 C 
ATOM     45  C   UNL     1       4.268  -6.123 -11.799  1.00  0.00     0.029 A 
ATOM     46  C   UNL     1       3.676  -7.452 -11.684  1.00  0.00     0.049 A 
ATOM     47  H   UNL     1       3.387  -8.563  -9.946  1.00  0.00     0.167 HD
ATOM     48  C   UNL     1       3.107 -10.913  -6.266  1.00  0.00     0.037 A 
ATOM     49  C   UNL     1       3.217  -8.188 -12.713  1.00  0.00     0.037 A 
ATOM     50  C   UNL     1       2.652 -11.797  -7.307  1.00  0.00     0.049 A 
ATOM     51  C   UNL     1       2.728  -9.585 -12.457  1.00  0.00     0.074 A 
ATOM     52  C   UNL     1       2.167 -13.088  -7.194  1.00  0.00     0.029 A 
ATOM     53  N   UNL     1       2.602 -11.466  -8.653  1.00  0.00    -0.354 N 
ATOM     54  N   UNL     1       2.639 -10.230 -11.320  1.00  0.00    -0.248 NA
ATOM     55  C   UNL     1       2.306 -10.367 -13.627  1.00  0.00     0.031 C 
ATOM     56  C   UNL     1       1.843 -13.546  -8.475  1.00  0.00     0.029 A 
ATOM     57  C   UNL     1       2.096 -12.529  -9.381  1.00  0.00     0.049 A 
ATOM     58  H   UNL     1       2.885 -10.603  -9.034  1.00  0.00     0.167 HD
ATOM     59  C   UNL     1       2.146 -11.488 -11.633  1.00  0.00     0.074 A 
ATOM     60  C   UNL     1       1.944 -11.514 -13.067  1.00  0.00     0.031 C 
ATOM     61  C   UNL     1       1.891 -12.529 -10.806  1.00  0.00     0.037 A 
BRANCH  48  62
ATOM     62  C   UNL     1       3.092 -11.422  -4.856  1.00  0.00     0.064 A 
ATOM     63  C   UNL     1       4.022 -12.392  -4.450  1.00  0.00     0.173 A 
ATOM     64  C   UNL     1       2.132 -11.001  -3.926  1.00  0.00     0.173 A 
ATOM     65  F   UNL     1       4.958 -12.830  -5.305  1.00  0.00    -0.203 F 
ATOM     66  C   UNL     1       3.985 -12.928  -3.167  1.00  0.00     0.198 A 
ATOM     67  C   UNL     1       2.112 -11.524  -2.635  1.00  0.00     0.198 A 
ATOM     68  F   UNL     1       1.232 -10.066  -4.263  1.00  0.00    -0.203 F 
ATOM     69  F   UNL     1       4.869 -13.871  -2.809  1.00  0.00    -0.200 F 
ATOM     70  C   UNL     1       3.032 -12.492  -2.259  1.00  0.00     0.200 A 
ATOM     71  F   UNL     1       1.205 -11.086  -1.751  1.00  0.00    -0.200 F 
ATOM     72  F   UNL     1       3.003 -13.001  -1.020  1.00  0.00    -0.200 F 
ENDBRANCH  48  62
BRANCH  49  73
ATOM     73  C   UNL     1       3.244  -7.620 -14.084  1.00  0.00     0.064 A 
ATOM     74  C   UNL     1       4.454  -7.405 -14.761  1.00  0.00     0.173 A 
ATOM     75  C   UNL     1       2.059  -7.232 -14.722  1.00  0.00     0.173 A 
ATOM     76  F   UNL     1       5.615  -7.760 -14.191  1.00  0.00    -0.203 F 
ATOM     77  C   UNL     1       4.479  -6.795 -16.013  1.00  0.00     0.198 A 
ATOM     78  C   UNL     1       2.083  -6.644 -15.985  1.00  0.00     0.198 A 
ATOM     79  F   UNL     1       0.878  -7.441 -14.123  1.00  0.00    -0.203 F 
ATOM     80  F   UNL     1       5.651  -6.563 -16.620  1.00  0.00    -0.200 F 
ATOM     81  C   UNL     1       3.293  -6.416 -16.624  1.00  0.00     0.200 A 
ATOM     82  F   UNL     1       0.935  -6.300 -16.584  1.00  0.00    -0.200 F 
ATOM     83  F   UNL     1       3.317  -5.832 -17.830  1.00  0.00    -0.200 F 
ENDBRANCH  49  73
BRANCH  61  84
ATOM     84  C   UNL     1       1.339 -13.779 -11.416  1.00  0.00     0.064 A 
ATOM     85  C   UNL     1      -0.016 -14.105 -11.259  1.00  0.00     0.173 A 
ATOM     86  C   UNL     1       2.169 -14.693 -12.078  1.00  0.00     0.173 A 
ATOM     87  F   UNL     1      -0.845 -13.261 -10.626  1.00  0.00    -0.203 F 
ATOM     88  C   UNL     1      -0.518 -15.314 -11.730  1.00  0.00     0.198 A 
ATOM     89  C   UNL     1       1.659 -15.894 -12.563  1.00  0.00     0.198 A 
ATOM     90  F   UNL     1       3.468 -14.416 -12.261  1.00  0.00    -0.203 F 
ATOM     91  F   UNL     1      -1.810 -15.619 -11.545  1.00  0.00    -0.200 F 
ATOM     92  C   UNL     1       0.320 -16.207 -12.381  1.00  0.00     0.200 A 
ATOM     93  F   UNL     1       2.465 -16.751 -13.206  1.00  0.00    -0.200 F 
ATOM     94  F   UNL     1      -0.165 -17.372 -12.834  1.00  0.00    -0.200 F 
ENDBRANCH  61  84
ENDBRANCH  35  36
ENDBRANCH  28  30
ENDBRANCH  27  28
ENDBRANCH  26  27
ENDBRANCH  25  26
ENDBRANCH   1  25
TORSDOF 16
