REMARK SMILES COc1cc(S(=O)(=O)CCO)cc(C(=O)OCCOC(=O)c2ccc(-c3c4nc(c(-c5c(F)c(F)c(F)c(F)c5F)c5ccc([nH]5)c(-c5c(F)c(F)c(F)c(F)c5F)c5nc(c(-c6c(F)c(F)c(F)c(F)c6F)c6ccc3[nH]6)C=C5)C=C4)cc2)c1OC
REMARK SMILES IDX 17 1 16 2 14 3 15 4 13 5 3 6 4 7 85 8 5 9 12 10 2 11 1 12
REMARK SMILES IDX 86 13 87 14 6 15 7 16 8 17 9 18 10 19 11 20 18 22 19 23
REMARK SMILES IDX 20 24 21 25 22 26 23 27 84 28 24 29 83 30 25 31 26 32 27 33
REMARK SMILES IDX 77 34 28 35 82 36 76 37 78 38 29 39 81 40 75 41 74 42 30 44
REMARK SMILES IDX 62 45 42 46 61 47 43 48 46 49 60 50 79 51 44 52 45 53 59 55
REMARK SMILES IDX 80 56 47 57 31 58 32 59 40 60 33 61 34 62 38 63 41 64 35 65
REMARK SMILES IDX 36 66 39 67 37 68 63 69 64 70 72 71 65 72 66 73 70 74 73 75
REMARK SMILES IDX 67 76 68 77 71 78 69 79 48 80 49 81 57 82 50 83 51 84 55 85
REMARK SMILES IDX 58 86 52 87 53 88 56 89 54 90
REMARK H PARENT 11 21 78 43 46 54
REMARK Flexibility Score: inf
ROOT
ATOM      1  C   UNL     1       6.132   2.041  -2.603  1.00  0.00     0.275 C 
ENDROOT
BRANCH   1   2
ATOM      2  O   UNL     1       4.767   1.573  -2.623  1.00  0.00    -0.458 OA
BRANCH   2   3
ATOM      3  C   UNL     1       3.800   2.522  -2.612  1.00  0.00     0.342 C 
ATOM      4  O   UNL     1       3.953   3.732  -2.655  1.00  0.00    -0.246 OA
BRANCH   3   5
ATOM      5  C   UNL     1       2.471   1.883  -2.681  1.00  0.00     0.107 A 
ATOM      6  C   UNL     1       0.761   0.446  -1.788  1.00  0.00     0.162 A 
ATOM      7  C   UNL     1      -0.088   0.792  -2.844  1.00  0.00     0.070 A 
ATOM      8  C   UNL     1       2.057   0.973  -1.702  1.00  0.00     0.175 A 
ATOM      9  C   UNL     1       0.327   1.722  -3.800  1.00  0.00     0.072 A 
ATOM     10  C   UNL     1       1.608   2.261  -3.726  1.00  0.00     0.040 A 
BRANCH   6  11
ATOM     11  O   UNL     1       0.264  -0.439  -0.868  1.00  0.00    -0.493 OA
ATOM     12  C   UNL     1      -0.140   0.243   0.320  1.00  0.00     0.278 C 
ENDBRANCH   6  11
BRANCH   8  13
ATOM     13  O   UNL     1       2.880   0.758  -0.630  1.00  0.00    -0.492 OA
ATOM     14  C   UNL     1       3.190  -0.614  -0.392  1.00  0.00     0.278 C 
ENDBRANCH   8  13
BRANCH   9  15
ATOM     15  S   UNL     1      -0.859   2.171  -5.051  1.00  0.00     0.180 S 
ATOM     16  O   UNL     1      -0.983   0.994  -5.892  1.00  0.00    -0.224 OA
ATOM     17  O   UNL     1      -2.016   2.688  -4.343  1.00  0.00    -0.224 OA
BRANCH  15  18
ATOM     18  C   UNL     1      -0.228   3.463  -6.084  1.00  0.00     0.170 C 
BRANCH  18  19
ATOM     19  C   UNL     1      -0.335   4.842  -5.468  1.00  0.00     0.172 C 
BRANCH  19  20
ATOM     20  O   UNL     1       0.655   5.015  -4.465  1.00  0.00    -0.395 OA
ATOM     21  H   UNL     1       0.527   4.353  -3.767  1.00  0.00     0.210 HD
ENDBRANCH  19  20
ENDBRANCH  18  19
ENDBRANCH  15  18
ENDBRANCH   9  15
ENDBRANCH   3   5
ENDBRANCH   2   3
ENDBRANCH   1   2
BRANCH   1  22
ATOM     22  C   UNL     1       6.826   1.696  -3.918  1.00  0.00     0.275 C 
BRANCH  22  23
ATOM     23  O   UNL     1       6.261   2.505  -4.964  1.00  0.00    -0.458 OA
BRANCH  23  24
ATOM     24  C   UNL     1       5.605   1.851  -5.948  1.00  0.00     0.338 C 
ATOM     25  O   UNL     1       5.531   0.650  -6.134  1.00  0.00    -0.246 OA
BRANCH  24  26
ATOM     26  C   UNL     1       4.903   2.844  -6.779  1.00  0.00     0.060 A 
ATOM     27  C   UNL     1       4.010   3.716  -6.168  1.00  0.00     0.016 A 
ATOM     28  C   UNL     1       5.043   2.852  -8.165  1.00  0.00     0.016 A 
ATOM     29  C   UNL     1       3.192   4.532  -6.941  1.00  0.00     0.010 A 
ATOM     30  C   UNL     1       4.297   3.762  -8.932  1.00  0.00     0.010 A 
ATOM     31  C   UNL     1       3.336   4.598  -8.334  1.00  0.00    -0.014 A 
BRANCH  31  32
ATOM     32  C   UNL     1       2.483   5.528  -9.140  1.00  0.00     0.031 A 
ATOM     33  C   UNL     1       1.708   5.026 -10.335  1.00  0.00     0.074 A 
ATOM     34  C   UNL     1       2.370   6.832  -8.801  1.00  0.00     0.049 A 
ATOM     35  N   UNL     1       1.101   5.709 -11.274  1.00  0.00    -0.248 NA
ATOM     36  C   UNL     1       1.599   3.567 -10.499  1.00  0.00     0.031 C 
ATOM     37  C   UNL     1       2.998   7.469  -7.641  1.00  0.00     0.029 A 
ATOM     38  N   UNL     1       1.676   7.862  -9.396  1.00  0.00    -0.354 N 
ATOM     39  C   UNL     1       0.612   4.772 -12.177  1.00  0.00     0.074 A 
ATOM     40  C   UNL     1       0.965   3.467 -11.661  1.00  0.00     0.031 C 
ATOM     41  C   UNL     1       2.617   8.751  -7.574  1.00  0.00     0.029 A 
ATOM     42  C   UNL     1       1.838   9.072  -8.762  1.00  0.00     0.049 A 
ATOM     43  H   UNL     1       1.118   7.744 -10.198  1.00  0.00     0.167 HD
ATOM     44  C   UNL     1      -0.059   4.985 -13.334  1.00  0.00     0.037 A 
ATOM     45  C   UNL     1       1.478  10.320  -9.122  1.00  0.00     0.037 A 
ATOM     46  C   UNL     1      -0.485   6.277 -13.807  1.00  0.00     0.049 A 
ATOM     47  C   UNL     1       0.798  10.533 -10.445  1.00  0.00     0.074 A 
ATOM     48  C   UNL     1      -1.220   6.579 -14.942  1.00  0.00     0.029 A 
ATOM     49  N   UNL     1      -0.227   7.479 -13.168  1.00  0.00    -0.354 N 
ATOM     50  N   UNL     1       0.393   9.646 -11.318  1.00  0.00    -0.248 NA
ATOM     51  C   UNL     1       0.564  11.927 -10.851  1.00  0.00     0.031 C 
ATOM     52  C   UNL     1      -1.363   7.968 -15.017  1.00  0.00     0.029 A 
ATOM     53  C   UNL     1      -0.755   8.527 -13.905  1.00  0.00     0.049 A 
ATOM     54  H   UNL     1       0.259   7.574 -12.318  1.00  0.00     0.167 HD
ATOM     55  C   UNL     1      -0.136  10.370 -12.377  1.00  0.00     0.074 A 
ATOM     56  C   UNL     1      -0.036  11.770 -12.022  1.00  0.00     0.031 C 
ATOM     57  C   UNL     1      -0.645   9.915 -13.546  1.00  0.00     0.037 A 
BRANCH  44  58
ATOM     58  C   UNL     1      -0.348   3.807 -14.218  1.00  0.00     0.064 A 
ATOM     59  C   UNL     1      -1.376   2.897 -13.940  1.00  0.00     0.173 A 
ATOM     60  C   UNL     1       0.355   3.658 -15.425  1.00  0.00     0.173 A 
ATOM     61  F   UNL     1      -2.072   2.994 -12.798  1.00  0.00    -0.203 F 
ATOM     62  C   UNL     1      -1.688   1.878 -14.838  1.00  0.00     0.198 A 
ATOM     63  C   UNL     1       0.025   2.653 -16.330  1.00  0.00     0.198 A 
ATOM     64  F   UNL     1       1.342   4.511 -15.741  1.00  0.00    -0.203 F 
ATOM     65  F   UNL     1      -2.666   1.008 -14.548  1.00  0.00    -0.200 F 
ATOM     66  C   UNL     1      -0.996   1.764 -16.035  1.00  0.00     0.200 A 
ATOM     67  F   UNL     1       0.685   2.557 -17.492  1.00  0.00    -0.200 F 
ATOM     68  F   UNL     1      -1.315   0.798 -16.908  1.00  0.00    -0.200 F 
ENDBRANCH  44  58
BRANCH  45  69
ATOM     69  C   UNL     1       1.855  11.483  -8.272  1.00  0.00     0.064 A 
ATOM     70  C   UNL     1       0.880  12.284  -7.664  1.00  0.00     0.173 A 
ATOM     71  C   UNL     1       3.201  11.835  -8.076  1.00  0.00     0.173 A 
ATOM     72  F   UNL     1      -0.420  12.012  -7.848  1.00  0.00    -0.203 F 
ATOM     73  C   UNL     1       1.236  13.398  -6.904  1.00  0.00     0.198 A 
ATOM     74  C   UNL     1       3.556  12.922  -7.284  1.00  0.00     0.198 A 
ATOM     75  F   UNL     1       4.176  11.109  -8.645  1.00  0.00    -0.203 F 
ATOM     76  F   UNL     1       0.282  14.180  -6.380  1.00  0.00    -0.200 F 
ATOM     77  C   UNL     1       2.573  13.710  -6.707  1.00  0.00     0.200 A 
ATOM     78  F   UNL     1       4.849  13.208  -7.084  1.00  0.00    -0.200 F 
ATOM     79  F   UNL     1       2.913  14.777  -5.971  1.00  0.00    -0.200 F 
ENDBRANCH  45  69
BRANCH  57  80
ATOM     80  C   UNL     1      -1.135  10.938 -14.525  1.00  0.00     0.064 A 
ATOM     81  C   UNL     1      -0.240  11.727 -15.262  1.00  0.00     0.173 A 
ATOM     82  C   UNL     1      -2.508  11.109 -14.755  1.00  0.00     0.173 A 
ATOM     83  F   UNL     1       1.081  11.614 -15.062  1.00  0.00    -0.203 F 
ATOM     84  C   UNL     1      -0.703  12.663 -16.183  1.00  0.00     0.198 A 
ATOM     85  C   UNL     1      -2.967  12.027 -15.695  1.00  0.00     0.198 A 
ATOM     86  F   UNL     1      -3.404  10.377 -14.076  1.00  0.00    -0.203 F 
ATOM     87  F   UNL     1       0.168  13.436 -16.846  1.00  0.00    -0.200 F 
ATOM     88  C   UNL     1      -2.065  12.807 -16.404  1.00  0.00     0.200 A 
ATOM     89  F   UNL     1      -4.282  12.158 -15.915  1.00  0.00    -0.200 F 
ATOM     90  F   UNL     1      -2.509  13.703 -17.296  1.00  0.00    -0.200 F 
ENDBRANCH  57  80
ENDBRANCH  31  32
ENDBRANCH  24  26
ENDBRANCH  23  24
ENDBRANCH  22  23
ENDBRANCH   1  22
TORSDOF 17
