REMARK SMILES C[C@@H](O)[C@@H](NC(=O)Nc1ccc(F)cc1F)C(=O)OCCOC(=O)c1ccc(-c2c3nc(c(-c4c(F)c(F)c(F)c(F)c4F)c4ccc([nH]4)c(-c4c(F)c(F)c(F)c(F)c4F)c4nc(c(-c5c(F)c(F)c(F)c(F)c5F)c5ccc2[nH]5)C=C4)C=C3)cc1
REMARK SMILES IDX 20 1 19 2 17 3 18 4 4 5 2 6 1 7 3 8 5 10 6 11 7 13 8 14 9 16
REMARK SMILES IDX 10 17 15 18 11 19 14 20 16 21 12 22 13 23 21 24 22 25 23 26
REMARK SMILES IDX 24 27 25 28 26 29 87 30 27 31 86 32 28 33 29 34 30 35 80 36
REMARK SMILES IDX 31 37 85 38 79 39 81 40 32 41 84 42 78 43 77 44 33 46 65 47
REMARK SMILES IDX 45 48 64 49 46 50 49 51 63 52 82 53 47 54 48 55 62 57 83 58
REMARK SMILES IDX 50 59 34 60 35 61 43 62 36 63 37 64 41 65 44 66 38 67 39 68
REMARK SMILES IDX 42 69 40 70 66 71 67 72 75 73 68 74 69 75 73 76 76 77 70 78
REMARK SMILES IDX 71 79 74 80 72 81 51 82 52 83 60 84 53 85 54 86 58 87 61 88
REMARK SMILES IDX 55 89 56 90 59 91 57 92
REMARK H PARENT 3 9 5 12 8 15 81 45 49 56
REMARK Flexibility Score: inf
ROOT
ATOM      1  C   UNL     1      -0.257  -2.136   5.120  1.00  0.00     0.274 C 
ENDROOT
BRANCH   1   2
ATOM      2  O   UNL     1      -0.541  -1.619   3.809  1.00  0.00    -0.460 OA
BRANCH   2   3
ATOM      3  C   UNL     1       0.266  -1.988   2.779  1.00  0.00     0.331 C 
ATOM      4  O   UNL     1       1.221  -2.748   2.871  1.00  0.00    -0.250 OA
BRANCH   3   5
ATOM      5  C   UNL     1      -0.215  -1.344   1.472  1.00  0.00     0.222 C 
BRANCH   5   6
ATOM      6  C   UNL     1       0.995  -0.601   0.839  1.00  0.00     0.145 C 
ATOM      7  C   UNL     1       0.708  -0.142  -0.592  1.00  0.00     0.041 C 
BRANCH   6   8
ATOM      8  O   UNL     1       1.320   0.590   1.561  1.00  0.00    -0.391 OA
ATOM      9  H   UNL     1       0.573   1.208   1.518  1.00  0.00     0.211 HD
ENDBRANCH   6   8
ENDBRANCH   5   6
BRANCH   5  10
ATOM     10  N   UNL     1      -0.724  -2.385   0.570  1.00  0.00    -0.322 N 
ATOM     11  C   UNL     1      -1.888  -3.011   0.378  1.00  0.00     0.320 C 
ATOM     12  H   UNL     1      -0.030  -2.704  -0.051  1.00  0.00     0.166 HD
ATOM     13  O   UNL     1      -1.913  -3.877  -0.501  1.00  0.00    -0.248 OA
ATOM     14  N   UNL     1      -2.995  -2.844   1.119  1.00  0.00    -0.305 N 
ATOM     15  H   UNL     1      -3.747  -3.417   0.842  1.00  0.00     0.171 HD
BRANCH  14  16
ATOM     16  C   UNL     1      -3.287  -2.019   2.203  1.00  0.00     0.079 A 
ATOM     17  C   UNL     1      -3.468  -0.645   2.047  1.00  0.00     0.032 A 
ATOM     18  C   UNL     1      -3.532  -2.612   3.447  1.00  0.00     0.149 A 
ATOM     19  C   UNL     1      -3.805   0.130   3.161  1.00  0.00     0.041 A 
ATOM     20  C   UNL     1      -3.833  -1.844   4.563  1.00  0.00     0.080 A 
ATOM     21  F   UNL     1      -3.405  -3.940   3.588  1.00  0.00    -0.205 F 
ATOM     22  C   UNL     1      -3.953  -0.471   4.410  1.00  0.00     0.126 A 
ATOM     23  F   UNL     1      -4.217   0.290   5.479  1.00  0.00    -0.207 F 
ENDBRANCH  14  16
ENDBRANCH   5  10
ENDBRANCH   3   5
ENDBRANCH   2   3
ENDBRANCH   1   2
BRANCH   1  24
ATOM     24  C   UNL     1      -0.047  -1.003   6.135  1.00  0.00     0.275 C 
BRANCH  24  25
ATOM     25  O   UNL     1      -0.758   0.203   5.800  1.00  0.00    -0.458 OA
BRANCH  25  26
ATOM     26  C   UNL     1      -0.101   0.994   4.912  1.00  0.00     0.338 C 
ATOM     27  O   UNL     1       0.992   0.773   4.412  1.00  0.00    -0.246 OA
BRANCH  26  28
ATOM     28  C   UNL     1      -0.952   2.129   4.499  1.00  0.00     0.060 A 
ATOM     29  C   UNL     1      -1.069   2.389   3.129  1.00  0.00     0.016 A 
ATOM     30  C   UNL     1      -1.567   2.976   5.424  1.00  0.00     0.016 A 
ATOM     31  C   UNL     1      -1.784   3.495   2.673  1.00  0.00     0.010 A 
ATOM     32  C   UNL     1      -2.274   4.097   4.967  1.00  0.00     0.010 A 
ATOM     33  C   UNL     1      -2.371   4.372   3.590  1.00  0.00    -0.014 A 
BRANCH  33  34
ATOM     34  C   UNL     1      -2.982   5.636   3.114  1.00  0.00     0.031 A 
ATOM     35  C   UNL     1      -2.167   6.897   3.136  1.00  0.00     0.074 A 
ATOM     36  C   UNL     1      -4.240   5.663   2.638  1.00  0.00     0.049 A 
ATOM     37  N   UNL     1      -2.531   8.124   2.864  1.00  0.00    -0.248 NA
ATOM     38  C   UNL     1      -0.751   6.753   3.508  1.00  0.00     0.031 C 
ATOM     39  C   UNL     1      -5.111   4.502   2.486  1.00  0.00     0.029 A 
ATOM     40  N   UNL     1      -5.003   6.718   2.199  1.00  0.00    -0.354 N 
ATOM     41  C   UNL     1      -1.394   8.900   3.042  1.00  0.00     0.074 A 
ATOM     42  C   UNL     1      -0.331   8.009   3.456  1.00  0.00     0.031 C 
ATOM     43  C   UNL     1      -6.297   4.907   2.000  1.00  0.00     0.029 A 
ATOM     44  C   UNL     1      -6.282   6.362   1.848  1.00  0.00     0.049 A 
ATOM     45  H   UNL     1      -4.665   7.641   2.142  1.00  0.00     0.167 HD
ATOM     46  C   UNL     1      -1.251  10.236   2.874  1.00  0.00     0.037 A 
ATOM     47  C   UNL     1      -7.329   7.126   1.478  1.00  0.00     0.037 A 
ATOM     48  C   UNL     1      -2.304  11.127   2.464  1.00  0.00     0.049 A 
ATOM     49  C   UNL     1      -7.171   8.622   1.392  1.00  0.00     0.074 A 
ATOM     50  C   UNL     1      -2.252  12.499   2.292  1.00  0.00     0.029 A 
ATOM     51  N   UNL     1      -3.598  10.734   2.160  1.00  0.00    -0.354 N 
ATOM     52  N   UNL     1      -6.103   9.355   1.592  1.00  0.00    -0.248 NA
ATOM     53  C   UNL     1      -8.368   9.400   1.036  1.00  0.00     0.031 C 
ATOM     54  C   UNL     1      -3.526  12.943   1.924  1.00  0.00     0.029 A 
ATOM     55  C   UNL     1      -4.358  11.841   1.817  1.00  0.00     0.049 A 
ATOM     56  H   UNL     1      -3.928   9.807   2.185  1.00  0.00     0.167 HD
ATOM     57  C   UNL     1      -6.489  10.669   1.358  1.00  0.00     0.074 A 
ATOM     58  C   UNL     1      -7.890  10.636   0.997  1.00  0.00     0.031 C 
ATOM     59  C   UNL     1      -5.746  11.799   1.437  1.00  0.00     0.037 A 
BRANCH  46  60
ATOM     60  C   UNL     1       0.093  10.829   3.165  1.00  0.00     0.064 A 
ATOM     61  C   UNL     1       0.286  11.619   4.308  1.00  0.00     0.173 A 
ATOM     62  C   UNL     1       1.173  10.665   2.286  1.00  0.00     0.173 A 
ATOM     63  F   UNL     1      -0.719  11.807   5.177  1.00  0.00    -0.203 F 
ATOM     64  C   UNL     1       1.509  12.234   4.554  1.00  0.00     0.198 A 
ATOM     65  C   UNL     1       2.403  11.261   2.549  1.00  0.00     0.198 A 
ATOM     66  F   UNL     1       1.040   9.907   1.188  1.00  0.00    -0.203 F 
ATOM     67  F   UNL     1       1.663  13.006   5.639  1.00  0.00    -0.200 F 
ATOM     68  C   UNL     1       2.568  12.052   3.677  1.00  0.00     0.200 A 
ATOM     69  F   UNL     1       3.432  11.067   1.712  1.00  0.00    -0.200 F 
ATOM     70  F   UNL     1       3.749  12.636   3.921  1.00  0.00    -0.200 F 
ENDBRANCH  46  60
BRANCH  47  71
ATOM     71  C   UNL     1      -8.638   6.490   1.179  1.00  0.00     0.064 A 
ATOM     72  C   UNL     1      -9.414   5.910   2.193  1.00  0.00     0.173 A 
ATOM     73  C   UNL     1      -9.144   6.465  -0.127  1.00  0.00     0.173 A 
ATOM     74  F   UNL     1      -8.976   5.915   3.461  1.00  0.00    -0.203 F 
ATOM     75  C   UNL     1     -10.641   5.316   1.908  1.00  0.00     0.198 A 
ATOM     76  C   UNL     1     -10.384   5.894  -0.407  1.00  0.00     0.198 A 
ATOM     77  F   UNL     1      -8.451   7.034  -1.125  1.00  0.00    -0.203 F 
ATOM     78  F   UNL     1     -11.353   4.749   2.892  1.00  0.00    -0.200 F 
ATOM     79  C   UNL     1     -11.128   5.314   0.610  1.00  0.00     0.200 A 
ATOM     80  F   UNL     1     -10.864   5.919  -1.657  1.00  0.00    -0.200 F 
ATOM     81  F   UNL     1     -12.318   4.760   0.340  1.00  0.00    -0.200 F 
ENDBRANCH  47  71
BRANCH  59  82
ATOM     82  C   UNL     1      -6.404  13.101   1.084  1.00  0.00     0.064 A 
ATOM     83  C   UNL     1      -6.050  13.775  -0.096  1.00  0.00     0.173 A 
ATOM     84  C   UNL     1      -7.312  13.726   1.950  1.00  0.00     0.173 A 
ATOM     85  F   UNL     1      -5.179  13.223  -0.954  1.00  0.00    -0.203 F 
ATOM     86  C   UNL     1      -6.569  15.034  -0.386  1.00  0.00     0.198 A 
ATOM     87  C   UNL     1      -7.848  14.974   1.644  1.00  0.00     0.198 A 
ATOM     88  F   UNL     1      -7.690  13.117   3.084  1.00  0.00    -0.203 F 
ATOM     89  F   UNL     1      -6.190  15.673  -1.502  1.00  0.00    -0.200 F 
ATOM     90  C   UNL     1      -7.469  15.631   0.483  1.00  0.00     0.200 A 
ATOM     91  F   UNL     1      -8.734  15.542   2.474  1.00  0.00    -0.200 F 
ATOM     92  F   UNL     1      -7.972  16.841   0.201  1.00  0.00    -0.200 F 
ENDBRANCH  59  82
ENDBRANCH  33  34
ENDBRANCH  26  28
ENDBRANCH  25  26
ENDBRANCH  24  25
ENDBRANCH   1  24
TORSDOF 15
