REMARK SMILES O=C(OCCOC(=O)c1ccccc1Sc1ccc(S(=O)(=O)N2CCCC2)cc1[N+](=O)[O-])c1ccc(-c2c3nc(c(-c4c(F)c(F)c(F)c(F)c4F)c4ccc([nH]4)c(-c4c(F)c(F)c(F)c(F)c4F)c4nc(c(-c5c(F)c(F)c(F)c(F)c5F)c5ccc2[nH]5)C=C4)C=C3)cc1
REMARK SMILES IDX 5 1 4 2 3 3 2 4 1 5 33 6 34 7 95 8 35 9 94 10 36 11 37 12
REMARK SMILES IDX 38 13 88 14 39 15 93 16 87 17 89 18 40 19 92 20 86 21 85 22
REMARK SMILES IDX 41 24 73 25 53 26 72 27 54 28 57 29 71 30 90 31 55 32 56 33
REMARK SMILES IDX 70 35 91 36 58 37 42 38 43 39 51 40 44 41 45 42 49 43 52 44
REMARK SMILES IDX 46 45 47 46 50 47 48 48 74 49 75 50 83 51 76 52 77 53 81 54
REMARK SMILES IDX 84 55 78 56 79 57 82 58 80 59 59 60 60 61 68 62 61 63 62 64
REMARK SMILES IDX 66 65 69 66 63 67 64 68 67 69 65 70 6 71 7 72 8 73 9 74
REMARK SMILES IDX 10 75 14 76 11 77 13 78 12 79 15 80 16 81 17 82 29 83 18 84
REMARK SMILES IDX 28 85 19 86 30 87 31 88 32 89 20 90 21 91 22 92 23 93 24 94
REMARK SMILES IDX 27 95 25 96 26 97
REMARK H PARENT 89 23 57 34
REMARK Flexibility Score: inf
ROOT
ATOM      1  C   UNL     1       3.651   0.999  -0.239  1.00  0.00     0.275 C 
ENDROOT
BRANCH   1   2
ATOM      2  C   UNL     1       3.697   0.337  -1.615  1.00  0.00     0.275 C 
BRANCH   2   3
ATOM      3  O   UNL     1       2.546  -0.464  -1.875  1.00  0.00    -0.458 OA
BRANCH   3   4
ATOM      4  C   UNL     1       2.201  -1.630  -1.290  1.00  0.00     0.338 C 
ATOM      5  O   UNL     1       1.044  -2.022  -1.438  1.00  0.00    -0.246 OA
BRANCH   4   6
ATOM      6  C   UNL     1       3.127  -2.478  -0.460  1.00  0.00     0.060 A 
ATOM      7  C   UNL     1       4.446  -2.178  -0.099  1.00  0.00     0.016 A 
ATOM      8  C   UNL     1       2.568  -3.664   0.054  1.00  0.00     0.016 A 
ATOM      9  C   UNL     1       5.152  -2.963   0.797  1.00  0.00     0.010 A 
ATOM     10  C   UNL     1       3.285  -4.489   0.920  1.00  0.00     0.010 A 
ATOM     11  C   UNL     1       4.580  -4.130   1.290  1.00  0.00    -0.014 A 
BRANCH  11  12
ATOM     12  C   UNL     1       5.478  -5.042   2.008  1.00  0.00     0.031 A 
ATOM     13  C   UNL     1       6.226  -6.026   1.184  1.00  0.00     0.074 A 
ATOM     14  C   UNL     1       5.760  -4.834   3.303  1.00  0.00     0.049 A 
ATOM     15  N   UNL     1       7.118  -6.894   1.561  1.00  0.00    -0.248 NA
ATOM     16  C   UNL     1       5.975  -5.993  -0.269  1.00  0.00     0.031 C 
ATOM     17  C   UNL     1       5.192  -3.749   4.082  1.00  0.00     0.029 A 
ATOM     18  N   UNL     1       6.596  -5.460   4.181  1.00  0.00    -0.354 N 
ATOM     19  C   UNL     1       7.540  -7.506   0.395  1.00  0.00     0.074 A 
ATOM     20  C   UNL     1       6.811  -6.920  -0.704  1.00  0.00     0.031 C 
ATOM     21  C   UNL     1       5.670  -3.781   5.334  1.00  0.00     0.029 A 
ATOM     22  C   UNL     1       6.555  -4.927   5.450  1.00  0.00     0.049 A 
ATOM     23  H   UNL     1       7.171  -6.220   3.932  1.00  0.00     0.167 HD
ATOM     24  C   UNL     1       8.461  -8.485   0.280  1.00  0.00     0.037 A 
ATOM     25  C   UNL     1       7.151  -5.353   6.577  1.00  0.00     0.037 A 
ATOM     26  C   UNL     1       9.115  -9.068   1.417  1.00  0.00     0.049 A 
ATOM     27  C   UNL     1       8.047  -6.552   6.440  1.00  0.00     0.074 A 
ATOM     28  C   UNL     1       9.958 -10.158   1.468  1.00  0.00     0.029 A 
ATOM     29  N   UNL     1       8.977  -8.598   2.721  1.00  0.00    -0.354 N 
ATOM     30  N   UNL     1       8.379  -7.205   5.349  1.00  0.00    -0.248 NA
ATOM     31  C   UNL     1       8.647  -7.081   7.666  1.00  0.00     0.031 C 
ATOM     32  C   UNL     1      10.291 -10.378   2.810  1.00  0.00     0.029 A 
ATOM     33  C   UNL     1       9.707  -9.388   3.589  1.00  0.00     0.049 A 
ATOM     34  H   UNL     1       8.440  -7.817   2.986  1.00  0.00     0.167 HD
ATOM     35  C   UNL     1       9.234  -8.214   5.751  1.00  0.00     0.074 A 
ATOM     36  C   UNL     1       9.399  -8.060   7.186  1.00  0.00     0.031 C 
ATOM     37  C   UNL     1       9.824  -9.188   5.014  1.00  0.00     0.037 A 
BRANCH  24  38
ATOM     38  C   UNL     1       8.695  -9.019  -1.097  1.00  0.00     0.064 A 
ATOM     39  C   UNL     1       9.372  -8.275  -2.075  1.00  0.00     0.173 A 
ATOM     40  C   UNL     1       8.160 -10.261  -1.466  1.00  0.00     0.173 A 
ATOM     41  F   UNL     1       9.851  -7.056  -1.786  1.00  0.00    -0.203 F 
ATOM     42  C   UNL     1       9.490  -8.751  -3.379  1.00  0.00     0.198 A 
ATOM     43  C   UNL     1       8.302 -10.744  -2.763  1.00  0.00     0.198 A 
ATOM     44  F   UNL     1       7.474 -10.992  -0.575  1.00  0.00    -0.203 F 
ATOM     45  F   UNL     1      10.084  -7.997  -4.315  1.00  0.00    -0.200 F 
ATOM     46  C   UNL     1       8.960  -9.987  -3.720  1.00  0.00     0.200 A 
ATOM     47  F   UNL     1       7.780 -11.934  -3.092  1.00  0.00    -0.200 F 
ATOM     48  F   UNL     1       9.066 -10.439  -4.977  1.00  0.00    -0.200 F 
ENDBRANCH  24  38
BRANCH  25  49
ATOM     49  C   UNL     1       6.877  -4.710   7.894  1.00  0.00     0.064 A 
ATOM     50  C   UNL     1       7.898  -4.135   8.664  1.00  0.00     0.173 A 
ATOM     51  C   UNL     1       5.582  -4.702   8.440  1.00  0.00     0.173 A 
ATOM     52  F   UNL     1       9.158  -4.122   8.202  1.00  0.00    -0.203 F 
ATOM     53  C   UNL     1       7.645  -3.618   9.936  1.00  0.00     0.198 A 
ATOM     54  C   UNL     1       5.323  -4.153   9.696  1.00  0.00     0.198 A 
ATOM     55  F   UNL     1       4.558  -5.232   7.755  1.00  0.00    -0.203 F 
ATOM     56  F   UNL     1       8.656  -3.139  10.674  1.00  0.00    -0.200 F 
ATOM     57  C   UNL     1       6.358  -3.626  10.450  1.00  0.00     0.200 A 
ATOM     58  F   UNL     1       4.073  -4.150  10.178  1.00  0.00    -0.200 F 
ATOM     59  F   UNL     1       6.118  -3.141  11.676  1.00  0.00    -0.200 F 
ENDBRANCH  25  49
BRANCH  37  60
ATOM     60  C   UNL     1      10.708 -10.133   5.766  1.00  0.00     0.064 A 
ATOM     61  C   UNL     1      10.181 -11.079   6.656  1.00  0.00     0.173 A 
ATOM     62  C   UNL     1      12.097 -10.096   5.579  1.00  0.00     0.173 A 
ATOM     63  F   UNL     1       8.859 -11.135   6.879  1.00  0.00    -0.203 F 
ATOM     64  C   UNL     1      11.020 -11.930   7.366  1.00  0.00     0.198 A 
ATOM     65  C   UNL     1      12.929 -10.975   6.260  1.00  0.00     0.198 A 
ATOM     66  F   UNL     1      12.642  -9.211   4.731  1.00  0.00    -0.203 F 
ATOM     67  F   UNL     1      10.504 -12.780   8.264  1.00  0.00    -0.200 F 
ATOM     68  C   UNL     1      12.392 -11.882   7.161  1.00  0.00     0.200 A 
ATOM     69  F   UNL     1      14.252 -10.940   6.050  1.00  0.00    -0.200 F 
ATOM     70  F   UNL     1      13.199 -12.705   7.844  1.00  0.00    -0.200 F 
ENDBRANCH  37  60
ENDBRANCH  11  12
ENDBRANCH   4   6
ENDBRANCH   3   4
ENDBRANCH   2   3
ENDBRANCH   1   2
BRANCH   1  71
ATOM     71  O   UNL     1       3.385   0.119   0.860  1.00  0.00    -0.458 OA
BRANCH  71  72
ATOM     72  C   UNL     1       2.363   0.471   1.678  1.00  0.00     0.339 C 
ATOM     73  O   UNL     1       1.689   1.473   1.617  1.00  0.00    -0.246 OA
BRANCH  72  74
ATOM     74  C   UNL     1       2.092  -0.635   2.605  1.00  0.00     0.074 A 
ATOM     75  C   UNL     1       0.963  -1.407   2.249  1.00  0.00     0.017 A 
ATOM     76  C   UNL     1       2.830  -0.925   3.761  1.00  0.00     0.027 A 
ATOM     77  C   UNL     1       0.577  -2.506   3.012  1.00  0.00     0.001 A 
ATOM     78  C   UNL     1       2.359  -2.003   4.550  1.00  0.00     0.016 A 
ATOM     79  C   UNL     1       1.277  -2.804   4.168  1.00  0.00     0.001 A 
BRANCH  76  80
ATOM     80  S   UNL     1       4.340  -0.212   4.427  1.00  0.00    -0.082 SA
BRANCH  80  81
ATOM     81  C   UNL     1       4.945   1.074   3.372  1.00  0.00     0.090 A 
ATOM     82  C   UNL     1       6.054   0.780   2.551  1.00  0.00     0.024 A 
ATOM     83  C   UNL     1       4.441   2.380   3.328  1.00  0.00     0.284 A 
ATOM     84  C   UNL     1       6.527   1.707   1.605  1.00  0.00     0.023 A 
ATOM     85  C   UNL     1       4.908   3.311   2.385  1.00  0.00     0.108 A 
ATOM     86  C   UNL     1       5.893   2.950   1.472  1.00  0.00     0.089 A 
BRANCH  83  87
ATOM     87  N   UNL     1       3.387   2.834   4.236  1.00  0.00     0.063 N 
ATOM     88  O   UNL     1       2.534   3.599   3.768  1.00  0.00    -0.258 OA
ATOM     89  O   UNL     1       3.451   2.492   5.423  1.00  0.00    -0.258 OA
ENDBRANCH  83  87
BRANCH  86  90
ATOM     90  S   UNL     1       6.215   3.955   0.016  1.00  0.00     0.243 S 
ATOM     91  O   UNL     1       7.146   4.974   0.436  1.00  0.00    -0.207 OA
ATOM     92  O   UNL     1       6.527   3.013  -1.042  1.00  0.00    -0.207 OA
BRANCH  90  93
ATOM     93  N   UNL     1       4.771   4.681  -0.395  1.00  0.00    -0.198 NA
ATOM     94  C   UNL     1       4.173   5.824   0.286  1.00  0.00     0.102 C 
ATOM     95  C   UNL     1       3.817   4.198  -1.391  1.00  0.00     0.102 C 
ATOM     96  C   UNL     1       2.711   5.408   0.411  1.00  0.00     0.018 C 
ATOM     97  C   UNL     1       2.443   4.513  -0.795  1.00  0.00     0.018 C 
ENDBRANCH  90  93
ENDBRANCH  86  90
ENDBRANCH  80  81
ENDBRANCH  76  80
ENDBRANCH  72  74
ENDBRANCH  71  72
ENDBRANCH   1  71
TORSDOF 16
