REMARK SMILES O=C(OCCOC(=O)[C@@H]1[NH2+]CC[C@H]1c1cccc2cccnc12)c1ccc(-c2c3nc(c(-c4c(F)c(F)c(F)c(F)c4F)c4ccc([nH]4)c(-c4c(F)c(F)c(F)c(F)c4F)c4nc(c(-c5c(F)c(F)c(F)c(F)c5F)c5ccc2[nH]5)C=C4)C=C3)cc1
REMARK SMILES IDX 4 1 3 2 2 3 1 4 24 5 25 6 86 7 26 8 85 9 27 10 28 11 29 12
REMARK SMILES IDX 79 13 30 14 84 15 78 16 80 17 31 18 83 19 77 20 76 21 32 23
REMARK SMILES IDX 64 24 44 25 63 26 45 27 48 28 62 29 81 30 46 31 47 32 61 34
REMARK SMILES IDX 82 35 49 36 33 37 34 38 42 39 35 40 36 41 40 42 43 43 37 44
REMARK SMILES IDX 38 45 41 46 39 47 65 48 66 49 74 50 67 51 68 52 72 53 75 54
REMARK SMILES IDX 69 55 70 56 73 57 71 58 50 59 51 60 59 61 52 62 53 63 57 64
REMARK SMILES IDX 60 65 54 66 55 67 58 68 56 69 5 70 6 71 7 72 8 73 9 74 10 75
REMARK SMILES IDX 13 76 11 77 12 80 14 81 15 82 23 83 16 84 18 85 22 86 17 87
REMARK SMILES IDX 19 88 21 89 20 90
REMARK H PARENT 80 22 48 33 10 78 10 79
REMARK Flexibility Score: inf
ROOT
ATOM      1  C   UNL     1       5.539  -1.341  -5.422  1.00  0.00     0.275 C 
ENDROOT
BRANCH   1   2
ATOM      2  O   UNL     1       6.050  -0.160  -4.792  1.00  0.00    -0.458 OA
BRANCH   2   3
ATOM      3  C   UNL     1       5.471   1.048  -4.631  1.00  0.00     0.338 C 
ATOM      4  O   UNL     1       6.088   1.914  -4.007  1.00  0.00    -0.246 OA
BRANCH   3   5
ATOM      5  C   UNL     1       4.076   1.373  -5.063  1.00  0.00     0.060 A 
ATOM      6  C   UNL     1       3.371   0.844  -6.154  1.00  0.00     0.016 A 
ATOM      7  C   UNL     1       3.424   2.327  -4.274  1.00  0.00     0.016 A 
ATOM      8  C   UNL     1       2.015   1.165  -6.380  1.00  0.00     0.010 A 
ATOM      9  C   UNL     1       2.078   2.623  -4.477  1.00  0.00     0.010 A 
ATOM     10  C   UNL     1       1.343   2.037  -5.523  1.00  0.00    -0.014 A 
BRANCH  10  11
ATOM     11  C   UNL     1      -0.081   2.458  -5.681  1.00  0.00     0.031 A 
ATOM     12  C   UNL     1      -0.344   3.933  -5.825  1.00  0.00     0.074 A 
ATOM     13  C   UNL     1      -1.115   1.623  -5.442  1.00  0.00     0.049 A 
ATOM     14  N   UNL     1      -1.449   4.610  -5.650  1.00  0.00    -0.248 NA
ATOM     15  C   UNL     1       0.834   4.765  -6.130  1.00  0.00     0.031 C 
ATOM     16  C   UNL     1      -1.024   0.186  -5.201  1.00  0.00     0.029 A 
ATOM     17  N   UNL     1      -2.449   1.903  -5.226  1.00  0.00    -0.354 N 
ATOM     18  C   UNL     1      -1.089   5.938  -5.824  1.00  0.00     0.074 A 
ATOM     19  C   UNL     1       0.351   5.979  -5.937  1.00  0.00     0.031 C 
ATOM     20  C   UNL     1      -2.194  -0.258  -4.708  1.00  0.00     0.029 A 
ATOM     21  C   UNL     1      -3.138   0.853  -4.656  1.00  0.00     0.049 A 
ATOM     22  H   UNL     1      -2.867   2.764  -5.456  1.00  0.00     0.167 HD
ATOM     23  C   UNL     1      -1.886   7.021  -5.976  1.00  0.00     0.037 A 
ATOM     24  C   UNL     1      -4.379   0.803  -4.131  1.00  0.00     0.037 A 
ATOM     25  C   UNL     1      -3.316   6.968  -5.901  1.00  0.00     0.049 A 
ATOM     26  C   UNL     1      -5.274   2.007  -4.258  1.00  0.00     0.074 A 
ATOM     27  C   UNL     1      -4.243   7.952  -6.188  1.00  0.00     0.029 A 
ATOM     28  N   UNL     1      -4.026   5.848  -5.496  1.00  0.00    -0.354 N 
ATOM     29  N   UNL     1      -4.972   3.226  -4.632  1.00  0.00    -0.248 NA
ATOM     30  C   UNL     1      -6.702   1.809  -3.962  1.00  0.00     0.031 C 
ATOM     31  C   UNL     1      -5.517   7.435  -5.922  1.00  0.00     0.029 A 
ATOM     32  C   UNL     1      -5.381   6.120  -5.505  1.00  0.00     0.049 A 
ATOM     33  H   UNL     1      -3.625   4.986  -5.240  1.00  0.00     0.167 HD
ATOM     34  C   UNL     1      -6.178   3.910  -4.711  1.00  0.00     0.074 A 
ATOM     35  C   UNL     1      -7.212   2.988  -4.293  1.00  0.00     0.031 C 
ATOM     36  C   UNL     1      -6.406   5.178  -5.133  1.00  0.00     0.037 A 
BRANCH  23  37
ATOM     37  C   UNL     1      -1.197   8.313  -6.307  1.00  0.00     0.064 A 
ATOM     38  C   UNL     1      -0.469   8.456  -7.503  1.00  0.00     0.173 A 
ATOM     39  C   UNL     1      -1.184   9.380  -5.402  1.00  0.00     0.173 A 
ATOM     40  F   UNL     1      -0.446   7.460  -8.403  1.00  0.00    -0.203 F 
ATOM     41  C   UNL     1       0.319   9.577  -7.734  1.00  0.00     0.198 A 
ATOM     42  C   UNL     1      -0.429  10.523  -5.659  1.00  0.00     0.198 A 
ATOM     43  F   UNL     1      -1.874   9.305  -4.254  1.00  0.00    -0.203 F 
ATOM     44  F   UNL     1       1.095   9.634  -8.826  1.00  0.00    -0.200 F 
ATOM     45  C   UNL     1       0.341  10.609  -6.811  1.00  0.00     0.200 A 
ATOM     46  F   UNL     1      -0.419  11.530  -4.774  1.00  0.00    -0.200 F 
ATOM     47  F   UNL     1       1.120  11.679  -7.021  1.00  0.00    -0.200 F 
ENDBRANCH  23  37
BRANCH  24  48
ATOM     48  C   UNL     1      -4.892  -0.446  -3.509  1.00  0.00     0.064 A 
ATOM     49  C   UNL     1      -5.733  -1.310  -4.224  1.00  0.00     0.173 A 
ATOM     50  C   UNL     1      -4.597  -0.776  -2.179  1.00  0.00     0.173 A 
ATOM     51  F   UNL     1      -6.066  -1.018  -5.490  1.00  0.00    -0.203 F 
ATOM     52  C   UNL     1      -6.281  -2.443  -3.627  1.00  0.00     0.198 A 
ATOM     53  C   UNL     1      -5.134  -1.919  -1.585  1.00  0.00     0.198 A 
ATOM     54  F   UNL     1      -3.806   0.022  -1.448  1.00  0.00    -0.203 F 
ATOM     55  F   UNL     1      -7.121  -3.224  -4.320  1.00  0.00    -0.200 F 
ATOM     56  C   UNL     1      -5.981  -2.748  -2.307  1.00  0.00     0.200 A 
ATOM     57  F   UNL     1      -4.849  -2.210  -0.308  1.00  0.00    -0.200 F 
ATOM     58  F   UNL     1      -6.522  -3.829  -1.728  1.00  0.00    -0.200 F 
ENDBRANCH  24  48
BRANCH  36  59
ATOM     59  C   UNL     1      -7.828   5.627  -5.278  1.00  0.00     0.064 A 
ATOM     60  C   UNL     1      -8.620   5.960  -4.173  1.00  0.00     0.173 A 
ATOM     61  C   UNL     1      -8.366   5.822  -6.561  1.00  0.00     0.173 A 
ATOM     62  F   UNL     1      -8.155   5.774  -2.928  1.00  0.00    -0.203 F 
ATOM     63  C   UNL     1      -9.902   6.476  -4.346  1.00  0.00     0.198 A 
ATOM     64  C   UNL     1      -9.636   6.362  -6.730  1.00  0.00     0.198 A 
ATOM     65  F   UNL     1      -7.644   5.517  -7.650  1.00  0.00    -0.203 F 
ATOM     66  F   UNL     1     -10.652   6.771  -3.276  1.00  0.00    -0.200 F 
ATOM     67  C   UNL     1     -10.403   6.689  -5.623  1.00  0.00     0.200 A 
ATOM     68  F   UNL     1     -10.111   6.580  -7.964  1.00  0.00    -0.200 F 
ATOM     69  F   UNL     1     -11.625   7.213  -5.785  1.00  0.00    -0.200 F 
ENDBRANCH  36  59
ENDBRANCH  10  11
ENDBRANCH   3   5
ENDBRANCH   2   3
ENDBRANCH   1   2
BRANCH   1  70
ATOM     70  C   UNL     1       4.575  -2.175  -4.579  1.00  0.00     0.274 C 
BRANCH  70  71
ATOM     71  O   UNL     1       3.726  -1.423  -3.697  1.00  0.00    -0.458 OA
BRANCH  71  72
ATOM     72  C   UNL     1       3.978  -1.559  -2.360  1.00  0.00     0.365 C 
ATOM     73  O   UNL     1       4.988  -2.095  -1.912  1.00  0.00    -0.245 OA
BRANCH  72  74
ATOM     74  C   UNL     1       2.818  -1.077  -1.443  1.00  0.00     0.301 C 
ATOM     75  N   UNL     1       1.671  -2.028  -1.528  1.00  0.00    -0.334 N 
ATOM     76  C   UNL     1       2.243   0.321  -1.768  1.00  0.00     0.097 C 
ATOM     77  C   UNL     1       0.720  -1.449  -2.477  1.00  0.00     0.262 C 
ATOM     78  H   UNL     1       1.234  -2.136  -0.612  1.00  0.00     0.347 HD
ATOM     79  H   UNL     1       1.979  -2.952  -1.832  1.00  0.00     0.347 HD
ATOM     80  C   UNL     1       1.250  -0.086  -2.854  1.00  0.00     0.076 C 
BRANCH  76  81
ATOM     81  C   UNL     1       1.671   1.159  -0.596  1.00  0.00    -0.012 A 
ATOM     82  C   UNL     1       2.312   1.069   0.659  1.00  0.00     0.006 A 
ATOM     83  C   UNL     1       0.624   2.116  -0.747  1.00  0.00     0.074 A 
ATOM     84  C   UNL     1       1.884   1.809   1.758  1.00  0.00     0.001 A 
ATOM     85  C   UNL     1       0.196   2.850   0.389  1.00  0.00     0.000 A 
ATOM     86  N   UNL     1       0.030   2.374  -1.931  1.00  0.00    -0.256 NA
ATOM     87  C   UNL     1       0.818   2.683   1.628  1.00  0.00     0.010 A 
ATOM     88  C   UNL     1      -0.856   3.774   0.271  1.00  0.00     0.012 A 
ATOM     89  C   UNL     1      -0.991   3.262  -2.017  1.00  0.00     0.112 A 
ATOM     90  C   UNL     1      -1.470   3.981  -0.951  1.00  0.00     0.021 A 
ENDBRANCH  76  81
ENDBRANCH  72  74
ENDBRANCH  71  72
ENDBRANCH  70  71
ENDBRANCH   1  70
TORSDOF 12
