REMARK SMILES CCOc1ccc(NC(=O)N2CC[C@@H](C(=O)OCCOC(=O)c3ccc(-c4c5nc(c(-c6c(F)c(F)c(F)c(F)c6F)c6ccc([nH]6)c(-c6c(F)c(F)c(F)c(F)c6F)c6nc(c(-c7c(F)c(F)c(F)c(F)c7F)c7ccc4[nH]7)C=C6)C=C5)cc3)[C@@H]2C)cc1
REMARK SMILES IDX 18 1 17 2 15 3 16 4 14 5 11 6 12 7 86 8 13 9 87 10 9 11 8 12
REMARK SMILES IDX 10 14 7 15 4 16 5 17 89 18 6 19 88 20 3 21 2 22 1 23 19 24
REMARK SMILES IDX 20 25 21 26 22 27 23 28 24 29 85 30 25 31 84 32 26 33 27 34
REMARK SMILES IDX 28 35 78 36 29 37 83 38 77 39 79 40 30 41 82 42 76 43 75 44
REMARK SMILES IDX 31 46 63 47 43 48 62 49 44 50 47 51 61 52 80 53 45 54 46 55
REMARK SMILES IDX 60 57 81 58 48 59 32 60 33 61 41 62 34 63 35 64 39 65 42 66
REMARK SMILES IDX 36 67 37 68 40 69 38 70 64 71 65 72 73 73 66 74 67 75 71 76
REMARK SMILES IDX 74 77 68 78 69 79 72 80 70 81 49 82 50 83 58 84 51 85 52 86
REMARK SMILES IDX 56 87 59 88 53 89 54 90 57 91 55 92
REMARK H PARENT 8 13 79 45 47 56
REMARK Flexibility Score: inf
ROOT
ATOM      1  C   UNL     1       1.083   3.774  -5.325  1.00  0.00     0.274 C 
ENDROOT
BRANCH   1   2
ATOM      2  O   UNL     1       2.515   3.853  -5.154  1.00  0.00    -0.462 OA
BRANCH   2   3
ATOM      3  C   UNL     1       3.134   4.944  -5.665  1.00  0.00     0.311 C 
ATOM      4  O   UNL     1       2.567   5.834  -6.292  1.00  0.00    -0.252 OA
BRANCH   3   5
ATOM      5  C   UNL     1       4.633   4.964  -5.443  1.00  0.00     0.123 C 
ATOM      6  N   UNL     1       6.196   3.328  -4.719  1.00  0.00    -0.321 N 
ATOM      7  C   UNL     1       6.626   3.783  -6.021  1.00  0.00     0.122 C 
ATOM      8  C   UNL     1       5.163   4.234  -4.188  1.00  0.00     0.098 C 
ATOM      9  C   UNL     1       5.346   4.309  -6.629  1.00  0.00     0.039 C 
ATOM     10  C   UNL     1       5.789   5.220  -3.190  1.00  0.00     0.032 C 
BRANCH   6  11
ATOM     11  C   UNL     1       6.918   2.371  -4.069  1.00  0.00     0.322 C 
ATOM     12  N   UNL     1       6.389   1.666  -3.040  1.00  0.00    -0.308 N 
ATOM     13  H   UNL     1       7.049   1.403  -2.358  1.00  0.00     0.171 HD
ATOM     14  O   UNL     1       8.094   2.148  -4.371  1.00  0.00    -0.248 OA
BRANCH  12  15
ATOM     15  C   UNL     1       5.082   1.239  -2.759  1.00  0.00     0.043 A 
ATOM     16  C   UNL     1       2.494   0.495  -1.986  1.00  0.00     0.119 A 
ATOM     17  C   UNL     1       2.735   0.941  -3.281  1.00  0.00     0.048 A 
ATOM     18  C   UNL     1       3.563   0.299  -1.116  1.00  0.00     0.048 A 
ATOM     19  C   UNL     1       4.029   1.294  -3.672  1.00  0.00     0.030 A 
ATOM     20  C   UNL     1       4.853   0.671  -1.503  1.00  0.00     0.030 A 
BRANCH  16  21
ATOM     21  O   UNL     1       1.198   0.208  -1.664  1.00  0.00    -0.494 OA
BRANCH  21  22
ATOM     22  C   UNL     1       0.768   0.758  -0.412  1.00  0.00     0.226 C 
ATOM     23  C   UNL     1       0.584  -0.354   0.605  1.00  0.00     0.049 C 
ENDBRANCH  21  22
ENDBRANCH  16  21
ENDBRANCH  12  15
ENDBRANCH   6  11
ENDBRANCH   3   5
ENDBRANCH   2   3
ENDBRANCH   1   2
BRANCH   1  24
ATOM     24  C   UNL     1       0.338   4.111  -4.029  1.00  0.00     0.275 C 
BRANCH  24  25
ATOM     25  O   UNL     1       0.491   5.499  -3.687  1.00  0.00    -0.458 OA
BRANCH  25  26
ATOM     26  C   UNL     1       1.530   5.772  -2.866  1.00  0.00     0.338 C 
ATOM     27  O   UNL     1       2.295   4.986  -2.339  1.00  0.00    -0.246 OA
BRANCH  26  28
ATOM     28  C   UNL     1       1.740   7.224  -2.833  1.00  0.00     0.060 A 
ATOM     29  C   UNL     1       2.869   7.723  -3.484  1.00  0.00     0.016 A 
ATOM     30  C   UNL     1       0.894   8.072  -2.122  1.00  0.00     0.016 A 
ATOM     31  C   UNL     1       3.179   9.071  -3.419  1.00  0.00     0.010 A 
ATOM     32  C   UNL     1       1.194   9.437  -2.071  1.00  0.00     0.010 A 
ATOM     33  C   UNL     1       2.343   9.937  -2.711  1.00  0.00    -0.014 A 
BRANCH  33  34
ATOM     34  C   UNL     1       2.713  11.363  -2.613  1.00  0.00     0.031 A 
ATOM     35  C   UNL     1       3.248  11.900  -1.322  1.00  0.00     0.074 A 
ATOM     36  C   UNL     1       2.608  12.149  -3.699  1.00  0.00     0.049 A 
ATOM     37  N   UNL     1       3.550  13.130  -0.998  1.00  0.00    -0.248 NA
ATOM     38  C   UNL     1       3.473  10.919  -0.248  1.00  0.00     0.031 C 
ATOM     39  C   UNL     1       2.163  11.704  -5.021  1.00  0.00     0.029 A 
ATOM     40  N   UNL     1       2.871  13.483  -3.865  1.00  0.00    -0.354 N 
ATOM     41  C   UNL     1       3.971  13.078   0.323  1.00  0.00     0.074 A 
ATOM     42  C   UNL     1       3.877  11.697   0.746  1.00  0.00     0.031 C 
ATOM     43  C   UNL     1       2.187  12.748  -5.864  1.00  0.00     0.029 A 
ATOM     44  C   UNL     1       2.595  13.940  -5.129  1.00  0.00     0.049 A 
ATOM     45  H   UNL     1       3.224  14.057  -3.147  1.00  0.00     0.167 HD
ATOM     46  C   UNL     1       4.396  14.097   1.106  1.00  0.00     0.037 A 
ATOM     47  C   UNL     1       2.638  15.191  -5.624  1.00  0.00     0.037 A 
ATOM     48  C   UNL     1       4.498  15.462   0.661  1.00  0.00     0.049 A 
ATOM     49  C   UNL     1       3.060  16.313  -4.717  1.00  0.00     0.074 A 
ATOM     50  C   UNL     1       4.915  16.575   1.369  1.00  0.00     0.029 A 
ATOM     51  N   UNL     1       4.178  15.898  -0.618  1.00  0.00    -0.354 N 
ATOM     52  N   UNL     1       3.433  16.265  -3.460  1.00  0.00    -0.248 NA
ATOM     53  C   UNL     1       3.059  17.664  -5.292  1.00  0.00     0.031 C 
ATOM     54  C   UNL     1       4.809  17.690   0.530  1.00  0.00     0.029 A 
ATOM     55  C   UNL     1       4.370  17.266  -0.715  1.00  0.00     0.049 A 
ATOM     56  H   UNL     1       3.860  15.319  -1.349  1.00  0.00     0.167 HD
ATOM     57  C   UNL     1       3.729  17.570  -3.099  1.00  0.00     0.074 A 
ATOM     58  C   UNL     1       3.507  18.387  -4.276  1.00  0.00     0.031 C 
ATOM     59  C   UNL     1       4.144  18.053  -1.901  1.00  0.00     0.037 A 
BRANCH  46  60
ATOM     60  C   UNL     1       4.736  13.775   2.531  1.00  0.00     0.064 A 
ATOM     61  C   UNL     1       5.885  13.048   2.874  1.00  0.00     0.173 A 
ATOM     62  C   UNL     1       3.899  14.208   3.571  1.00  0.00     0.173 A 
ATOM     63  F   UNL     1       6.708  12.595   1.917  1.00  0.00    -0.203 F 
ATOM     64  C   UNL     1       6.168  12.740   4.203  1.00  0.00     0.198 A 
ATOM     65  C   UNL     1       4.199  13.922   4.901  1.00  0.00     0.198 A 
ATOM     66  F   UNL     1       2.787  14.907   3.298  1.00  0.00    -0.203 F 
ATOM     67  F   UNL     1       7.243  11.998   4.504  1.00  0.00    -0.200 F 
ATOM     68  C   UNL     1       5.328  13.181   5.215  1.00  0.00     0.200 A 
ATOM     69  F   UNL     1       3.390  14.356   5.877  1.00  0.00    -0.200 F 
ATOM     70  F   UNL     1       5.601  12.883   6.493  1.00  0.00    -0.200 F 
ENDBRANCH  46  60
BRANCH  47  71
ATOM     71  C   UNL     1       2.252  15.440  -7.036  1.00  0.00     0.064 A 
ATOM     72  C   UNL     1       3.204  15.827  -7.989  1.00  0.00     0.173 A 
ATOM     73  C   UNL     1       0.925  15.284  -7.466  1.00  0.00     0.173 A 
ATOM     74  F   UNL     1       4.481  16.011  -7.622  1.00  0.00    -0.203 F 
ATOM     75  C   UNL     1       2.842  16.057  -9.315  1.00  0.00     0.198 A 
ATOM     76  C   UNL     1       0.570  15.487  -8.797  1.00  0.00     0.198 A 
ATOM     77  F   UNL     1      -0.025  14.915  -6.594  1.00  0.00    -0.203 F 
ATOM     78  F   UNL     1       3.766  16.462 -10.197  1.00  0.00    -0.200 F 
ATOM     79  C   UNL     1       1.528  15.880  -9.720  1.00  0.00     0.200 A 
ATOM     80  F   UNL     1      -0.699  15.302  -9.186  1.00  0.00    -0.200 F 
ATOM     81  F   UNL     1       1.183  16.093 -10.997  1.00  0.00    -0.200 F 
ENDBRANCH  47  71
BRANCH  59  82
ATOM     82  C   UNL     1       4.414  19.526  -1.819  1.00  0.00     0.064 A 
ATOM     83  C   UNL     1       3.371  20.463  -1.799  1.00  0.00     0.173 A 
ATOM     84  C   UNL     1       5.730  20.000  -1.724  1.00  0.00     0.173 A 
ATOM     85  F   UNL     1       2.096  20.057  -1.904  1.00  0.00    -0.203 F 
ATOM     86  C   UNL     1       3.638  21.826  -1.709  1.00  0.00     0.198 A 
ATOM     87  C   UNL     1       5.992  21.362  -1.607  1.00  0.00     0.198 A 
ATOM     88  F   UNL     1       6.761  19.142  -1.734  1.00  0.00    -0.203 F 
ATOM     89  F   UNL     1       2.629  22.707  -1.737  1.00  0.00    -0.200 F 
ATOM     90  C   UNL     1       4.947  22.273  -1.606  1.00  0.00     0.200 A 
ATOM     91  F   UNL     1       7.256  21.792  -1.496  1.00  0.00    -0.200 F 
ATOM     92  F   UNL     1       5.202  23.586  -1.515  1.00  0.00    -0.200 F 
ENDBRANCH  59  82
ENDBRANCH  33  34
ENDBRANCH  26  28
ENDBRANCH  25  26
ENDBRANCH  24  25
ENDBRANCH   1  24
TORSDOF 15
