REMARK SMILES CC(C)(C(=O)OCCOC(=O)c1ccc(-c2c3nc(c(-c4c(F)c(F)c(F)c(F)c4F)c4ccc([nH]4)c(-c4c(F)c(F)c(F)c(F)c4F)c4nc(c(-c5c(F)c(F)c(F)c(F)c5F)c5ccc2[nH]5)C=C4)C=C3)cc1)C1CCCCC1
REMARK SMILES IDX 8 1 7 2 6 3 4 4 5 5 2 6 1 7 3 8 75 9 76 10 80 11 77 12 79 13
REMARK SMILES IDX 78 14 9 15 10 16 11 17 12 18 13 19 74 20 14 21 73 22 15 23
REMARK SMILES IDX 16 24 17 25 67 26 18 27 72 28 66 29 68 30 19 31 71 32 65 33
REMARK SMILES IDX 64 34 20 36 52 37 32 38 51 39 33 40 36 41 50 42 69 43 34 44
REMARK SMILES IDX 35 45 49 47 70 48 37 49 21 50 22 51 30 52 23 53 24 54 28 55
REMARK SMILES IDX 31 56 25 57 26 58 29 59 27 60 53 61 54 62 62 63 55 64 56 65
REMARK SMILES IDX 60 66 63 67 57 68 58 69 61 70 59 71 38 72 39 73 47 74 40 75
REMARK SMILES IDX 41 76 45 77 48 78 42 79 43 80 46 81 44 82
REMARK H PARENT 68 35 36 46
REMARK Flexibility Score: inf
ROOT
ATOM      1  C   UNL     1      -3.506  -0.575   0.020  1.00  0.00     0.275 C 
ENDROOT
BRANCH   1   2
ATOM      2  C   UNL     1      -2.888   0.528   0.878  1.00  0.00     0.274 C 
BRANCH   2   3
ATOM      3  O   UNL     1      -1.447   0.521   0.758  1.00  0.00    -0.462 OA
BRANCH   3   4
ATOM      4  C   UNL     1      -0.738  -0.029   1.788  1.00  0.00     0.311 C 
ATOM      5  O   UNL     1      -1.262  -0.548   2.765  1.00  0.00    -0.252 OA
BRANCH   4   6
ATOM      6  C   UNL     1       0.781   0.221   1.635  1.00  0.00     0.065 C 
ATOM      7  C   UNL     1       1.151   0.358   0.140  1.00  0.00     0.024 C 
ATOM      8  C   UNL     1       1.034   1.588   2.308  1.00  0.00     0.024 C 
BRANCH   6   9
ATOM      9  C   UNL     1       1.711  -0.870   2.314  1.00  0.00     0.006 C 
ATOM     10  C   UNL     1       1.371  -1.196   3.784  1.00  0.00     0.005 C 
ATOM     11  C   UNL     1       1.859  -2.178   1.509  1.00  0.00     0.005 C 
ATOM     12  C   UNL     1       2.413  -2.115   4.415  1.00  0.00     0.000 C 
ATOM     13  C   UNL     1       2.765  -3.221   2.174  1.00  0.00     0.000 C 
ATOM     14  C   UNL     1       2.503  -3.431   3.660  1.00  0.00     0.000 C 
ENDBRANCH   6   9
ENDBRANCH   4   6
ENDBRANCH   3   4
ENDBRANCH   2   3
ENDBRANCH   1   2
BRANCH   1  15
ATOM     15  O   UNL     1      -3.152  -1.842   0.591  1.00  0.00    -0.458 OA
BRANCH  15  16
ATOM     16  C   UNL     1      -3.094  -2.896  -0.253  1.00  0.00     0.338 C 
ATOM     17  O   UNL     1      -3.434  -2.919  -1.426  1.00  0.00    -0.246 OA
BRANCH  16  18
ATOM     18  C   UNL     1      -2.490  -4.046   0.460  1.00  0.00     0.060 A 
ATOM     19  C   UNL     1      -1.508  -3.815   1.416  1.00  0.00     0.016 A 
ATOM     20  C   UNL     1      -2.821  -5.362   0.127  1.00  0.00     0.016 A 
ATOM     21  C   UNL     1      -0.803  -4.877   1.970  1.00  0.00     0.010 A 
ATOM     22  C   UNL     1      -2.165  -6.436   0.758  1.00  0.00     0.010 A 
ATOM     23  C   UNL     1      -1.119  -6.205   1.668  1.00  0.00    -0.014 A 
BRANCH  23  24
ATOM     24  C   UNL     1      -0.284  -7.298   2.256  1.00  0.00     0.031 A 
ATOM     25  C   UNL     1       0.505  -8.219   1.361  1.00  0.00     0.074 A 
ATOM     26  C   UNL     1      -0.102  -7.391   3.592  1.00  0.00     0.049 A 
ATOM     27  N   UNL     1       1.214  -9.276   1.677  1.00  0.00    -0.248 NA
ATOM     28  C   UNL     1       0.516  -7.902  -0.075  1.00  0.00     0.031 C 
ATOM     29  C   UNL     1      -0.694  -6.502   4.593  1.00  0.00     0.029 A 
ATOM     30  N   UNL     1       0.680  -8.244   4.336  1.00  0.00    -0.354 N 
ATOM     31  C   UNL     1       1.710  -9.775   0.480  1.00  0.00     0.074 A 
ATOM     32  C   UNL     1       1.236  -8.899  -0.570  1.00  0.00     0.031 C 
ATOM     33  C   UNL     1      -0.186  -6.796   5.800  1.00  0.00     0.029 A 
ATOM     34  C   UNL     1       0.679  -7.965   5.683  1.00  0.00     0.049 A 
ATOM     35  H   UNL     1       1.194  -8.986   3.941  1.00  0.00     0.167 HD
ATOM     36  C   UNL     1       2.482 -10.870   0.273  1.00  0.00     0.037 A 
ATOM     37  C   UNL     1       1.274  -8.595   6.715  1.00  0.00     0.037 A 
ATOM     38  C   UNL     1       2.992 -11.727   1.310  1.00  0.00     0.049 A 
ATOM     39  C   UNL     1       2.058  -9.855   6.459  1.00  0.00     0.074 A 
ATOM     40  C   UNL     1       3.698 -12.912   1.185  1.00  0.00     0.029 A 
ATOM     41  N   UNL     1       2.877 -11.474   2.667  1.00  0.00    -0.354 N 
ATOM     42  N   UNL     1       2.390 -10.409   5.320  1.00  0.00    -0.248 NA
ATOM     43  C   UNL     1       2.511 -10.602   7.643  1.00  0.00     0.031 C 
ATOM     44  C   UNL     1       3.990 -13.389   2.468  1.00  0.00     0.029 A 
ATOM     45  C   UNL     1       3.495 -12.483   3.390  1.00  0.00     0.049 A 
ATOM     46  H   UNL     1       2.424 -10.694   3.060  1.00  0.00     0.167 HD
ATOM     47  C   UNL     1       3.078 -11.569   5.649  1.00  0.00     0.074 A 
ATOM     48  C   UNL     1       3.162 -11.616   7.092  1.00  0.00     0.031 C 
ATOM     49  C   UNL     1       3.572 -12.526   4.826  1.00  0.00     0.037 A 
BRANCH  36  50
ATOM     50  C   UNL     1       2.777 -11.244  -1.147  1.00  0.00     0.064 A 
ATOM     51  C   UNL     1       3.755 -10.582  -1.901  1.00  0.00     0.173 A 
ATOM     52  C   UNL     1       2.097 -12.317  -1.744  1.00  0.00     0.173 A 
ATOM     53  F   UNL     1       4.418  -9.539  -1.379  1.00  0.00    -0.203 F 
ATOM     54  C   UNL     1       4.036 -10.975  -3.207  1.00  0.00     0.198 A 
ATOM     55  C   UNL     1       2.394 -12.721  -3.041  1.00  0.00     0.198 A 
ATOM     56  F   UNL     1       1.154 -12.983  -1.060  1.00  0.00    -0.203 F 
ATOM     57  F   UNL     1       4.954 -10.312  -3.923  1.00  0.00    -0.200 F 
ATOM     58  C   UNL     1       3.361 -12.048  -3.773  1.00  0.00     0.200 A 
ATOM     59  F   UNL     1       1.747 -13.762  -3.582  1.00  0.00    -0.200 F 
ATOM     60  F   UNL     1       3.639 -12.430  -5.027  1.00  0.00    -0.200 F 
ENDBRANCH  36  50
BRANCH  37  61
ATOM     61  C   UNL     1       1.103  -8.099   8.108  1.00  0.00     0.064 A 
ATOM     62  C   UNL     1       2.202  -7.652   8.856  1.00  0.00     0.173 A 
ATOM     63  C   UNL     1      -0.150  -8.116   8.740  1.00  0.00     0.173 A 
ATOM     64  F   UNL     1       3.428  -7.652   8.310  1.00  0.00    -0.203 F 
ATOM     65  C   UNL     1       2.057  -7.261  10.186  1.00  0.00     0.198 A 
ATOM     66  C   UNL     1      -0.299  -7.691  10.058  1.00  0.00     0.198 A 
ATOM     67  F   UNL     1      -1.232  -8.550   8.078  1.00  0.00    -0.203 F 
ATOM     68  F   UNL     1       3.134  -6.900  10.896  1.00  0.00    -0.200 F 
ATOM     69  C   UNL     1       0.806  -7.274  10.783  1.00  0.00     0.200 A 
ATOM     70  F   UNL     1      -1.512  -7.697  10.627  1.00  0.00    -0.200 F 
ATOM     71  F   UNL     1       0.668  -6.903  12.063  1.00  0.00    -0.200 F 
ENDBRANCH  37  61
BRANCH  49  72
ATOM     72  C   UNL     1       4.240 -13.705   5.468  1.00  0.00     0.064 A 
ATOM     73  C   UNL     1       3.493 -14.686   6.139  1.00  0.00     0.173 A 
ATOM     74  C   UNL     1       5.630 -13.870   5.401  1.00  0.00     0.173 A 
ATOM     75  F   UNL     1       2.161 -14.564   6.245  1.00  0.00    -0.203 F 
ATOM     76  C   UNL     1       4.117 -15.774   6.741  1.00  0.00     0.198 A 
ATOM     77  C   UNL     1       6.250 -14.973   5.984  1.00  0.00     0.198 A 
ATOM     78  F   UNL     1       6.389 -12.962   4.768  1.00  0.00    -0.203 F 
ATOM     79  F   UNL     1       3.389 -16.674   7.417  1.00  0.00    -0.200 F 
ATOM     80  C   UNL     1       5.494 -15.919   6.659  1.00  0.00     0.200 A 
ATOM     81  F   UNL     1       7.579 -15.117   5.897  1.00  0.00    -0.200 F 
ATOM     82  F   UNL     1       6.094 -16.968   7.240  1.00  0.00    -0.200 F 
ENDBRANCH  49  72
ENDBRANCH  23  24
ENDBRANCH  16  18
ENDBRANCH  15  16
ENDBRANCH   1  15
TORSDOF 12
