REMARK SMILES O=C(OCCOC(=O)[C@H]1CCN(c2ccc(F)cc2)[C@@H]1c1ccc(C(F)(F)F)cc1)c1ccc(-c2c3nc(c(-c4c(F)c(F)c(F)c(F)c4F)c4ccc([nH]4)c(-c4c(F)c(F)c(F)c(F)c4F)c4nc(c(-c5c(F)c(F)c(F)c(F)c5F)c5ccc2[nH]5)C=C4)C=C3)cc1
REMARK SMILES IDX 4 1 3 2 2 3 1 4 31 5 32 6 93 7 33 8 92 9 34 10 35 11 36 12
REMARK SMILES IDX 86 13 37 14 91 15 85 16 87 17 38 18 90 19 84 20 83 21 39 23
REMARK SMILES IDX 71 24 51 25 70 26 52 27 55 28 69 29 88 30 53 31 54 32 68 34
REMARK SMILES IDX 89 35 56 36 40 37 41 38 49 39 42 40 43 41 47 42 50 43 44 44
REMARK SMILES IDX 45 45 48 46 46 47 72 48 73 49 81 50 74 51 75 52 79 53 82 54
REMARK SMILES IDX 76 55 77 56 80 57 78 58 57 59 58 60 66 61 59 62 60 63 64 64
REMARK SMILES IDX 67 65 61 66 62 67 65 68 63 69 5 70 6 71 7 72 8 73 9 74 10 75
REMARK SMILES IDX 20 76 11 77 12 78 21 79 22 80 30 81 23 82 29 83 24 84 25 85
REMARK SMILES IDX 26 86 27 87 28 88 13 89 14 90 19 91 15 92 18 93 16 94 17 95
REMARK H PARENT 87 22 55 33
REMARK Flexibility Score: inf
ROOT
ATOM      1  C   UNL     1       3.845   2.800   5.761  1.00  0.00     0.275 C 
ENDROOT
BRANCH   1   2
ATOM      2  O   UNL     1       4.197   1.499   6.245  1.00  0.00    -0.458 OA
BRANCH   2   3
ATOM      3  C   UNL     1       3.370   0.480   6.564  1.00  0.00     0.338 C 
ATOM      4  O   UNL     1       3.830  -0.538   7.080  1.00  0.00    -0.246 OA
BRANCH   3   5
ATOM      5  C   UNL     1       1.941   0.464   6.137  1.00  0.00     0.060 A 
ATOM      6  C   UNL     1       1.052   1.547   6.116  1.00  0.00     0.016 A 
ATOM      7  C   UNL     1       1.467  -0.775   5.712  1.00  0.00     0.016 A 
ATOM      8  C   UNL     1      -0.230   1.433   5.544  1.00  0.00     0.010 A 
ATOM      9  C   UNL     1       0.193  -0.881   5.167  1.00  0.00     0.010 A 
ATOM     10  C   UNL     1      -0.666   0.216   5.030  1.00  0.00    -0.014 A 
BRANCH  10  11
ATOM     11  C   UNL     1      -2.016  -0.010   4.434  1.00  0.00     0.031 A 
ATOM     12  C   UNL     1      -2.911  -1.050   5.067  1.00  0.00     0.074 A 
ATOM     13  C   UNL     1      -2.411   0.601   3.295  1.00  0.00     0.049 A 
ATOM     14  N   UNL     1      -4.058  -1.526   4.654  1.00  0.00    -0.248 NA
ATOM     15  C   UNL     1      -2.436  -1.651   6.328  1.00  0.00     0.031 C 
ATOM     16  C   UNL     1      -1.665   1.622   2.558  1.00  0.00     0.029 A 
ATOM     17  N   UNL     1      -3.539   0.412   2.524  1.00  0.00    -0.354 N 
ATOM     18  C   UNL     1      -4.437  -2.457   5.614  1.00  0.00     0.074 A 
ATOM     19  C   UNL     1      -3.340  -2.592   6.540  1.00  0.00     0.031 C 
ATOM     20  C   UNL     1      -2.328   1.931   1.426  1.00  0.00     0.029 A 
ATOM     21  C   UNL     1      -3.535   1.120   1.341  1.00  0.00     0.049 A 
ATOM     22  H   UNL     1      -4.281  -0.176   2.794  1.00  0.00     0.167 HD
ATOM     23  C   UNL     1      -5.633  -3.067   5.778  1.00  0.00     0.037 A 
ATOM     24  C   UNL     1      -4.399   1.095   0.306  1.00  0.00     0.037 A 
ATOM     25  C   UNL     1      -6.745  -2.896   4.891  1.00  0.00     0.049 A 
ATOM     26  C   UNL     1      -5.674   0.308   0.442  1.00  0.00     0.074 A 
ATOM     27  C   UNL     1      -8.037  -3.369   5.022  1.00  0.00     0.029 A 
ATOM     28  N   UNL     1      -6.689  -2.191   3.700  1.00  0.00    -0.354 N 
ATOM     29  N   UNL     1      -6.054  -0.497   1.401  1.00  0.00    -0.248 NA
ATOM     30  C   UNL     1      -6.677   0.500  -0.619  1.00  0.00     0.031 C 
ATOM     31  C   UNL     1      -8.758  -2.977   3.890  1.00  0.00     0.029 A 
ATOM     32  C   UNL     1      -7.925  -2.221   3.082  1.00  0.00     0.049 A 
ATOM     33  H   UNL     1      -5.890  -1.737   3.347  1.00  0.00     0.167 HD
ATOM     34  C   UNL     1      -7.365  -0.840   1.103  1.00  0.00     0.074 A 
ATOM     35  C   UNL     1      -7.697  -0.203  -0.152  1.00  0.00     0.031 C 
ATOM     36  C   UNL     1      -8.235  -1.574   1.836  1.00  0.00     0.037 A 
BRANCH  23  37
ATOM     37  C   UNL     1      -5.822  -3.887   7.020  1.00  0.00     0.064 A 
ATOM     38  C   UNL     1      -6.010  -5.273   6.955  1.00  0.00     0.173 A 
ATOM     39  C   UNL     1      -5.852  -3.276   8.286  1.00  0.00     0.173 A 
ATOM     40  F   UNL     1      -6.003  -5.904   5.771  1.00  0.00    -0.203 F 
ATOM     41  C   UNL     1      -6.215  -6.019   8.113  1.00  0.00     0.198 A 
ATOM     42  C   UNL     1      -6.023  -4.029   9.442  1.00  0.00     0.198 A 
ATOM     43  F   UNL     1      -5.670  -1.952   8.403  1.00  0.00    -0.203 F 
ATOM     44  F   UNL     1      -6.413  -7.342   8.029  1.00  0.00    -0.200 F 
ATOM     45  C   UNL     1      -6.212  -5.399   9.354  1.00  0.00     0.200 A 
ATOM     46  F   UNL     1      -5.991  -3.430  10.640  1.00  0.00    -0.200 F 
ATOM     47  F   UNL     1      -6.388  -6.123  10.468  1.00  0.00    -0.200 F 
ENDBRANCH  23  37
BRANCH  24  48
ATOM     48  C   UNL     1      -4.183   1.869  -0.948  1.00  0.00     0.064 A 
ATOM     49  C   UNL     1      -3.781   1.218  -2.124  1.00  0.00     0.173 A 
ATOM     50  C   UNL     1      -4.548   3.216  -1.044  1.00  0.00     0.173 A 
ATOM     51  F   UNL     1      -3.476  -0.088  -2.093  1.00  0.00    -0.203 F 
ATOM     52  C   UNL     1      -3.740   1.888  -3.347  1.00  0.00     0.198 A 
ATOM     53  C   UNL     1      -4.516   3.885  -2.270  1.00  0.00     0.198 A 
ATOM     54  F   UNL     1      -5.007   3.863   0.037  1.00  0.00    -0.203 F 
ATOM     55  F   UNL     1      -3.368   1.234  -4.455  1.00  0.00    -0.200 F 
ATOM     56  C   UNL     1      -4.112   3.220  -3.420  1.00  0.00     0.200 A 
ATOM     57  F   UNL     1      -4.922   5.159  -2.345  1.00  0.00    -0.200 F 
ATOM     58  F   UNL     1      -4.110   3.856  -4.600  1.00  0.00    -0.200 F 
ENDBRANCH  24  48
BRANCH  36  59
ATOM     59  C   UNL     1      -9.647  -1.659   1.350  1.00  0.00     0.064 A 
ATOM     60  C   UNL     1     -10.663  -0.982   2.044  1.00  0.00     0.173 A 
ATOM     61  C   UNL     1     -10.008  -2.448   0.251  1.00  0.00     0.173 A 
ATOM     62  F   UNL     1     -10.362  -0.211   3.100  1.00  0.00    -0.203 F 
ATOM     63  C   UNL     1     -11.994  -1.113   1.669  1.00  0.00     0.198 A 
ATOM     64  C   UNL     1     -11.339  -2.551  -0.141  1.00  0.00     0.198 A 
ATOM     65  F   UNL     1      -9.068  -3.090  -0.457  1.00  0.00    -0.203 F 
ATOM     66  F   UNL     1     -12.951  -0.489   2.369  1.00  0.00    -0.200 F 
ATOM     67  C   UNL     1     -12.331  -1.895   0.575  1.00  0.00     0.200 A 
ATOM     68  F   UNL     1     -11.662  -3.281  -1.218  1.00  0.00    -0.200 F 
ATOM     69  F   UNL     1     -13.614  -2.014   0.207  1.00  0.00    -0.200 F 
ENDBRANCH  36  59
ENDBRANCH  10  11
ENDBRANCH   3   5
ENDBRANCH   2   3
ENDBRANCH   1   2
BRANCH   1  70
ATOM     70  C   UNL     1       3.526   2.907   4.262  1.00  0.00     0.274 C 
BRANCH  70  71
ATOM     71  O   UNL     1       2.936   1.742   3.639  1.00  0.00    -0.462 OA
BRANCH  71  72
ATOM     72  C   UNL     1       3.836   0.886   3.091  1.00  0.00     0.311 C 
ATOM     73  O   UNL     1       5.051   1.022   3.215  1.00  0.00    -0.252 OA
BRANCH  72  74
ATOM     74  C   UNL     1       3.269  -0.234   2.241  1.00  0.00     0.128 C 
ATOM     75  C   UNL     1       3.697  -1.582   2.795  1.00  0.00     0.039 C 
ATOM     76  C   UNL     1       1.739  -0.386   1.982  1.00  0.00     0.127 C 
ATOM     77  C   UNL     1       2.894  -2.541   1.938  1.00  0.00     0.118 C 
ATOM     78  N   UNL     1       1.575  -1.905   1.824  1.00  0.00    -0.364 N 
BRANCH  76  79
ATOM     79  C   UNL     1       1.314   0.420   0.736  1.00  0.00    -0.025 A 
ATOM     80  C   UNL     1       0.085   0.183   0.130  1.00  0.00     0.006 A 
ATOM     81  C   UNL     1       2.064   1.472   0.175  1.00  0.00     0.006 A 
ATOM     82  C   UNL     1      -0.298   0.775  -1.073  1.00  0.00     0.013 A 
ATOM     83  C   UNL     1       1.655   2.138  -0.994  1.00  0.00     0.013 A 
ATOM     84  C   UNL     1       0.483   1.766  -1.654  1.00  0.00     0.056 A 
BRANCH  84  85
ATOM     85  C   UNL     1       0.001   2.454  -2.900  1.00  0.00     0.416 C 
ATOM     86  F   UNL     1      -0.433   1.584  -3.852  1.00  0.00    -0.166 F 
ATOM     87  F   UNL     1      -1.065   3.268  -2.637  1.00  0.00    -0.166 F 
ATOM     88  F   UNL     1       0.934   3.240  -3.498  1.00  0.00    -0.166 F 
ENDBRANCH  84  85
ENDBRANCH  76  79
BRANCH  78  89
ATOM     89  C   UNL     1       0.478  -2.679   2.207  1.00  0.00     0.037 A 
ATOM     90  C   UNL     1       0.508  -3.566   3.304  1.00  0.00     0.029 A 
ATOM     91  C   UNL     1      -0.713  -2.717   1.468  1.00  0.00     0.029 A 
ATOM     92  C   UNL     1      -0.613  -4.317   3.708  1.00  0.00     0.041 A 
ATOM     93  C   UNL     1      -1.861  -3.413   1.883  1.00  0.00     0.041 A 
ATOM     94  C   UNL     1      -1.803  -4.202   3.013  1.00  0.00     0.123 A 
ATOM     95  F   UNL     1      -2.882  -4.888   3.412  1.00  0.00    -0.207 F 
ENDBRANCH  78  89
ENDBRANCH  72  74
ENDBRANCH  71  72
ENDBRANCH  70  71
ENDBRANCH   1  70
TORSDOF 14
