REMARK SMILES C#CC[N@H+](CC(=O)OCCOC(=O)c1ccc(-c2c3nc(c(-c4c(F)c(F)c(F)c(F)c4F)c4ccc([nH]4)c(-c4c(F)c(F)c(F)c(F)c4F)c4nc(c(-c5c(F)c(F)c(F)c(F)c5F)c5ccc2[nH]5)C=C4)C=C3)cc1)Cc1cccc2ccccc12
REMARK SMILES IDX 9 1 8 2 6 3 7 4 5 5 4 6 3 8 2 9 1 10 77 11 78 12 79 13 87 14
REMARK SMILES IDX 80 15 82 16 86 17 81 18 83 19 85 20 84 21 10 22 11 23 12 24
REMARK SMILES IDX 13 25 14 26 15 27 76 28 16 29 75 30 17 31 18 32 19 33 69 34
REMARK SMILES IDX 20 35 74 36 68 37 70 38 21 39 73 40 67 41 66 42 22 44 54 45
REMARK SMILES IDX 34 46 53 47 35 48 38 49 52 50 71 51 36 52 37 53 51 55 72 56
REMARK SMILES IDX 39 57 23 58 24 59 32 60 25 61 26 62 30 63 33 64 27 65 28 66
REMARK SMILES IDX 31 67 29 68 55 69 56 70 64 71 57 72 58 73 62 74 65 75 59 76
REMARK SMILES IDX 60 77 63 78 61 79 40 80 41 81 49 82 42 83 43 84 47 85 50 86
REMARK SMILES IDX 44 87 45 88 48 89 46 90
REMARK H PARENT 4 7 70 43 38 54
REMARK Flexibility Score: inf
ROOT
ATOM      1  C   UNL     1      -6.054   1.078   2.154  1.00  0.00     0.274 C 
ENDROOT
BRANCH   1   2
ATOM      2  O   UNL     1      -4.912   0.903   1.297  1.00  0.00    -0.458 OA
BRANCH   2   3
ATOM      3  C   UNL     1      -5.119   0.894  -0.041  1.00  0.00     0.361 C 
ATOM      4  O   UNL     1      -6.223   0.807  -0.572  1.00  0.00    -0.245 OA
BRANCH   3   5
ATOM      5  C   UNL     1      -3.833   1.027  -0.863  1.00  0.00     0.387 C 
BRANCH   5   6
ATOM      6  N   UNL     1      -2.623   1.204  -0.046  1.00  0.00    -0.312 N 
ATOM      7  H   UNL     1      -2.956   1.257   0.917  1.00  0.00     0.349 HD
BRANCH   6   8
ATOM      8  C   UNL     1      -1.792   0.045  -0.083  1.00  0.00     0.354 C 
BRANCH   8   9
ATOM      9  C   UNL     1      -0.272   0.045  -0.083  1.00  0.00    -0.047 C 
ATOM     10  C   UNL     1       1.032   0.045  -0.083  1.00  0.00     0.010 C 
ENDBRANCH   8   9
ENDBRANCH   6   8
BRANCH   6  11
ATOM     11  C   UNL     1      -2.011   2.505   0.016  1.00  0.00     0.300 C 
BRANCH  11  12
ATOM     12  C   UNL     1      -1.603   3.047   1.388  1.00  0.00     0.014 A 
ATOM     13  C   UNL     1      -1.065   4.355   1.317  1.00  0.00     0.010 A 
ATOM     14  C   UNL     1      -1.781   2.444   2.688  1.00  0.00    -0.010 A 
ATOM     15  C   UNL     1      -0.729   5.069   2.457  1.00  0.00     0.001 A 
ATOM     16  C   UNL     1      -1.391   3.184   3.836  1.00  0.00    -0.018 A 
ATOM     17  C   UNL     1      -2.343   1.172   2.973  1.00  0.00     0.009 A 
ATOM     18  C   UNL     1      -0.886   4.482   3.704  1.00  0.00     0.009 A 
ATOM     19  C   UNL     1      -1.529   2.644   5.131  1.00  0.00     0.009 A 
ATOM     20  C   UNL     1      -2.483   0.640   4.258  1.00  0.00     0.001 A 
ATOM     21  C   UNL     1      -2.064   1.378   5.344  1.00  0.00     0.001 A 
ENDBRANCH  11  12
ENDBRANCH   6  11
ENDBRANCH   5   6
ENDBRANCH   3   5
ENDBRANCH   2   3
ENDBRANCH   1   2
BRANCH   1  22
ATOM     22  C   UNL     1      -6.095   2.526   2.627  1.00  0.00     0.275 C 
BRANCH  22  23
ATOM     23  O   UNL     1      -6.242   3.362   1.464  1.00  0.00    -0.458 OA
BRANCH  23  24
ATOM     24  C   UNL     1      -5.215   4.203   1.232  1.00  0.00     0.338 C 
ATOM     25  O   UNL     1      -4.287   4.477   1.978  1.00  0.00    -0.246 OA
BRANCH  24  26
ATOM     26  C   UNL     1      -5.378   4.856  -0.069  1.00  0.00     0.060 A 
ATOM     27  C   UNL     1      -5.540   4.123  -1.247  1.00  0.00     0.016 A 
ATOM     28  C   UNL     1      -5.341   6.247  -0.098  1.00  0.00     0.016 A 
ATOM     29  C   UNL     1      -5.667   4.771  -2.466  1.00  0.00     0.010 A 
ATOM     30  C   UNL     1      -5.590   6.903  -1.296  1.00  0.00     0.010 A 
ATOM     31  C   UNL     1      -5.801   6.161  -2.469  1.00  0.00    -0.014 A 
BRANCH  31  32
ATOM     32  C   UNL     1      -6.457   6.819  -3.612  1.00  0.00     0.031 A 
ATOM     33  C   UNL     1      -5.724   7.811  -4.444  1.00  0.00     0.074 A 
ATOM     34  C   UNL     1      -7.772   6.572  -3.769  1.00  0.00     0.049 A 
ATOM     35  N   UNL     1      -6.201   8.651  -5.321  1.00  0.00    -0.248 NA
ATOM     36  C   UNL     1      -4.267   7.882  -4.258  1.00  0.00     0.031 C 
ATOM     37  C   UNL     1      -8.550   5.607  -2.980  1.00  0.00     0.029 A 
ATOM     38  N   UNL     1      -8.698   7.125  -4.610  1.00  0.00    -0.354 N 
ATOM     39  C   UNL     1      -5.109   9.370  -5.781  1.00  0.00     0.074 A 
ATOM     40  C   UNL     1      -3.943   8.871  -5.081  1.00  0.00     0.031 C 
ATOM     41  C   UNL     1      -9.829   5.638  -3.370  1.00  0.00     0.029 A 
ATOM     42  C   UNL     1      -9.977   6.681  -4.371  1.00  0.00     0.049 A 
ATOM     43  H   UNL     1      -8.473   7.774  -5.315  1.00  0.00     0.167 HD
ATOM     44  C   UNL     1      -5.107  10.363  -6.700  1.00  0.00     0.037 A 
ATOM     45  C   UNL     1     -11.150   7.114  -4.859  1.00  0.00     0.037 A 
ATOM     46  C   UNL     1      -6.300  10.832  -7.359  1.00  0.00     0.049 A 
ATOM     47  C   UNL     1     -11.120   8.255  -5.827  1.00  0.00     0.074 A 
ATOM     48  C   UNL     1      -6.427  11.808  -8.330  1.00  0.00     0.029 A 
ATOM     49  N   UNL     1      -7.582  10.360  -7.095  1.00  0.00    -0.354 N 
ATOM     50  N   UNL     1     -10.083   8.920  -6.279  1.00  0.00    -0.248 NA
ATOM     51  C   UNL     1     -12.411   8.717  -6.342  1.00  0.00     0.031 C 
ATOM     52  C   UNL     1      -7.788  11.959  -8.618  1.00  0.00     0.029 A 
ATOM     53  C   UNL     1      -8.509  11.046  -7.862  1.00  0.00     0.049 A 
ATOM     54  H   UNL     1      -7.798   9.642  -6.457  1.00  0.00     0.167 HD
ATOM     55  C   UNL     1     -10.593   9.877  -7.138  1.00  0.00     0.074 A 
ATOM     56  C   UNL     1     -12.032   9.688  -7.162  1.00  0.00     0.031 C 
ATOM     57  C   UNL     1      -9.935  10.832  -7.841  1.00  0.00     0.037 A 
BRANCH  44  58
ATOM     58  C   UNL     1      -3.797  11.022  -7.012  1.00  0.00     0.064 A 
ATOM     59  C   UNL     1      -2.789  10.362  -7.731  1.00  0.00     0.173 A 
ATOM     60  C   UNL     1      -3.552  12.342  -6.603  1.00  0.00     0.173 A 
ATOM     61  F   UNL     1      -2.966   9.094  -8.132  1.00  0.00    -0.203 F 
ATOM     62  C   UNL     1      -1.578  10.992  -8.011  1.00  0.00     0.198 A 
ATOM     63  C   UNL     1      -2.349  12.976  -6.905  1.00  0.00     0.198 A 
ATOM     64  F   UNL     1      -4.481  13.019  -5.911  1.00  0.00    -0.203 F 
ATOM     65  F   UNL     1      -0.614  10.327  -8.662  1.00  0.00    -0.200 F 
ATOM     66  C   UNL     1      -1.361  12.299  -7.602  1.00  0.00     0.200 A 
ATOM     67  F   UNL     1      -2.145  14.242  -6.515  1.00  0.00    -0.200 F 
ATOM     68  F   UNL     1      -0.196  12.903  -7.874  1.00  0.00    -0.200 F 
ENDBRANCH  44  58
BRANCH  45  69
ATOM     69  C   UNL     1     -12.417   6.489  -4.403  1.00  0.00     0.064 A 
ATOM     70  C   UNL     1     -13.175   5.693  -5.270  1.00  0.00     0.173 A 
ATOM     71  C   UNL     1     -12.869   6.628  -3.081  1.00  0.00     0.173 A 
ATOM     72  F   UNL     1     -12.788   5.537  -6.545  1.00  0.00    -0.203 F 
ATOM     73  C   UNL     1     -14.343   5.069  -4.837  1.00  0.00     0.198 A 
ATOM     74  C   UNL     1     -14.021   5.981  -2.641  1.00  0.00     0.198 A 
ATOM     75  F   UNL     1     -12.171   7.367  -2.205  1.00  0.00    -0.203 F 
ATOM     76  F   UNL     1     -15.067   4.339  -5.696  1.00  0.00    -0.200 F 
ATOM     77  C   UNL     1     -14.761   5.207  -3.522  1.00  0.00     0.200 A 
ATOM     78  F   UNL     1     -14.408   6.098  -1.363  1.00  0.00    -0.200 F 
ATOM     79  F   UNL     1     -15.878   4.596  -3.103  1.00  0.00    -0.200 F 
ENDBRANCH  45  69
BRANCH  57  80
ATOM     80  C   UNL     1     -10.781  11.729  -8.690  1.00  0.00     0.064 A 
ATOM     81  C   UNL     1     -11.575  12.734  -8.119  1.00  0.00     0.173 A 
ATOM     82  C   UNL     1     -10.774  11.599 -10.085  1.00  0.00     0.173 A 
ATOM     83  F   UNL     1     -11.630  12.876  -6.786  1.00  0.00    -0.203 F 
ATOM     84  C   UNL     1     -12.348  13.568  -8.918  1.00  0.00     0.198 A 
ATOM     85  C   UNL     1     -11.526  12.454 -10.883  1.00  0.00     0.198 A 
ATOM     86  F   UNL     1     -10.030  10.650 -10.673  1.00  0.00    -0.203 F 
ATOM     87  F   UNL     1     -13.136  14.493  -8.353  1.00  0.00    -0.200 F 
ATOM     88  C   UNL     1     -12.317  13.434 -10.299  1.00  0.00     0.200 A 
ATOM     89  F   UNL     1     -11.488  12.330 -12.216  1.00  0.00    -0.200 F 
ATOM     90  F   UNL     1     -13.056  14.244 -11.068  1.00  0.00    -0.200 F 
ENDBRANCH  57  80
ENDBRANCH  31  32
ENDBRANCH  24  26
ENDBRANCH  23  24
ENDBRANCH  22  23
ENDBRANCH   1  22
TORSDOF 16
