REMARK SMILES O=C(Cc1ccccc1)Nc1ccc(C(=O)NCc2ccc(C(=O)OCCOC(=O)c3ccc(-c4c5nc(c(-c6c(F)c(F)c(F)c(F)c6F)c6ccc([nH]6)c(-c6c(F)c(F)c(F)c(F)c6F)c6nc(c(-c7c(F)c(F)c(F)c(F)c7F)c7ccc4[nH]7)C=C6)C=C5)cc3)cc2)cc1
REMARK SMILES IDX 23 1 24 2 22 3 19 4 20 5 95 6 21 7 94 8 18 9 17 10 15 11
REMARK SMILES IDX 16 12 14 14 11 15 12 16 97 17 13 18 96 19 10 20 1 21 2 22
REMARK SMILES IDX 3 24 4 25 5 26 9 27 6 28 8 29 7 30 25 31 26 32 27 33 28 34
REMARK SMILES IDX 29 35 30 36 31 37 32 38 93 39 33 40 92 41 34 42 35 43 36 44
REMARK SMILES IDX 86 45 37 46 91 47 85 48 87 49 38 50 90 51 84 52 83 53 39 55
REMARK SMILES IDX 71 56 51 57 70 58 52 59 55 60 69 61 88 62 53 63 54 64 68 66
REMARK SMILES IDX 89 67 56 68 40 69 41 70 49 71 42 72 43 73 47 74 50 75 44 76
REMARK SMILES IDX 45 77 48 78 46 79 72 80 73 81 81 82 74 83 75 84 79 85 82 86
REMARK SMILES IDX 76 87 77 88 80 89 78 90 57 91 58 92 66 93 59 94 60 95 64 96
REMARK SMILES IDX 67 97 61 98 62 99 65 100 63 101
REMARK H PARENT 17 13 10 23 87 54 55 65
REMARK Flexibility Score: inf
ROOT
ATOM      1  C   UNL     1      -2.202  -2.028  -9.872  1.00  0.00     0.338 C 
ATOM      2  O   UNL     1      -1.554  -2.716 -10.638  1.00  0.00    -0.246 OA
ENDROOT
BRANCH   1   3
ATOM      3  C   UNL     1      -2.234  -2.293  -8.413  1.00  0.00     0.060 A 
ATOM      4  C   UNL     1      -2.232  -3.061  -5.698  1.00  0.00    -0.029 A 
ATOM      5  C   UNL     1      -1.122  -3.311  -6.518  1.00  0.00     0.006 A 
ATOM      6  C   UNL     1      -3.319  -2.358  -6.247  1.00  0.00     0.006 A 
ATOM      7  C   UNL     1      -1.138  -2.962  -7.864  1.00  0.00     0.016 A 
ATOM      8  C   UNL     1      -3.320  -1.968  -7.596  1.00  0.00     0.016 A 
BRANCH   4   9
ATOM      9  C   UNL     1      -2.281  -3.563  -4.268  1.00  0.00     0.152 C 
BRANCH   9  10
ATOM     10  N   UNL     1      -1.402  -4.704  -4.072  1.00  0.00    -0.348 N 
ATOM     11  C   UNL     1      -0.129  -4.863  -3.594  1.00  0.00     0.251 C 
ATOM     12  O   UNL     1       0.353  -5.995  -3.670  1.00  0.00    -0.269 OA
ATOM     13  H   UNL     1      -1.815  -5.555  -4.345  1.00  0.00     0.164 HD
BRANCH  11  14
ATOM     14  C   UNL     1       0.688  -3.781  -2.971  1.00  0.00     0.039 A 
ATOM     15  C   UNL     1       2.232  -1.903  -1.533  1.00  0.00     0.041 A 
ATOM     16  C   UNL     1       2.546  -3.259  -1.467  1.00  0.00     0.027 A 
ATOM     17  C   UNL     1       1.222  -1.484  -2.399  1.00  0.00     0.027 A 
ATOM     18  C   UNL     1       1.761  -4.189  -2.159  1.00  0.00     0.016 A 
ATOM     19  C   UNL     1       0.482  -2.413  -3.142  1.00  0.00     0.016 A 
BRANCH  15  20
ATOM     20  N   UNL     1       2.948  -1.012  -0.714  1.00  0.00    -0.326 N 
ATOM     21  O   UNL     1       1.292   0.584  -0.382  1.00  0.00    -0.274 OA
ATOM     22  C   UNL     1       2.435   0.169  -0.197  1.00  0.00     0.228 C 
ATOM     23  H   UNL     1       3.879  -1.243  -0.490  1.00  0.00     0.169 HD
BRANCH  22  24
ATOM     24  C   UNL     1       3.425   0.976   0.619  1.00  0.00     0.135 C 
BRANCH  24  25
ATOM     25  C   UNL     1       3.991   0.372   1.888  1.00  0.00    -0.039 A 
ATOM     26  C   UNL     1       3.734  -0.929   2.343  1.00  0.00     0.004 A 
ATOM     27  C   UNL     1       4.854   1.181   2.651  1.00  0.00     0.004 A 
ATOM     28  C   UNL     1       4.366  -1.421   3.490  1.00  0.00     0.000 A 
ATOM     29  C   UNL     1       5.465   0.697   3.808  1.00  0.00     0.000 A 
ATOM     30  C   UNL     1       5.232  -0.611   4.220  1.00  0.00     0.000 A 
ENDBRANCH  24  25
ENDBRANCH  22  24
ENDBRANCH  15  20
ENDBRANCH  11  14
ENDBRANCH   9  10
ENDBRANCH   4   9
ENDBRANCH   1   3
BRANCH   1  31
ATOM     31  O   UNL     1      -2.912  -0.915 -10.191  1.00  0.00    -0.458 OA
BRANCH  31  32
ATOM     32  C   UNL     1      -2.857  -0.547 -11.585  1.00  0.00     0.275 C 
BRANCH  32  33
ATOM     33  C   UNL     1      -1.773   0.500 -11.837  1.00  0.00     0.275 C 
BRANCH  33  34
ATOM     34  O   UNL     1      -0.480  -0.047 -11.523  1.00  0.00    -0.458 OA
BRANCH  34  35
ATOM     35  C   UNL     1       0.358   0.764 -10.843  1.00  0.00     0.338 C 
ATOM     36  O   UNL     1       0.164   1.929 -10.517  1.00  0.00    -0.246 OA
BRANCH  35  37
ATOM     37  C   UNL     1       1.607   0.049 -10.531  1.00  0.00     0.060 A 
ATOM     38  C   UNL     1       1.565  -1.168  -9.852  1.00  0.00     0.016 A 
ATOM     39  C   UNL     1       2.835   0.644 -10.816  1.00  0.00     0.016 A 
ATOM     40  C   UNL     1       2.743  -1.760  -9.393  1.00  0.00     0.010 A 
ATOM     41  C   UNL     1       4.020   0.011 -10.425  1.00  0.00     0.010 A 
ATOM     42  C   UNL     1       3.988  -1.180  -9.675  1.00  0.00    -0.014 A 
BRANCH  42  43
ATOM     43  C   UNL     1       5.247  -1.773  -9.139  1.00  0.00     0.031 A 
ATOM     44  C   UNL     1       6.128  -0.968  -8.218  1.00  0.00     0.074 A 
ATOM     45  C   UNL     1       5.614  -3.029  -9.461  1.00  0.00     0.049 A 
ATOM     46  N   UNL     1       7.340  -1.225  -7.789  1.00  0.00    -0.248 NA
ATOM     47  C   UNL     1       5.577   0.304  -7.727  1.00  0.00     0.031 C 
ATOM     48  C   UNL     1       4.852  -3.941 -10.311  1.00  0.00     0.029 A 
ATOM     49  N   UNL     1       6.726  -3.755  -9.106  1.00  0.00    -0.354 N 
ATOM     50  C   UNL     1       7.718  -0.120  -7.036  1.00  0.00     0.074 A 
ATOM     51  C   UNL     1       6.607   0.808  -7.062  1.00  0.00     0.031 C 
ATOM     52  C   UNL     1       5.500  -5.114 -10.389  1.00  0.00     0.029 A 
ATOM     53  C   UNL     1       6.759  -5.012  -9.657  1.00  0.00     0.049 A 
ATOM     54  H   UNL     1       7.430  -3.407  -8.513  1.00  0.00     0.167 HD
ATOM     55  C   UNL     1       8.885   0.102  -6.385  1.00  0.00     0.037 A 
ATOM     56  C   UNL     1       7.710  -5.965  -9.614  1.00  0.00     0.037 A 
ATOM     57  C   UNL     1       9.966  -0.846  -6.298  1.00  0.00     0.049 A 
ATOM     58  C   UNL     1       8.991  -5.707  -8.872  1.00  0.00     0.074 A 
ATOM     59  C   UNL     1      11.176  -0.719  -5.638  1.00  0.00     0.029 A 
ATOM     60  N   UNL     1       9.958  -2.106  -6.877  1.00  0.00    -0.354 N 
ATOM     61  N   UNL     1       9.362  -4.636  -8.214  1.00  0.00    -0.248 NA
ATOM     62  C   UNL     1       9.992  -6.783  -8.883  1.00  0.00     0.031 C 
ATOM     63  C   UNL     1      11.911  -1.894  -5.837  1.00  0.00     0.029 A 
ATOM     64  C   UNL     1      11.145  -2.765  -6.594  1.00  0.00     0.049 A 
ATOM     65  H   UNL     1       9.219  -2.478  -7.410  1.00  0.00     0.167 HD
ATOM     66  C   UNL     1      10.638  -4.903  -7.740  1.00  0.00     0.074 A 
ATOM     67  C   UNL     1      10.968  -6.250  -8.159  1.00  0.00     0.031 C 
ATOM     68  C   UNL     1      11.465  -4.099  -7.029  1.00  0.00     0.037 A 
BRANCH  55  69
ATOM     69  C   UNL     1       9.070   1.444  -5.740  1.00  0.00     0.064 A 
ATOM     70  C   UNL     1       8.402   1.800  -4.560  1.00  0.00     0.173 A 
ATOM     71  C   UNL     1       9.948   2.381  -6.308  1.00  0.00     0.173 A 
ATOM     72  F   UNL     1       7.543   0.945  -3.986  1.00  0.00    -0.203 F 
ATOM     73  C   UNL     1       8.584   3.057  -3.987  1.00  0.00     0.198 A 
ATOM     74  C   UNL     1      10.147   3.626  -5.718  1.00  0.00     0.198 A 
ATOM     75  F   UNL     1      10.616   2.086  -7.433  1.00  0.00    -0.203 F 
ATOM     76  F   UNL     1       7.900   3.394  -2.885  1.00  0.00    -0.200 F 
ATOM     77  C   UNL     1       9.459   3.966  -4.564  1.00  0.00     0.200 A 
ATOM     78  F   UNL     1      11.001   4.499  -6.270  1.00  0.00    -0.200 F 
ATOM     79  F   UNL     1       9.633   5.174  -4.010  1.00  0.00    -0.200 F 
ENDBRANCH  55  69
BRANCH  56  80
ATOM     80  C   UNL     1       7.490  -7.244 -10.338  1.00  0.00     0.064 A 
ATOM     81  C   UNL     1       7.239  -8.434  -9.642  1.00  0.00     0.173 A 
ATOM     82  C   UNL     1       7.493  -7.292 -11.740  1.00  0.00     0.173 A 
ATOM     83  F   UNL     1       7.258  -8.442  -8.301  1.00  0.00    -0.203 F 
ATOM     84  C   UNL     1       6.995  -9.624 -10.323  1.00  0.00     0.198 A 
ATOM     85  C   UNL     1       7.222  -8.477 -12.419  1.00  0.00     0.198 A 
ATOM     86  F   UNL     1       7.732  -6.179 -12.449  1.00  0.00    -0.203 F 
ATOM     87  F   UNL     1       6.783 -10.755  -9.637  1.00  0.00    -0.200 F 
ATOM     88  C   UNL     1       6.975  -9.643 -11.710  1.00  0.00     0.200 A 
ATOM     89  F   UNL     1       7.193  -8.487 -13.758  1.00  0.00    -0.200 F 
ATOM     90  F   UNL     1       6.723 -10.784 -12.364  1.00  0.00    -0.200 F 
ENDBRANCH  56  80
BRANCH  68  91
ATOM     91  C   UNL     1      12.808  -4.655  -6.662  1.00  0.00     0.064 A 
ATOM     92  C   UNL     1      13.835  -4.764  -7.612  1.00  0.00     0.173 A 
ATOM     93  C   UNL     1      13.082  -5.053  -5.346  1.00  0.00     0.173 A 
ATOM     94  F   UNL     1      13.615  -4.410  -8.887  1.00  0.00    -0.203 F 
ATOM     95  C   UNL     1      15.083  -5.272  -7.259  1.00  0.00     0.198 A 
ATOM     96  C   UNL     1      14.337  -5.541  -4.993  1.00  0.00     0.198 A 
ATOM     97  F   UNL     1      12.133  -4.964  -4.402  1.00  0.00    -0.203 F 
ATOM     98  F   UNL     1      16.038  -5.403  -8.190  1.00  0.00    -0.200 F 
ATOM     99  C   UNL     1      15.334  -5.655  -5.950  1.00  0.00     0.200 A 
ATOM    100  F   UNL     1      14.581  -5.905  -3.726  1.00  0.00    -0.200 F 
ATOM    101  F   UNL     1      16.536  -6.142  -5.612  1.00  0.00    -0.200 F 
ENDBRANCH  68  91
ENDBRANCH  42  43
ENDBRANCH  35  37
ENDBRANCH  34  35
ENDBRANCH  33  34
ENDBRANCH  32  33
ENDBRANCH  31  32
ENDBRANCH   1  31
TORSDOF 17
