REMARK SMILES Cc1ccc(C)c(Oc2cccc(F)c2C(=O)OCCOC(=O)c2ccc(-c3c4nc(c(-c5c(F)c(F)c(F)c(F)c5F)c5ccc([nH]5)c(-c5c(F)c(F)c(F)c(F)c5F)c5nc(c(-c6c(F)c(F)c(F)c(F)c6F)c6ccc3[nH]6)C=C5)C=C4)cc2)c1
REMARK SMILES IDX 19 1 18 2 16 3 17 4 15 5 9 6 10 7 11 8 13 9 12 10 14 11 8 12
REMARK SMILES IDX 7 13 1 14 2 15 3 16 87 17 4 18 5 19 6 20 20 21 21 22 22 23
REMARK SMILES IDX 23 24 24 25 25 26 86 27 26 28 85 29 27 30 28 31 29 32 79 33
REMARK SMILES IDX 30 34 84 35 78 36 80 37 31 38 83 39 77 40 76 41 32 43 64 44
REMARK SMILES IDX 44 45 63 46 45 47 48 48 62 49 81 50 46 51 47 52 61 54 82 55
REMARK SMILES IDX 49 56 33 57 34 58 42 59 35 60 36 61 40 62 43 63 37 64 38 65
REMARK SMILES IDX 41 66 39 67 65 68 66 69 74 70 67 71 68 72 72 73 75 74 69 75
REMARK SMILES IDX 70 76 73 77 71 78 50 79 51 80 59 81 52 82 53 83 57 84 60 85
REMARK SMILES IDX 54 86 55 87 58 88 56 89
REMARK H PARENT 80 42 48 53
REMARK Flexibility Score: inf
ROOT
ATOM      1  C   UNL     1      -4.798   4.532   4.777  1.00  0.00     0.275 C 
ENDROOT
BRANCH   1   2
ATOM      2  O   UNL     1      -3.416   4.835   4.505  1.00  0.00    -0.458 OA
BRANCH   2   3
ATOM      3  C   UNL     1      -2.571   3.764   3.869  1.00  0.00     0.345 C 
ATOM      4  O   UNL     1      -3.124   2.751   4.378  1.00  0.00    -0.246 OA
BRANCH   3   5
ATOM      5  C   UNL     1      -0.948   4.049   2.463  1.00  0.00     0.138 A 
ATOM      6  C   UNL     1      -0.622   3.386   1.055  1.00  0.00     0.144 A 
ATOM      7  C   UNL     1       0.135   3.947  -0.053  1.00  0.00     0.048 A 
ATOM      8  C   UNL     1       0.871   5.091   0.050  1.00  0.00     0.007 A 
ATOM      9  C   UNL     1       0.171   5.131   2.407  1.00  0.00     0.141 A 
ATOM     10  C   UNL     1       0.939   5.631   1.299  1.00  0.00     0.040 A 
ATOM     11  F   UNL     1       0.622   5.803   3.489  1.00  0.00    -0.206 F 
BRANCH   6  12
ATOM     12  O   UNL     1      -1.173   2.194   0.529  1.00  0.00    -0.456 OA
BRANCH  12  13
ATOM     13  C   UNL     1      -0.409   1.054   0.319  1.00  0.00     0.130 A 
ATOM     14  C   UNL     1       3.147  -0.336   0.128  1.00  0.00     0.044 C 
ATOM     15  C   UNL     1       1.648  -0.244   0.143  1.00  0.00    -0.047 A 
ATOM     16  C   UNL     1       0.893  -1.400  -0.073  1.00  0.00     0.004 A 
ATOM     17  C   UNL     1       0.990   0.975   0.383  1.00  0.00     0.050 A 
ATOM     18  C   UNL     1      -0.495  -1.328  -0.145  1.00  0.00     0.007 A 
ATOM     19  C   UNL     1      -1.153  -0.099  -0.005  1.00  0.00    -0.008 A 
ATOM     20  C   UNL     1      -2.649  -0.073  -0.168  1.00  0.00     0.048 C 
ENDBRANCH  12  13
ENDBRANCH   6  12
ENDBRANCH   3   5
ENDBRANCH   2   3
ENDBRANCH   1   2
BRANCH   1  21
ATOM     21  C   UNL     1      -5.590   4.750   3.485  1.00  0.00     0.275 C 
BRANCH  21  22
ATOM     22  O   UNL     1      -5.283   3.774   2.457  1.00  0.00    -0.458 OA
BRANCH  22  23
ATOM     23  C   UNL     1      -4.459   4.189   1.459  1.00  0.00     0.338 C 
ATOM     24  O   UNL     1      -4.794   4.605   0.368  1.00  0.00    -0.246 OA
BRANCH  23  25
ATOM     25  C   UNL     1      -3.065   4.075   1.907  1.00  0.00     0.060 A 
ATOM     26  C   UNL     1      -2.433   2.429   2.374  1.00  0.00     0.016 A 
ATOM     27  C   UNL     1      -2.444   5.549   2.737  1.00  0.00     0.016 A 
ATOM     28  C   UNL     1      -1.144   2.262   3.672  1.00  0.00     0.010 A 
ATOM     29  C   UNL     1      -1.348   5.348   4.189  1.00  0.00     0.010 A 
ATOM     30  C   UNL     1      -0.700   3.707   4.661  1.00  0.00    -0.014 A 
BRANCH  30  31
ATOM     31  C   UNL     1      -0.147   3.576   6.047  1.00  0.00     0.031 A 
ATOM     32  C   UNL     1       1.090   4.368   6.196  1.00  0.00     0.074 A 
ATOM     33  C   UNL     1      -0.735   3.149   7.204  1.00  0.00     0.049 A 
ATOM     34  N   UNL     1       2.315   3.969   6.071  1.00  0.00    -0.248 NA
ATOM     35  C   UNL     1       0.942   5.829   6.292  1.00  0.00     0.031 C 
ATOM     36  C   UNL     1      -2.118   2.718   7.423  1.00  0.00     0.029 A 
ATOM     37  N   UNL     1      -0.225   3.109   8.498  1.00  0.00    -0.354 N 
ATOM     38  C   UNL     1       3.055   5.126   6.278  1.00  0.00     0.074 A 
ATOM     39  C   UNL     1       2.178   6.217   5.980  1.00  0.00     0.031 C 
ATOM     40  C   UNL     1      -2.391   2.656   8.751  1.00  0.00     0.029 A 
ATOM     41  C   UNL     1      -1.178   2.909   9.511  1.00  0.00     0.049 A 
ATOM     42  H   UNL     1       0.735   3.213   8.690  1.00  0.00     0.167 HD
ATOM     43  C   UNL     1       4.109   5.149   7.139  1.00  0.00     0.037 A 
ATOM     44  C   UNL     1      -1.000   2.940  10.866  1.00  0.00     0.037 A 
ATOM     45  C   UNL     1       4.472   3.815   7.540  1.00  0.00     0.049 A 
ATOM     46  C   UNL     1       0.441   2.772  11.141  1.00  0.00     0.074 A 
ATOM     47  C   UNL     1       5.077   2.715   6.977  1.00  0.00     0.029 A 
ATOM     48  N   UNL     1       3.813   3.385   8.657  1.00  0.00    -0.354 N 
ATOM     49  N   UNL     1       1.078   1.645  11.014  1.00  0.00    -0.248 NA
ATOM     50  C   UNL     1       1.271   3.944  11.403  1.00  0.00     0.031 C 
ATOM     51  C   UNL     1       4.714   1.592   7.777  1.00  0.00     0.029 A 
ATOM     52  C   UNL     1       3.914   2.031   8.824  1.00  0.00     0.049 A 
ATOM     53  H   UNL     1       3.324   3.980   9.270  1.00  0.00     0.167 HD
ATOM     54  C   UNL     1       2.362   2.034  10.724  1.00  0.00     0.074 A 
ATOM     55  C   UNL     1       2.473   3.412  11.175  1.00  0.00     0.031 C 
ATOM     56  C   UNL     1       3.064   1.360   9.776  1.00  0.00     0.037 A 
BRANCH  43  57
ATOM     57  C   UNL     1       4.505   6.343   7.999  1.00  0.00     0.064 A 
ATOM     58  C   UNL     1       3.657   7.407   8.389  1.00  0.00     0.173 A 
ATOM     59  C   UNL     1       5.740   6.298   8.675  1.00  0.00     0.173 A 
ATOM     60  F   UNL     1       2.390   7.519   7.979  1.00  0.00    -0.203 F 
ATOM     61  C   UNL     1       4.026   8.367   9.328  1.00  0.00     0.198 A 
ATOM     62  C   UNL     1       6.081   7.223   9.668  1.00  0.00     0.198 A 
ATOM     63  F   UNL     1       6.614   5.309   8.431  1.00  0.00    -0.203 F 
ATOM     64  F   UNL     1       3.165   9.347   9.639  1.00  0.00    -0.200 F 
ATOM     65  C   UNL     1       5.228   8.263   9.987  1.00  0.00     0.200 A 
ATOM     66  F   UNL     1       7.221   7.073  10.353  1.00  0.00    -0.200 F 
ATOM     67  F   UNL     1       5.535   9.131  10.959  1.00  0.00    -0.200 F 
ENDBRANCH  43  57
BRANCH  44  68
ATOM     68  C   UNL     1      -1.893   3.165  12.046  1.00  0.00     0.064 A 
ATOM     69  C   UNL     1      -2.962   4.073  11.992  1.00  0.00     0.173 A 
ATOM     70  C   UNL     1      -1.500   2.757  13.345  1.00  0.00     0.173 A 
ATOM     71  F   UNL     1      -3.383   4.552  10.813  1.00  0.00    -0.203 F 
ATOM     72  C   UNL     1      -3.551   4.591  13.155  1.00  0.00     0.198 A 
ATOM     73  C   UNL     1      -2.082   3.282  14.505  1.00  0.00     0.198 A 
ATOM     74  F   UNL     1      -0.479   1.903  13.511  1.00  0.00    -0.203 F 
ATOM     75  F   UNL     1      -4.515   5.517  13.057  1.00  0.00    -0.200 F 
ATOM     76  C   UNL     1      -3.095   4.215  14.409  1.00  0.00     0.200 A 
ATOM     77  F   UNL     1      -1.607   2.936  15.710  1.00  0.00    -0.200 F 
ATOM     78  F   UNL     1      -3.599   4.783  15.514  1.00  0.00    -0.200 F 
ENDBRANCH  44  68
BRANCH  56  79
ATOM     79  C   UNL     1       2.794  -0.100   9.612  1.00  0.00     0.064 A 
ATOM     80  C   UNL     1       3.861  -0.977   9.854  1.00  0.00     0.173 A 
ATOM     81  C   UNL     1       1.580  -0.654   9.175  1.00  0.00     0.173 A 
ATOM     82  F   UNL     1       5.046  -0.496  10.263  1.00  0.00    -0.203 F 
ATOM     83  C   UNL     1       3.735  -2.344   9.644  1.00  0.00     0.198 A 
ATOM     84  C   UNL     1       1.444  -2.032   9.007  1.00  0.00     0.198 A 
ATOM     85  F   UNL     1       0.532   0.124   8.868  1.00  0.00    -0.203 F 
ATOM     86  F   UNL     1       4.794  -3.145   9.825  1.00  0.00    -0.200 F 
ATOM     87  C   UNL     1       2.525  -2.873   9.227  1.00  0.00     0.200 A 
ATOM     88  F   UNL     1       0.273  -2.548   8.606  1.00  0.00    -0.200 F 
ATOM     89  F   UNL     1       2.408  -4.191   9.017  1.00  0.00    -0.200 F 
ENDBRANCH  56  79
ENDBRANCH  30  31
ENDBRANCH  23  25
ENDBRANCH  22  23
ENDBRANCH  21  22
ENDBRANCH   1  21
TORSDOF 13
