REMARK SMILES COCC1CC[NH+]([C@@H]2CCC[C@@]([NH3+])(C(=O)OCCOC(=O)c3ccc(-c4c5nc(c(-c6c(F)c(F)c(F)c(F)c6F)c6ccc([nH]6)c(-c6c(F)c(F)c(F)c(F)c6F)c6nc(c(-c7c(F)c(F)c(F)c(F)c7F)c7ccc4[nH]7)C=C6)C=C5)cc3)C2)CC1
REMARK SMILES IDX 17 1 16 2 14 3 15 4 12 5 8 6 9 7 85 8 10 9 11 10 7 11 4 12
REMARK SMILES IDX 5 13 87 14 6 15 86 16 3 18 2 19 1 20 13 21 18 25 19 26 20 27
REMARK SMILES IDX 21 28 22 29 23 30 84 31 24 32 83 33 25 34 26 35 27 36 77 37
REMARK SMILES IDX 28 38 82 39 76 40 78 41 29 42 81 43 75 44 74 45 30 47 62 48
REMARK SMILES IDX 42 49 61 50 43 51 46 52 60 53 79 54 44 55 45 56 59 58 80 59
REMARK SMILES IDX 47 60 31 61 32 62 40 63 33 64 34 65 38 66 41 67 35 68 36 69
REMARK SMILES IDX 39 70 37 71 63 72 64 73 72 74 65 75 66 76 70 77 73 78 67 79
REMARK SMILES IDX 68 80 71 81 69 82 48 83 49 84 57 85 50 86 51 87 55 88 58 89
REMARK SMILES IDX 52 90 53 91 56 92 54 93
REMARK H PARENT 7 17 13 22 13 23 13 24 78 46 46 57
REMARK Flexibility Score: inf
ROOT
ATOM      1  C   UNL     1      -5.363   7.678  -4.946  1.00  0.00     0.274 C 
ENDROOT
BRANCH   1   2
ATOM      2  O   UNL     1      -3.962   7.593  -5.270  1.00  0.00    -0.457 OA
BRANCH   2   3
ATOM      3  C   UNL     1      -3.105   7.976  -4.288  1.00  0.00     0.368 C 
ATOM      4  O   UNL     1      -3.450   8.340  -3.166  1.00  0.00    -0.245 OA
BRANCH   3   5
ATOM      5  C   UNL     1      -1.614   7.965  -4.735  1.00  0.00     0.198 C 
ATOM      6  C   UNL     1      -1.005   5.632  -3.837  1.00  0.00     0.190 C 
ATOM      7  C   UNL     1      -0.625   5.188  -5.260  1.00  0.00     0.065 C 
ATOM      8  C   UNL     1      -0.802   7.158  -3.701  1.00  0.00     0.145 C 
ATOM      9  C   UNL     1      -1.462   5.933  -6.298  1.00  0.00     0.013 C 
ATOM     10  C   UNL     1      -1.345   7.449  -6.160  1.00  0.00     0.081 C 
BRANCH   6  11
ATOM     11  N   UNL     1      -0.376   4.872  -2.735  1.00  0.00    -0.332 N 
ATOM     12  C   UNL     1       1.321   3.035  -1.171  1.00  0.00     0.026 C 
ATOM     13  C   UNL     1      -0.079   2.666  -1.658  1.00  0.00     0.067 C 
ATOM     14  C   UNL     1       1.430   4.557  -1.065  1.00  0.00     0.067 C 
ATOM     15  C   UNL     1      -0.485   3.417  -2.918  1.00  0.00     0.262 C 
ATOM     16  C   UNL     1       0.977   5.274  -2.345  1.00  0.00     0.262 C 
ATOM     17  H   UNL     1      -0.943   5.139  -1.930  1.00  0.00     0.348 HD
BRANCH  12  18
ATOM     18  C   UNL     1       2.425   2.451  -2.065  1.00  0.00     0.163 C 
BRANCH  18  19
ATOM     19  O   UNL     1       2.167   1.096  -2.426  1.00  0.00    -0.384 OA
ATOM     20  C   UNL     1       2.409   0.187  -1.365  1.00  0.00     0.194 C 
ENDBRANCH  18  19
ENDBRANCH  12  18
ENDBRANCH   6  11
BRANCH   5  21
ATOM     21  N   UNL     1      -1.163   9.386  -4.691  1.00  0.00    -0.343 N 
ATOM     22  H   UNL     1      -1.693   9.932  -5.371  1.00  0.00     0.345 HD
ATOM     23  H   UNL     1      -0.170   9.435  -4.916  1.00  0.00     0.345 HD
ATOM     24  H   UNL     1      -1.319   9.764  -3.756  1.00  0.00     0.345 HD
ENDBRANCH   5  21
ENDBRANCH   3   5
ENDBRANCH   2   3
ENDBRANCH   1   2
BRANCH   1  25
ATOM     25  C   UNL     1      -5.894   6.313  -4.521  1.00  0.00     0.275 C 
BRANCH  25  26
ATOM     26  O   UNL     1      -5.285   5.916  -3.279  1.00  0.00    -0.458 OA
BRANCH  26  27
ATOM     27  C   UNL     1      -5.239   4.579  -3.067  1.00  0.00     0.338 C 
ATOM     28  O   UNL     1      -5.671   3.714  -3.811  1.00  0.00    -0.246 OA
BRANCH  27  29
ATOM     29  C   UNL     1      -4.577   4.268  -1.777  1.00  0.00     0.060 A 
ATOM     30  C   UNL     1      -3.517   5.034  -1.304  1.00  0.00     0.016 A 
ATOM     31  C   UNL     1      -4.945   3.108  -1.083  1.00  0.00     0.016 A 
ATOM     32  C   UNL     1      -2.754   4.566  -0.231  1.00  0.00     0.010 A 
ATOM     33  C   UNL     1      -4.235   2.699   0.058  1.00  0.00     0.010 A 
ATOM     34  C   UNL     1      -3.083   3.383   0.467  1.00  0.00    -0.014 A 
BRANCH  34  35
ATOM     35  C   UNL     1      -2.163   2.866   1.543  1.00  0.00     0.031 A 
ATOM     36  C   UNL     1      -1.534   1.480   1.472  1.00  0.00     0.074 A 
ATOM     37  C   UNL     1      -1.771   3.694   2.536  1.00  0.00     0.049 A 
ATOM     38  N   UNL     1      -0.634   0.934   2.263  1.00  0.00    -0.248 NA
ATOM     39  C   UNL     1      -1.934   0.601   0.361  1.00  0.00     0.031 C 
ATOM     40  C   UNL     1      -2.263   5.058   2.739  1.00  0.00     0.029 A 
ATOM     41  N   UNL     1      -0.849   3.526   3.544  1.00  0.00    -0.354 N 
ATOM     42  C   UNL     1      -0.354  -0.325   1.735  1.00  0.00     0.074 A 
ATOM     43  C   UNL     1      -1.192  -0.480   0.568  1.00  0.00     0.031 C 
ATOM     44  C   UNL     1      -1.599   5.621   3.758  1.00  0.00     0.029 A 
ATOM     45  C   UNL     1      -0.702   4.633   4.346  1.00  0.00     0.049 A 
ATOM     46  H   UNL     1      -0.342   2.692   3.678  1.00  0.00     0.167 HD
ATOM     47  C   UNL     1       0.545  -1.252   2.154  1.00  0.00     0.037 A 
ATOM     48  C   UNL     1       0.034   4.834   5.457  1.00  0.00     0.037 A 
ATOM     49  C   UNL     1       1.408  -1.109   3.297  1.00  0.00     0.049 A 
ATOM     50  C   UNL     1       0.905   3.730   5.982  1.00  0.00     0.074 A 
ATOM     51  C   UNL     1       2.369  -1.989   3.768  1.00  0.00     0.029 A 
ATOM     52  N   UNL     1       1.412  -0.020   4.151  1.00  0.00    -0.354 N 
ATOM     53  N   UNL     1       1.176   2.568   5.445  1.00  0.00    -0.248 NA
ATOM     54  C   UNL     1       1.553   3.958   7.282  1.00  0.00     0.031 C 
ATOM     55  C   UNL     1       2.946  -1.439   4.916  1.00  0.00     0.029 A 
ATOM     56  C   UNL     1       2.336  -0.223   5.165  1.00  0.00     0.049 A 
ATOM     57  H   UNL     1       0.845   0.778   4.054  1.00  0.00     0.167 HD
ATOM     58  C   UNL     1       2.020   1.926   6.340  1.00  0.00     0.074 A 
ATOM     59  C   UNL     1       2.245   2.838   7.440  1.00  0.00     0.031 C 
ATOM     60  C   UNL     1       2.549   0.682   6.260  1.00  0.00     0.037 A 
BRANCH  47  61
ATOM     61  C   UNL     1       0.691  -2.517   1.353  1.00  0.00     0.064 A 
ATOM     62  C   UNL     1       1.827  -2.720   0.553  1.00  0.00     0.173 A 
ATOM     63  C   UNL     1      -0.230  -3.567   1.453  1.00  0.00     0.173 A 
ATOM     64  F   UNL     1       2.784  -1.784   0.495  1.00  0.00    -0.203 F 
ATOM     65  C   UNL     1       2.013  -3.904  -0.154  1.00  0.00     0.198 A 
ATOM     66  C   UNL     1      -0.035  -4.759   0.755  1.00  0.00     0.198 A 
ATOM     67  F   UNL     1      -1.312  -3.442   2.235  1.00  0.00    -0.203 F 
ATOM     68  F   UNL     1       3.103  -4.061  -0.919  1.00  0.00    -0.200 F 
ATOM     69  C   UNL     1       1.081  -4.923  -0.054  1.00  0.00     0.200 A 
ATOM     70  F   UNL     1      -0.925  -5.754   0.870  1.00  0.00    -0.200 F 
ATOM     71  F   UNL     1       1.265  -6.068  -0.726  1.00  0.00    -0.200 F 
ENDBRANCH  47  61
BRANCH  48  72
ATOM     72  C   UNL     1      -0.094   6.116   6.202  1.00  0.00     0.064 A 
ATOM     73  C   UNL     1       0.981   7.005   6.328  1.00  0.00     0.173 A 
ATOM     74  C   UNL     1      -1.307   6.465   6.818  1.00  0.00     0.173 A 
ATOM     75  F   UNL     1       2.171   6.700   5.790  1.00  0.00    -0.203 F 
ATOM     76  C   UNL     1       0.847   8.194   7.044  1.00  0.00     0.198 A 
ATOM     77  C   UNL     1      -1.449   7.669   7.501  1.00  0.00     0.198 A 
ATOM     78  F   UNL     1      -2.362   5.641   6.741  1.00  0.00    -0.203 F 
ATOM     79  F   UNL     1       1.901   9.008   7.190  1.00  0.00    -0.200 F 
ATOM     80  C   UNL     1      -0.370   8.530   7.620  1.00  0.00     0.200 A 
ATOM     81  F   UNL     1      -2.631   7.992   8.043  1.00  0.00    -0.200 F 
ATOM     82  F   UNL     1      -0.500   9.678   8.298  1.00  0.00    -0.200 F 
ENDBRANCH  48  72
BRANCH  60  83
ATOM     83  C   UNL     1       3.404   0.228   7.402  1.00  0.00     0.064 A 
ATOM     84  C   UNL     1       2.829  -0.146   8.626  1.00  0.00     0.173 A 
ATOM     85  C   UNL     1       4.798   0.145   7.274  1.00  0.00     0.173 A 
ATOM     86  F   UNL     1       1.501  -0.068   8.798  1.00  0.00    -0.203 F 
ATOM     87  C   UNL     1       3.623  -0.564   9.690  1.00  0.00     0.198 A 
ATOM     88  C   UNL     1       5.587  -0.295   8.334  1.00  0.00     0.198 A 
ATOM     89  F   UNL     1       5.393   0.485   6.121  1.00  0.00    -0.203 F 
ATOM     90  F   UNL     1       3.056  -0.874  10.864  1.00  0.00    -0.200 F 
ATOM     91  C   UNL     1       5.000  -0.642   9.542  1.00  0.00     0.200 A 
ATOM     92  F   UNL     1       6.916  -0.379   8.188  1.00  0.00    -0.200 F 
ATOM     93  F   UNL     1       5.763  -1.043  10.568  1.00  0.00    -0.200 F 
ENDBRANCH  60  83
ENDBRANCH  34  35
ENDBRANCH  27  29
ENDBRANCH  26  27
ENDBRANCH  25  26
ENDBRANCH   1  25
TORSDOF 15
