REMARK SMILES COCC(=O)N[C@H]1CCCCC[C@@H]1C(=O)OCCOC(=O)c1ccc(-c2c3nc(c(-c4c(F)c(F)c(F)c(F)c4F)c4ccc([nH]4)c(-c4c(F)c(F)c(F)c(F)c4F)c4nc(c(-c5c(F)c(F)c(F)c(F)c5F)c5ccc2[nH]5)C=C4)C=C3)cc1
REMARK SMILES IDX 16 1 14 2 15 3 13 4 7 5 6 6 4 7 5 8 3 10 2 11 1 12 8 13 9 14
REMARK SMILES IDX 10 15 11 16 12 18 17 20 18 21 19 22 20 23 21 24 22 25 23 26
REMARK SMILES IDX 84 27 24 28 83 29 25 30 26 31 27 32 77 33 28 34 82 35 76 36
REMARK SMILES IDX 78 37 29 38 81 39 75 40 74 41 30 43 62 44 42 45 61 46 43 47
REMARK SMILES IDX 46 48 60 49 79 50 44 51 45 52 59 54 80 55 47 56 31 57 32 58
REMARK SMILES IDX 40 59 33 60 34 61 38 62 41 63 35 64 36 65 39 66 37 67 63 68
REMARK SMILES IDX 64 69 72 70 65 71 66 72 70 73 73 74 67 75 68 76 71 77 69 78
REMARK SMILES IDX 48 79 49 80 57 81 50 82 51 83 55 84 58 85 52 86 53 87 56 88
REMARK SMILES IDX 54 89
REMARK H PARENT 6 9 78 42 46 53
REMARK Flexibility Score: 90.00
ROOT
ATOM      1  O   UNL     1       0.797   0.440   0.004  1.00  0.00    -0.462 OA
ENDROOT
BRANCH   1   2
ATOM      2  C   UNL     1       0.008   1.358  -0.607  1.00  0.00     0.311 C 
ATOM      3  O   UNL     1       0.439   2.328  -1.222  1.00  0.00    -0.252 OA
BRANCH   2   4
ATOM      4  C   UNL     1      -1.482   1.010  -0.570  1.00  0.00     0.121 C 
BRANCH   4   5
ATOM      5  C   UNL     1      -2.299   2.315  -0.334  1.00  0.00     0.096 C 
BRANCH   5   6
ATOM      6  N   UNL     1      -2.483   3.008  -1.631  1.00  0.00    -0.350 N 
ATOM      7  C   UNL     1      -2.892   4.264  -1.955  1.00  0.00     0.246 C 
ATOM      8  O   UNL     1      -2.831   4.598  -3.143  1.00  0.00    -0.272 OA
ATOM      9  H   UNL     1      -2.267   2.449  -2.412  1.00  0.00     0.163 HD
BRANCH   7  10
ATOM     10  C   UNL     1      -3.455   5.215  -0.898  1.00  0.00     0.259 C 
BRANCH  10  11
ATOM     11  O   UNL     1      -4.787   4.977  -0.465  1.00  0.00    -0.375 OA
ATOM     12  C   UNL     1      -5.715   4.861  -1.537  1.00  0.00     0.195 C 
ENDBRANCH  10  11
ENDBRANCH   7  10
ENDBRANCH   5   6
BRANCH   5  13
ATOM     13  C   UNL     1      -3.637   2.076   0.379  1.00  0.00     0.026 C 
BRANCH  13  14
ATOM     14  C   UNL     1      -4.585   1.140  -0.367  1.00  0.00     0.002 C 
BRANCH  14  15
ATOM     15  C   UNL     1      -4.435  -0.310   0.072  1.00  0.00     0.000 C 
BRANCH  15  16
ATOM     16  C   UNL     1      -3.089  -0.950  -0.244  1.00  0.00     0.001 CG0
ATOM     17  G   UNL     1      -1.853  -0.211   0.293  1.00  0.00     0.000 G0
ENDBRANCH  15  16
ENDBRANCH  14  15
ENDBRANCH  13  14
ENDBRANCH   5  13
ENDBRANCH   4   5
BRANCH   4  18
ATOM     18  C   UNL     1      -1.853  -0.211   0.293  1.00  0.00     0.017 CG0
ATOM     19  G   UNL     1      -3.089  -0.950  -0.244  1.00  0.00     0.000 G0
ENDBRANCH   4  18
ENDBRANCH   2   4
ENDBRANCH   1   2
BRANCH   1  20
ATOM     20  C   UNL     1       2.217   0.560  -0.211  1.00  0.00     0.274 C 
BRANCH  20  21
ATOM     21  C   UNL     1       2.705  -0.430  -1.276  1.00  0.00     0.275 C 
BRANCH  21  22
ATOM     22  O   UNL     1       2.288  -0.057  -2.606  1.00  0.00    -0.458 OA
BRANCH  22  23
ATOM     23  C   UNL     1       1.105  -0.577  -3.006  1.00  0.00     0.338 C 
ATOM     24  O   UNL     1       0.372  -1.317  -2.372  1.00  0.00    -0.246 OA
BRANCH  23  25
ATOM     25  C   UNL     1       0.706  -0.004  -4.304  1.00  0.00     0.060 A 
ATOM     26  C   UNL     1      -0.510   0.679  -4.353  1.00  0.00     0.016 A 
ATOM     27  C   UNL     1       1.444  -0.205  -5.471  1.00  0.00     0.016 A 
ATOM     28  C   UNL     1      -1.008   1.159  -5.556  1.00  0.00     0.010 A 
ATOM     29  C   UNL     1       0.944   0.280  -6.688  1.00  0.00     0.010 A 
ATOM     30  C   UNL     1      -0.289   0.956  -6.736  1.00  0.00    -0.014 A 
BRANCH  30  31
ATOM     31  C   UNL     1      -0.877   1.416  -8.014  1.00  0.00     0.031 A 
ATOM     32  C   UNL     1      -1.483   0.423  -8.960  1.00  0.00     0.074 A 
ATOM     33  C   UNL     1      -0.942   2.733  -8.283  1.00  0.00     0.049 A 
ATOM     34  N   UNL     1      -1.988   0.616 -10.152  1.00  0.00    -0.248 NA
ATOM     35  C   UNL     1      -1.536  -0.974  -8.502  1.00  0.00     0.031 C 
ATOM     36  C   UNL     1      -0.468   3.797  -7.398  1.00  0.00     0.029 A 
ATOM     37  N   UNL     1      -1.445   3.399  -9.371  1.00  0.00    -0.354 N 
ATOM     38  C   UNL     1      -2.405  -0.632 -10.592  1.00  0.00     0.074 A 
ATOM     39  C   UNL     1      -2.083  -1.580  -9.546  1.00  0.00     0.031 C 
ATOM     40  C   UNL     1      -0.707   4.984  -7.977  1.00  0.00     0.029 A 
ATOM     41  C   UNL     1      -1.303   4.761  -9.291  1.00  0.00     0.049 A 
ATOM     42  H   UNL     1      -1.866   2.943 -10.135  1.00  0.00     0.167 HD
ATOM     43  C   UNL     1      -3.002  -0.953 -11.764  1.00  0.00     0.037 A 
ATOM     44  C   UNL     1      -1.595   5.720 -10.190  1.00  0.00     0.037 A 
ATOM     45  C   UNL     1      -3.328  -0.006 -12.797  1.00  0.00     0.049 A 
ATOM     46  C   UNL     1      -2.197   5.329 -11.511  1.00  0.00     0.074 A 
ATOM     47  C   UNL     1      -3.894  -0.239 -14.038  1.00  0.00     0.029 A 
ATOM     48  N   UNL     1      -3.126   1.363 -12.701  1.00  0.00    -0.354 N 
ATOM     49  N   UNL     1      -2.524   4.139 -11.949  1.00  0.00    -0.248 NA
ATOM     50  C   UNL     1      -2.460   6.415 -12.465  1.00  0.00     0.031 C 
ATOM     51  C   UNL     1      -4.009   0.986 -14.704  1.00  0.00     0.029 A 
ATOM     52  C   UNL     1      -3.549   1.987 -13.864  1.00  0.00     0.049 A 
ATOM     53  H   UNL     1      -2.738   1.824 -11.922  1.00  0.00     0.167 HD
ATOM     54  C   UNL     1      -3.040   4.329 -13.223  1.00  0.00     0.074 A 
ATOM     55  C   UNL     1      -2.999   5.754 -13.481  1.00  0.00     0.031 C 
ATOM     56  C   UNL     1      -3.500   3.406 -14.101  1.00  0.00     0.037 A 
BRANCH  43  57
ATOM     57  C   UNL     1      -3.313  -2.399 -12.004  1.00  0.00     0.064 A 
ATOM     58  C   UNL     1      -4.388  -3.035 -11.367  1.00  0.00     0.173 A 
ATOM     59  C   UNL     1      -2.543  -3.149 -12.905  1.00  0.00     0.173 A 
ATOM     60  F   UNL     1      -5.142  -2.364 -10.484  1.00  0.00    -0.203 F 
ATOM     61  C   UNL     1      -4.672  -4.376 -11.614  1.00  0.00     0.198 A 
ATOM     62  C   UNL     1      -2.843  -4.483 -13.165  1.00  0.00     0.198 A 
ATOM     63  F   UNL     1      -1.504  -2.585 -13.539  1.00  0.00    -0.203 F 
ATOM     64  F   UNL     1      -5.683  -4.975 -10.969  1.00  0.00    -0.200 F 
ATOM     65  C   UNL     1      -3.904  -5.096 -12.517  1.00  0.00     0.200 A 
ATOM     66  F   UNL     1      -2.103  -5.176 -14.043  1.00  0.00    -0.200 F 
ATOM     67  F   UNL     1      -4.181  -6.386 -12.756  1.00  0.00    -0.200 F 
ENDBRANCH  43  57
BRANCH  44  68
ATOM     68  C   UNL     1      -1.285   7.137  -9.876  1.00  0.00     0.064 A 
ATOM     69  C   UNL     1      -2.304   8.066  -9.631  1.00  0.00     0.173 A 
ATOM     70  C   UNL     1       0.042   7.586  -9.807  1.00  0.00     0.173 A 
ATOM     71  F   UNL     1      -3.588   7.689  -9.715  1.00  0.00    -0.203 F 
ATOM     72  C   UNL     1      -2.007   9.395  -9.335  1.00  0.00     0.198 A 
ATOM     73  C   UNL     1       0.339   8.908  -9.487  1.00  0.00     0.198 A 
ATOM     74  F   UNL     1       1.052   6.735 -10.041  1.00  0.00    -0.203 F 
ATOM     75  F   UNL     1      -2.999  10.274  -9.140  1.00  0.00    -0.200 F 
ATOM     76  C   UNL     1      -0.686   9.812  -9.255  1.00  0.00     0.200 A 
ATOM     77  F   UNL     1       1.616   9.305  -9.405  1.00  0.00    -0.200 F 
ATOM     78  F   UNL     1      -0.401  11.089  -8.965  1.00  0.00    -0.200 F 
ENDBRANCH  44  68
BRANCH  56  79
ATOM     79  C   UNL     1      -4.011   3.910 -15.417  1.00  0.00     0.064 A 
ATOM     80  C   UNL     1      -3.135   4.335 -16.425  1.00  0.00     0.173 A 
ATOM     81  C   UNL     1      -5.387   3.930 -15.685  1.00  0.00     0.173 A 
ATOM     82  F   UNL     1      -1.811   4.348 -16.208  1.00  0.00    -0.203 F 
ATOM     83  C   UNL     1      -3.620   4.779 -17.652  1.00  0.00     0.198 A 
ATOM     84  C   UNL     1      -5.868   4.354 -16.920  1.00  0.00     0.198 A 
ATOM     85  F   UNL     1      -6.264   3.528 -14.752  1.00  0.00    -0.203 F 
ATOM     86  F   UNL     1      -2.768   5.215 -18.590  1.00  0.00    -0.200 F 
ATOM     87  C   UNL     1      -4.985   4.783 -17.900  1.00  0.00     0.200 A 
ATOM     88  F   UNL     1      -7.186   4.349 -17.162  1.00  0.00    -0.200 F 
ATOM     89  F   UNL     1      -5.451   5.207 -19.083  1.00  0.00    -0.200 F 
ENDBRANCH  56  79
ENDBRANCH  30  31
ENDBRANCH  23  25
ENDBRANCH  22  23
ENDBRANCH  21  22
ENDBRANCH  20  21
ENDBRANCH   1  20
TORSDOF 14
