REMARK SMILES Cc1cccc2c1[C@H]1c3c(C)cccc3[C@H](CC(=O)OCCOC(=O)c3ccc(-c4c5nc(c(-c6c(F)c(F)c(F)c(F)c6F)c6ccc([nH]6)c(-c6c(F)c(F)c(F)c(F)c6F)c6nc(c(-c7c(F)c(F)c(F)c(F)c7F)c7ccc4[nH]7)C=C6)C=C5)cc3)C[C@H]1CC2
REMARK SMILES IDX 22 1 21 2 20 3 18 4 19 5 17 6 16 7 1 8 2 9 3 10 7 11 4 12
REMARK SMILES IDX 6 13 8 14 5 15 92 16 9 17 90 18 91 19 10 20 15 21 89 22
REMARK SMILES IDX 12 23 11 24 14 25 13 26 23 27 24 28 25 29 26 30 27 31 88 32
REMARK SMILES IDX 28 33 87 34 29 35 30 36 31 37 81 38 32 39 86 40 80 41 82 42
REMARK SMILES IDX 33 43 85 44 79 45 78 46 34 48 66 49 46 50 65 51 47 52 50 53
REMARK SMILES IDX 64 54 83 55 48 56 49 57 63 59 84 60 51 61 35 62 36 63 44 64
REMARK SMILES IDX 37 65 38 66 42 67 45 68 39 69 40 70 43 71 41 72 67 73 68 74
REMARK SMILES IDX 76 75 69 76 70 77 74 78 77 79 71 80 72 81 75 82 73 83 52 84
REMARK SMILES IDX 53 85 61 86 54 87 55 88 59 89 62 90 56 91 57 92 60 93 58 94
REMARK H PARENT 82 47 50 58
REMARK Flexibility Score: inf
ROOT
ATOM      1  C   UNL     1      -8.459  -3.595   1.693  1.00  0.00     0.275 C 
ENDROOT
BRANCH   1   2
ATOM      2  C   UNL     1      -8.036  -2.168   2.046  1.00  0.00     0.274 C 
BRANCH   2   3
ATOM      3  O   UNL     1      -6.622  -2.010   1.826  1.00  0.00    -0.462 OA
BRANCH   3   4
ATOM      4  C   UNL     1      -5.830  -1.861   2.914  1.00  0.00     0.306 C 
ATOM      5  O   UNL     1      -6.240  -1.776   4.067  1.00  0.00    -0.252 OA
BRANCH   4   6
ATOM      6  C   UNL     1      -4.348  -1.892   2.595  1.00  0.00     0.131 C 
BRANCH   6   7
ATOM      7  C   UNL     1      -3.938  -1.919   1.107  1.00  0.00     0.031 C 
ATOM      8  C   UNL     1       1.524  -0.386  -0.189  1.00  0.00     0.044 C 
ATOM      9  C   UNL     1       0.857  -0.730  -1.496  1.00  0.00    -0.047 A 
ATOM     10  C   UNL     1       1.584  -0.524  -2.681  1.00  0.00     0.004 A 
ATOM     11  C   UNL     1      -0.461  -1.249  -1.573  1.00  0.00    -0.034 A 
ATOM     12  C   UNL     1       1.064  -0.904  -3.914  1.00  0.00     0.001 A 
ATOM     13  C   UNL     1      -0.911  -1.774  -2.807  1.00  0.00    -0.044 A 
ATOM     14  C   UNL     1      -1.392  -1.292  -0.363  1.00  0.00     0.053 C 
ATOM     15  C   UNL     1      -0.158  -1.563  -3.972  1.00  0.00     0.004 A 
ATOM     16  C   UNL     1      -2.102  -2.699  -2.902  1.00  0.00     0.036 C 
ATOM     17  C   UNL     1      -2.482  -0.194  -0.204  1.00  0.00    -0.034 A 
ATOM     18  C   UNL     1      -2.013  -2.707  -0.359  1.00  0.00     0.002 C 
ATOM     19  C   UNL     1      -2.882  -2.921  -1.608  1.00  0.00     0.009 C 
ATOM     20  C   UNL     1      -2.370   1.142  -0.689  1.00  0.00    -0.047 A 
ATOM     21  C   UNL     1      -3.654  -0.519   0.553  1.00  0.00    -0.040 A 
ATOM     22  C   UNL     1      -2.769  -2.900   0.947  1.00  0.00     0.013 C 
ATOM     23  C   UNL     1      -3.394   2.080  -0.434  1.00  0.00     0.004 A 
ATOM     24  C   UNL     1      -1.223   1.684  -1.497  1.00  0.00     0.044 C 
ATOM     25  C   UNL     1      -4.662   0.451   0.747  1.00  0.00     0.004 A 
ATOM     26  C   UNL     1      -4.531   1.741   0.273  1.00  0.00     0.001 A 
ENDBRANCH   6   7
ENDBRANCH   4   6
ENDBRANCH   3   4
ENDBRANCH   2   3
ENDBRANCH   1   2
BRANCH   1  27
ATOM     27  O   UNL     1      -7.918  -4.529   2.646  1.00  0.00    -0.458 OA
BRANCH  27  28
ATOM     28  C   UNL     1      -6.727  -5.068   2.306  1.00  0.00     0.338 C 
ATOM     29  O   UNL     1      -6.091  -4.909   1.277  1.00  0.00    -0.246 OA
BRANCH  28  30
ATOM     30  C   UNL     1      -6.209  -5.836   3.441  1.00  0.00     0.060 A 
ATOM     31  C   UNL     1      -5.334  -5.204   4.325  1.00  0.00     0.016 A 
ATOM     32  C   UNL     1      -6.483  -7.198   3.554  1.00  0.00     0.016 A 
ATOM     33  C   UNL     1      -4.669  -5.945   5.292  1.00  0.00     0.010 A 
ATOM     34  C   UNL     1      -5.851  -7.934   4.558  1.00  0.00     0.010 A 
ATOM     35  C   UNL     1      -4.916  -7.318   5.409  1.00  0.00    -0.014 A 
BRANCH  35  36
ATOM     36  C   UNL     1      -4.141  -8.116   6.383  1.00  0.00     0.031 A 
ATOM     37  C   UNL     1      -3.082  -9.056   5.891  1.00  0.00     0.074 A 
ATOM     38  C   UNL     1      -4.361  -7.960   7.700  1.00  0.00     0.049 A 
ATOM     39  N   UNL     1      -2.362  -9.918   6.564  1.00  0.00    -0.248 NA
ATOM     40  C   UNL     1      -2.787  -9.020   4.450  1.00  0.00     0.031 C 
ATOM     41  C   UNL     1      -5.311  -7.016   8.290  1.00  0.00     0.029 A 
ATOM     42  N   UNL     1      -3.794  -8.586   8.780  1.00  0.00    -0.354 N 
ATOM     43  C   UNL     1      -1.546 -10.537   5.628  1.00  0.00     0.074 A 
ATOM     44  C   UNL     1      -1.867  -9.967   4.337  1.00  0.00     0.031 C 
ATOM     45  C   UNL     1      -5.252  -7.117   9.628  1.00  0.00     0.029 A 
ATOM     46  C   UNL     1      -4.306  -8.171   9.983  1.00  0.00     0.049 A 
ATOM     47  H   UNL     1      -3.088  -9.267   8.699  1.00  0.00     0.167 HD
ATOM     48  C   UNL     1      -0.610 -11.492   5.835  1.00  0.00     0.037 A 
ATOM     49  C   UNL     1      -4.061  -8.617  11.229  1.00  0.00     0.037 A 
ATOM     50  C   UNL     1      -0.290 -12.042   7.125  1.00  0.00     0.049 A 
ATOM     51  C   UNL     1      -3.087  -9.744  11.421  1.00  0.00     0.074 A 
ATOM     52  C   UNL     1       0.632 -13.023   7.442  1.00  0.00     0.029 A 
ATOM     53  N   UNL     1      -0.885 -11.649   8.315  1.00  0.00    -0.354 N 
ATOM     54  N   UNL     1      -2.355 -10.364  10.527  1.00  0.00    -0.248 NA
ATOM     55  C   UNL     1      -2.919 -10.248  12.790  1.00  0.00     0.031 C 
ATOM     56  C   UNL     1       0.570 -13.249   8.822  1.00  0.00     0.029 A 
ATOM     57  C   UNL     1      -0.363 -12.383   9.368  1.00  0.00     0.049 A 
ATOM     58  H   UNL     1      -1.575 -10.953   8.399  1.00  0.00     0.167 HD
ATOM     59  C   UNL     1      -1.637 -11.326  11.222  1.00  0.00     0.074 A 
ATOM     60  C   UNL     1      -2.006 -11.195  12.617  1.00  0.00     0.031 C 
ATOM     61  C   UNL     1      -0.756 -12.240  10.747  1.00  0.00     0.037 A 
BRANCH  48  62
ATOM     62  C   UNL     1       0.115 -12.022   4.635  1.00  0.00     0.064 A 
ATOM     63  C   UNL     1       1.111 -11.275   3.989  1.00  0.00     0.173 A 
ATOM     64  C   UNL     1      -0.168 -13.305   4.145  1.00  0.00     0.173 A 
ATOM     65  F   UNL     1       1.404 -10.035   4.410  1.00  0.00    -0.203 F 
ATOM     66  C   UNL     1       1.787 -11.789   2.885  1.00  0.00     0.198 A 
ATOM     67  C   UNL     1       0.525 -13.824   3.055  1.00  0.00     0.198 A 
ATOM     68  F   UNL     1      -1.112 -14.059   4.728  1.00  0.00    -0.203 F 
ATOM     69  F   UNL     1       2.711 -11.045   2.261  1.00  0.00    -0.200 F 
ATOM     70  C   UNL     1       1.499 -13.065   2.423  1.00  0.00     0.200 A 
ATOM     71  F   UNL     1       0.251 -15.060   2.614  1.00  0.00    -0.200 F 
ATOM     72  F   UNL     1       2.155 -13.560   1.365  1.00  0.00    -0.200 F 
ENDBRANCH  48  62
BRANCH  49  73
ATOM     73  C   UNL     1      -4.775  -8.009  12.380  1.00  0.00     0.064 A 
ATOM     74  C   UNL     1      -4.097  -7.200  13.300  1.00  0.00     0.173 A 
ATOM     75  C   UNL     1      -6.152  -8.204  12.568  1.00  0.00     0.173 A 
ATOM     76  F   UNL     1      -2.776  -7.006  13.174  1.00  0.00    -0.203 F 
ATOM     77  C   UNL     1      -4.770  -6.608  14.367  1.00  0.00     0.198 A 
ATOM     78  C   UNL     1      -6.827  -7.592  13.620  1.00  0.00     0.198 A 
ATOM     79  F   UNL     1      -6.844  -8.973  11.714  1.00  0.00    -0.203 F 
ATOM     80  F   UNL     1      -4.094  -5.859  15.248  1.00  0.00    -0.200 F 
ATOM     81  C   UNL     1      -6.135  -6.797  14.521  1.00  0.00     0.200 A 
ATOM     82  F   UNL     1      -8.148  -7.769  13.759  1.00  0.00    -0.200 F 
ATOM     83  F   UNL     1      -6.784  -6.217  15.540  1.00  0.00    -0.200 F 
ENDBRANCH  49  73
BRANCH  61  84
ATOM     84  C   UNL     1      -0.132 -13.169  11.743  1.00  0.00     0.064 A 
ATOM     85  C   UNL     1      -0.851 -14.245  12.282  1.00  0.00     0.173 A 
ATOM     86  C   UNL     1       1.211 -13.017  12.116  1.00  0.00     0.173 A 
ATOM     87  F   UNL     1      -2.142 -14.420  11.965  1.00  0.00    -0.203 F 
ATOM     88  C   UNL     1      -0.249 -15.130  13.171  1.00  0.00     0.198 A 
ATOM     89  C   UNL     1       1.816 -13.918  12.987  1.00  0.00     0.198 A 
ATOM     90  F   UNL     1       1.940 -12.005  11.621  1.00  0.00    -0.203 F 
ATOM     91  F   UNL     1      -0.962 -16.134  13.700  1.00  0.00    -0.200 F 
ATOM     92  C   UNL     1       1.085 -14.971  13.517  1.00  0.00     0.200 A 
ATOM     93  F   UNL     1       3.108 -13.769  13.312  1.00  0.00    -0.200 F 
ATOM     94  F   UNL     1       1.666 -15.831  14.365  1.00  0.00    -0.200 F 
ENDBRANCH  61  84
ENDBRANCH  35  36
ENDBRANCH  28  30
ENDBRANCH  27  28
ENDBRANCH   1  27
TORSDOF 12
