REMARK SMILES C#CCN(CC(=O)OCCOC(=O)c1ccc(-c2c3nc(c(-c4c(F)c(F)c(F)c(F)c4F)c4ccc([nH]4)c(-c4c(F)c(F)c(F)c(F)c4F)c4nc(c(-c5c(F)c(F)c(F)c(F)c5F)c5ccc2[nH]5)C=C4)C=C3)cc1)C(=O)N(C)[C@H](C)c1cccs1
REMARK SMILES IDX 8 1 6 2 7 3 5 4 4 5 3 6 2 7 1 8 77 9 78 10 79 11 80 12 81 13
REMARK SMILES IDX 82 14 83 15 84 16 87 17 85 18 86 19 9 20 10 21 11 22 12 23
REMARK SMILES IDX 13 24 14 25 15 26 76 27 16 28 75 29 17 30 18 31 19 32 69 33
REMARK SMILES IDX 20 34 74 35 68 36 70 37 21 38 73 39 67 40 66 41 22 43 54 44
REMARK SMILES IDX 34 45 53 46 35 47 38 48 52 49 71 50 36 51 37 52 51 54 72 55
REMARK SMILES IDX 39 56 23 57 24 58 32 59 25 60 26 61 30 62 33 63 27 64 28 65
REMARK SMILES IDX 31 66 29 67 55 68 56 69 64 70 57 71 58 72 62 73 65 74 59 75
REMARK SMILES IDX 60 76 63 77 61 78 40 79 41 80 49 81 42 82 43 83 47 84 50 85
REMARK SMILES IDX 44 86 45 87 48 88 46 89
REMARK H PARENT 70 42 38 53
REMARK Flexibility Score: inf
ROOT
ATOM      1  O   UNL     1      -1.165  -7.466   0.199  1.00  0.00    -0.461 OA
ENDROOT
BRANCH   1   2
ATOM      2  C   UNL     1      -2.498  -7.672   0.041  1.00  0.00     0.325 C 
ATOM      3  O   UNL     1      -3.039  -8.775   0.041  1.00  0.00    -0.250 OA
BRANCH   2   4
ATOM      4  C   UNL     1      -3.316  -6.390   0.123  1.00  0.00     0.245 C 
BRANCH   4   5
ATOM      5  N   UNL     1      -2.721  -5.146  -0.343  1.00  0.00    -0.302 N 
BRANCH   5   6
ATOM      6  C   UNL     1      -2.672  -4.955  -1.789  1.00  0.00     0.211 C 
BRANCH   6   7
ATOM      7  C   UNL     1      -3.553  -3.749  -2.072  1.00  0.00    -0.085 C 
ATOM      8  C   UNL     1      -4.309  -2.715  -2.315  1.00  0.00     0.006 C 
ENDBRANCH   6   7
ENDBRANCH   5   6
BRANCH   5   9
ATOM      9  C   UNL     1      -2.150  -4.157   0.448  1.00  0.00     0.321 C 
ATOM     10  O   UNL     1      -1.246  -3.458  -0.015  1.00  0.00    -0.248 OA
BRANCH   9  11
ATOM     11  N   UNL     1      -2.710  -3.899   1.697  1.00  0.00    -0.320 N 
ATOM     12  C   UNL     1      -4.134  -4.103   1.958  1.00  0.00     0.149 C 
BRANCH  11  13
ATOM     13  C   UNL     1      -2.072  -2.945   2.639  1.00  0.00     0.124 C 
ATOM     14  C   UNL     1      -2.242  -1.484   2.206  1.00  0.00     0.037 C 
BRANCH  13  15
ATOM     15  C   UNL     1      -0.633  -3.255   3.002  1.00  0.00     0.027 A 
ATOM     16  C   UNL     1       0.530  -3.018   2.289  1.00  0.00     0.017 A 
ATOM     17  S   UNL     1      -0.257  -3.839   4.581  1.00  0.00    -0.147 S 
ATOM     18  C   UNL     1       1.706  -3.409   2.990  1.00  0.00     0.012 A 
ATOM     19  C   UNL     1       1.416  -3.905   4.238  1.00  0.00     0.065 A 
ENDBRANCH  13  15
ENDBRANCH  11  13
ENDBRANCH   9  11
ENDBRANCH   5   9
ENDBRANCH   4   5
ENDBRANCH   2   4
ENDBRANCH   1   2
BRANCH   1  20
ATOM     20  C   UNL     1      -0.404  -8.642   0.533  1.00  0.00     0.274 C 
BRANCH  20  21
ATOM     21  C   UNL     1      -0.241  -8.796   2.049  1.00  0.00     0.275 C 
BRANCH  21  22
ATOM     22  O   UNL     1      -1.515  -8.770   2.729  1.00  0.00    -0.458 OA
BRANCH  22  23
ATOM     23  C   UNL     1      -1.772  -7.598   3.354  1.00  0.00     0.338 C 
ATOM     24  O   UNL     1      -1.045  -6.622   3.384  1.00  0.00    -0.246 OA
BRANCH  23  25
ATOM     25  C   UNL     1      -3.083  -7.580   4.025  1.00  0.00     0.060 A 
ATOM     26  C   UNL     1      -4.255  -7.824   3.311  1.00  0.00     0.016 A 
ATOM     27  C   UNL     1      -3.147  -7.112   5.341  1.00  0.00     0.016 A 
ATOM     28  C   UNL     1      -5.487  -7.503   3.883  1.00  0.00     0.010 A 
ATOM     29  C   UNL     1      -4.387  -6.892   5.947  1.00  0.00     0.010 A 
ATOM     30  C   UNL     1      -5.572  -7.053   5.214  1.00  0.00    -0.014 A 
BRANCH  30  31
ATOM     31  C   UNL     1      -6.898  -6.795   5.840  1.00  0.00     0.031 A 
ATOM     32  C   UNL     1      -7.274  -5.432   6.359  1.00  0.00     0.074 A 
ATOM     33  C   UNL     1      -7.781  -7.808   5.941  1.00  0.00     0.049 A 
ATOM     34  N   UNL     1      -8.348  -5.069   7.018  1.00  0.00    -0.248 NA
ATOM     35  C   UNL     1      -6.327  -4.334   6.112  1.00  0.00     0.031 C 
ATOM     36  C   UNL     1      -7.551  -9.177   5.479  1.00  0.00     0.029 A 
ATOM     37  N   UNL     1      -9.055  -7.840   6.451  1.00  0.00    -0.354 N 
ATOM     38  C   UNL     1      -8.189  -3.718   7.299  1.00  0.00     0.074 A 
ATOM     39  C   UNL     1      -6.917  -3.319   6.733  1.00  0.00     0.031 C 
ATOM     40  C   UNL     1      -8.662  -9.900   5.671  1.00  0.00     0.029 A 
ATOM     41  C   UNL     1      -9.657  -9.069   6.339  1.00  0.00     0.049 A 
ATOM     42  H   UNL     1      -9.494  -7.059   6.858  1.00  0.00     0.167 HD
ATOM     43  C   UNL     1      -9.026  -2.890   7.970  1.00  0.00     0.037 A 
ATOM     44  C   UNL     1     -10.865  -9.495   6.750  1.00  0.00     0.037 A 
ATOM     45  C   UNL     1     -10.310  -3.270   8.501  1.00  0.00     0.049 A 
ATOM     46  C   UNL     1     -11.767  -8.561   7.494  1.00  0.00     0.074 A 
ATOM     47  C   UNL     1     -11.231  -2.486   9.178  1.00  0.00     0.029 A 
ATOM     48  N   UNL     1     -10.861  -4.537   8.405  1.00  0.00    -0.354 N 
ATOM     49  N   UNL     1     -11.577  -7.302   7.798  1.00  0.00    -0.248 NA
ATOM     50  C   UNL     1     -13.039  -9.115   7.978  1.00  0.00     0.031 C 
ATOM     51  C   UNL     1     -12.332  -3.286   9.507  1.00  0.00     0.029 A 
ATOM     52  C   UNL     1     -12.105  -4.560   9.016  1.00  0.00     0.049 A 
ATOM     53  H   UNL     1     -10.433  -5.308   7.966  1.00  0.00     0.167 HD
ATOM     54  C   UNL     1     -12.692  -6.916   8.525  1.00  0.00     0.074 A 
ATOM     55  C   UNL     1     -13.570  -8.066   8.591  1.00  0.00     0.031 C 
ATOM     56  C   UNL     1     -12.955  -5.717   9.096  1.00  0.00     0.037 A 
BRANCH  43  57
ATOM     57  C   UNL     1      -8.581  -1.476   8.191  1.00  0.00     0.064 A 
ATOM     58  C   UNL     1      -8.705  -0.505   7.189  1.00  0.00     0.173 A 
ATOM     59  C   UNL     1      -8.106  -1.073   9.448  1.00  0.00     0.173 A 
ATOM     60  F   UNL     1      -9.146  -0.847   5.969  1.00  0.00    -0.203 F 
ATOM     61  C   UNL     1      -8.367   0.823   7.436  1.00  0.00     0.198 A 
ATOM     62  C   UNL     1      -7.781   0.258   9.696  1.00  0.00     0.198 A 
ATOM     63  F   UNL     1      -7.976  -1.966  10.440  1.00  0.00    -0.203 F 
ATOM     64  F   UNL     1      -8.481   1.735   6.462  1.00  0.00    -0.200 F 
ATOM     65  C   UNL     1      -7.912   1.205   8.691  1.00  0.00     0.200 A 
ATOM     66  F   UNL     1      -7.350   0.627  10.910  1.00  0.00    -0.200 F 
ATOM     67  F   UNL     1      -7.600   2.486   8.931  1.00  0.00    -0.200 F 
ENDBRANCH  43  57
BRANCH  44  68
ATOM     68  C   UNL     1     -11.264 -10.896   6.480  1.00  0.00     0.064 A 
ATOM     69  C   UNL     1     -12.178 -11.195   5.462  1.00  0.00     0.173 A 
ATOM     70  C   UNL     1     -10.696 -11.962   7.192  1.00  0.00     0.173 A 
ATOM     71  F   UNL     1     -12.757 -10.203   4.770  1.00  0.00    -0.203 F 
ATOM     72  C   UNL     1     -12.504 -12.514   5.160  1.00  0.00     0.198 A 
ATOM     73  C   UNL     1     -11.009 -13.280   6.876  1.00  0.00     0.198 A 
ATOM     74  F   UNL     1      -9.814 -11.718   8.172  1.00  0.00    -0.203 F 
ATOM     75  F   UNL     1     -13.389 -12.778   4.189  1.00  0.00    -0.200 F 
ATOM     76  C   UNL     1     -11.912 -13.556   5.861  1.00  0.00     0.200 A 
ATOM     77  F   UNL     1     -10.425 -14.284   7.546  1.00  0.00    -0.200 F 
ATOM     78  F   UNL     1     -12.212 -14.826   5.556  1.00  0.00    -0.200 F 
ENDBRANCH  44  68
BRANCH  56  79
ATOM     79  C   UNL     1     -14.236  -5.603   9.861  1.00  0.00     0.064 A 
ATOM     80  C   UNL     1     -14.342  -6.103  11.166  1.00  0.00     0.173 A 
ATOM     81  C   UNL     1     -15.358  -4.986   9.293  1.00  0.00     0.173 A 
ATOM     82  F   UNL     1     -13.296  -6.717  11.740  1.00  0.00    -0.203 F 
ATOM     83  C   UNL     1     -15.536  -6.002  11.873  1.00  0.00     0.198 A 
ATOM     84  C   UNL     1     -16.547  -4.875  10.007  1.00  0.00     0.198 A 
ATOM     85  F   UNL     1     -15.301  -4.497   8.045  1.00  0.00    -0.203 F 
ATOM     86  F   UNL     1     -15.628  -6.515  13.107  1.00  0.00    -0.200 F 
ATOM     87  C   UNL     1     -16.637  -5.387  11.294  1.00  0.00     0.200 A 
ATOM     88  F   UNL     1     -17.611  -4.282   9.447  1.00  0.00    -0.200 F 
ATOM     89  F   UNL     1     -17.789  -5.297  11.973  1.00  0.00    -0.200 F 
ENDBRANCH  56  79
ENDBRANCH  30  31
ENDBRANCH  23  25
ENDBRANCH  22  23
ENDBRANCH  21  22
ENDBRANCH  20  21
ENDBRANCH   1  20
TORSDOF 18
