REMARK SMILES CC(=O)N1C[C@@H]2C[N@H+](CC(=O)NCc3ccccc3)C[C@]2(C(=O)OCCOC(=O)c2ccc(-c3c4nc(c(-c5c(F)c(F)c(F)c(F)c5F)c5ccc([nH]5)c(-c5c(F)c(F)c(F)c(F)c5F)c5nc(c(-c6c(F)c(F)c(F)c(F)c6F)c6ccc3[nH]6)C=C5)C=C4)cc2)C1
REMARK SMILES IDX 25 1 24 2 22 3 23 4 21 5 4 6 5 7 93 8 6 9 7 10 20 11 8 12
REMARK SMILES IDX 2 14 1 15 3 16 9 17 10 18 11 19 12 20 13 22 14 23 15 24
REMARK SMILES IDX 19 25 16 26 18 27 17 28 26 29 27 30 28 31 29 32 30 33 31 34
REMARK SMILES IDX 92 35 32 36 91 37 33 38 34 39 35 40 85 41 36 42 90 43 84 44
REMARK SMILES IDX 86 45 37 46 89 47 83 48 82 49 38 51 70 52 50 53 69 54 51 55
REMARK SMILES IDX 54 56 68 57 87 58 52 59 53 60 67 62 88 63 55 64 39 65 40 66
REMARK SMILES IDX 48 67 41 68 42 69 46 70 49 71 43 72 44 73 47 74 45 75 71 76
REMARK SMILES IDX 72 77 80 78 73 79 74 80 78 81 81 82 75 83 76 84 79 85 77 86
REMARK SMILES IDX 56 87 57 88 65 89 58 90 59 91 63 92 66 93 60 94 61 95 64 96
REMARK SMILES IDX 62 97
REMARK H PARENT 8 13 12 21 86 50 54 61
REMARK Flexibility Score: inf
ROOT
ATOM      1  C   UNL     1       5.633   3.689   3.752  1.00  0.00     0.274 C 
ENDROOT
BRANCH   1   2
ATOM      2  O   UNL     1       4.401   3.550   4.513  1.00  0.00    -0.461 OA
BRANCH   2   3
ATOM      3  C   UNL     1       3.446   2.689   4.022  1.00  0.00     0.320 C 
ATOM      4  O   UNL     1       3.817   1.676   3.432  1.00  0.00    -0.251 OA
BRANCH   3   5
ATOM      5  C   UNL     1       1.941   3.248   3.959  1.00  0.00     0.144 C 
ATOM      6  N   UNL     1      -0.004   2.240   2.745  1.00  0.00    -0.341 N 
ATOM      7  C   UNL     1      -0.555   3.247   3.567  1.00  0.00     0.130 C 
ATOM      8  C   UNL     1       1.360   2.046   3.122  1.00  0.00     0.144 C 
ATOM      9  C   UNL     1       0.532   3.546   4.643  1.00  0.00     0.089 C 
ATOM     10  C   UNL     1       0.308   5.060   4.875  1.00  0.00     0.269 C 
ATOM     11  C   UNL     1       2.379   4.715   3.991  1.00  0.00     0.284 C 
ATOM     12  N   UNL     1       1.365   5.699   4.138  1.00  0.00    -0.326 N 
ATOM     13  H   UNL     1       1.532   6.516   4.725  1.00  0.00     0.348 HD
BRANCH   6  14
ATOM     14  C   UNL     1      -0.752   1.642   1.759  1.00  0.00     0.219 C 
ATOM     15  C   UNL     1      -0.252   0.361   1.142  1.00  0.00     0.114 C 
ATOM     16  O   UNL     1      -1.825   2.113   1.378  1.00  0.00    -0.275 OA
ENDBRANCH   6  14
BRANCH  12  17
ATOM     17  C   UNL     1       1.235   6.568   2.982  1.00  0.00     0.363 C 
BRANCH  17  18
ATOM     18  C   UNL     1       0.781   5.887   1.695  1.00  0.00     0.275 C 
ATOM     19  O   UNL     1      -0.404   5.976   1.356  1.00  0.00    -0.268 OA
ATOM     20  N   UNL     1       1.595   5.173   0.864  1.00  0.00    -0.347 N 
ATOM     21  H   UNL     1       1.082   4.627   0.226  1.00  0.00     0.164 HD
BRANCH  20  22
ATOM     22  C   UNL     1       3.040   5.016   0.684  1.00  0.00     0.151 C 
BRANCH  22  23
ATOM     23  C   UNL     1       3.492   3.594   0.363  1.00  0.00    -0.029 A 
ATOM     24  C   UNL     1       2.603   2.531   0.169  1.00  0.00     0.005 A 
ATOM     25  C   UNL     1       4.863   3.295   0.265  1.00  0.00     0.005 A 
ATOM     26  C   UNL     1       3.059   1.208   0.035  1.00  0.00     0.000 A 
ATOM     27  C   UNL     1       5.320   1.973   0.122  1.00  0.00     0.000 A 
ATOM     28  C   UNL     1       4.415   0.923   0.046  1.00  0.00     0.000 A 
ENDBRANCH  22  23
ENDBRANCH  20  22
ENDBRANCH  17  18
ENDBRANCH  12  17
ENDBRANCH   3   5
ENDBRANCH   2   3
ENDBRANCH   1   2
BRANCH   1  29
ATOM     29  C   UNL     1       6.863   3.169   4.490  1.00  0.00     0.275 C 
BRANCH  29  30
ATOM     30  O   UNL     1       6.708   1.773   4.761  1.00  0.00    -0.458 OA
BRANCH  30  31
ATOM     31  C   UNL     1       5.917   1.530   5.836  1.00  0.00     0.338 C 
ATOM     32  O   UNL     1       5.566   2.315   6.695  1.00  0.00    -0.246 OA
BRANCH  31  33
ATOM     33  C   UNL     1       5.325   0.198   5.683  1.00  0.00     0.060 A 
ATOM     34  C   UNL     1       3.927   0.108   5.698  1.00  0.00     0.016 A 
ATOM     35  C   UNL     1       6.121  -0.937   5.563  1.00  0.00     0.016 A 
ATOM     36  C   UNL     1       3.302  -1.111   5.540  1.00  0.00     0.010 A 
ATOM     37  C   UNL     1       5.498  -2.180   5.523  1.00  0.00     0.010 A 
ATOM     38  C   UNL     1       4.093  -2.259   5.538  1.00  0.00    -0.014 A 
BRANCH  38  39
ATOM     39  C   UNL     1       3.426  -3.517   5.891  1.00  0.00     0.031 A 
ATOM     40  C   UNL     1       3.350  -3.860   7.348  1.00  0.00     0.074 A 
ATOM     41  C   UNL     1       2.827  -4.261   4.952  1.00  0.00     0.049 A 
ATOM     42  N   UNL     1       2.903  -4.940   7.926  1.00  0.00    -0.248 NA
ATOM     43  C   UNL     1       3.841  -2.832   8.284  1.00  0.00     0.031 C 
ATOM     44  C   UNL     1       2.738  -3.922   3.534  1.00  0.00     0.029 A 
ATOM     45  N   UNL     1       2.179  -5.459   5.063  1.00  0.00    -0.354 N 
ATOM     46  C   UNL     1       3.083  -4.733   9.286  1.00  0.00     0.074 A 
ATOM     47  C   UNL     1       3.681  -3.429   9.452  1.00  0.00     0.031 C 
ATOM     48  C   UNL     1       2.091  -4.912   2.896  1.00  0.00     0.029 A 
ATOM     49  C   UNL     1       1.772  -5.965   3.857  1.00  0.00     0.049 A 
ATOM     50  H   UNL     1       2.019  -5.912   5.923  1.00  0.00     0.167 HD
ATOM     51  C   UNL     1       2.783  -5.573  10.302  1.00  0.00     0.037 A 
ATOM     52  C   UNL     1       1.247  -7.171   3.575  1.00  0.00     0.037 A 
ATOM     53  C   UNL     1       2.203  -6.872  10.100  1.00  0.00     0.049 A 
ATOM     54  C   UNL     1       1.017  -8.134   4.711  1.00  0.00     0.074 A 
ATOM     55  C   UNL     1       1.895  -7.838  11.037  1.00  0.00     0.029 A 
ATOM     56  N   UNL     1       1.850  -7.384   8.857  1.00  0.00    -0.354 N 
ATOM     57  N   UNL     1       1.240  -7.973   5.995  1.00  0.00    -0.248 NA
ATOM     58  C   UNL     1       0.467  -9.448   4.359  1.00  0.00     0.031 C 
ATOM     59  C   UNL     1       1.405  -8.958  10.354  1.00  0.00     0.029 A 
ATOM     60  C   UNL     1       1.343  -8.664   9.000  1.00  0.00     0.049 A 
ATOM     61  H   UNL     1       1.946  -6.907   8.002  1.00  0.00     0.167 HD
ATOM     62  C   UNL     1       0.829  -9.148   6.609  1.00  0.00     0.074 A 
ATOM     63  C   UNL     1       0.335 -10.010   5.553  1.00  0.00     0.031 C 
ATOM     64  C   UNL     1       0.852  -9.488   7.923  1.00  0.00     0.037 A 
BRANCH  51  65
ATOM     65  C   UNL     1       3.162  -5.132  11.685  1.00  0.00     0.064 A 
ATOM     66  C   UNL     1       2.519  -4.066  12.334  1.00  0.00     0.173 A 
ATOM     67  C   UNL     1       4.222  -5.762  12.356  1.00  0.00     0.173 A 
ATOM     68  F   UNL     1       1.521  -3.408  11.725  1.00  0.00    -0.203 F 
ATOM     69  C   UNL     1       2.949  -3.623  13.583  1.00  0.00     0.198 A 
ATOM     70  C   UNL     1       4.626  -5.338  13.618  1.00  0.00     0.198 A 
ATOM     71  F   UNL     1       4.878  -6.780  11.778  1.00  0.00    -0.203 F 
ATOM     72  F   UNL     1       2.368  -2.556  14.150  1.00  0.00    -0.200 F 
ATOM     73  C   UNL     1       3.999  -4.262  14.226  1.00  0.00     0.200 A 
ATOM     74  F   UNL     1       5.637  -5.962  14.240  1.00  0.00    -0.200 F 
ATOM     75  F   UNL     1       4.416  -3.830  15.424  1.00  0.00    -0.200 F 
ENDBRANCH  51  65
BRANCH  52  76
ATOM     76  C   UNL     1       0.947  -7.536   2.168  1.00  0.00     0.064 A 
ATOM     77  C   UNL     1      -0.371  -7.731   1.734  1.00  0.00     0.173 A 
ATOM     78  C   UNL     1       1.974  -7.694   1.225  1.00  0.00     0.173 A 
ATOM     79  F   UNL     1      -1.386  -7.613   2.602  1.00  0.00    -0.203 F 
ATOM     80  C   UNL     1      -0.648  -8.084   0.414  1.00  0.00     0.198 A 
ATOM     81  C   UNL     1       1.694  -8.016  -0.101  1.00  0.00     0.198 A 
ATOM     82  F   UNL     1       3.253  -7.518   1.588  1.00  0.00    -0.203 F 
ATOM     83  F   UNL     1      -1.914  -8.306   0.035  1.00  0.00    -0.200 F 
ATOM     84  C   UNL     1       0.383  -8.219  -0.503  1.00  0.00     0.200 A 
ATOM     85  F   UNL     1       2.693  -8.130  -0.986  1.00  0.00    -0.200 F 
ATOM     86  F   UNL     1       0.115  -8.550  -1.774  1.00  0.00    -0.200 F 
ENDBRANCH  52  76
BRANCH  64  87
ATOM     87  C   UNL     1       0.275 -10.824   8.291  1.00  0.00     0.064 A 
ATOM     88  C   UNL     1       0.919 -12.027   7.966  1.00  0.00     0.173 A 
ATOM     89  C   UNL     1      -0.924 -10.895   9.018  1.00  0.00     0.173 A 
ATOM     90  F   UNL     1       2.061 -12.013   7.262  1.00  0.00    -0.203 F 
ATOM     91  C   UNL     1       0.364 -13.252   8.324  1.00  0.00     0.198 A 
ATOM     92  C   UNL     1      -1.456 -12.120   9.406  1.00  0.00     0.198 A 
ATOM     93  F   UNL     1      -1.573  -9.772   9.363  1.00  0.00    -0.203 F 
ATOM     94  F   UNL     1       0.966 -14.391   7.953  1.00  0.00    -0.200 F 
ATOM     95  C   UNL     1      -0.817 -13.297   9.050  1.00  0.00     0.200 A 
ATOM     96  F   UNL     1      -2.587 -12.160  10.123  1.00  0.00    -0.200 F 
ATOM     97  F   UNL     1      -1.345 -14.478   9.400  1.00  0.00    -0.200 F 
ENDBRANCH  64  87
ENDBRANCH  38  39
ENDBRANCH  31  33
ENDBRANCH  30  31
ENDBRANCH  29  30
ENDBRANCH   1  29
TORSDOF 16
