REMARK SMILES NC(=O)C1CC[NH+](CC[C@H]2CN(C(=O)c3ccccc3)CC[C@H]2CC(=O)OCCOC(=O)c2ccc(-c3c4nc(c(-c5c(F)c(F)c(F)c(F)c5F)c5ccc([nH]5)c(-c5c(F)c(F)c(F)c(F)c5F)c5nc(c(-c6c(F)c(F)c(F)c(F)c6F)c6ccc3[nH]6)C=C5)C=C4)cc2)CC1
REMARK SMILES IDX 27 1 25 2 26 3 24 4 23 5 10 6 11 7 12 8 22 9 21 10 9 11 8 12
REMARK SMILES IDX 7 13 4 14 5 15 97 16 6 17 96 18 2 20 1 21 3 24 13 25 14 26
REMARK SMILES IDX 15 27 16 28 20 29 17 30 19 31 18 32 28 33 29 34 30 35 31 36
REMARK SMILES IDX 32 37 33 38 34 39 95 40 35 41 94 42 36 43 37 44 38 45 88 46
REMARK SMILES IDX 39 47 93 48 87 49 89 50 40 51 92 52 86 53 85 54 41 56 73 57
REMARK SMILES IDX 53 58 72 59 54 60 57 61 71 62 90 63 55 64 56 65 70 67 91 68
REMARK SMILES IDX 58 69 42 70 43 71 51 72 44 73 45 74 49 75 52 76 46 77 47 78
REMARK SMILES IDX 50 79 48 80 74 81 75 82 83 83 76 84 77 85 81 86 84 87 78 88
REMARK SMILES IDX 79 89 82 90 80 91 59 92 60 93 68 94 61 95 62 96 66 97 69 98
REMARK SMILES IDX 63 99 64 100 67 101 65 102
REMARK H PARENT 7 19 1 22 1 23 89 55 57 66
REMARK Flexibility Score: inf
ROOT
ATOM      1  O   UNL     1      -1.444  -1.243  -2.172  1.00  0.00    -0.462 OA
ENDROOT
BRANCH   1   2
ATOM      2  C   UNL     1      -1.909  -1.276  -3.441  1.00  0.00     0.306 C 
ATOM      3  O   UNL     1      -3.063  -1.550  -3.754  1.00  0.00    -0.252 OA
BRANCH   2   4
ATOM      4  C   UNL     1      -0.864  -0.973  -4.498  1.00  0.00     0.126 C 
BRANCH   4   5
ATOM      5  C   UNL     1       0.378  -0.128  -4.136  1.00  0.00     0.007 C 
ATOM      6  C   UNL     1       1.390  -0.816  -3.161  1.00  0.00     0.018 C 
ATOM      7  C   UNL     1       2.669   0.039  -3.074  1.00  0.00     0.124 C 
ATOM      8  N   UNL     1       3.250   0.252  -4.383  1.00  0.00    -0.338 N 
ATOM      9  C   UNL     1       1.059   0.301  -5.467  1.00  0.00     0.026 C 
ATOM     10  C   UNL     1       2.404   1.004  -5.295  1.00  0.00     0.120 C 
BRANCH   6  11
ATOM     11  C   UNL     1       1.642  -2.301  -3.518  1.00  0.00     0.067 C 
BRANCH  11  12
ATOM     12  C   UNL     1       2.615  -3.137  -2.659  1.00  0.00     0.262 C 
BRANCH  12  13
ATOM     13  N   UNL     1       2.402  -3.262  -1.207  1.00  0.00    -0.335 N 
ATOM     14  C   UNL     1       1.399  -2.535   1.462  1.00  0.00     0.089 C 
ATOM     15  C   UNL     1       2.844  -2.272   1.047  1.00  0.00     0.075 C 
ATOM     16  C   UNL     1       0.861  -3.741   0.680  1.00  0.00     0.075 C 
ATOM     17  C   UNL     1       2.997  -2.157  -0.466  1.00  0.00     0.263 C 
ATOM     18  C   UNL     1       1.023  -3.563  -0.832  1.00  0.00     0.263 C 
ATOM     19  H   UNL     1       2.914  -4.096  -0.918  1.00  0.00     0.348 HD
BRANCH  14  20
ATOM     20  C   UNL     1       0.414  -1.368   1.368  1.00  0.00     0.220 C 
ATOM     21  N   UNL     1       0.834  -0.171   0.882  1.00  0.00    -0.369 N 
ATOM     22  H   UNL     1       0.205   0.583   0.819  1.00  0.00     0.159 HD
ATOM     23  H   UNL     1       1.769  -0.058   0.593  1.00  0.00     0.159 HD
ATOM     24  O   UNL     1      -0.759  -1.491   1.719  1.00  0.00    -0.275 OA
ENDBRANCH  14  20
ENDBRANCH  12  13
ENDBRANCH  11  12
ENDBRANCH   6  11
BRANCH   8  25
ATOM     25  C   UNL     1       4.461  -0.366  -4.674  1.00  0.00     0.253 C 
ATOM     26  O   UNL     1       5.081  -1.066  -3.876  1.00  0.00    -0.269 OA
BRANCH  25  27
ATOM     27  C   UNL     1       5.052  -0.221  -6.011  1.00  0.00     0.040 A 
ATOM     28  C   UNL     1       5.185  -1.363  -6.806  1.00  0.00     0.014 A 
ATOM     29  C   UNL     1       5.581   1.005  -6.420  1.00  0.00     0.014 A 
ATOM     30  C   UNL     1       5.825  -1.268  -8.040  1.00  0.00     0.001 A 
ATOM     31  C   UNL     1       6.221   1.093  -7.655  1.00  0.00     0.001 A 
ATOM     32  C   UNL     1       6.340  -0.041  -8.463  1.00  0.00     0.000 A 
ENDBRANCH  25  27
ENDBRANCH   8  25
ENDBRANCH   4   5
ENDBRANCH   2   4
ENDBRANCH   1   2
BRANCH   1  33
ATOM     33  C   UNL     1      -2.391  -1.562  -1.127  1.00  0.00     0.274 C 
BRANCH  33  34
ATOM     34  C   UNL     1      -2.771  -0.324  -0.317  1.00  0.00     0.275 C 
BRANCH  34  35
ATOM     35  O   UNL     1      -3.387   0.661  -1.157  1.00  0.00    -0.458 OA
BRANCH  35  36
ATOM     36  C   UNL     1      -2.543   1.590  -1.666  1.00  0.00     0.338 C 
ATOM     37  O   UNL     1      -1.356   1.741  -1.456  1.00  0.00    -0.246 OA
BRANCH  36  38
ATOM     38  C   UNL     1      -3.309   2.344  -2.661  1.00  0.00     0.060 A 
ATOM     39  C   UNL     1      -3.213   1.964  -4.000  1.00  0.00     0.016 A 
ATOM     40  C   UNL     1      -4.144   3.384  -2.264  1.00  0.00     0.016 A 
ATOM     41  C   UNL     1      -3.979   2.606  -4.960  1.00  0.00     0.010 A 
ATOM     42  C   UNL     1      -4.931   4.015  -3.225  1.00  0.00     0.010 A 
ATOM     43  C   UNL     1      -4.861   3.618  -4.573  1.00  0.00    -0.014 A 
BRANCH  43  44
ATOM     44  C   UNL     1      -5.731   4.257  -5.581  1.00  0.00     0.031 A 
ATOM     45  C   UNL     1      -5.487   5.680  -5.969  1.00  0.00     0.074 A 
ATOM     46  C   UNL     1      -6.743   3.550  -6.115  1.00  0.00     0.049 A 
ATOM     47  N   UNL     1      -6.211   6.468  -6.719  1.00  0.00    -0.248 NA
ATOM     48  C   UNL     1      -4.268   6.305  -5.433  1.00  0.00     0.031 C 
ATOM     49  C   UNL     1      -7.034   2.144  -5.829  1.00  0.00     0.029 A 
ATOM     50  N   UNL     1      -7.722   3.920  -7.000  1.00  0.00    -0.354 N 
ATOM     51  C   UNL     1      -5.550   7.688  -6.726  1.00  0.00     0.074 A 
ATOM     52  C   UNL     1      -4.379   7.544  -5.889  1.00  0.00     0.031 C 
ATOM     53  C   UNL     1      -8.119   1.770  -6.524  1.00  0.00     0.029 A 
ATOM     54  C   UNL     1      -8.636   2.925  -7.249  1.00  0.00     0.049 A 
ATOM     55  H   UNL     1      -7.767   4.811  -7.416  1.00  0.00     0.167 HD
ATOM     56  C   UNL     1      -5.900   8.821  -7.379  1.00  0.00     0.037 A 
ATOM     57  C   UNL     1      -9.784   2.960  -7.950  1.00  0.00     0.037 A 
ATOM     58  C   UNL     1      -7.071   8.935  -8.208  1.00  0.00     0.049 A 
ATOM     59  C   UNL     1     -10.188   4.255  -8.599  1.00  0.00     0.074 A 
ATOM     60  C   UNL     1      -7.514  10.027  -8.931  1.00  0.00     0.029 A 
ATOM     61  N   UNL     1      -7.992   7.916  -8.416  1.00  0.00    -0.354 N 
ATOM     62  N   UNL     1      -9.558   5.406  -8.613  1.00  0.00    -0.248 NA
ATOM     63  C   UNL     1     -11.467   4.262  -9.319  1.00  0.00     0.031 C 
ATOM     64  C   UNL     1      -8.732   9.688  -9.529  1.00  0.00     0.029 A 
ATOM     65  C   UNL     1      -9.019   8.365  -9.230  1.00  0.00     0.049 A 
ATOM     66  H   UNL     1      -7.925   7.009  -8.040  1.00  0.00     0.167 HD
ATOM     67  C   UNL     1     -10.350   6.267  -9.358  1.00  0.00     0.074 A 
ATOM     68  C   UNL     1     -11.498   5.499  -9.797  1.00  0.00     0.031 C 
ATOM     69  C   UNL     1     -10.150   7.576  -9.651  1.00  0.00     0.037 A 
BRANCH  56  70
ATOM     70  C   UNL     1      -5.029  10.028  -7.190  1.00  0.00     0.064 A 
ATOM     71  C   UNL     1      -3.732  10.098  -7.721  1.00  0.00     0.173 A 
ATOM     72  C   UNL     1      -5.507  11.142  -6.482  1.00  0.00     0.173 A 
ATOM     73  F   UNL     1      -3.219   9.055  -8.391  1.00  0.00    -0.203 F 
ATOM     74  C   UNL     1      -2.938  11.226  -7.527  1.00  0.00     0.198 A 
ATOM     75  C   UNL     1      -4.722  12.280  -6.317  1.00  0.00     0.198 A 
ATOM     76  F   UNL     1      -6.740  11.128  -5.952  1.00  0.00    -0.203 F 
ATOM     77  F   UNL     1      -1.683  11.249  -7.999  1.00  0.00    -0.200 F 
ATOM     78  C   UNL     1      -3.436  12.318  -6.832  1.00  0.00     0.200 A 
ATOM     79  F   UNL     1      -5.210  13.338  -5.655  1.00  0.00    -0.200 F 
ATOM     80  F   UNL     1      -2.672  13.405  -6.651  1.00  0.00    -0.200 F 
ENDBRANCH  56  70
BRANCH  57  81
ATOM     81  C   UNL     1     -10.639   1.747  -8.043  1.00  0.00     0.064 A 
ATOM     82  C   UNL     1     -10.827   1.090  -9.266  1.00  0.00     0.173 A 
ATOM     83  C   UNL     1     -11.286   1.220  -6.914  1.00  0.00     0.173 A 
ATOM     84  F   UNL     1     -10.248   1.567 -10.378  1.00  0.00    -0.203 F 
ATOM     85  C   UNL     1     -11.643  -0.036  -9.361  1.00  0.00     0.198 A 
ATOM     86  C   UNL     1     -12.075   0.076  -7.004  1.00  0.00     0.198 A 
ATOM     87  F   UNL     1     -11.140   1.810  -5.719  1.00  0.00    -0.203 F 
ATOM     88  F   UNL     1     -11.844  -0.616 -10.552  1.00  0.00    -0.200 F 
ATOM     89  C   UNL     1     -12.261  -0.546  -8.229  1.00  0.00     0.200 A 
ATOM     90  F   UNL     1     -12.657  -0.422  -5.904  1.00  0.00    -0.200 F 
ATOM     91  F   UNL     1     -13.041  -1.632  -8.320  1.00  0.00    -0.200 F 
ENDBRANCH  57  81
BRANCH  69  92
ATOM     92  C   UNL     1     -11.184   8.249 -10.506  1.00  0.00     0.064 A 
ATOM     93  C   UNL     1     -12.460   8.556 -10.011  1.00  0.00     0.173 A 
ATOM     94  C   UNL     1     -10.878   8.631 -11.821  1.00  0.00     0.173 A 
ATOM     95  F   UNL     1     -12.807   8.196  -8.766  1.00  0.00    -0.203 F 
ATOM     96  C   UNL     1     -13.399   9.202 -10.810  1.00  0.00     0.198 A 
ATOM     97  C   UNL     1     -11.808   9.306 -12.605  1.00  0.00     0.198 A 
ATOM     98  F   UNL     1      -9.669   8.365 -12.338  1.00  0.00    -0.203 F 
ATOM     99  F   UNL     1     -14.629   9.443 -10.334  1.00  0.00    -0.200 F 
ATOM    100  C   UNL     1     -13.069   9.585 -12.102  1.00  0.00     0.200 A 
ATOM    101  F   UNL     1     -11.481   9.690 -13.847  1.00  0.00    -0.200 F 
ATOM    102  F   UNL     1     -13.971  10.217 -12.865  1.00  0.00    -0.200 F 
ENDBRANCH  69  92
ENDBRANCH  43  44
ENDBRANCH  36  38
ENDBRANCH  35  36
ENDBRANCH  34  35
ENDBRANCH  33  34
ENDBRANCH   1  33
TORSDOF 18
