REMARK SMILES COc1cccc([C@@]([NH3+])(C(=O)OCCOC(=O)c2ccc(-c3c4nc(c(-c5c(F)c(F)c(F)c(F)c5F)c5ccc([nH]5)c(-c5c(F)c(F)c(F)c(F)c5F)c5nc(c(-c6c(F)c(F)c(F)c(F)c6F)c6ccc3[nH]6)C=C5)C=C4)cc2)C(F)(F)F)c1
REMARK SMILES IDX 13 1 12 2 10 3 11 4 8 5 7 6 3 7 4 8 85 9 5 10 6 11 2 12 1 13
REMARK SMILES IDX 9 14 81 18 82 19 83 20 84 21 14 22 15 23 16 24 17 25 18 26
REMARK SMILES IDX 19 27 80 28 20 29 79 30 21 31 22 32 23 33 73 34 24 35 78 36
REMARK SMILES IDX 72 37 74 38 25 39 77 40 71 41 70 42 26 44 58 45 38 46 57 47
REMARK SMILES IDX 39 48 42 49 56 50 75 51 40 52 41 53 55 55 76 56 43 57 27 58
REMARK SMILES IDX 28 59 36 60 29 61 30 62 34 63 37 64 31 65 32 66 35 67 33 68
REMARK SMILES IDX 59 69 60 70 68 71 61 72 62 73 66 74 69 75 63 76 64 77 67 78
REMARK SMILES IDX 65 79 44 80 45 81 53 82 46 83 47 84 51 85 54 86 48 87 49 88
REMARK SMILES IDX 52 89 50 90
REMARK H PARENT 9 15 9 16 9 17 74 43 42 54
REMARK Flexibility Score: inf
ROOT
ATOM      1  C   UNL     1       3.627   2.932   6.484  1.00  0.00     0.274 C 
ENDROOT
BRANCH   1   2
ATOM      2  O   UNL     1       3.315   3.086   5.082  1.00  0.00    -0.457 OA
BRANCH   2   3
ATOM      3  C   UNL     1       4.356   3.264   4.218  1.00  0.00     0.383 C 
ATOM      4  O   UNL     1       5.532   3.207   4.568  1.00  0.00    -0.244 OA
BRANCH   3   5
ATOM      5  C   UNL     1       3.916   3.678   2.789  1.00  0.00     0.314 C 
BRANCH   5   6
ATOM      6  C   UNL     1       2.416   3.423   2.501  1.00  0.00     0.037 A 
ATOM      7  C   UNL     1       0.589   2.248   1.360  1.00  0.00     0.119 A 
ATOM      8  C   UNL     1      -0.339   3.078   1.986  1.00  0.00     0.046 A 
ATOM      9  C   UNL     1       1.955   2.421   1.617  1.00  0.00     0.057 A 
ATOM     10  C   UNL     1       0.084   4.059   2.876  1.00  0.00     0.004 A 
ATOM     11  C   UNL     1       1.444   4.231   3.127  1.00  0.00     0.011 A 
BRANCH   7  12
ATOM     12  O   UNL     1       0.047   1.336   0.497  1.00  0.00    -0.497 OA
ATOM     13  C   UNL     1       0.868   0.237   0.119  1.00  0.00     0.278 C 
ENDBRANCH   7  12
ENDBRANCH   5   6
BRANCH   5  14
ATOM     14  N   UNL     1       4.173   5.174   2.677  1.00  0.00    -0.332 N 
ATOM     15  H   UNL     1       3.539   5.676   3.298  1.00  0.00     0.346 HD
ATOM     16  H   UNL     1       4.015   5.475   1.715  1.00  0.00     0.346 HD
ATOM     17  H   UNL     1       5.138   5.375   2.941  1.00  0.00     0.346 HD
ENDBRANCH   5  14
BRANCH   5  18
ATOM     18  C   UNL     1       4.874   2.883   1.847  1.00  0.00     0.460 C 
ATOM     19  F   UNL     1       4.740   1.544   1.952  1.00  0.00    -0.164 F 
ATOM     20  F   UNL     1       4.633   3.200   0.546  1.00  0.00    -0.164 F 
ATOM     21  F   UNL     1       6.179   3.179   2.055  1.00  0.00    -0.164 F 
ENDBRANCH   5  18
ENDBRANCH   3   5
ENDBRANCH   2   3
ENDBRANCH   1   2
BRANCH   1  22
ATOM     22  C   UNL     1       3.212   1.546   6.963  1.00  0.00     0.275 C 
BRANCH  22  23
ATOM     23  O   UNL     1       4.014   0.581   6.266  1.00  0.00    -0.458 OA
BRANCH  23  24
ATOM     24  C   UNL     1       3.345  -0.389   5.603  1.00  0.00     0.338 C 
ATOM     25  O   UNL     1       2.154  -0.632   5.631  1.00  0.00    -0.246 OA
BRANCH  24  26
ATOM     26  C   UNL     1       4.313  -1.136   4.781  1.00  0.00     0.060 A 
ATOM     27  C   UNL     1       5.204  -0.443   3.963  1.00  0.00     0.016 A 
ATOM     28  C   UNL     1       4.288  -2.528   4.768  1.00  0.00     0.016 A 
ATOM     29  C   UNL     1       6.023  -1.134   3.076  1.00  0.00     0.010 A 
ATOM     30  C   UNL     1       5.187  -3.224   3.953  1.00  0.00     0.010 A 
ATOM     31  C   UNL     1       6.052  -2.535   3.083  1.00  0.00    -0.014 A 
BRANCH  31  32
ATOM     32  C   UNL     1       6.983  -3.277   2.189  1.00  0.00     0.031 A 
ATOM     33  C   UNL     1       6.449  -4.278   1.202  1.00  0.00     0.074 A 
ATOM     34  C   UNL     1       8.312  -3.067   2.268  1.00  0.00     0.049 A 
ATOM     35  N   UNL     1       7.095  -5.177   0.502  1.00  0.00    -0.248 NA
ATOM     36  C   UNL     1       4.995  -4.279   0.982  1.00  0.00     0.031 C 
ATOM     37  C   UNL     1       8.968  -2.098   3.148  1.00  0.00     0.029 A 
ATOM     38  N   UNL     1       9.354  -3.658   1.595  1.00  0.00    -0.354 N 
ATOM     39  C   UNL     1       6.125  -5.890  -0.188  1.00  0.00     0.074 A 
ATOM     40  C   UNL     1       4.845  -5.313   0.165  1.00  0.00     0.031 C 
ATOM     41  C   UNL     1      10.291  -2.134   2.937  1.00  0.00     0.029 A 
ATOM     42  C   UNL     1      10.588  -3.194   1.980  1.00  0.00     0.049 A 
ATOM     43  H   UNL     1       9.228  -4.348   0.904  1.00  0.00     0.167 HD
ATOM     44  C   UNL     1       6.291  -6.936  -1.032  1.00  0.00     0.037 A 
ATOM     45  C   UNL     1      11.825  -3.607   1.646  1.00  0.00     0.037 A 
ATOM     46  C   UNL     1       7.569  -7.464  -1.431  1.00  0.00     0.049 A 
ATOM     47  C   UNL     1      11.983  -4.781   0.724  1.00  0.00     0.074 A 
ATOM     48  C   UNL     1       7.840  -8.498  -2.310  1.00  0.00     0.029 A 
ATOM     49  N   UNL     1       8.793  -6.986  -0.987  1.00  0.00    -0.354 N 
ATOM     50  N   UNL     1      11.057  -5.492   0.130  1.00  0.00    -0.248 NA
ATOM     51  C   UNL     1      13.355  -5.229   0.453  1.00  0.00     0.031 C 
ATOM     52  C   UNL     1       9.228  -8.665  -2.377  1.00  0.00     0.029 A 
ATOM     53  C   UNL     1       9.822  -7.714  -1.563  1.00  0.00     0.049 A 
ATOM     54  H   UNL     1       8.913  -6.239  -0.357  1.00  0.00     0.167 HD
ATOM     55  C   UNL     1      11.731  -6.479  -0.575  1.00  0.00     0.074 A 
ATOM     56  C   UNL     1      13.146  -6.255  -0.360  1.00  0.00     0.031 C 
ATOM     57  C   UNL     1      11.222  -7.488  -1.321  1.00  0.00     0.037 A 
BRANCH  44  58
ATOM     58  C   UNL     1       5.060  -7.609  -1.559  1.00  0.00     0.064 A 
ATOM     59  C   UNL     1       4.278  -7.038  -2.572  1.00  0.00     0.173 A 
ATOM     60  C   UNL     1       4.692  -8.875  -1.077  1.00  0.00     0.173 A 
ATOM     61  F   UNL     1       4.580  -5.824  -3.055  1.00  0.00    -0.203 F 
ATOM     62  C   UNL     1       3.162  -7.705  -3.074  1.00  0.00     0.198 A 
ATOM     63  C   UNL     1       3.589  -9.547  -1.595  1.00  0.00     0.198 A 
ATOM     64  F   UNL     1       5.411  -9.464  -0.110  1.00  0.00    -0.203 F 
ATOM     65  F   UNL     1       2.409  -7.128  -4.021  1.00  0.00    -0.200 F 
ATOM     66  C   UNL     1       2.824  -8.961  -2.591  1.00  0.00     0.200 A 
ATOM     67  F   UNL     1       3.269 -10.764  -1.133  1.00  0.00    -0.200 F 
ATOM     68  F   UNL     1       1.756  -9.604  -3.083  1.00  0.00    -0.200 F 
ENDBRANCH  44  58
BRANCH  45  69
ATOM     69  C   UNL     1      13.009  -2.939   2.245  1.00  0.00     0.064 A 
ATOM     70  C   UNL     1      13.852  -2.134   1.470  1.00  0.00     0.173 A 
ATOM     71  C   UNL     1      13.306  -3.075   3.610  1.00  0.00     0.173 A 
ATOM     72  F   UNL     1      13.624  -1.998   0.155  1.00  0.00    -0.203 F 
ATOM     73  C   UNL     1      14.948  -1.488   2.037  1.00  0.00     0.198 A 
ATOM     74  C   UNL     1      14.385  -2.406   4.182  1.00  0.00     0.198 A 
ATOM     75  F   UNL     1      12.530  -3.839   4.394  1.00  0.00    -0.203 F 
ATOM     76  F   UNL     1      15.757  -0.746   1.269  1.00  0.00    -0.200 F 
ATOM     77  C   UNL     1      15.207  -1.616   3.394  1.00  0.00     0.200 A 
ATOM     78  F   UNL     1      14.623  -2.523   5.495  1.00  0.00    -0.200 F 
ATOM     79  F   UNL     1      16.253  -0.983   3.942  1.00  0.00    -0.200 F 
ENDBRANCH  45  69
BRANCH  57  80
ATOM     80  C   UNL     1      12.204  -8.428  -1.949  1.00  0.00     0.064 A 
ATOM     81  C   UNL     1      12.851  -9.413  -1.189  1.00  0.00     0.173 A 
ATOM     82  C   UNL     1      12.483  -8.361  -3.321  1.00  0.00     0.173 A 
ATOM     83  F   UNL     1      12.629  -9.502   0.131  1.00  0.00    -0.203 F 
ATOM     84  C   UNL     1      13.758 -10.288  -1.780  1.00  0.00     0.198 A 
ATOM     85  C   UNL     1      13.375  -9.251  -3.912  1.00  0.00     0.198 A 
ATOM     86  F   UNL     1      11.887  -7.436  -4.088  1.00  0.00    -0.203 F 
ATOM     87  F   UNL     1      14.394 -11.198  -1.030  1.00  0.00    -0.200 F 
ATOM     88  C   UNL     1      14.015 -10.210  -3.141  1.00  0.00     0.200 A 
ATOM     89  F   UNL     1      13.619  -9.178  -5.228  1.00  0.00    -0.200 F 
ATOM     90  F   UNL     1      14.888 -11.054  -3.708  1.00  0.00    -0.200 F 
ENDBRANCH  57  80
ENDBRANCH  31  32
ENDBRANCH  24  26
ENDBRANCH  23  24
ENDBRANCH  22  23
ENDBRANCH   1  22
TORSDOF 15
