REMARK SMILES CCCc1cc(-n2ccc(C(=O)OCCOC(=O)c3ccc(-c4c5nc(c(-c6c(F)c(F)c(F)c(F)c6F)c6ccc([nH]6)c(-c6c(F)c(F)c(F)c(F)c6F)c6nc(c(-c7c(F)c(F)c(F)c(F)c7F)c7ccc4[nH]7)C=C6)C=C5)cc3)n2)nc(-c2ccc(C(F)(F)F)cc2)n1
REMARK SMILES IDX 14 1 13 2 11 3 12 4 10 5 7 6 8 7 82 8 9 9 6 10 4 11 5 12
REMARK SMILES IDX 95 13 84 14 83 15 3 16 2 17 1 18 85 19 86 20 94 21 87 22
REMARK SMILES IDX 93 23 88 24 89 25 90 26 91 27 92 28 15 29 16 30 17 31 18 32
REMARK SMILES IDX 19 33 20 34 81 35 21 36 80 37 22 38 23 39 24 40 74 41 25 42
REMARK SMILES IDX 79 43 73 44 75 45 26 46 78 47 72 48 71 49 27 51 59 52 39 53
REMARK SMILES IDX 58 54 40 55 43 56 57 57 76 58 41 59 42 60 56 62 77 63 44 64
REMARK SMILES IDX 28 65 29 66 37 67 30 68 31 69 35 70 38 71 32 72 33 73 36 74
REMARK SMILES IDX 34 75 60 76 61 77 69 78 62 79 63 80 67 81 70 82 64 83 65 84
REMARK SMILES IDX 68 85 66 86 45 87 46 88 54 89 47 90 48 91 52 92 55 93 49 94
REMARK SMILES IDX 50 95 53 96 51 97
REMARK H PARENT 75 50 43 61
REMARK Flexibility Score: inf
ROOT
ATOM      1  C   UNL     1       0.025   3.261  -7.803  1.00  0.00     0.275 C 
ENDROOT
BRANCH   1   2
ATOM      2  O   UNL     1      -0.261   3.452  -6.409  1.00  0.00    -0.457 OA
BRANCH   2   3
ATOM      3  C   UNL     1      -1.573   3.326  -6.043  1.00  0.00     0.358 C 
ATOM      4  O   UNL     1      -2.503   3.209  -6.839  1.00  0.00    -0.244 OA
BRANCH   3   5
ATOM      5  C   UNL     1      -1.751   3.175  -4.595  1.00  0.00     0.170 A 
ATOM      6  N   UNL     1      -1.347   3.234  -2.491  1.00  0.00    -0.222 N 
ATOM      7  C   UNL     1      -2.402   2.360  -2.637  1.00  0.00     0.118 A 
ATOM      8  N   UNL     1      -0.992   3.797  -3.675  1.00  0.00    -0.159 NA
ATOM      9  C   UNL     1      -2.712   2.337  -3.973  1.00  0.00     0.058 A 
BRANCH   6  10
ATOM     10  C   UNL     1      -0.629   3.518  -1.294  1.00  0.00     0.157 A 
ATOM     11  C   UNL     1       0.375   2.775   0.699  1.00  0.00     0.047 A 
ATOM     12  C   UNL     1      -0.474   2.510  -0.358  1.00  0.00     0.073 A 
ATOM     13  N   UNL     1       0.894   4.008   0.893  1.00  0.00    -0.233 NA
ATOM     14  C   UNL     1       0.601   4.955  -0.019  1.00  0.00     0.161 A 
ATOM     15  N   UNL     1      -0.099   4.747  -1.141  1.00  0.00    -0.209 NA
BRANCH  11  16
ATOM     16  C   UNL     1       0.785   1.730   1.712  1.00  0.00     0.056 C 
BRANCH  16  17
ATOM     17  C   UNL     1       0.453   0.260   1.422  1.00  0.00     0.003 C 
ATOM     18  C   UNL     1       1.210  -0.326   0.236  1.00  0.00     0.004 C 
ENDBRANCH  16  17
ENDBRANCH  11  16
BRANCH  14  19
ATOM     19  C   UNL     1       0.924   6.346   0.310  1.00  0.00     0.019 A 
ATOM     20  C   UNL     1       2.217   6.741   0.681  1.00  0.00     0.012 A 
ATOM     21  C   UNL     1      -0.082   7.329   0.275  1.00  0.00     0.012 A 
ATOM     22  C   UNL     1       2.498   8.078   0.990  1.00  0.00     0.014 A 
ATOM     23  C   UNL     1       0.188   8.660   0.600  1.00  0.00     0.014 A 
ATOM     24  C   UNL     1       1.485   9.050   0.956  1.00  0.00     0.056 A 
BRANCH  24  25
ATOM     25  C   UNL     1       1.798  10.487   1.292  1.00  0.00     0.416 C 
ATOM     26  F   UNL     1       2.329  10.628   2.538  1.00  0.00    -0.166 F 
ATOM     27  F   UNL     1       2.703  11.037   0.436  1.00  0.00    -0.166 F 
ATOM     28  F   UNL     1       0.709  11.306   1.259  1.00  0.00    -0.166 F 
ENDBRANCH  24  25
ENDBRANCH  14  19
ENDBRANCH   6  10
ENDBRANCH   3   5
ENDBRANCH   2   3
ENDBRANCH   1   2
BRANCH   1  29
ATOM     29  C   UNL     1       0.272   1.793  -8.132  1.00  0.00     0.275 C 
BRANCH  29  30
ATOM     30  O   UNL     1      -0.936   1.028  -8.155  1.00  0.00    -0.458 OA
BRANCH  30  31
ATOM     31  C   UNL     1      -1.198   0.325  -7.032  1.00  0.00     0.338 C 
ATOM     32  O   UNL     1      -0.768   0.537  -5.911  1.00  0.00    -0.246 OA
BRANCH  31  33
ATOM     33  C   UNL     1      -1.924  -0.904  -7.390  1.00  0.00     0.060 A 
ATOM     34  C   UNL     1      -2.312  -1.753  -6.349  1.00  0.00     0.016 A 
ATOM     35  C   UNL     1      -2.018  -1.307  -8.730  1.00  0.00     0.016 A 
ATOM     36  C   UNL     1      -2.683  -3.050  -6.650  1.00  0.00     0.010 A 
ATOM     37  C   UNL     1      -2.385  -2.604  -9.029  1.00  0.00     0.010 A 
ATOM     38  C   UNL     1      -2.662  -3.481  -7.985  1.00  0.00    -0.014 A 
BRANCH  38  39
ATOM     39  C   UNL     1      -3.069  -4.847  -8.263  1.00  0.00     0.031 A 
ATOM     40  C   UNL     1      -4.490  -5.125  -7.933  1.00  0.00     0.074 A 
ATOM     41  C   UNL     1      -2.281  -5.754  -8.871  1.00  0.00     0.049 A 
ATOM     42  N   UNL     1      -4.951  -5.987  -7.088  1.00  0.00    -0.248 NA
ATOM     43  C   UNL     1      -5.516  -4.255  -8.529  1.00  0.00     0.031 C 
ATOM     44  C   UNL     1      -0.973  -5.551  -9.497  1.00  0.00     0.029 A 
ATOM     45  N   UNL     1      -2.550  -7.061  -9.140  1.00  0.00    -0.354 N 
ATOM     46  C   UNL     1      -6.336  -5.886  -7.160  1.00  0.00     0.074 A 
ATOM     47  C   UNL     1      -6.625  -4.721  -7.955  1.00  0.00     0.031 C 
ATOM     48  C   UNL     1      -0.673  -6.628 -10.258  1.00  0.00     0.029 A 
ATOM     49  C   UNL     1      -1.701  -7.640 -10.072  1.00  0.00     0.049 A 
ATOM     50  H   UNL     1      -3.285  -7.554  -8.710  1.00  0.00     0.167 HD
ATOM     51  C   UNL     1      -7.137  -6.901  -6.740  1.00  0.00     0.037 A 
ATOM     52  C   UNL     1      -1.878  -8.835 -10.691  1.00  0.00     0.037 A 
ATOM     53  C   UNL     1      -6.450  -7.768  -5.818  1.00  0.00     0.049 A 
ATOM     54  C   UNL     1      -2.832  -9.627  -9.873  1.00  0.00     0.074 A 
ATOM     55  C   UNL     1      -5.836  -7.577  -4.594  1.00  0.00     0.029 A 
ATOM     56  N   UNL     1      -5.992  -8.980  -6.271  1.00  0.00    -0.354 N 
ATOM     57  N   UNL     1      -2.551 -10.115  -8.697  1.00  0.00    -0.248 NA
ATOM     58  C   UNL     1      -4.251  -9.494 -10.172  1.00  0.00     0.031 C 
ATOM     59  C   UNL     1      -4.680  -8.412  -4.627  1.00  0.00     0.029 A 
ATOM     60  C   UNL     1      -4.696  -9.103  -5.838  1.00  0.00     0.049 A 
ATOM     61  H   UNL     1      -6.497  -9.637  -6.803  1.00  0.00     0.167 HD
ATOM     62  C   UNL     1      -3.708  -9.927  -7.957  1.00  0.00     0.074 A 
ATOM     63  C   UNL     1      -4.747  -9.627  -8.939  1.00  0.00     0.031 C 
ATOM     64  C   UNL     1      -3.659  -9.749  -6.605  1.00  0.00     0.037 A 
BRANCH  51  65
ATOM     65  C   UNL     1      -8.404  -7.303  -7.449  1.00  0.00     0.064 A 
ATOM     66  C   UNL     1      -9.241  -8.275  -6.868  1.00  0.00     0.173 A 
ATOM     67  C   UNL     1      -8.665  -7.005  -8.805  1.00  0.00     0.173 A 
ATOM     68  F   UNL     1      -9.066  -8.651  -5.592  1.00  0.00    -0.203 F 
ATOM     69  C   UNL     1     -10.208  -8.954  -7.613  1.00  0.00     0.198 A 
ATOM     70  C   UNL     1      -9.667  -7.646  -9.530  1.00  0.00     0.198 A 
ATOM     71  F   UNL     1      -7.892  -6.175  -9.515  1.00  0.00    -0.203 F 
ATOM     72  F   UNL     1     -10.890  -9.962  -7.053  1.00  0.00    -0.200 F 
ATOM     73  C   UNL     1     -10.415  -8.644  -8.944  1.00  0.00     0.200 A 
ATOM     74  F   UNL     1      -9.837  -7.345 -10.825  1.00  0.00    -0.200 F 
ATOM     75  F   UNL     1     -11.295  -9.338  -9.677  1.00  0.00    -0.200 F 
ENDBRANCH  51  65
BRANCH  52  76
ATOM     76  C   UNL     1      -1.523  -9.216 -12.079  1.00  0.00     0.064 A 
ATOM     77  C   UNL     1      -1.516 -10.561 -12.485  1.00  0.00     0.173 A 
ATOM     78  C   UNL     1      -1.458  -8.255 -13.107  1.00  0.00     0.173 A 
ATOM     79  F   UNL     1      -1.623 -11.541 -11.576  1.00  0.00    -0.203 F 
ATOM     80  C   UNL     1      -1.474 -10.921 -13.837  1.00  0.00     0.198 A 
ATOM     81  C   UNL     1      -1.407  -8.614 -14.454  1.00  0.00     0.198 A 
ATOM     82  F   UNL     1      -1.542  -6.945 -12.832  1.00  0.00    -0.203 F 
ATOM     83  F   UNL     1      -1.536 -12.213 -14.188  1.00  0.00    -0.200 F 
ATOM     84  C   UNL     1      -1.429  -9.947 -14.820  1.00  0.00     0.200 A 
ATOM     85  F   UNL     1      -1.401  -7.660 -15.396  1.00  0.00    -0.200 F 
ATOM     86  F   UNL     1      -1.452 -10.287 -16.116  1.00  0.00    -0.200 F 
ENDBRANCH  52  76
BRANCH  64  87
ATOM     87  C   UNL     1      -2.355 -10.016  -5.906  1.00  0.00     0.064 A 
ATOM     88  C   UNL     1      -1.160  -9.323  -6.174  1.00  0.00     0.173 A 
ATOM     89  C   UNL     1      -2.347 -10.917  -4.833  1.00  0.00     0.173 A 
ATOM     90  F   UNL     1      -1.110  -8.366  -7.109  1.00  0.00    -0.203 F 
ATOM     91  C   UNL     1      -0.002  -9.565  -5.438  1.00  0.00     0.198 A 
ATOM     92  C   UNL     1      -1.200 -11.127  -4.073  1.00  0.00     0.198 A 
ATOM     93  F   UNL     1      -3.472 -11.564  -4.490  1.00  0.00    -0.203 F 
ATOM     94  F   UNL     1       1.129  -8.904  -5.726  1.00  0.00    -0.200 F 
ATOM     95  C   UNL     1      -0.025 -10.462  -4.383  1.00  0.00     0.200 A 
ATOM     96  F   UNL     1      -1.242 -11.956  -3.021  1.00  0.00    -0.200 F 
ATOM     97  F   UNL     1       1.077 -10.666  -3.648  1.00  0.00    -0.200 F 
ENDBRANCH  64  87
ENDBRANCH  38  39
ENDBRANCH  31  33
ENDBRANCH  30  31
ENDBRANCH  29  30
ENDBRANCH   1  29
TORSDOF 16
