REMARK SMILES O=C(OCCOC(=O)c1cc2cnc(Cl)cc2[nH]1)c1ccc(-c2c3nc(c(-c4c(F)c(F)c(F)c(F)c4F)c4ccc([nH]4)c(-c4c(F)c(F)c(F)c(F)c4F)c4nc(c(-c5c(F)c(F)c(F)c(F)c5F)c5ccc2[nH]5)C=C4)C=C3)cc1
REMARK SMILES IDX 4 1 3 2 2 3 1 4 19 5 20 6 81 7 21 8 80 9 22 10 23 11 24 12
REMARK SMILES IDX 74 13 25 14 79 15 73 16 75 17 26 18 78 19 72 20 71 21 27 23
REMARK SMILES IDX 59 24 39 25 58 26 40 27 43 28 57 29 76 30 41 31 42 32 56 34
REMARK SMILES IDX 77 35 44 36 28 37 29 38 37 39 30 40 31 41 35 42 38 43 32 44
REMARK SMILES IDX 33 45 36 46 34 47 60 48 61 49 69 50 62 51 63 52 67 53 70 54
REMARK SMILES IDX 64 55 65 56 68 57 66 58 45 59 46 60 54 61 47 62 48 63 52 64
REMARK SMILES IDX 55 65 49 66 50 67 53 68 51 69 5 70 6 71 7 72 8 73 9 74 10 75
REMARK SMILES IDX 18 76 11 77 17 78 12 80 16 81 13 82 14 83 15 84
REMARK H PARENT 75 22 43 33 18 79
REMARK Flexibility Score: inf
ROOT
ATOM      1  C   UNL     1       3.073  -1.592  -0.181  1.00  0.00     0.275 C 
ENDROOT
BRANCH   1   2
ATOM      2  O   UNL     1       2.842  -0.772   1.001  1.00  0.00    -0.458 OA
BRANCH   2   3
ATOM      3  C   UNL     1       3.418   0.427   1.296  1.00  0.00     0.338 C 
ATOM      4  O   UNL     1       3.016   1.152   2.196  1.00  0.00    -0.246 OA
BRANCH   3   5
ATOM      5  C   UNL     1       4.470   0.888   0.378  1.00  0.00     0.060 A 
ATOM      6  C   UNL     1       4.191   2.033  -0.357  1.00  0.00     0.016 A 
ATOM      7  C   UNL     1       5.558   0.073   0.060  1.00  0.00     0.016 A 
ATOM      8  C   UNL     1       4.785   2.162  -1.596  1.00  0.00     0.010 A 
ATOM      9  C   UNL     1       6.157   0.209  -1.185  1.00  0.00     0.010 A 
ATOM     10  C   UNL     1       5.680   1.182  -2.061  1.00  0.00    -0.014 A 
BRANCH  10  11
ATOM     11  C   UNL     1       6.181   1.346  -3.430  1.00  0.00     0.031 A 
ATOM     12  C   UNL     1       6.744   2.704  -3.667  1.00  0.00     0.074 A 
ATOM     13  C   UNL     1       6.203   0.381  -4.375  1.00  0.00     0.049 A 
ATOM     14  N   UNL     1       6.419   3.573  -4.571  1.00  0.00    -0.248 NA
ATOM     15  C   UNL     1       7.663   3.215  -2.630  1.00  0.00     0.031 C 
ATOM     16  C   UNL     1       5.871  -1.038  -4.221  1.00  0.00     0.029 A 
ATOM     17  N   UNL     1       6.636   0.447  -5.673  1.00  0.00    -0.354 N 
ATOM     18  C   UNL     1       7.226   4.677  -4.311  1.00  0.00     0.074 A 
ATOM     19  C   UNL     1       7.820   4.478  -3.016  1.00  0.00     0.031 C 
ATOM     20  C   UNL     1       6.334  -1.726  -5.288  1.00  0.00     0.029 A 
ATOM     21  C   UNL     1       6.920  -0.794  -6.236  1.00  0.00     0.049 A 
ATOM     22  H   UNL     1       6.737   1.295  -6.163  1.00  0.00     0.167 HD
ATOM     23  C   UNL     1       7.577   5.566  -5.274  1.00  0.00     0.037 A 
ATOM     24  C   UNL     1       7.677  -1.041  -7.336  1.00  0.00     0.037 A 
ATOM     25  C   UNL     1       6.660   5.583  -6.372  1.00  0.00     0.049 A 
ATOM     26  C   UNL     1       7.781   0.222  -8.104  1.00  0.00     0.074 A 
ATOM     27  C   UNL     1       5.329   5.919  -6.520  1.00  0.00     0.029 A 
ATOM     28  N   UNL     1       7.008   4.912  -7.514  1.00  0.00    -0.354 N 
ATOM     29  N   UNL     1       6.804   0.764  -8.771  1.00  0.00    -0.248 NA
ATOM     30  C   UNL     1       8.906   1.099  -7.816  1.00  0.00     0.031 C 
ATOM     31  C   UNL     1       4.832   5.055  -7.537  1.00  0.00     0.029 A 
ATOM     32  C   UNL     1       5.892   4.261  -7.973  1.00  0.00     0.049 A 
ATOM     33  H   UNL     1       7.900   4.899  -7.931  1.00  0.00     0.167 HD
ATOM     34  C   UNL     1       6.990   2.127  -8.614  1.00  0.00     0.074 A 
ATOM     35  C   UNL     1       8.352   2.275  -8.115  1.00  0.00     0.031 C 
ATOM     36  C   UNL     1       5.928   2.980  -8.637  1.00  0.00     0.037 A 
BRANCH  23  37
ATOM     37  C   UNL     1       8.963   6.145  -5.331  1.00  0.00     0.064 A 
ATOM     38  C   UNL     1       9.230   7.284  -6.104  1.00  0.00     0.173 A 
ATOM     39  C   UNL     1      10.096   5.460  -4.831  1.00  0.00     0.173 A 
ATOM     40  F   UNL     1       8.229   7.960  -6.687  1.00  0.00    -0.203 F 
ATOM     41  C   UNL     1      10.539   7.706  -6.355  1.00  0.00     0.198 A 
ATOM     42  C   UNL     1      11.393   5.920  -5.024  1.00  0.00     0.198 A 
ATOM     43  F   UNL     1       9.993   4.265  -4.234  1.00  0.00    -0.203 F 
ATOM     44  F   UNL     1      10.758   8.739  -7.179  1.00  0.00    -0.200 F 
ATOM     45  C   UNL     1      11.618   7.033  -5.804  1.00  0.00     0.200 A 
ATOM     46  F   UNL     1      12.421   5.231  -4.507  1.00  0.00    -0.200 F 
ATOM     47  F   UNL     1      12.872   7.419  -6.069  1.00  0.00    -0.200 F 
ENDBRANCH  23  37
BRANCH  24  48
ATOM     48  C   UNL     1       8.591  -2.186  -7.606  1.00  0.00     0.064 A 
ATOM     49  C   UNL     1       9.143  -2.381  -8.886  1.00  0.00     0.173 A 
ATOM     50  C   UNL     1       9.172  -2.934  -6.564  1.00  0.00     0.173 A 
ATOM     51  F   UNL     1       8.679  -1.686  -9.935  1.00  0.00    -0.203 F 
ATOM     52  C   UNL     1      10.234  -3.232  -9.098  1.00  0.00     0.198 A 
ATOM     53  C   UNL     1      10.251  -3.793  -6.779  1.00  0.00     0.198 A 
ATOM     54  F   UNL     1       8.777  -2.776  -5.293  1.00  0.00    -0.203 F 
ATOM     55  F   UNL     1      10.780  -3.328 -10.319  1.00  0.00    -0.200 F 
ATOM     56  C   UNL     1      10.795  -3.928  -8.041  1.00  0.00     0.200 A 
ATOM     57  F   UNL     1      10.802  -4.436  -5.740  1.00  0.00    -0.200 F 
ATOM     58  F   UNL     1      11.882  -4.689  -8.228  1.00  0.00    -0.200 F 
ENDBRANCH  24  48
BRANCH  36  59
ATOM     59  C   UNL     1       4.625   2.453  -9.167  1.00  0.00     0.064 A 
ATOM     60  C   UNL     1       3.893   1.416  -8.562  1.00  0.00     0.173 A 
ATOM     61  C   UNL     1       4.032   3.120 -10.248  1.00  0.00     0.173 A 
ATOM     62  F   UNL     1       4.351   0.797  -7.466  1.00  0.00    -0.203 F 
ATOM     63  C   UNL     1       2.639   1.044  -9.047  1.00  0.00     0.198 A 
ATOM     64  C   UNL     1       2.764   2.773 -10.703  1.00  0.00     0.198 A 
ATOM     65  F   UNL     1       4.667   4.150 -10.831  1.00  0.00    -0.203 F 
ATOM     66  F   UNL     1       1.962   0.045  -8.463  1.00  0.00    -0.200 F 
ATOM     67  C   UNL     1       2.072   1.730 -10.109  1.00  0.00     0.200 A 
ATOM     68  F   UNL     1       2.200   3.472 -11.698  1.00  0.00    -0.200 F 
ATOM     69  F   UNL     1       0.846   1.407 -10.542  1.00  0.00    -0.200 F 
ENDBRANCH  36  59
ENDBRANCH  10  11
ENDBRANCH   3   5
ENDBRANCH   2   3
ENDBRANCH   1   2
BRANCH   1  70
ATOM     70  C   UNL     1       2.565  -1.032  -1.520  1.00  0.00     0.275 C 
BRANCH  70  71
ATOM     71  O   UNL     1       1.994   0.264  -1.352  1.00  0.00    -0.457 OA
BRANCH  71  72
ATOM     72  C   UNL     1       1.424   0.829  -2.445  1.00  0.00     0.354 C 
ATOM     73  O   UNL     1       1.227   0.271  -3.517  1.00  0.00    -0.244 OA
BRANCH  72  74
ATOM     74  C   UNL     1       1.258   2.230  -2.175  1.00  0.00     0.126 A 
ATOM     75  C   UNL     1       0.638   2.849  -1.103  1.00  0.00     0.045 A 
ATOM     76  N   UNL     1       1.836   3.226  -2.931  1.00  0.00    -0.349 N 
ATOM     77  C   UNL     1       0.985   4.226  -1.125  1.00  0.00     0.019 A 
ATOM     78  C   UNL     1       1.794   4.422  -2.245  1.00  0.00     0.051 A 
ATOM     79  H   UNL     1       2.222   3.103  -3.829  1.00  0.00     0.167 HD
ATOM     80  C   UNL     1       0.744   5.307  -0.268  1.00  0.00     0.123 A 
ATOM     81  C   UNL     1       2.417   5.644  -2.498  1.00  0.00     0.067 A 
ATOM     82  N   UNL     1       1.327   6.509  -0.498  1.00  0.00    -0.244 NA
ATOM     83  C   UNL     1       2.136   6.637  -1.569  1.00  0.00     0.131 A 
ATOM     84  Cl  UNL     1       2.864   8.186  -1.716  1.00  0.00    -0.062 Cl
ENDBRANCH  72  74
ENDBRANCH  71  72
ENDBRANCH  70  71
ENDBRANCH   1  70
TORSDOF 11
