REMARK SMILES Cc1c(C)c2cc(Cl)c(O[C@@H](C)C(=O)OCCOC(=O)c3ccc(-c4c5nc(c(-c6c(F)c(F)c(F)c(F)c6F)c6ccc([nH]6)c(-c6c(F)c(F)c(F)c(F)c6F)c6nc(c(-c7c(F)c(F)c(F)c(F)c7F)c7ccc4[nH]7)C=C6)C=C5)cc3)cc2oc1=O
REMARK SMILES IDX 16 1 15 2 13 3 14 4 11 5 12 6 10 7 9 8 1 9 2 10 3 11 87 12
REMARK SMILES IDX 4 13 5 14 86 15 88 16 6 17 85 18 7 19 84 20 8 21 17 22 18 23
REMARK SMILES IDX 19 24 20 25 21 26 22 27 83 28 23 29 82 30 24 31 25 32 26 33
REMARK SMILES IDX 76 34 27 35 81 36 75 37 77 38 28 39 80 40 74 41 73 42 29 44
REMARK SMILES IDX 61 45 41 46 60 47 42 48 45 49 59 50 78 51 43 52 44 53 58 55
REMARK SMILES IDX 79 56 46 57 30 58 31 59 39 60 32 61 33 62 37 63 40 64 34 65
REMARK SMILES IDX 35 66 38 67 36 68 62 69 63 70 71 71 64 72 65 73 69 74 72 75
REMARK SMILES IDX 66 76 67 77 70 78 68 79 47 80 48 81 56 82 49 83 50 84 54 85
REMARK SMILES IDX 57 86 51 87 52 88 55 89 53 90
REMARK H PARENT 77 43 45 54
REMARK Flexibility Score: inf
ROOT
ATOM      1  C   UNL     1       0.634   4.102   5.898  1.00  0.00     0.274 C 
ENDROOT
BRANCH   1   2
ATOM      2  O   UNL     1       0.049   4.942   4.885  1.00  0.00    -0.459 OA
BRANCH   2   3
ATOM      3  C   UNL     1      -0.765   5.953   5.270  1.00  0.00     0.347 C 
ATOM      4  O   UNL     1      -1.083   6.178   6.434  1.00  0.00    -0.248 OA
BRANCH   3   5
ATOM      5  C   UNL     1      -1.263   6.821   4.083  1.00  0.00     0.279 C 
ATOM      6  C   UNL     1      -2.789   6.795   3.988  1.00  0.00     0.066 C 
BRANCH   5   7
ATOM      7  O   UNL     1      -0.693   6.854   2.784  1.00  0.00    -0.477 OA
BRANCH   7   8
ATOM      8  C   UNL     1      -0.395   5.728   2.079  1.00  0.00     0.142 A 
ATOM      9  C   UNL     1       0.947  -0.287  -0.150  1.00  0.00     0.052 C 
ATOM     10  C   UNL     1       0.518   1.034   0.428  1.00  0.00     0.038 A 
ATOM     11  C   UNL     1       0.905   2.225  -0.078  1.00  0.00    -0.030 A 
ATOM     12  C   UNL     1      -0.369   0.944   1.621  1.00  0.00     0.339 A 
ATOM     13  C   UNL     1       1.762   2.367  -1.309  1.00  0.00     0.046 C 
ATOM     14  C   UNL     1       0.473   3.459   0.602  1.00  0.00     0.023 A 
ATOM     15  O   UNL     1      -0.946   2.120   2.062  1.00  0.00    -0.422 OA
ATOM     16  O   UNL     1      -0.619  -0.121   2.175  1.00  0.00    -0.246 OA
ATOM     17  C   UNL     1       0.955   4.737   0.297  1.00  0.00     0.036 A 
ATOM     18  C   UNL     1      -0.464   3.362   1.624  1.00  0.00     0.142 A 
ATOM     19  C   UNL     1       0.534   5.855   1.034  1.00  0.00     0.083 A 
ATOM     20  C   UNL     1      -0.936   4.473   2.327  1.00  0.00     0.096 A 
ATOM     21  Cl  UNL     1       1.220   7.391   0.625  1.00  0.00    -0.080 Cl
ENDBRANCH   7   8
ENDBRANCH   5   7
ENDBRANCH   3   5
ENDBRANCH   2   3
ENDBRANCH   1   2
BRANCH   1  22
ATOM     22  C   UNL     1       2.142   4.344   5.966  1.00  0.00     0.275 C 
BRANCH  22  23
ATOM     23  O   UNL     1       2.422   5.604   6.599  1.00  0.00    -0.458 OA
BRANCH  23  24
ATOM     24  C   UNL     1       2.404   6.685   5.780  1.00  0.00     0.338 C 
ATOM     25  O   UNL     1       2.279   6.697   4.573  1.00  0.00    -0.246 OA
BRANCH  24  26
ATOM     26  C   UNL     1       2.386   7.901   6.615  1.00  0.00     0.060 A 
ATOM     27  C   UNL     1       3.239   8.039   7.712  1.00  0.00     0.016 A 
ATOM     28  C   UNL     1       1.483   8.917   6.283  1.00  0.00     0.016 A 
ATOM     29  C   UNL     1       3.171   9.193   8.490  1.00  0.00     0.010 A 
ATOM     30  C   UNL     1       1.414  10.069   7.063  1.00  0.00     0.010 A 
ATOM     31  C   UNL     1       2.256  10.211   8.173  1.00  0.00    -0.014 A 
BRANCH  31  32
ATOM     32  C   UNL     1       2.232  11.454   8.974  1.00  0.00     0.031 A 
ATOM     33  C   UNL     1       1.163  11.689   9.995  1.00  0.00     0.074 A 
ATOM     34  C   UNL     1       3.200  12.366   8.771  1.00  0.00     0.049 A 
ATOM     35  N   UNL     1       1.056  12.664  10.862  1.00  0.00    -0.248 NA
ATOM     36  C   UNL     1       0.067  10.711  10.048  1.00  0.00     0.031 C 
ATOM     37  C   UNL     1       4.260  12.251   7.768  1.00  0.00     0.029 A 
ATOM     38  N   UNL     1       3.459  13.555   9.400  1.00  0.00    -0.354 N 
ATOM     39  C   UNL     1      -0.102  12.405  11.580  1.00  0.00     0.074 A 
ATOM     40  C   UNL     1      -0.695  11.212  11.012  1.00  0.00     0.031 C 
ATOM     41  C   UNL     1       5.077  13.311   7.874  1.00  0.00     0.029 A 
ATOM     42  C   UNL     1       4.590  14.181   8.941  1.00  0.00     0.049 A 
ATOM     43  H   UNL     1       2.889  13.924  10.113  1.00  0.00     0.167 HD
ATOM     44  C   UNL     1      -0.605  13.090  12.634  1.00  0.00     0.037 A 
ATOM     45  C   UNL     1       5.178  15.321   9.350  1.00  0.00     0.037 A 
ATOM     46  C   UNL     1      -0.009  14.280  13.183  1.00  0.00     0.049 A 
ATOM     47  C   UNL     1       4.581  16.078  10.503  1.00  0.00     0.074 A 
ATOM     48  C   UNL     1      -0.416  15.023  14.278  1.00  0.00     0.029 A 
ATOM     49  N   UNL     1       1.118  14.908  12.671  1.00  0.00    -0.354 N 
ATOM     50  N   UNL     1       3.535  15.778  11.234  1.00  0.00    -0.248 NA
ATOM     51  C   UNL     1       5.250  17.326  10.894  1.00  0.00     0.031 C 
ATOM     52  C   UNL     1       0.438  16.124  14.401  1.00  0.00     0.029 A 
ATOM     53  C   UNL     1       1.404  16.044  13.411  1.00  0.00     0.049 A 
ATOM     54  H   UNL     1       1.637  14.592  11.896  1.00  0.00     0.167 HD
ATOM     55  C   UNL     1       3.429  16.787  12.180  1.00  0.00     0.074 A 
ATOM     56  C   UNL     1       4.527  17.700  11.942  1.00  0.00     0.031 C 
ATOM     57  C   UNL     1       2.502  16.942  13.156  1.00  0.00     0.037 A 
BRANCH  44  58
ATOM     58  C   UNL     1      -1.849  12.562  13.286  1.00  0.00     0.064 A 
ATOM     59  C   UNL     1      -1.817  11.405  14.077  1.00  0.00     0.173 A 
ATOM     60  C   UNL     1      -3.061  13.261  13.191  1.00  0.00     0.173 A 
ATOM     61  F   UNL     1      -0.682  10.699  14.196  1.00  0.00    -0.203 F 
ATOM     62  C   UNL     1      -2.956  10.959  14.741  1.00  0.00     0.198 A 
ATOM     63  C   UNL     1      -4.193  12.825  13.876  1.00  0.00     0.198 A 
ATOM     64  F   UNL     1      -3.143  14.379  12.455  1.00  0.00    -0.203 F 
ATOM     65  F   UNL     1      -2.908   9.837  15.474  1.00  0.00    -0.200 F 
ATOM     66  C   UNL     1      -4.141  11.674  14.648  1.00  0.00     0.200 A 
ATOM     67  F   UNL     1      -5.333  13.525  13.797  1.00  0.00    -0.200 F 
ATOM     68  F   UNL     1      -5.232  11.254  15.303  1.00  0.00    -0.200 F 
ENDBRANCH  44  58
BRANCH  45  69
ATOM     69  C   UNL     1       6.431  15.772   8.696  1.00  0.00     0.064 A 
ATOM     70  C   UNL     1       7.657  15.693   9.368  1.00  0.00     0.173 A 
ATOM     71  C   UNL     1       6.436  16.255   7.379  1.00  0.00     0.173 A 
ATOM     72  F   UNL     1       7.699  15.252  10.634  1.00  0.00    -0.203 F 
ATOM     73  C   UNL     1       8.842  16.086   8.751  1.00  0.00     0.198 A 
ATOM     74  C   UNL     1       7.624  16.625   6.755  1.00  0.00     0.198 A 
ATOM     75  F   UNL     1       5.287  16.343   6.692  1.00  0.00    -0.203 F 
ATOM     76  F   UNL     1       9.999  16.026   9.425  1.00  0.00    -0.200 F 
ATOM     77  C   UNL     1       8.826  16.544   7.442  1.00  0.00     0.200 A 
ATOM     78  F   UNL     1       7.606  17.054   5.485  1.00  0.00    -0.200 F 
ATOM     79  F   UNL     1       9.968  16.911   6.844  1.00  0.00    -0.200 F 
ENDBRANCH  45  69
BRANCH  57  80
ATOM     80  C   UNL     1       2.629  18.143  14.045  1.00  0.00     0.064 A 
ATOM     81  C   UNL     1       2.289  19.424  13.590  1.00  0.00     0.173 A 
ATOM     82  C   UNL     1       3.015  18.000  15.386  1.00  0.00     0.173 A 
ATOM     83  F   UNL     1       1.926  19.612  12.312  1.00  0.00    -0.203 F 
ATOM     84  C   UNL     1       2.339  20.523  14.444  1.00  0.00     0.198 A 
ATOM     85  C   UNL     1       3.040  19.096  16.244  1.00  0.00     0.198 A 
ATOM     86  F   UNL     1       3.344  16.793  15.870  1.00  0.00    -0.203 F 
ATOM     87  F   UNL     1       2.036  21.743  13.981  1.00  0.00    -0.200 F 
ATOM     88  C   UNL     1       2.704  20.356  15.772  1.00  0.00     0.200 A 
ATOM     89  F   UNL     1       3.380  18.931  17.530  1.00  0.00    -0.200 F 
ATOM     90  F   UNL     1       2.734  21.411  16.597  1.00  0.00    -0.200 F 
ENDBRANCH  57  80
ENDBRANCH  31  32
ENDBRANCH  24  26
ENDBRANCH  23  24
ENDBRANCH  22  23
ENDBRANCH   1  22
TORSDOF 13
