REMARK SMILES CO[C@H]1CC[C@@H]([NH2+]CC(=O)OCCOC(=O)c2ccc(-c3c4nc(c(-c5c(F)c(F)c(F)c(F)c5F)c5ccc([nH]5)c(-c5c(F)c(F)c(F)c(F)c5F)c5nc(c(-c6c(F)c(F)c(F)c(F)c6F)c6ccc3[nH]6)C=C5)C=C4)cc2)CC1
REMARK SMILES IDX 12 1 11 2 9 3 10 4 8 5 7 6 6 9 3 10 81 11 4 12 80 13 5 14
REMARK SMILES IDX 2 15 1 16 13 17 14 18 15 19 16 20 17 21 18 22 79 23 19 24
REMARK SMILES IDX 78 25 20 26 21 27 22 28 72 29 23 30 77 31 71 32 73 33 24 34
REMARK SMILES IDX 76 35 70 36 69 37 25 39 57 40 37 41 56 42 38 43 41 44 55 45
REMARK SMILES IDX 74 46 39 47 40 48 54 50 75 51 42 52 26 53 27 54 35 55 28 56
REMARK SMILES IDX 29 57 33 58 36 59 30 60 31 61 34 62 32 63 58 64 59 65 67 66
REMARK SMILES IDX 60 67 61 68 65 69 68 70 62 71 63 72 66 73 64 74 43 75 44 76
REMARK SMILES IDX 52 77 45 78 46 79 50 80 53 81 47 82 48 83 51 84 49 85
REMARK H PARENT 7 7 7 8 73 38 41 49
REMARK Flexibility Score: inf
ROOT
ATOM      1  C   UNL     1      -0.598  -1.632   6.759  1.00  0.00     0.274 C 
ENDROOT
BRANCH   1   2
ATOM      2  O   UNL     1      -0.323  -2.659   5.791  1.00  0.00    -0.458 OA
BRANCH   2   3
ATOM      3  C   UNL     1      -1.299  -3.575   5.557  1.00  0.00     0.361 C 
ATOM      4  O   UNL     1      -2.349  -3.653   6.184  1.00  0.00    -0.245 OA
BRANCH   3   5
ATOM      5  C   UNL     1      -0.924  -4.520   4.418  1.00  0.00     0.385 C 
BRANCH   5   6
ATOM      6  N   UNL     1      -0.511  -3.827   3.186  1.00  0.00    -0.335 N 
ATOM      7  H   UNL     1      -1.046  -4.220   2.411  1.00  0.00     0.347 HD
ATOM      8  H   UNL     1      -0.690  -2.836   3.349  1.00  0.00     0.347 HD
BRANCH   6   9
ATOM      9  C   UNL     1       0.910  -3.930   2.851  1.00  0.00     0.183 C 
ATOM     10  C   UNL     1       1.532  -1.417   1.301  1.00  0.00     0.118 C 
ATOM     11  C   UNL     1       1.519  -1.436   2.833  1.00  0.00     0.038 C 
ATOM     12  C   UNL     1       0.686  -2.551   0.710  1.00  0.00     0.038 C 
ATOM     13  C   UNL     1       1.797  -2.815   3.427  1.00  0.00     0.067 C 
ATOM     14  C   UNL     1       1.035  -3.909   1.318  1.00  0.00     0.067 C 
BRANCH  10  15
ATOM     15  O   UNL     1       1.040  -0.132   0.901  1.00  0.00    -0.381 OA
ATOM     16  C   UNL     1       1.264   0.175  -0.467  1.00  0.00     0.195 C 
ENDBRANCH  10  15
ENDBRANCH   6   9
ENDBRANCH   5   6
ENDBRANCH   3   5
ENDBRANCH   2   3
ENDBRANCH   1   2
BRANCH   1  17
ATOM     17  C   UNL     1      -0.982  -0.322   6.066  1.00  0.00     0.275 C 
BRANCH  17  18
ATOM     18  O   UNL     1      -2.351  -0.338   5.619  1.00  0.00    -0.458 OA
BRANCH  18  19
ATOM     19  C   UNL     1      -2.558  -0.867   4.394  1.00  0.00     0.338 C 
ATOM     20  O   UNL     1      -1.721  -1.299   3.616  1.00  0.00    -0.246 OA
BRANCH  19  21
ATOM     21  C   UNL     1      -3.993  -0.999   4.136  1.00  0.00     0.060 A 
ATOM     22  C   UNL     1      -4.471  -2.251   3.735  1.00  0.00     0.016 A 
ATOM     23  C   UNL     1      -4.844   0.103   4.234  1.00  0.00     0.016 A 
ATOM     24  C   UNL     1      -5.820  -2.410   3.442  1.00  0.00     0.010 A 
ATOM     25  C   UNL     1      -6.197  -0.059   3.941  1.00  0.00     0.010 A 
ATOM     26  C   UNL     1      -6.688  -1.315   3.547  1.00  0.00    -0.014 A 
BRANCH  26  27
ATOM     27  C   UNL     1      -8.127  -1.490   3.268  1.00  0.00     0.031 A 
ATOM     28  C   UNL     1      -8.701  -1.022   1.967  1.00  0.00     0.074 A 
ATOM     29  C   UNL     1      -8.903  -2.056   4.209  1.00  0.00     0.049 A 
ATOM     30  N   UNL     1      -9.947  -1.017   1.570  1.00  0.00    -0.248 NA
ATOM     31  C   UNL     1      -7.750  -0.486   0.982  1.00  0.00     0.031 C 
ATOM     32  C   UNL     1      -8.427  -2.560   5.498  1.00  0.00     0.029 A 
ATOM     33  N   UNL     1     -10.252  -2.292   4.233  1.00  0.00    -0.354 N 
ATOM     34  C   UNL     1      -9.934  -0.466   0.296  1.00  0.00     0.074 A 
ATOM     35  C   UNL     1      -8.558  -0.137  -0.010  1.00  0.00     0.031 C 
ATOM     36  C   UNL     1      -9.470  -3.043   6.191  1.00  0.00     0.029 A 
ATOM     37  C   UNL     1     -10.688  -2.845   5.411  1.00  0.00     0.049 A 
ATOM     38  H   UNL     1     -10.850  -2.086   3.479  1.00  0.00     0.167 HD
ATOM     39  C   UNL     1     -10.982  -0.260  -0.534  1.00  0.00     0.037 A 
ATOM     40  C   UNL     1     -11.937  -3.135   5.819  1.00  0.00     0.037 A 
ATOM     41  C   UNL     1     -12.344  -0.601  -0.214  1.00  0.00     0.049 A 
ATOM     42  C   UNL     1     -13.084  -2.858   4.887  1.00  0.00     0.074 A 
ATOM     43  C   UNL     1     -13.478  -0.456  -0.993  1.00  0.00     0.029 A 
ATOM     44  N   UNL     1     -12.753  -1.155   0.991  1.00  0.00    -0.354 N 
ATOM     45  N   UNL     1     -13.062  -2.360   3.675  1.00  0.00    -0.248 NA
ATOM     46  C   UNL     1     -14.429  -3.182   5.380  1.00  0.00     0.031 C 
ATOM     47  C   UNL     1     -14.579  -0.886  -0.244  1.00  0.00     0.029 A 
ATOM     48  C   UNL     1     -14.126  -1.338   0.986  1.00  0.00     0.049 A 
ATOM     49  H   UNL     1     -12.155  -1.384   1.740  1.00  0.00     0.167 HD
ATOM     50  C   UNL     1     -14.381  -2.331   3.250  1.00  0.00     0.074 A 
ATOM     51  C   UNL     1     -15.178  -2.876   4.330  1.00  0.00     0.031 C 
ATOM     52  C   UNL     1     -14.891  -1.892   2.073  1.00  0.00     0.037 A 
BRANCH  39  53
ATOM     53  C   UNL     1     -10.706   0.386  -1.859  1.00  0.00     0.064 A 
ATOM     54  C   UNL     1     -10.088  -0.314  -2.905  1.00  0.00     0.173 A 
ATOM     55  C   UNL     1     -11.113   1.706  -2.102  1.00  0.00     0.173 A 
ATOM     56  F   UNL     1      -9.669  -1.575  -2.719  1.00  0.00    -0.203 F 
ATOM     57  C   UNL     1      -9.875   0.290  -4.142  1.00  0.00     0.198 A 
ATOM     58  C   UNL     1     -10.919   2.299  -3.346  1.00  0.00     0.198 A 
ATOM     59  F   UNL     1     -11.711   2.418  -1.135  1.00  0.00    -0.203 F 
ATOM     60  F   UNL     1      -9.256  -0.388  -5.119  1.00  0.00    -0.200 F 
ATOM     61  C   UNL     1     -10.297   1.592  -4.364  1.00  0.00     0.200 A 
ATOM     62  F   UNL     1     -11.336   3.555  -3.562  1.00  0.00    -0.200 F 
ATOM     63  F   UNL     1     -10.101   2.168  -5.559  1.00  0.00    -0.200 F 
ENDBRANCH  39  53
BRANCH  40  64
ATOM     64  C   UNL     1     -12.163  -3.709   7.170  1.00  0.00     0.064 A 
ATOM     65  C   UNL     1     -12.603  -5.030   7.328  1.00  0.00     0.173 A 
ATOM     66  C   UNL     1     -11.950  -2.948   8.329  1.00  0.00     0.173 A 
ATOM     67  F   UNL     1     -12.841  -5.790   6.249  1.00  0.00    -0.203 F 
ATOM     68  C   UNL     1     -12.838  -5.562   8.594  1.00  0.00     0.198 A 
ATOM     69  C   UNL     1     -12.159  -3.490   9.595  1.00  0.00     0.198 A 
ATOM     70  F   UNL     1     -11.529  -1.678   8.231  1.00  0.00    -0.203 F 
ATOM     71  F   UNL     1     -13.302  -6.814   8.716  1.00  0.00    -0.200 F 
ATOM     72  C   UNL     1     -12.611  -4.794   9.726  1.00  0.00     0.200 A 
ATOM     73  F   UNL     1     -11.928  -2.748  10.686  1.00  0.00    -0.200 F 
ATOM     74  F   UNL     1     -12.837  -5.308  10.943  1.00  0.00    -0.200 F 
ENDBRANCH  40  64
BRANCH  52  75
ATOM     75  C   UNL     1     -16.373  -2.015   1.888  1.00  0.00     0.064 A 
ATOM     76  C   UNL     1     -17.267  -1.158   2.545  1.00  0.00     0.173 A 
ATOM     77  C   UNL     1     -16.900  -2.981   1.018  1.00  0.00     0.173 A 
ATOM     78  F   UNL     1     -16.808  -0.231   3.400  1.00  0.00    -0.203 F 
ATOM     79  C   UNL     1     -18.640  -1.279   2.356  1.00  0.00     0.198 A 
ATOM     80  C   UNL     1     -18.273  -3.082   0.812  1.00  0.00     0.198 A 
ATOM     81  F   UNL     1     -16.084  -3.820   0.364  1.00  0.00    -0.203 F 
ATOM     82  F   UNL     1     -19.480  -0.480   3.028  1.00  0.00    -0.200 F 
ATOM     83  C   UNL     1     -19.141  -2.236   1.485  1.00  0.00     0.200 A 
ATOM     84  F   UNL     1     -18.755  -4.000  -0.037  1.00  0.00    -0.200 F 
ATOM     85  F   UNL     1     -20.464  -2.348   1.301  1.00  0.00    -0.200 F 
ENDBRANCH  52  75
ENDBRANCH  26  27
ENDBRANCH  19  21
ENDBRANCH  18  19
ENDBRANCH  17  18
ENDBRANCH   1  17
TORSDOF 14
