REMARK SMILES COc1ccc(Cl)c2c1N[C@@H](c1ccc(C(=O)OCCOC(=O)c3ccc(-c4c5nc(c(-c6c(F)c(F)c(F)c(F)c6F)c6ccc([nH]6)c(-c6c(F)c(F)c(F)c(F)c6F)c6nc(c(-c7c(F)c(F)c(F)c(F)c7F)c7ccc4[nH]7)C=C6)C=C5)cc3)cc1)[C@@H]1CC=C[C@H]21
REMARK SMILES IDX 19 1 18 2 16 3 17 4 15 5 12 6 13 7 88 8 14 9 87 10 11 11
REMARK SMILES IDX 3 12 4 13 9 14 5 15 8 16 10 17 6 18 93 19 7 21 89 22 92 23
REMARK SMILES IDX 90 24 91 25 2 26 1 27 20 28 21 29 22 30 23 31 24 32 25 33
REMARK SMILES IDX 86 34 26 35 85 36 27 37 28 38 29 39 79 40 30 41 84 42 78 43
REMARK SMILES IDX 80 44 31 45 83 46 77 47 76 48 32 50 64 51 44 52 63 53 45 54
REMARK SMILES IDX 48 55 62 56 81 57 46 58 47 59 61 61 82 62 49 63 33 64 34 65
REMARK SMILES IDX 42 66 35 67 36 68 40 69 43 70 37 71 38 72 41 73 39 74 65 75
REMARK SMILES IDX 66 76 74 77 67 78 68 79 72 80 75 81 69 82 70 83 73 84 71 85
REMARK SMILES IDX 50 86 51 87 59 88 52 89 53 90 57 91 60 92 54 93 55 94 58 95
REMARK SMILES IDX 56 96
REMARK H PARENT 10 20 80 49 48 60
REMARK Flexibility Score: inf
ROOT
ATOM      1  C   UNL     1       9.821   3.694   1.683  1.00  0.00     0.275 C 
ENDROOT
BRANCH   1   2
ATOM      2  O   UNL     1       8.997   2.755   0.966  1.00  0.00    -0.458 OA
BRANCH   2   3
ATOM      3  C   UNL     1       8.569   1.686   1.682  1.00  0.00     0.338 C 
ATOM      4  O   UNL     1       8.884   1.411   2.825  1.00  0.00    -0.246 OA
BRANCH   3   5
ATOM      5  C   UNL     1       7.550   0.913   0.924  1.00  0.00     0.060 A 
ATOM      6  C   UNL     1       5.573  -0.606  -0.386  1.00  0.00    -0.025 A 
ATOM      7  C   UNL     1       5.774  -0.735   0.997  1.00  0.00     0.007 A 
ATOM      8  C   UNL     1       6.364   0.311  -1.099  1.00  0.00     0.007 A 
ATOM      9  C   UNL     1       6.759   0.007   1.642  1.00  0.00     0.016 A 
ATOM     10  C   UNL     1       7.348   1.066  -0.451  1.00  0.00     0.016 A 
BRANCH   6  11
ATOM     11  C   UNL     1       4.577  -1.504  -1.110  1.00  0.00     0.114 C 
ATOM     12  C   UNL     1       1.045  -2.282  -0.136  1.00  0.00     0.142 A 
ATOM     13  C   UNL     1       0.052  -3.240  -0.326  1.00  0.00     0.050 A 
ATOM     14  C   UNL     1       2.353  -2.466  -0.631  1.00  0.00     0.083 A 
ATOM     15  C   UNL     1       0.343  -4.393  -1.045  1.00  0.00     0.025 A 
ATOM     16  C   UNL     1       2.652  -3.640  -1.350  1.00  0.00     0.005 A 
ATOM     17  N   UNL     1       3.336  -1.527  -0.362  1.00  0.00    -0.375 N 
ATOM     18  C   UNL     1       1.631  -4.594  -1.551  1.00  0.00     0.047 A 
ATOM     19  C   UNL     1       4.069  -3.902  -1.803  1.00  0.00     0.051 C 
ATOM     20  H   UNL     1       3.188  -0.863   0.350  1.00  0.00     0.161 HD
ATOM     21  Cl  UNL     1       1.916  -6.088  -2.380  1.00  0.00    -0.084 Cl
ATOM     22  C   UNL     1       5.136  -2.936  -1.244  1.00  0.00     0.031 C 
ATOM     23  C   UNL     1       4.315  -3.793  -3.285  1.00  0.00    -0.023 C 
ATOM     24  C   UNL     1       6.277  -3.018  -2.276  1.00  0.00     0.034 C 
ATOM     25  C   UNL     1       5.543  -3.326  -3.541  1.00  0.00    -0.030 C 
BRANCH  12  26
ATOM     26  O   UNL     1       0.720  -1.192   0.635  1.00  0.00    -0.495 OA
ATOM     27  C   UNL     1       0.510  -0.029  -0.167  1.00  0.00     0.278 C 
ENDBRANCH  12  26
ENDBRANCH   6  11
ENDBRANCH   3   5
ENDBRANCH   2   3
ENDBRANCH   1   2
BRANCH   1  28
ATOM     28  C   UNL     1       8.996   4.917   2.079  1.00  0.00     0.275 C 
BRANCH  28  29
ATOM     29  O   UNL     1       7.990   4.540   3.039  1.00  0.00    -0.458 OA
BRANCH  29  30
ATOM     30  C   UNL     1       6.711   4.614   2.612  1.00  0.00     0.338 C 
ATOM     31  O   UNL     1       6.300   5.011   1.532  1.00  0.00    -0.246 OA
BRANCH  30  32
ATOM     32  C   UNL     1       5.815   4.122   3.668  1.00  0.00     0.060 A 
ATOM     33  C   UNL     1       5.763   2.756   3.940  1.00  0.00     0.016 A 
ATOM     34  C   UNL     1       4.934   5.001   4.298  1.00  0.00     0.016 A 
ATOM     35  C   UNL     1       4.783   2.249   4.790  1.00  0.00     0.010 A 
ATOM     36  C   UNL     1       3.995   4.500   5.205  1.00  0.00     0.010 A 
ATOM     37  C   UNL     1       3.886   3.115   5.430  1.00  0.00    -0.014 A 
BRANCH  37  38
ATOM     38  C   UNL     1       2.797   2.569   6.284  1.00  0.00     0.031 A 
ATOM     39  C   UNL     1       1.362   2.722   5.861  1.00  0.00     0.074 A 
ATOM     40  C   UNL     1       3.090   1.911   7.421  1.00  0.00     0.049 A 
ATOM     41  N   UNL     1       0.267   2.409   6.508  1.00  0.00    -0.248 NA
ATOM     42  C   UNL     1       1.125   3.310   4.532  1.00  0.00     0.031 C 
ATOM     43  C   UNL     1       4.440   1.644   7.918  1.00  0.00     0.029 A 
ATOM     44  N   UNL     1       2.269   1.340   8.362  1.00  0.00    -0.354 N 
ATOM     45  C   UNL     1      -0.783   2.783   5.680  1.00  0.00     0.074 A 
ATOM     46  C   UNL     1      -0.199   3.368   4.493  1.00  0.00     0.031 C 
ATOM     47  C   UNL     1       4.356   0.940   9.057  1.00  0.00     0.029 A 
ATOM     48  C   UNL     1       2.949   0.762   9.406  1.00  0.00     0.049 A 
ATOM     49  H   UNL     1       1.287   1.344   8.295  1.00  0.00     0.167 HD
ATOM     50  C   UNL     1      -2.114   2.640   5.888  1.00  0.00     0.037 A 
ATOM     51  C   UNL     1       2.493   0.181  10.533  1.00  0.00     0.037 A 
ATOM     52  C   UNL     1      -2.694   2.028   7.054  1.00  0.00     0.049 A 
ATOM     53  C   UNL     1       1.011   0.104  10.777  1.00  0.00     0.074 A 
ATOM     54  C   UNL     1      -4.032   1.825   7.346  1.00  0.00     0.029 A 
ATOM     55  N   UNL     1      -1.970   1.514   8.120  1.00  0.00    -0.354 N 
ATOM     56  N   UNL     1       0.026   0.488  10.003  1.00  0.00    -0.248 NA
ATOM     57  C   UNL     1       0.578  -0.471  12.059  1.00  0.00     0.031 C 
ATOM     58  C   UNL     1      -4.119   1.228   8.607  1.00  0.00     0.029 A 
ATOM     59  C   UNL     1      -2.835   1.018   9.082  1.00  0.00     0.049 A 
ATOM     60  H   UNL     1      -0.988   1.503   8.183  1.00  0.00     0.167 HD
ATOM     61  C   UNL     1      -1.141   0.195  10.696  1.00  0.00     0.074 A 
ATOM     62  C   UNL     1      -0.743  -0.416  11.947  1.00  0.00     0.031 C 
ATOM     63  C   UNL     1      -2.426   0.418  10.327  1.00  0.00     0.037 A 
BRANCH  50  64
ATOM     64  C   UNL     1      -3.043   3.174   4.838  1.00  0.00     0.064 A 
ATOM     65  C   UNL     1      -3.206   2.534   3.601  1.00  0.00     0.173 A 
ATOM     66  C   UNL     1      -3.819   4.315   5.095  1.00  0.00     0.173 A 
ATOM     67  F   UNL     1      -2.477   1.448   3.301  1.00  0.00    -0.203 F 
ATOM     68  C   UNL     1      -4.097   3.028   2.651  1.00  0.00     0.198 A 
ATOM     69  C   UNL     1      -4.728   4.791   4.154  1.00  0.00     0.198 A 
ATOM     70  F   UNL     1      -3.705   4.962   6.264  1.00  0.00    -0.203 F 
ATOM     71  F   UNL     1      -4.207   2.423   1.460  1.00  0.00    -0.200 F 
ATOM     72  C   UNL     1      -4.862   4.150   2.931  1.00  0.00     0.200 A 
ATOM     73  F   UNL     1      -5.475   5.869   4.430  1.00  0.00    -0.200 F 
ATOM     74  F   UNL     1      -5.726   4.618   2.020  1.00  0.00    -0.200 F 
ENDBRANCH  50  64
BRANCH  51  75
ATOM     75  C   UNL     1       3.461  -0.357  11.522  1.00  0.00     0.064 A 
ATOM     76  C   UNL     1       3.601  -1.737  11.715  1.00  0.00     0.173 A 
ATOM     77  C   UNL     1       4.288   0.495  12.270  1.00  0.00     0.173 A 
ATOM     78  F   UNL     1       2.814  -2.590  11.043  1.00  0.00    -0.203 F 
ATOM     79  C   UNL     1       4.533  -2.246  12.617  1.00  0.00     0.198 A 
ATOM     80  C   UNL     1       5.237  -0.015  13.152  1.00  0.00     0.198 A 
ATOM     81  F   UNL     1       4.189   1.825  12.124  1.00  0.00    -0.203 F 
ATOM     82  F   UNL     1       4.630  -3.569  12.803  1.00  0.00    -0.200 F 
ATOM     83  C   UNL     1       5.358  -1.385  13.326  1.00  0.00     0.200 A 
ATOM     84  F   UNL     1       6.040   0.820  13.825  1.00  0.00    -0.200 F 
ATOM     85  F   UNL     1       6.266  -1.875  14.181  1.00  0.00    -0.200 F 
ENDBRANCH  51  75
BRANCH  63  86
ATOM     86  C   UNL     1      -3.505  -0.001  11.280  1.00  0.00     0.064 A 
ATOM     87  C   UNL     1      -3.775   0.735  12.443  1.00  0.00     0.173 A 
ATOM     88  C   UNL     1      -4.327  -1.100  10.990  1.00  0.00     0.173 A 
ATOM     89  F   UNL     1      -3.008   1.786  12.770  1.00  0.00    -0.203 F 
ATOM     90  C   UNL     1      -4.826   0.380  13.285  1.00  0.00     0.198 A 
ATOM     91  C   UNL     1      -5.391  -1.437  11.821  1.00  0.00     0.198 A 
ATOM     92  F   UNL     1      -4.113  -1.832   9.886  1.00  0.00    -0.203 F 
ATOM     93  F   UNL     1      -5.051   1.081  14.405  1.00  0.00    -0.200 F 
ATOM     94  C   UNL     1      -5.639  -0.698  12.968  1.00  0.00     0.200 A 
ATOM     95  F   UNL     1      -6.184  -2.471  11.507  1.00  0.00    -0.200 F 
ATOM     96  F   UNL     1      -6.660  -1.027  13.771  1.00  0.00    -0.200 F 
ENDBRANCH  63  86
ENDBRANCH  37  38
ENDBRANCH  30  32
ENDBRANCH  29  30
ENDBRANCH  28  29
ENDBRANCH   1  28
TORSDOF 13
