REMARK SMILES Cc1ccc(-c2cc(C(=O)OCCOC(=O)c3ccc(-c4c5nc(c(-c6c(F)c(F)c(F)c(F)c6F)c6ccc([nH]6)c(-c6c(F)c(F)c(F)c(F)c6F)c6nc(c(-c7c(F)c(F)c(F)c(F)c7F)c7ccc4[nH]7)C=C6)C=C5)cc3)c3cc(C)ccc3n2)c(C)c1
REMARK SMILES IDX 13 1 12 2 11 3 9 4 10 5 8 6 6 7 7 8 87 9 86 10 80 11 85 12
REMARK SMILES IDX 81 13 84 14 82 15 83 16 5 17 1 18 2 19 3 20 90 21 4 22 88 23
REMARK SMILES IDX 89 24 14 25 15 26 16 27 17 28 18 29 79 30 19 31 78 32 20 33
REMARK SMILES IDX 21 34 22 35 72 36 23 37 77 38 71 39 73 40 24 41 76 42 70 43
REMARK SMILES IDX 69 44 25 46 57 47 37 48 56 49 38 50 41 51 55 52 74 53 39 54
REMARK SMILES IDX 40 55 54 57 75 58 42 59 26 60 27 61 35 62 28 63 29 64 33 65
REMARK SMILES IDX 36 66 30 67 31 68 34 69 32 70 58 71 59 72 67 73 60 74 61 75
REMARK SMILES IDX 65 76 68 77 62 78 63 79 66 80 64 81 43 82 44 83 52 84 45 85
REMARK SMILES IDX 46 86 50 87 53 88 47 89 48 90 51 91 49 92
REMARK H PARENT 73 45 41 56
REMARK Flexibility Score: inf
ROOT
ATOM      1  C   UNL     1      -4.619  -6.861   3.332  1.00  0.00     0.275 C 
ENDROOT
BRANCH   1   2
ATOM      2  C   UNL     1      -5.574  -5.682   3.161  1.00  0.00     0.275 C 
BRANCH   2   3
ATOM      3  O   UNL     1      -5.217  -4.902   2.000  1.00  0.00    -0.458 OA
BRANCH   3   4
ATOM      4  C   UNL     1      -4.829  -3.622   2.220  1.00  0.00     0.339 C 
ATOM      5  O   UNL     1      -4.681  -3.084   3.302  1.00  0.00    -0.246 OA
BRANCH   4   6
ATOM      6  C   UNL     1      -4.451  -2.962   0.947  1.00  0.00     0.071 A 
ATOM      7  C   UNL     1      -2.799  -1.660  -0.197  1.00  0.00     0.072 A 
ATOM      8  C   UNL     1      -3.254  -2.248   0.966  1.00  0.00     0.045 A 
ATOM      9  N   UNL     1      -3.521  -1.682  -1.336  1.00  0.00    -0.248 NA
ATOM     10  C   UNL     1      -4.719  -2.296  -1.336  1.00  0.00     0.072 A 
ATOM     11  C   UNL     1      -5.245  -2.977  -0.216  1.00  0.00     0.015 A 
ATOM     12  C   UNL     1      -5.484  -2.238  -2.492  1.00  0.00     0.029 A 
ATOM     13  C   UNL     1      -6.527  -3.574  -0.313  1.00  0.00     0.014 A 
ATOM     14  C   UNL     1      -6.751  -2.824  -2.579  1.00  0.00     0.005 A 
ATOM     15  C   UNL     1      -7.285  -3.498  -1.484  1.00  0.00    -0.050 A 
ATOM     16  C   UNL     1      -8.631  -4.154  -1.546  1.00  0.00     0.044 C 
BRANCH   7  17
ATOM     17  C   UNL     1      -1.504  -0.966  -0.218  1.00  0.00     0.003 A 
ATOM     18  C   UNL     1       2.388   0.933   0.015  1.00  0.00     0.044 C 
ATOM     19  C   UNL     1       1.048   0.262  -0.071  1.00  0.00    -0.051 A 
ATOM     20  C   UNL     1       0.941  -1.124  -0.181  1.00  0.00     0.004 A 
ATOM     21  C   UNL     1      -0.121   1.032  -0.051  1.00  0.00     0.007 A 
ATOM     22  C   UNL     1      -0.318  -1.728  -0.257  1.00  0.00     0.011 A 
ATOM     23  C   UNL     1      -1.397   0.436  -0.111  1.00  0.00    -0.041 A 
ATOM     24  C   UNL     1      -2.598   1.342  -0.086  1.00  0.00     0.045 C 
ENDBRANCH   7  17
ENDBRANCH   4   6
ENDBRANCH   3   4
ENDBRANCH   2   3
ENDBRANCH   1   2
BRANCH   1  25
ATOM     25  O   UNL     1      -3.314  -6.371   3.686  1.00  0.00    -0.458 OA
BRANCH  25  26
ATOM     26  C   UNL     1      -2.383  -6.445   2.711  1.00  0.00     0.338 C 
ATOM     27  O   UNL     1      -2.486  -6.953   1.608  1.00  0.00    -0.246 OA
BRANCH  26  28
ATOM     28  C   UNL     1      -1.186  -5.706   3.132  1.00  0.00     0.060 A 
ATOM     29  C   UNL     1      -1.231  -4.317   3.087  1.00  0.00     0.016 A 
ATOM     30  C   UNL     1       0.008  -6.361   3.410  1.00  0.00     0.016 A 
ATOM     31  C   UNL     1      -0.063  -3.571   3.200  1.00  0.00     0.010 A 
ATOM     32  C   UNL     1       1.163  -5.603   3.640  1.00  0.00     0.010 A 
ATOM     33  C   UNL     1       1.153  -4.201   3.494  1.00  0.00    -0.014 A 
BRANCH  33  34
ATOM     34  C   UNL     1       2.414  -3.410   3.602  1.00  0.00     0.031 A 
ATOM     35  C   UNL     1       3.594  -3.753   2.727  1.00  0.00     0.074 A 
ATOM     36  C   UNL     1       2.514  -2.378   4.464  1.00  0.00     0.049 A 
ATOM     37  N   UNL     1       4.838  -3.352   2.812  1.00  0.00    -0.248 NA
ATOM     38  C   UNL     1       3.343  -4.683   1.614  1.00  0.00     0.031 C 
ATOM     39  C   UNL     1       1.442  -1.884   5.330  1.00  0.00     0.029 A 
ATOM     40  N   UNL     1       3.575  -1.552   4.755  1.00  0.00    -0.354 N 
ATOM     41  C   UNL     1       5.525  -4.023   1.808  1.00  0.00     0.074 A 
ATOM     42  C   UNL     1       4.563  -4.861   1.126  1.00  0.00     0.031 C 
ATOM     43  C   UNL     1       1.883  -0.825   6.023  1.00  0.00     0.029 A 
ATOM     44  C   UNL     1       3.298  -0.624   5.731  1.00  0.00     0.049 A 
ATOM     45  H   UNL     1       4.449  -1.618   4.307  1.00  0.00     0.167 HD
ATOM     46  C   UNL     1       6.839  -3.945   1.484  1.00  0.00     0.037 A 
ATOM     47  C   UNL     1       4.101   0.254   6.362  1.00  0.00     0.037 A 
ATOM     48  C   UNL     1       7.782  -3.067   2.129  1.00  0.00     0.049 A 
ATOM     49  C   UNL     1       5.564   0.287   6.017  1.00  0.00     0.074 A 
ATOM     50  C   UNL     1       9.138  -2.925   1.885  1.00  0.00     0.029 A 
ATOM     51  N   UNL     1       7.461  -2.162   3.128  1.00  0.00    -0.354 N 
ATOM     52  N   UNL     1       6.220  -0.408   5.121  1.00  0.00    -0.248 NA
ATOM     53  C   UNL     1       6.404   1.214   6.788  1.00  0.00     0.031 C 
ATOM     54  C   UNL     1       9.642  -1.952   2.753  1.00  0.00     0.029 A 
ATOM     55  C   UNL     1       8.592  -1.457   3.509  1.00  0.00     0.049 A 
ATOM     56  H   UNL     1       6.562  -2.037   3.511  1.00  0.00     0.167 HD
ATOM     57  C   UNL     1       7.540   0.011   5.205  1.00  0.00     0.074 A 
ATOM     58  C   UNL     1       7.590   1.038   6.224  1.00  0.00     0.031 C 
ATOM     59  C   UNL     1       8.618  -0.421   4.507  1.00  0.00     0.037 A 
BRANCH  46  60
ATOM     60  C   UNL     1       7.349  -4.841   0.394  1.00  0.00     0.064 A 
ATOM     61  C   UNL     1       7.048  -4.609  -0.956  1.00  0.00     0.173 A 
ATOM     62  C   UNL     1       8.205  -5.912   0.700  1.00  0.00     0.173 A 
ATOM     63  F   UNL     1       6.225  -3.607  -1.300  1.00  0.00    -0.203 F 
ATOM     64  C   UNL     1       7.573  -5.423  -1.957  1.00  0.00     0.198 A 
ATOM     65  C   UNL     1       8.750  -6.706  -0.305  1.00  0.00     0.198 A 
ATOM     66  F   UNL     1       8.531  -6.174   1.975  1.00  0.00    -0.203 F 
ATOM     67  F   UNL     1       7.245  -5.202  -3.238  1.00  0.00    -0.200 F 
ATOM     68  C   UNL     1       8.431  -6.463  -1.632  1.00  0.00     0.200 A 
ATOM     69  F   UNL     1       9.590  -7.702   0.010  1.00  0.00    -0.200 F 
ATOM     70  F   UNL     1       8.947  -7.235  -2.599  1.00  0.00    -0.200 F 
ENDBRANCH  46  60
BRANCH  47  71
ATOM     71  C   UNL     1       3.556   1.139   7.428  1.00  0.00     0.064 A 
ATOM     72  C   UNL     1       3.523   2.531   7.263  1.00  0.00     0.173 A 
ATOM     73  C   UNL     1       3.093   0.618   8.645  1.00  0.00     0.173 A 
ATOM     74  F   UNL     1       3.983   3.082   6.130  1.00  0.00    -0.203 F 
ATOM     75  C   UNL     1       3.070   3.367   8.282  1.00  0.00     0.198 A 
ATOM     76  C   UNL     1       2.606   1.452   9.649  1.00  0.00     0.198 A 
ATOM     77  F   UNL     1       3.107  -0.706   8.859  1.00  0.00    -0.203 F 
ATOM     78  F   UNL     1       3.107   4.697   8.121  1.00  0.00    -0.200 F 
ATOM     79  C   UNL     1       2.606   2.826   9.472  1.00  0.00     0.200 A 
ATOM     80  F   UNL     1       2.146   0.923  10.791  1.00  0.00    -0.200 F 
ATOM     81  F   UNL     1       2.172   3.630  10.451  1.00  0.00    -0.200 F 
ENDBRANCH  47  71
BRANCH  59  82
ATOM     82  C   UNL     1       9.928   0.255   4.784  1.00  0.00     0.064 A 
ATOM     83  C   UNL     1      10.639   0.025   5.970  1.00  0.00     0.173 A 
ATOM     84  C   UNL     1      10.488   1.125   3.837  1.00  0.00     0.173 A 
ATOM     85  F   UNL     1      10.136  -0.786   6.913  1.00  0.00    -0.203 F 
ATOM     86  C   UNL     1      11.852   0.665   6.210  1.00  0.00     0.198 A 
ATOM     87  C   UNL     1      11.714   1.742   4.068  1.00  0.00     0.198 A 
ATOM     88  F   UNL     1       9.848   1.373   2.684  1.00  0.00    -0.203 F 
ATOM     89  F   UNL     1      12.491   0.470   7.372  1.00  0.00    -0.200 F 
ATOM     90  C   UNL     1      12.391   1.517   5.258  1.00  0.00     0.200 A 
ATOM     91  F   UNL     1      12.238   2.556   3.143  1.00  0.00    -0.200 F 
ATOM     92  F   UNL     1      13.559   2.131   5.490  1.00  0.00    -0.200 F 
ENDBRANCH  59  82
ENDBRANCH  33  34
ENDBRANCH  26  28
ENDBRANCH  25  26
ENDBRANCH   1  25
TORSDOF 12
