REMARK SMILES C[C@@H](C(=O)OCCOC(=O)c1ccc(-c2c3nc(c(-c4c(F)c(F)c(F)c(F)c4F)c4ccc([nH]4)c(-c4c(F)c(F)c(F)c(F)c4F)c4nc(c(-c5c(F)c(F)c(F)c(F)c5F)c5ccc2[nH]5)C=C4)C=C3)cc1)c1ccc(=O)n(C(F)F)c1
REMARK SMILES IDX 6 1 5 2 3 3 4 4 2 5 1 6 74 7 75 8 83 9 76 10 79 11 77 12
REMARK SMILES IDX 78 13 80 14 81 15 82 16 7 17 8 18 9 19 10 20 11 21 12 22
REMARK SMILES IDX 73 23 13 24 72 25 14 26 15 27 16 28 66 29 17 30 71 31 65 32
REMARK SMILES IDX 67 33 18 34 70 35 64 36 63 37 19 39 51 40 31 41 50 42 32 43
REMARK SMILES IDX 35 44 49 45 68 46 33 47 34 48 48 50 69 51 36 52 20 53 21 54
REMARK SMILES IDX 29 55 22 56 23 57 27 58 30 59 24 60 25 61 28 62 26 63 52 64
REMARK SMILES IDX 53 65 61 66 54 67 55 68 59 69 62 70 56 71 57 72 60 73 58 74
REMARK SMILES IDX 37 75 38 76 46 77 39 78 40 79 44 80 47 81 41 82 42 83 45 84
REMARK SMILES IDX 43 85
REMARK H PARENT 67 38 35 49
REMARK Flexibility Score: inf
ROOT
ATOM      1  C   UNL     1       2.701   2.861   2.398  1.00  0.00     0.274 C 
ENDROOT
BRANCH   1   2
ATOM      2  O   UNL     1       2.297   1.698   1.647  1.00  0.00    -0.462 OA
BRANCH   2   3
ATOM      3  C   UNL     1       1.274   0.960   2.156  1.00  0.00     0.313 C 
ATOM      4  O   UNL     1       0.670   1.227   3.189  1.00  0.00    -0.252 OA
BRANCH   3   5
ATOM      5  C   UNL     1       0.975  -0.281   1.308  1.00  0.00     0.127 C 
ATOM      6  C   UNL     1       1.886  -0.452   0.089  1.00  0.00     0.025 C 
BRANCH   5   7
ATOM      7  C   UNL     1      -0.493  -0.309   0.916  1.00  0.00    -0.017 A 
ATOM      8  C   UNL     1      -1.361  -1.253   1.596  1.00  0.00     0.012 A 
ATOM      9  C   UNL     1      -1.022   0.454  -0.057  1.00  0.00     0.099 A 
ATOM     10  C   UNL     1      -2.641  -1.402   1.230  1.00  0.00     0.072 A 
ATOM     11  N   UNL     1      -2.350   0.342  -0.437  1.00  0.00    -0.258 N 
ATOM     12  C   UNL     1      -3.199  -0.609   0.104  1.00  0.00     0.254 A 
ATOM     13  O   UNL     1      -4.342  -0.849  -0.269  1.00  0.00    -0.269 OA
BRANCH  11  14
ATOM     14  C   UNL     1      -2.831   1.111  -1.559  1.00  0.00     0.451 C 
ATOM     15  F   UNL     1      -4.156   1.367  -1.489  1.00  0.00    -0.185 F 
ATOM     16  F   UNL     1      -2.229   2.333  -1.587  1.00  0.00    -0.185 F 
ENDBRANCH  11  14
ENDBRANCH   5   7
ENDBRANCH   3   5
ENDBRANCH   2   3
ENDBRANCH   1   2
BRANCH   1  17
ATOM     17  C   UNL     1       2.150   4.130   1.758  1.00  0.00     0.275 C 
BRANCH  17  18
ATOM     18  O   UNL     1       0.720   4.166   1.919  1.00  0.00    -0.458 OA
BRANCH  18  19
ATOM     19  C   UNL     1       0.001   4.281   0.788  1.00  0.00     0.338 C 
ATOM     20  O   UNL     1       0.436   4.396  -0.361  1.00  0.00    -0.246 OA
BRANCH  19  21
ATOM     21  C   UNL     1      -1.437   4.225   1.079  1.00  0.00     0.060 A 
ATOM     22  C   UNL     1      -1.968   3.109   1.724  1.00  0.00     0.016 A 
ATOM     23  C   UNL     1      -2.286   5.199   0.551  1.00  0.00     0.016 A 
ATOM     24  C   UNL     1      -3.347   2.902   1.716  1.00  0.00     0.010 A 
ATOM     25  C   UNL     1      -3.672   5.039   0.644  1.00  0.00     0.010 A 
ATOM     26  C   UNL     1      -4.222   3.859   1.174  1.00  0.00    -0.014 A 
BRANCH  26  27
ATOM     27  C   UNL     1      -5.692   3.602   1.123  1.00  0.00     0.031 A 
ATOM     28  C   UNL     1      -6.436   3.605  -0.193  1.00  0.00     0.074 A 
ATOM     29  C   UNL     1      -6.369   3.325   2.255  1.00  0.00     0.049 A 
ATOM     30  N   UNL     1      -7.725   3.498  -0.420  1.00  0.00    -0.248 NA
ATOM     31  C   UNL     1      -5.632   3.746  -1.415  1.00  0.00     0.031 C 
ATOM     32  C   UNL     1      -5.782   3.246   3.593  1.00  0.00     0.029 A 
ATOM     33  N   UNL     1      -7.701   3.055   2.463  1.00  0.00    -0.354 N 
ATOM     34  C   UNL     1      -7.875   3.549  -1.802  1.00  0.00     0.074 A 
ATOM     35  C   UNL     1      -6.555   3.720  -2.365  1.00  0.00     0.031 C 
ATOM     36  C   UNL     1      -6.736   2.911   4.473  1.00  0.00     0.029 A 
ATOM     37  C   UNL     1      -8.020   2.852   3.782  1.00  0.00     0.049 A 
ATOM     38  H   UNL     1      -8.362   3.010   1.735  1.00  0.00     0.167 HD
ATOM     39  C   UNL     1      -9.009   3.459  -2.538  1.00  0.00     0.037 A 
ATOM     40  C   UNL     1      -9.212   2.694   4.388  1.00  0.00     0.037 A 
ATOM     41  C   UNL     1     -10.329   3.297  -1.986  1.00  0.00     0.049 A 
ATOM     42  C   UNL     1     -10.467   2.722   3.566  1.00  0.00     0.074 A 
ATOM     43  C   UNL     1     -11.542   3.231  -2.651  1.00  0.00     0.029 A 
ATOM     44  N   UNL     1     -10.609   3.180  -0.634  1.00  0.00    -0.354 N 
ATOM     45  N   UNL     1     -10.601   2.834   2.267  1.00  0.00    -0.248 NA
ATOM     46  C   UNL     1     -11.739   2.632   4.296  1.00  0.00     0.031 C 
ATOM     47  C   UNL     1     -12.560   3.126  -1.698  1.00  0.00     0.029 A 
ATOM     48  C   UNL     1     -11.978   3.077  -0.442  1.00  0.00     0.049 A 
ATOM     49  H   UNL     1      -9.935   3.171   0.084  1.00  0.00     0.167 HD
ATOM     50  C   UNL     1     -11.966   2.830   2.023  1.00  0.00     0.074 A 
ATOM     51  C   UNL     1     -12.620   2.679   3.306  1.00  0.00     0.031 C 
ATOM     52  C   UNL     1     -12.617   2.950   0.841  1.00  0.00     0.037 A 
BRANCH  39  53
ATOM     53  C   UNL     1      -8.887   3.578  -4.029  1.00  0.00     0.064 A 
ATOM     54  C   UNL     1      -8.412   2.522  -4.819  1.00  0.00     0.173 A 
ATOM     55  C   UNL     1      -9.318   4.745  -4.680  1.00  0.00     0.173 A 
ATOM     56  F   UNL     1      -7.978   1.390  -4.246  1.00  0.00    -0.203 F 
ATOM     57  C   UNL     1      -8.366   2.633  -6.208  1.00  0.00     0.198 A 
ATOM     58  C   UNL     1      -9.291   4.843  -6.068  1.00  0.00     0.198 A 
ATOM     59  F   UNL     1      -9.785   5.782  -3.969  1.00  0.00    -0.203 F 
ATOM     60  F   UNL     1      -7.886   1.621  -6.945  1.00  0.00    -0.200 F 
ATOM     61  C   UNL     1      -8.813   3.789  -6.831  1.00  0.00     0.200 A 
ATOM     62  F   UNL     1      -9.735   5.956  -6.668  1.00  0.00    -0.200 F 
ATOM     63  F   UNL     1      -8.783   3.887  -8.167  1.00  0.00    -0.200 F 
ENDBRANCH  39  53
BRANCH  40  64
ATOM     64  C   UNL     1      -9.263   2.575   5.869  1.00  0.00     0.064 A 
ATOM     65  C   UNL     1      -9.640   1.380   6.492  1.00  0.00     0.173 A 
ATOM     66  C   UNL     1      -8.896   3.654   6.689  1.00  0.00     0.173 A 
ATOM     67  F   UNL     1     -10.032   0.332   5.753  1.00  0.00    -0.203 F 
ATOM     68  C   UNL     1      -9.638   1.265   7.881  1.00  0.00     0.198 A 
ATOM     69  C   UNL     1      -8.861   3.527   8.075  1.00  0.00     0.198 A 
ATOM     70  F   UNL     1      -8.535   4.823   6.141  1.00  0.00    -0.203 F 
ATOM     71  F   UNL     1     -10.029   0.120   8.457  1.00  0.00    -0.200 F 
ATOM     72  C   UNL     1      -9.235   2.333   8.670  1.00  0.00     0.200 A 
ATOM     73  F   UNL     1      -8.454   4.556   8.829  1.00  0.00    -0.200 F 
ATOM     74  F   UNL     1      -9.210   2.212  10.004  1.00  0.00    -0.200 F 
ENDBRANCH  40  64
BRANCH  52  75
ATOM     75  C   UNL     1     -14.115   2.925   0.885  1.00  0.00     0.064 A 
ATOM     76  C   UNL     1     -14.849   4.020   1.363  1.00  0.00     0.173 A 
ATOM     77  C   UNL     1     -14.824   1.803   0.431  1.00  0.00     0.173 A 
ATOM     78  F   UNL     1     -14.215   5.109   1.822  1.00  0.00    -0.203 F 
ATOM     79  C   UNL     1     -16.240   3.982   1.411  1.00  0.00     0.198 A 
ATOM     80  C   UNL     1     -16.215   1.778   0.457  1.00  0.00     0.198 A 
ATOM     81  F   UNL     1     -14.167   0.733  -0.041  1.00  0.00    -0.203 F 
ATOM     82  F   UNL     1     -16.920   5.020   1.916  1.00  0.00    -0.200 F 
ATOM     83  C   UNL     1     -16.921   2.863   0.954  1.00  0.00     0.200 A 
ATOM     84  F   UNL     1     -16.873   0.701   0.008  1.00  0.00    -0.200 F 
ATOM     85  F   UNL     1     -18.260   2.827   1.004  1.00  0.00    -0.200 F 
ENDBRANCH  52  75
ENDBRANCH  26  27
ENDBRANCH  19  21
ENDBRANCH  18  19
ENDBRANCH  17  18
ENDBRANCH   1  17
TORSDOF 13
