REMARK SMILES COc1cc2c(cc1OC)[C@H](C(=O)OCCOC(=O)c1ccc(-c3c4nc(c(-c5c(F)c(F)c(F)c(F)c5F)c5ccc([nH]5)c(-c5c(F)c(F)c(F)c(F)c5F)c5nc(c(-c6c(F)c(F)c(F)c(F)c6F)c6ccc3[nH]6)C=C5)C=C4)cc1)[C@H](c1cccs1)N(C)C2=O
REMARK SMILES IDX 16 1 15 2 14 3 12 4 13 5 11 6 3 7 4 8 8 9 5 10 7 11 6 12
REMARK SMILES IDX 91 13 89 14 92 15 83 16 90 17 2 18 1 19 9 20 10 21 84 22
REMARK SMILES IDX 85 23 88 24 86 25 87 26 17 27 18 28 19 29 20 30 21 31 82 32
REMARK SMILES IDX 22 33 81 34 23 35 24 36 25 37 75 38 26 39 80 40 74 41 76 42
REMARK SMILES IDX 27 43 79 44 73 45 72 46 28 48 60 49 40 50 59 51 41 52 44 53
REMARK SMILES IDX 58 54 77 55 42 56 43 57 57 59 78 60 45 61 29 62 30 63 38 64
REMARK SMILES IDX 31 65 32 66 36 67 39 68 33 69 34 70 37 71 35 72 61 73 62 74
REMARK SMILES IDX 70 75 63 76 64 77 68 78 71 79 65 80 66 81 69 82 67 83 46 84
REMARK SMILES IDX 47 85 55 86 48 87 49 88 53 89 56 90 50 91 51 92 54 93 52 94
REMARK H PARENT 76 47 44 58
REMARK Flexibility Score: inf
ROOT
ATOM      1  C   UNL     1       0.323  -3.095   9.882  1.00  0.00     0.275 C 
ENDROOT
BRANCH   1   2
ATOM      2  C   UNL     1      -0.203  -2.737   8.492  1.00  0.00     0.274 C 
BRANCH   2   3
ATOM      3  O   UNL     1       0.819  -2.856   7.473  1.00  0.00    -0.462 OA
BRANCH   3   4
ATOM      4  C   UNL     1       0.835  -1.835   6.563  1.00  0.00     0.316 C 
ATOM      5  O   UNL     1       0.166  -0.817   6.686  1.00  0.00    -0.251 OA
BRANCH   4   6
ATOM      6  C   UNL     1       1.758  -2.132   5.383  1.00  0.00     0.158 C 
ATOM      7  C   UNL     1       0.681  -0.147   1.694  1.00  0.00     0.161 A 
ATOM      8  C   UNL     1       1.974  -0.652   1.888  1.00  0.00     0.064 A 
ATOM      9  C   UNL     1      -0.313  -0.406   2.648  1.00  0.00     0.161 A 
ATOM     10  C   UNL     1       2.288  -1.364   3.049  1.00  0.00     0.048 A 
ATOM     11  C   UNL     1       0.011  -1.138   3.795  1.00  0.00     0.056 A 
ATOM     12  C   UNL     1       1.323  -1.546   4.051  1.00  0.00    -0.015 A 
ATOM     13  C   UNL     1       3.684  -1.866   3.236  1.00  0.00     0.254 C 
ATOM     14  N   UNL     1       4.077  -2.081   4.558  1.00  0.00    -0.333 N 
ATOM     15  O   UNL     1       4.404  -2.053   2.270  1.00  0.00    -0.269 OA
ATOM     16  C   UNL     1       3.202  -1.651   5.660  1.00  0.00     0.144 C 
ATOM     17  C   UNL     1       5.446  -2.484   4.839  1.00  0.00     0.147 C 
BRANCH   7  18
ATOM     18  O   UNL     1       0.397   0.662   0.628  1.00  0.00    -0.493 OA
ATOM     19  C   UNL     1       0.922   0.209  -0.615  1.00  0.00     0.278 C 
ENDBRANCH   7  18
BRANCH   9  20
ATOM     20  O   UNL     1      -1.632  -0.039   2.641  1.00  0.00    -0.493 OA
ATOM     21  C   UNL     1      -2.062   0.923   1.695  1.00  0.00     0.278 C 
ENDBRANCH   9  20
BRANCH  16  22
ATOM     22  C   UNL     1       3.348  -0.144   5.948  1.00  0.00     0.028 A 
ATOM     23  C   UNL     1       2.817   0.574   7.011  1.00  0.00     0.017 A 
ATOM     24  S   UNL     1       4.269   0.921   4.945  1.00  0.00    -0.147 S 
ATOM     25  C   UNL     1       3.042   1.977   6.917  1.00  0.00     0.012 A 
ATOM     26  C   UNL     1       3.835   2.297   5.844  1.00  0.00     0.065 A 
ENDBRANCH  16  22
ENDBRANCH   4   6
ENDBRANCH   3   4
ENDBRANCH   2   3
ENDBRANCH   1   2
BRANCH   1  27
ATOM     27  O   UNL     1       1.445  -2.257  10.223  1.00  0.00    -0.458 OA
BRANCH  27  28
ATOM     28  C   UNL     1       2.630  -2.898  10.319  1.00  0.00     0.338 C 
ATOM     29  O   UNL     1       2.838  -4.103  10.228  1.00  0.00    -0.246 OA
BRANCH  28  30
ATOM     30  C   UNL     1       3.715  -1.910  10.290  1.00  0.00     0.060 A 
ATOM     31  C   UNL     1       4.416  -1.818   9.091  1.00  0.00     0.016 A 
ATOM     32  C   UNL     1       4.099  -1.144  11.388  1.00  0.00     0.016 A 
ATOM     33  C   UNL     1       5.445  -0.899   8.934  1.00  0.00     0.010 A 
ATOM     34  C   UNL     1       5.192  -0.271  11.260  1.00  0.00     0.010 A 
ATOM     35  C   UNL     1       5.862  -0.137  10.029  1.00  0.00    -0.014 A 
BRANCH  35  36
ATOM     36  C   UNL     1       7.100   0.665   9.886  1.00  0.00     0.031 A 
ATOM     37  C   UNL     1       8.423   0.004  10.136  1.00  0.00     0.074 A 
ATOM     38  C   UNL     1       7.063   1.923   9.413  1.00  0.00     0.049 A 
ATOM     39  N   UNL     1       9.624   0.519  10.121  1.00  0.00    -0.248 NA
ATOM     40  C   UNL     1       8.385  -1.438  10.425  1.00  0.00     0.031 C 
ATOM     41  C   UNL     1       5.853   2.624   9.002  1.00  0.00     0.029 A 
ATOM     42  N   UNL     1       8.071   2.823   9.172  1.00  0.00    -0.354 N 
ATOM     43  C   UNL     1      10.484  -0.526  10.425  1.00  0.00     0.074 A 
ATOM     44  C   UNL     1       9.670  -1.711  10.597  1.00  0.00     0.031 C 
ATOM     45  C   UNL     1       6.187   3.839   8.534  1.00  0.00     0.029 A 
ATOM     46  C   UNL     1       7.628   4.029   8.685  1.00  0.00     0.049 A 
ATOM     47  H   UNL     1       9.022   2.623   9.334  1.00  0.00     0.167 HD
ATOM     48  C   UNL     1      11.829  -0.492  10.573  1.00  0.00     0.037 A 
ATOM     49  C   UNL     1       8.307   5.166   8.431  1.00  0.00     0.037 A 
ATOM     50  C   UNL     1      12.630   0.692  10.415  1.00  0.00     0.049 A 
ATOM     51  C   UNL     1       9.789   5.208   8.713  1.00  0.00     0.074 A 
ATOM     52  C   UNL     1      13.990   0.850  10.617  1.00  0.00     0.029 A 
ATOM     53  N   UNL     1      12.140   1.927  10.015  1.00  0.00    -0.354 N 
ATOM     54  N   UNL     1      10.590   4.242   9.092  1.00  0.00    -0.248 NA
ATOM     55  C   UNL     1      10.456   6.510   8.560  1.00  0.00     0.031 C 
ATOM     56  C   UNL     1      14.313   2.191  10.387  1.00  0.00     0.029 A 
ATOM     57  C   UNL     1      13.167   2.857   9.985  1.00  0.00     0.049 A 
ATOM     58  H   UNL     1      11.201   2.115   9.786  1.00  0.00     0.167 HD
ATOM     59  C   UNL     1      11.851   4.812   9.210  1.00  0.00     0.074 A 
ATOM     60  C   UNL     1      11.716   6.204   8.837  1.00  0.00     0.031 C 
ATOM     61  C   UNL     1      13.015   4.238   9.604  1.00  0.00     0.037 A 
BRANCH  48  62
ATOM     62  C   UNL     1      12.495  -1.757  11.020  1.00  0.00     0.064 A 
ATOM     63  C   UNL     1      12.665  -2.854  10.164  1.00  0.00     0.173 A 
ATOM     64  C   UNL     1      12.960  -1.872  12.339  1.00  0.00     0.173 A 
ATOM     65  F   UNL     1      12.212  -2.803   8.902  1.00  0.00    -0.203 F 
ATOM     66  C   UNL     1      13.254  -4.031  10.622  1.00  0.00     0.198 A 
ATOM     67  C   UNL     1      13.573  -3.039  12.785  1.00  0.00     0.198 A 
ATOM     68  F   UNL     1      12.816  -0.851  13.198  1.00  0.00    -0.203 F 
ATOM     69  F   UNL     1      13.358  -5.088   9.804  1.00  0.00    -0.200 F 
ATOM     70  C   UNL     1      13.711  -4.120  11.929  1.00  0.00     0.200 A 
ATOM     71  F   UNL     1      14.018  -3.120  14.046  1.00  0.00    -0.200 F 
ATOM     72  F   UNL     1      14.274  -5.254  12.368  1.00  0.00    -0.200 F 
ENDBRANCH  48  62
BRANCH  49  73
ATOM     73  C   UNL     1       7.596   6.384   7.955  1.00  0.00     0.064 A 
ATOM     74  C   UNL     1       7.886   6.956   6.708  1.00  0.00     0.173 A 
ATOM     75  C   UNL     1       6.652   7.038   8.762  1.00  0.00     0.173 A 
ATOM     76  F   UNL     1       8.807   6.394   5.911  1.00  0.00    -0.203 F 
ATOM     77  C   UNL     1       7.277   8.141   6.297  1.00  0.00     0.198 A 
ATOM     78  C   UNL     1       6.017   8.202   8.336  1.00  0.00     0.198 A 
ATOM     79  F   UNL     1       6.345   6.546   9.972  1.00  0.00    -0.203 F 
ATOM     80  F   UNL     1       7.620   8.699   5.128  1.00  0.00    -0.200 F 
ATOM     81  C   UNL     1       6.338   8.760   7.109  1.00  0.00     0.200 A 
ATOM     82  F   UNL     1       5.104   8.790   9.121  1.00  0.00    -0.200 F 
ATOM     83  F   UNL     1       5.755   9.900   6.716  1.00  0.00    -0.200 F 
ENDBRANCH  49  73
BRANCH  61  84
ATOM     84  C   UNL     1      14.241   5.106   9.624  1.00  0.00     0.064 A 
ATOM     85  C   UNL     1      14.419   6.109  10.589  1.00  0.00     0.173 A 
ATOM     86  C   UNL     1      15.270   4.903   8.692  1.00  0.00     0.173 A 
ATOM     87  F   UNL     1      13.459   6.353  11.494  1.00  0.00    -0.203 F 
ATOM     88  C   UNL     1      15.570   6.892  10.604  1.00  0.00     0.198 A 
ATOM     89  C   UNL     1      16.433   5.667   8.729  1.00  0.00     0.198 A 
ATOM     90  F   UNL     1      15.153   3.952   7.752  1.00  0.00    -0.203 F 
ATOM     91  F   UNL     1      15.699   7.874  11.507  1.00  0.00    -0.200 F 
ATOM     92  C   UNL     1      16.579   6.665   9.680  1.00  0.00     0.200 A 
ATOM     93  F   UNL     1      17.413   5.437   7.844  1.00  0.00    -0.200 F 
ATOM     94  F   UNL     1      17.691   7.414   9.702  1.00  0.00    -0.200 F 
ENDBRANCH  61  84
ENDBRANCH  35  36
ENDBRANCH  28  30
ENDBRANCH  27  28
ENDBRANCH   1  27
TORSDOF 14
