REMARK SMILES O=C(CCCN1C(=O)/C(=C/c2ccccc2Cl)SC1=S)Nc1cccc(C(=O)OCCOC(=O)c2ccc(-c3c4nc(c(-c5c(F)c(F)c(F)c(F)c5F)c5ccc([nH]5)c(-c5c(F)c(F)c(F)c(F)c5F)c5nc(c(-c6c(F)c(F)c(F)c(F)c6F)c6ccc3[nH]6)C=C5)C=C4)cc2)c1
REMARK SMILES IDX 27 1 28 2 26 3 22 4 23 5 98 6 24 7 25 8 21 9 1 10 2 11 3 13
REMARK SMILES IDX 4 14 5 15 6 16 7 17 19 18 8 19 9 20 18 21 20 22 10 23 11 24
REMARK SMILES IDX 12 25 16 26 13 27 15 28 17 29 14 30 29 31 30 32 31 33 32 34
REMARK SMILES IDX 33 35 34 36 35 37 36 38 97 39 37 40 96 41 38 42 39 43 40 44
REMARK SMILES IDX 90 45 41 46 95 47 89 48 91 49 42 50 94 51 88 52 87 53 43 55
REMARK SMILES IDX 75 56 55 57 74 58 56 59 59 60 73 61 92 62 57 63 58 64 72 66
REMARK SMILES IDX 93 67 60 68 44 69 45 70 53 71 46 72 47 73 51 74 54 75 48 76
REMARK SMILES IDX 49 77 52 78 50 79 76 80 77 81 85 82 78 83 79 84 83 85 86 86
REMARK SMILES IDX 80 87 81 88 84 89 82 90 61 91 62 92 70 93 63 94 64 95 68 96
REMARK SMILES IDX 71 97 65 98 66 99 69 100 67 101
REMARK H PARENT 21 12 91 54 59 65
REMARK Flexibility Score: inf
ROOT
ATOM      1  C   UNL     1      -1.024   3.918   0.664  1.00  0.00     0.338 C 
ATOM      2  O   UNL     1      -1.914   4.589   0.168  1.00  0.00    -0.246 OA
ENDROOT
BRANCH   1   3
ATOM      3  C   UNL     1       0.249   3.603  -0.029  1.00  0.00     0.062 A 
ATOM      4  C   UNL     1       2.199   2.213  -0.305  1.00  0.00     0.042 A 
ATOM      5  C   UNL     1       2.786   3.193  -1.111  1.00  0.00     0.026 A 
ATOM      6  C   UNL     1       0.951   2.438   0.272  1.00  0.00     0.041 A 
ATOM      7  C   UNL     1       2.057   4.322  -1.473  1.00  0.00     0.003 A 
ATOM      8  C   UNL     1       0.769   4.500  -0.971  1.00  0.00     0.016 A 
BRANCH   4   9
ATOM      9  N   UNL     1       2.900   1.010  -0.134  1.00  0.00    -0.326 N 
ATOM     10  O   UNL     1       1.102  -0.418   0.216  1.00  0.00    -0.275 OA
ATOM     11  C   UNL     1       2.307  -0.216   0.090  1.00  0.00     0.224 C 
ATOM     12  H   UNL     1       3.883   1.043  -0.178  1.00  0.00     0.169 HD
BRANCH  11  13
ATOM     13  C   UNL     1       3.274  -1.375   0.146  1.00  0.00     0.102 C 
BRANCH  13  14
ATOM     14  C   UNL     1       4.027  -1.624  -1.163  1.00  0.00     0.032 C 
BRANCH  14  15
ATOM     15  C   UNL     1       5.365  -0.888  -1.337  1.00  0.00     0.128 C 
BRANCH  15  16
ATOM     16  N   UNL     1       6.150  -0.754  -0.107  1.00  0.00    -0.293 N 
ATOM     17  C   UNL     1       6.278   0.497   0.474  1.00  0.00     0.266 C 
ATOM     18  C   UNL     1       6.784  -1.796   0.541  1.00  0.00     0.148 C 
ATOM     19  O   UNL     1       5.727   1.517   0.078  1.00  0.00    -0.268 OA
ATOM     20  C   UNL     1       7.136   0.427   1.683  1.00  0.00     0.081 C 
ATOM     21  S   UNL     1       7.482  -1.218   2.045  1.00  0.00    -0.054 SA
ATOM     22  S   UNL     1       6.906  -3.388   0.066  1.00  0.00    -0.052 S 
ATOM     23  C   UNL     1       7.565   1.518   2.333  1.00  0.00     0.031 C 
BRANCH  23  24
ATOM     24  C   UNL     1       8.443   1.490   3.515  1.00  0.00    -0.006 A 
ATOM     25  C   UNL     1       7.894   1.880   4.746  1.00  0.00     0.010 A 
ATOM     26  C   UNL     1       9.784   1.066   3.477  1.00  0.00     0.048 A 
ATOM     27  C   UNL     1       8.650   1.799   5.919  1.00  0.00     0.001 A 
ATOM     28  C   UNL     1      10.529   0.966   4.656  1.00  0.00     0.021 A 
ATOM     29  Cl  UNL     1      10.585   0.674   1.992  1.00  0.00    -0.084 Cl
ATOM     30  C   UNL     1       9.960   1.326   5.876  1.00  0.00     0.002 A 
ENDBRANCH  23  24
ENDBRANCH  15  16
ENDBRANCH  14  15
ENDBRANCH  13  14
ENDBRANCH  11  13
ENDBRANCH   4   9
ENDBRANCH   1   3
BRANCH   1  31
ATOM     31  O   UNL     1      -0.953   3.476   1.945  1.00  0.00    -0.458 OA
BRANCH  31  32
ATOM     32  C   UNL     1      -2.036   3.825   2.828  1.00  0.00     0.275 C 
BRANCH  32  33
ATOM     33  C   UNL     1      -1.602   4.917   3.807  1.00  0.00     0.275 C 
BRANCH  33  34
ATOM     34  O   UNL     1      -1.437   6.165   3.110  1.00  0.00    -0.458 OA
BRANCH  34  35
ATOM     35  C   UNL     1      -0.166   6.602   2.977  1.00  0.00     0.338 C 
ATOM     36  O   UNL     1       0.853   6.115   3.434  1.00  0.00    -0.246 OA
BRANCH  35  37
ATOM     37  C   UNL     1      -0.162   7.764   2.080  1.00  0.00     0.060 A 
ATOM     38  C   UNL     1      -0.154   7.526   0.710  1.00  0.00     0.016 A 
ATOM     39  C   UNL     1      -0.057   9.063   2.566  1.00  0.00     0.016 A 
ATOM     40  C   UNL     1       0.024   8.566  -0.194  1.00  0.00     0.010 A 
ATOM     41  C   UNL     1       0.040  10.123   1.655  1.00  0.00     0.010 A 
ATOM     42  C   UNL     1       0.105   9.883   0.267  1.00  0.00    -0.014 A 
BRANCH  42  43
ATOM     43  C   UNL     1       0.296  11.007  -0.689  1.00  0.00     0.031 A 
ATOM     44  C   UNL     1       1.515  11.878  -0.579  1.00  0.00     0.074 A 
ATOM     45  C   UNL     1      -0.615  11.253  -1.651  1.00  0.00     0.049 A 
ATOM     46  N   UNL     1       1.764  13.035  -1.138  1.00  0.00    -0.248 NA
ATOM     47  C   UNL     1       2.596  11.385   0.288  1.00  0.00     0.031 C 
ATOM     48  C   UNL     1      -1.806  10.446  -1.920  1.00  0.00     0.029 A 
ATOM     49  N   UNL     1      -0.685  12.264  -2.579  1.00  0.00    -0.354 N 
ATOM     50  C   UNL     1       2.997  13.437  -0.640  1.00  0.00     0.074 A 
ATOM     51  C   UNL     1       3.450  12.398   0.260  1.00  0.00     0.031 C 
ATOM     52  C   UNL     1      -2.479  10.982  -2.949  1.00  0.00     0.029 A 
ATOM     53  C   UNL     1      -1.820  12.220  -3.352  1.00  0.00     0.049 A 
ATOM     54  H   UNL     1       0.011  12.953  -2.680  1.00  0.00     0.167 HD
ATOM     55  C   UNL     1       3.679  14.576  -0.908  1.00  0.00     0.037 A 
ATOM     56  C   UNL     1      -2.307  13.104  -4.243  1.00  0.00     0.037 A 
ATOM     57  C   UNL     1       3.242  15.578  -1.845  1.00  0.00     0.049 A 
ATOM     58  C   UNL     1      -1.554  14.381  -4.493  1.00  0.00     0.074 A 
ATOM     59  C   UNL     1       3.863  16.765  -2.195  1.00  0.00     0.029 A 
ATOM     60  N   UNL     1       2.077  15.501  -2.595  1.00  0.00    -0.354 N 
ATOM     61  N   UNL     1      -0.424  14.790  -3.970  1.00  0.00    -0.248 NA
ATOM     62  C   UNL     1      -2.154  15.328  -5.442  1.00  0.00     0.031 C 
ATOM     63  C   UNL     1       3.056  17.422  -3.130  1.00  0.00     0.029 A 
ATOM     64  C   UNL     1       1.957  16.623  -3.399  1.00  0.00     0.049 A 
ATOM     65  H   UNL     1       1.432  14.758  -2.562  1.00  0.00     0.167 HD
ATOM     66  C   UNL     1      -0.166  16.029  -4.540  1.00  0.00     0.074 A 
ATOM     67  C   UNL     1      -1.252  16.300  -5.458  1.00  0.00     0.031 C 
ATOM     68  C   UNL     1       0.876  16.867  -4.319  1.00  0.00     0.037 A 
BRANCH  55  69
ATOM     69  C   UNL     1       4.947  14.824  -0.144  1.00  0.00     0.064 A 
ATOM     70  C   UNL     1       6.121  14.097  -0.390  1.00  0.00     0.173 A 
ATOM     71  C   UNL     1       4.993  15.831   0.834  1.00  0.00     0.173 A 
ATOM     72  F   UNL     1       6.127  13.114  -1.303  1.00  0.00    -0.203 F 
ATOM     73  C   UNL     1       7.285  14.352   0.332  1.00  0.00     0.198 A 
ATOM     74  C   UNL     1       6.166  16.102   1.532  1.00  0.00     0.198 A 
ATOM     75  F   UNL     1       3.899  16.559   1.105  1.00  0.00    -0.203 F 
ATOM     76  F   UNL     1       8.382  13.613   0.113  1.00  0.00    -0.200 F 
ATOM     77  C   UNL     1       7.309  15.358   1.287  1.00  0.00     0.200 A 
ATOM     78  F   UNL     1       6.189  17.083   2.446  1.00  0.00    -0.200 F 
ATOM     79  F   UNL     1       8.431  15.604   1.976  1.00  0.00    -0.200 F 
ENDBRANCH  55  69
BRANCH  56  80
ATOM     80  C   UNL     1      -3.599  12.830  -4.925  1.00  0.00     0.064 A 
ATOM     81  C   UNL     1      -3.647  12.562  -6.300  1.00  0.00     0.173 A 
ATOM     82  C   UNL     1      -4.810  12.819  -4.216  1.00  0.00     0.173 A 
ATOM     83  F   UNL     1      -2.520  12.589  -7.026  1.00  0.00    -0.203 F 
ATOM     84  C   UNL     1      -4.857  12.303  -6.940  1.00  0.00     0.198 A 
ATOM     85  C   UNL     1      -6.015  12.529  -4.851  1.00  0.00     0.198 A 
ATOM     86  F   UNL     1      -4.820  13.072  -2.899  1.00  0.00    -0.203 F 
ATOM     87  F   UNL     1      -4.880  12.089  -8.263  1.00  0.00    -0.200 F 
ATOM     88  C   UNL     1      -6.039  12.277  -6.214  1.00  0.00     0.200 A 
ATOM     89  F   UNL     1      -7.152  12.491  -4.143  1.00  0.00    -0.200 F 
ATOM     90  F   UNL     1      -7.200  12.016  -6.829  1.00  0.00    -0.200 F 
ENDBRANCH  56  80
BRANCH  68  91
ATOM     91  C   UNL     1       0.918  18.133  -5.121  1.00  0.00     0.064 A 
ATOM     92  C   UNL     1       0.061  19.208  -4.848  1.00  0.00     0.173 A 
ATOM     93  C   UNL     1       1.861  18.285  -6.150  1.00  0.00     0.173 A 
ATOM     94  F   UNL     1      -0.868  19.103  -3.885  1.00  0.00    -0.203 F 
ATOM     95  C   UNL     1       0.133  20.384  -5.589  1.00  0.00     0.198 A 
ATOM     96  C   UNL     1       1.947  19.472  -6.871  1.00  0.00     0.198 A 
ATOM     97  F   UNL     1       2.706  17.287  -6.446  1.00  0.00    -0.203 F 
ATOM     98  F   UNL     1      -0.723  21.385  -5.339  1.00  0.00    -0.200 F 
ATOM     99  C   UNL     1       1.080  20.518  -6.594  1.00  0.00     0.200 A 
ATOM    100  F   UNL     1       2.870  19.604  -7.834  1.00  0.00    -0.200 F 
ATOM    101  F   UNL     1       1.153  21.654  -7.301  1.00  0.00    -0.200 F 
ENDBRANCH  68  91
ENDBRANCH  42  43
ENDBRANCH  35  37
ENDBRANCH  34  35
ENDBRANCH  33  34
ENDBRANCH  32  33
ENDBRANCH  31  32
ENDBRANCH   1  31
TORSDOF 17
