REMARK SMILES O=C(CCN1C(=O)S/C(=C\c2ccccc2F)C1=O)Nc1ccc(C(=O)OCCOC(=O)c2ccc(-c3c4nc(c(-c5c(F)c(F)c(F)c(F)c5F)c5ccc([nH]5)c(-c5c(F)c(F)c(F)c(F)c5F)c5nc(c(-c6c(F)c(F)c(F)c(F)c6F)c6ccc3[nH]6)C=C5)C=C4)cc2)c(O)c1
REMARK SMILES IDX 27 1 25 2 26 3 24 4 21 5 22 6 98 7 23 8 96 9 20 10 1 11 2 12
REMARK SMILES IDX 3 14 4 15 5 16 6 17 18 18 7 19 8 20 9 21 19 22 10 23 11 24
REMARK SMILES IDX 12 25 16 26 13 27 15 28 17 29 14 30 97 31 28 33 29 34 30 35
REMARK SMILES IDX 31 36 32 37 33 38 34 39 95 40 35 41 94 42 36 43 37 44 38 45
REMARK SMILES IDX 88 46 39 47 93 48 87 49 89 50 40 51 92 52 86 53 85 54 41 56
REMARK SMILES IDX 73 57 53 58 72 59 54 60 57 61 71 62 90 63 55 64 56 65 70 67
REMARK SMILES IDX 91 68 58 69 42 70 43 71 51 72 44 73 45 74 49 75 52 76 46 77
REMARK SMILES IDX 47 78 50 79 48 80 74 81 75 82 83 83 76 84 77 85 81 86 84 87
REMARK SMILES IDX 78 88 79 89 82 90 80 91 59 92 60 93 68 94 61 95 62 96 66 97
REMARK SMILES IDX 69 98 63 99 64 100 67 101 65 102
REMARK H PARENT 20 13 97 32 89 55 57 66
REMARK Flexibility Score: inf
ROOT
ATOM      1  O   UNL     1       0.633  -6.910   1.540  1.00  0.00    -0.458 OA
ENDROOT
BRANCH   1   2
ATOM      2  C   UNL     1       0.914  -6.496   0.276  1.00  0.00     0.342 C 
ATOM      3  O   UNL     1       0.736  -7.128  -0.752  1.00  0.00    -0.246 OA
BRANCH   2   4
ATOM      4  C   UNL     1       1.357  -5.080   0.295  1.00  0.00     0.101 A 
ATOM      5  C   UNL     1       2.144  -2.389   0.207  1.00  0.00     0.044 A 
ATOM      6  C   UNL     1       1.398  -2.902  -0.840  1.00  0.00     0.027 A 
ATOM      7  C   UNL     1       2.457  -3.203   1.302  1.00  0.00     0.073 A 
ATOM      8  C   UNL     1       1.068  -4.262  -0.818  1.00  0.00     0.022 A 
ATOM      9  C   UNL     1       2.054  -4.529   1.362  1.00  0.00     0.132 A 
BRANCH   5  10
ATOM     10  N   UNL     1       2.804  -1.161   0.100  1.00  0.00    -0.326 N 
ATOM     11  O   UNL     1       1.062   0.286  -0.331  1.00  0.00    -0.275 OA
ATOM     12  C   UNL     1       2.256   0.073  -0.146  1.00  0.00     0.226 C 
ATOM     13  H   UNL     1       3.782  -1.185   0.215  1.00  0.00     0.169 HD
BRANCH  12  14
ATOM     14  C   UNL     1       3.298   1.198  -0.203  1.00  0.00     0.122 C 
BRANCH  14  15
ATOM     15  C   UNL     1       4.063   1.506   1.101  1.00  0.00     0.140 C 
BRANCH  15  16
ATOM     16  N   UNL     1       5.206   0.618   1.340  1.00  0.00    -0.268 N 
ATOM     17  C   UNL     1       6.504   0.943   1.038  1.00  0.00     0.293 C 
ATOM     18  C   UNL     1       5.066  -0.545   2.040  1.00  0.00     0.268 C 
ATOM     19  O   UNL     1       6.920   2.013   0.631  1.00  0.00    -0.261 OA
ATOM     20  S   UNL     1       7.562  -0.448   1.343  1.00  0.00    -0.022 SA
ATOM     21  C   UNL     1       6.234  -1.421   1.803  1.00  0.00     0.083 C 
ATOM     22  O   UNL     1       4.084  -0.866   2.689  1.00  0.00    -0.268 OA
ATOM     23  C   UNL     1       6.100  -2.753   1.842  1.00  0.00     0.032 C 
BRANCH  23  24
ATOM     24  C   UNL     1       7.147  -3.772   1.807  1.00  0.00     0.012 A 
ATOM     25  C   UNL     1       7.292  -4.676   0.748  1.00  0.00     0.011 A 
ATOM     26  C   UNL     1       7.897  -3.961   2.972  1.00  0.00     0.130 A 
ATOM     27  C   UNL     1       8.186  -5.748   0.870  1.00  0.00     0.001 A 
ATOM     28  C   UNL     1       8.776  -5.027   3.099  1.00  0.00     0.040 A 
ATOM     29  F   UNL     1       7.723  -3.140   4.019  1.00  0.00    -0.206 F 
ATOM     30  C   UNL     1       8.921  -5.925   2.045  1.00  0.00     0.003 A 
ENDBRANCH  23  24
ENDBRANCH  15  16
ENDBRANCH  14  15
ENDBRANCH  12  14
ENDBRANCH   5  10
BRANCH   9  31
ATOM     31  O   UNL     1       2.436  -5.219   2.478  1.00  0.00    -0.507 OA
ATOM     32  H   UNL     1       2.195  -6.119   2.578  1.00  0.00     0.293 HD
ENDBRANCH   9  31
ENDBRANCH   2   4
ENDBRANCH   1   2
BRANCH   1  33
ATOM     33  C   UNL     1      -0.056  -8.173   1.669  1.00  0.00     0.275 C 
BRANCH  33  34
ATOM     34  C   UNL     1      -1.525  -7.947   2.031  1.00  0.00     0.275 C 
BRANCH  34  35
ATOM     35  O   UNL     1      -2.208  -7.294   0.945  1.00  0.00    -0.458 OA
BRANCH  35  36
ATOM     36  C   UNL     1      -2.527  -5.996   1.154  1.00  0.00     0.338 C 
ATOM     37  O   UNL     1      -2.353  -5.339   2.165  1.00  0.00    -0.246 OA
BRANCH  36  38
ATOM     38  C   UNL     1      -3.039  -5.410  -0.093  1.00  0.00     0.060 A 
ATOM     39  C   UNL     1      -2.132  -5.192  -1.120  1.00  0.00     0.016 A 
ATOM     40  C   UNL     1      -4.340  -4.935  -0.208  1.00  0.00     0.016 A 
ATOM     41  C   UNL     1      -2.464  -4.392  -2.204  1.00  0.00     0.010 A 
ATOM     42  C   UNL     1      -4.724  -4.271  -1.383  1.00  0.00     0.010 A 
ATOM     43  C   UNL     1      -3.784  -3.972  -2.388  1.00  0.00    -0.014 A 
BRANCH  43  44
ATOM     44  C   UNL     1      -4.173  -3.263  -3.642  1.00  0.00     0.031 A 
ATOM     45  C   UNL     1      -4.882  -1.938  -3.585  1.00  0.00     0.074 A 
ATOM     46  C   UNL     1      -3.889  -3.810  -4.843  1.00  0.00     0.049 A 
ATOM     47  N   UNL     1      -5.498  -1.287  -4.540  1.00  0.00    -0.248 NA
ATOM     48  C   UNL     1      -4.915  -1.262  -2.280  1.00  0.00     0.031 C 
ATOM     49  C   UNL     1      -3.139  -5.050  -5.058  1.00  0.00     0.029 A 
ATOM     50  N   UNL     1      -4.191  -3.391  -6.118  1.00  0.00    -0.354 N 
ATOM     51  C   UNL     1      -6.029  -0.151  -3.943  1.00  0.00     0.074 A 
ATOM     52  C   UNL     1      -5.681  -0.211  -2.539  1.00  0.00     0.031 C 
ATOM     53  C   UNL     1      -2.987  -5.258  -6.371  1.00  0.00     0.029 A 
ATOM     54  C   UNL     1      -3.743  -4.247  -7.096  1.00  0.00     0.049 A 
ATOM     55  H   UNL     1      -4.680  -2.559  -6.311  1.00  0.00     0.167 HD
ATOM     56  C   UNL     1      -6.739   0.849  -4.520  1.00  0.00     0.037 A 
ATOM     57  C   UNL     1      -3.962  -4.265  -8.424  1.00  0.00     0.037 A 
ATOM     58  C   UNL     1      -7.049   0.909  -5.927  1.00  0.00     0.049 A 
ATOM     59  C   UNL     1      -4.851  -3.219  -9.026  1.00  0.00     0.074 A 
ATOM     60  C   UNL     1      -7.769   1.872  -6.612  1.00  0.00     0.029 A 
ATOM     61  N   UNL     1      -6.646  -0.030  -6.868  1.00  0.00    -0.354 N 
ATOM     62  N   UNL     1      -5.419  -2.191  -8.445  1.00  0.00    -0.248 NA
ATOM     63  C   UNL     1      -5.159  -3.351 -10.456  1.00  0.00     0.031 C 
ATOM     64  C   UNL     1      -7.851   1.487  -7.953  1.00  0.00     0.029 A 
ATOM     65  C   UNL     1      -7.129   0.316  -8.120  1.00  0.00     0.049 A 
ATOM     66  H   UNL     1      -6.098  -0.825  -6.673  1.00  0.00     0.167 HD
ATOM     67  C   UNL     1      -6.140  -1.544  -9.436  1.00  0.00     0.074 A 
ATOM     68  C   UNL     1      -5.928  -2.290 -10.661  1.00  0.00     0.031 C 
ATOM     69  C   UNL     1      -6.909  -0.434  -9.333  1.00  0.00     0.037 A 
BRANCH  56  70
ATOM     70  C   UNL     1      -7.263   1.942  -3.630  1.00  0.00     0.064 A 
ATOM     71  C   UNL     1      -8.644   2.083  -3.418  1.00  0.00     0.173 A 
ATOM     72  C   UNL     1      -6.412   2.873  -3.016  1.00  0.00     0.173 A 
ATOM     73  F   UNL     1      -9.508   1.229  -3.989  1.00  0.00    -0.203 F 
ATOM     74  C   UNL     1      -9.151   3.113  -2.629  1.00  0.00     0.198 A 
ATOM     75  C   UNL     1      -6.920   3.881  -2.198  1.00  0.00     0.198 A 
ATOM     76  F   UNL     1      -5.083   2.784  -3.179  1.00  0.00    -0.203 F 
ATOM     77  F   UNL     1     -10.475   3.242  -2.467  1.00  0.00    -0.200 F 
ATOM     78  C   UNL     1      -8.288   4.005  -2.011  1.00  0.00     0.200 A 
ATOM     79  F   UNL     1      -6.083   4.726  -1.581  1.00  0.00    -0.200 F 
ATOM     80  F   UNL     1      -8.776   4.980  -1.232  1.00  0.00    -0.200 F 
ENDBRANCH  56  70
BRANCH  57  81
ATOM     81  C   UNL     1      -3.342  -5.337  -9.247  1.00  0.00     0.064 A 
ATOM     82  C   UNL     1      -3.712  -6.684  -9.100  1.00  0.00     0.173 A 
ATOM     83  C   UNL     1      -2.297  -5.040 -10.130  1.00  0.00     0.173 A 
ATOM     84  F   UNL     1      -4.704  -7.021  -8.264  1.00  0.00    -0.203 F 
ATOM     85  C   UNL     1      -3.025  -7.696  -9.767  1.00  0.00     0.198 A 
ATOM     86  C   UNL     1      -1.631  -6.051 -10.821  1.00  0.00     0.198 A 
ATOM     87  F   UNL     1      -1.923  -3.767 -10.321  1.00  0.00    -0.203 F 
ATOM     88  F   UNL     1      -3.353  -8.978  -9.556  1.00  0.00    -0.200 F 
ATOM     89  C   UNL     1      -1.984  -7.379 -10.626  1.00  0.00     0.200 A 
ATOM     90  F   UNL     1      -0.639  -5.740 -11.666  1.00  0.00    -0.200 F 
ATOM     91  F   UNL     1      -1.318  -8.352 -11.261  1.00  0.00    -0.200 F 
ENDBRANCH  57  81
BRANCH  69  92
ATOM     92  C   UNL     1      -7.573   0.070 -10.580  1.00  0.00     0.064 A 
ATOM     93  C   UNL     1      -7.155   1.274 -11.169  1.00  0.00     0.173 A 
ATOM     94  C   UNL     1      -8.684  -0.582 -11.132  1.00  0.00     0.173 A 
ATOM     95  F   UNL     1      -6.097   1.936 -10.675  1.00  0.00    -0.203 F 
ATOM     96  C   UNL     1      -7.846   1.822 -12.245  1.00  0.00     0.198 A 
ATOM     97  C   UNL     1      -9.355  -0.045 -12.227  1.00  0.00     0.198 A 
ATOM     98  F   UNL     1      -9.110  -1.745 -10.616  1.00  0.00    -0.203 F 
ATOM     99  F   UNL     1      -7.458   2.997 -12.760  1.00  0.00    -0.200 F 
ATOM    100  C   UNL     1      -8.945   1.163 -12.773  1.00  0.00     0.200 A 
ATOM    101  F   UNL     1     -10.403  -0.695 -12.753  1.00  0.00    -0.200 F 
ATOM    102  F   UNL     1      -9.611   1.692 -13.808  1.00  0.00    -0.200 F 
ENDBRANCH  69  92
ENDBRANCH  43  44
ENDBRANCH  36  38
ENDBRANCH  35  36
ENDBRANCH  34  35
ENDBRANCH  33  34
ENDBRANCH   1  33
TORSDOF 17
