REMARK SMILES CCc1c(C)nn(CC(=O)N[C@H](C(=O)OCCOC(=O)c2ccc(-c3c4nc(c(-c5c(F)c(F)c(F)c(F)c5F)c5ccc([nH]5)c(-c5c(F)c(F)c(F)c(F)c5F)c5nc(c(-c6c(F)c(F)c(F)c(F)c6F)c6ccc3[nH]6)C=C5)C=C4)cc2)c2c(C)n[nH]c2C)c1C
REMARK SMILES IDX 16 1 15 2 13 3 14 4 12 5 11 6 9 7 10 8 8 10 7 11 3 12 4 13
REMARK SMILES IDX 91 14 5 15 6 16 92 17 2 18 1 19 84 20 85 21 89 22 86 23
REMARK SMILES IDX 87 24 88 25 90 26 17 28 18 29 19 30 20 31 21 32 22 33 83 34
REMARK SMILES IDX 23 35 82 36 24 37 25 38 26 39 76 40 27 41 81 42 75 43 77 44
REMARK SMILES IDX 28 45 80 46 74 47 73 48 29 50 61 51 41 52 60 53 42 54 45 55
REMARK SMILES IDX 59 56 78 57 43 58 44 59 58 61 79 62 46 63 30 64 31 65 39 66
REMARK SMILES IDX 32 67 33 68 37 69 40 70 34 71 35 72 38 73 36 74 62 75 63 76
REMARK SMILES IDX 71 77 64 78 65 79 69 80 72 81 66 82 67 83 70 84 68 85 47 86
REMARK SMILES IDX 48 87 56 88 49 89 50 90 54 91 57 92 51 93 52 94 55 95 53 96
REMARK H PARENT 11 9 88 27 77 49 45 60
REMARK Flexibility Score: inf
ROOT
ATOM      1  C   UNL     1      -1.818  -5.987  -5.918  1.00  0.00     0.274 C 
ENDROOT
BRANCH   1   2
ATOM      2  O   UNL     1      -2.209  -4.795  -5.211  1.00  0.00    -0.460 OA
BRANCH   2   3
ATOM      3  C   UNL     1      -1.514  -4.506  -4.077  1.00  0.00     0.333 C 
ATOM      4  O   UNL     1      -0.638  -5.229  -3.608  1.00  0.00    -0.249 OA
BRANCH   3   5
ATOM      5  C   UNL     1      -1.978  -3.194  -3.390  1.00  0.00     0.227 C 
BRANCH   5   6
ATOM      6  N   UNL     1      -2.347  -2.250  -4.424  1.00  0.00    -0.337 N 
ATOM      7  C   UNL     1      -3.581  -2.017  -4.938  1.00  0.00     0.242 C 
ATOM      8  O   UNL     1      -3.655  -1.536  -6.071  1.00  0.00    -0.273 OA
ATOM      9  H   UNL     1      -1.613  -1.712  -4.800  1.00  0.00     0.164 HD
BRANCH   7  10
ATOM     10  C   UNL     1      -4.754  -2.070  -4.018  1.00  0.00     0.244 C 
BRANCH  10  11
ATOM     11  N   UNL     1      -5.144  -3.385  -3.489  1.00  0.00    -0.260 N 
ATOM     12  C   UNL     1      -5.890  -5.352  -2.549  1.00  0.00    -0.004 A 
ATOM     13  C   UNL     1      -6.444  -5.059  -3.824  1.00  0.00     0.063 A 
ATOM     14  C   UNL     1      -4.842  -4.248  -2.185  1.00  0.00     0.039 A 
ATOM     15  C   UNL     1      -7.416  -5.794  -4.677  1.00  0.00     0.069 C 
ATOM     16  N   UNL     1      -5.979  -3.961  -4.350  1.00  0.00    -0.177 NA
ATOM     17  C   UNL     1      -3.368  -3.973  -0.534  1.00  0.00     0.066 C 
BRANCH  12  18
ATOM     18  C   UNL     1      -6.259  -6.697  -1.881  1.00  0.00     0.036 C 
ATOM     19  C   UNL     1      -7.076  -6.651  -0.595  1.00  0.00     0.009 C 
ENDBRANCH  12  18
ENDBRANCH  10  11
ENDBRANCH   7  10
ENDBRANCH   5   6
BRANCH   5  20
ATOM     20  C   UNL     1      -3.025  -3.503  -2.367  1.00  0.00     0.029 A 
ATOM     21  C   UNL     1      -3.294  -5.375  -1.804  1.00  0.00     0.065 A 
ATOM     22  C   UNL     1      -4.218  -2.505  -1.395  1.00  0.00     0.038 A 
ATOM     23  C   UNL     1      -2.612  -6.637  -2.183  1.00  0.00     0.069 C 
ATOM     24  N   UNL     1      -4.544  -5.433  -0.602  1.00  0.00    -0.180 NA
ATOM     25  N   UNL     1      -5.219  -3.713  -0.402  1.00  0.00    -0.282 N 
ATOM     26  C   UNL     1      -4.494  -1.064  -1.081  1.00  0.00     0.066 C 
ATOM     27  H   UNL     1      -5.997  -3.476   0.153  1.00  0.00     0.190 HD
ENDBRANCH   5  20
ENDBRANCH   3   5
ENDBRANCH   2   3
ENDBRANCH   1   2
BRANCH   1  28
ATOM     28  C   UNL     1      -0.828  -5.677  -7.044  1.00  0.00     0.275 C 
BRANCH  28  29
ATOM     29  O   UNL     1       0.418  -5.148  -6.543  1.00  0.00    -0.458 OA
BRANCH  29  30
ATOM     30  C   UNL     1       0.439  -3.805  -6.405  1.00  0.00     0.338 C 
ATOM     31  O   UNL     1      -0.453  -3.010  -6.657  1.00  0.00    -0.246 OA
BRANCH  30  32
ATOM     32  C   UNL     1       1.634  -3.361  -5.684  1.00  0.00     0.060 A 
ATOM     33  C   UNL     1       1.476  -3.031  -4.340  1.00  0.00     0.016 A 
ATOM     34  C   UNL     1       2.806  -3.033  -6.352  1.00  0.00     0.016 A 
ATOM     35  C   UNL     1       2.430  -2.306  -3.662  1.00  0.00     0.010 A 
ATOM     36  C   UNL     1       3.815  -2.370  -5.647  1.00  0.00     0.010 A 
ATOM     37  C   UNL     1       3.617  -1.982  -4.307  1.00  0.00    -0.014 A 
BRANCH  37  38
ATOM     38  C   UNL     1       4.616  -1.186  -3.571  1.00  0.00     0.031 A 
ATOM     39  C   UNL     1       4.947   0.194  -4.045  1.00  0.00     0.074 A 
ATOM     40  C   UNL     1       5.178  -1.700  -2.460  1.00  0.00     0.049 A 
ATOM     41  N   UNL     1       5.905   0.991  -3.656  1.00  0.00    -0.248 NA
ATOM     42  C   UNL     1       4.092   0.750  -5.109  1.00  0.00     0.031 C 
ATOM     43  C   UNL     1       4.848  -2.997  -1.861  1.00  0.00     0.029 A 
ATOM     44  N   UNL     1       6.149  -1.194  -1.638  1.00  0.00    -0.354 N 
ATOM     45  C   UNL     1       5.808   2.114  -4.466  1.00  0.00     0.074 A 
ATOM     46  C   UNL     1       4.697   1.901  -5.367  1.00  0.00     0.031 C 
ATOM     47  C   UNL     1       5.599  -3.181  -0.766  1.00  0.00     0.029 A 
ATOM     48  C   UNL     1       6.522  -2.062  -0.641  1.00  0.00     0.049 A 
ATOM     49  H   UNL     1       6.540  -0.297  -1.749  1.00  0.00     0.167 HD
ATOM     50  C   UNL     1       6.595   3.214  -4.453  1.00  0.00     0.037 A 
ATOM     51  C   UNL     1       7.539  -1.984   0.235  1.00  0.00     0.037 A 
ATOM     52  C   UNL     1       7.670   3.411  -3.516  1.00  0.00     0.049 A 
ATOM     53  C   UNL     1       8.440  -0.782   0.171  1.00  0.00     0.074 A 
ATOM     54  C   UNL     1       8.516   4.497  -3.392  1.00  0.00     0.029 A 
ATOM     55  N   UNL     1       8.045   2.496  -2.542  1.00  0.00    -0.354 N 
ATOM     56  N   UNL     1       8.365   0.271  -0.607  1.00  0.00    -0.248 NA
ATOM     57  C   UNL     1       9.575  -0.762   1.101  1.00  0.00     0.031 C 
ATOM     58  C   UNL     1       9.445   4.211  -2.387  1.00  0.00     0.029 A 
ATOM     59  C   UNL     1       9.131   2.980  -1.833  1.00  0.00     0.049 A 
ATOM     60  H   UNL     1       7.604   1.631  -2.379  1.00  0.00     0.167 HD
ATOM     61  C   UNL     1       9.415   1.097  -0.234  1.00  0.00     0.074 A 
ATOM     62  C   UNL     1      10.103   0.427   0.851  1.00  0.00     0.031 C 
ATOM     63  C   UNL     1       9.781   2.300  -0.741  1.00  0.00     0.037 A 
BRANCH  50  64
ATOM     64  C   UNL     1       6.365   4.257  -5.506  1.00  0.00     0.064 A 
ATOM     65  C   UNL     1       5.234   5.085  -5.508  1.00  0.00     0.173 A 
ATOM     66  C   UNL     1       7.329   4.461  -6.506  1.00  0.00     0.173 A 
ATOM     67  F   UNL     1       4.273   4.919  -4.586  1.00  0.00    -0.203 F 
ATOM     68  C   UNL     1       5.069   6.068  -6.481  1.00  0.00     0.198 A 
ATOM     69  C   UNL     1       7.177   5.466  -7.457  1.00  0.00     0.198 A 
ATOM     70  F   UNL     1       8.429   3.695  -6.552  1.00  0.00    -0.203 F 
ATOM     71  F   UNL     1       3.960   6.821  -6.489  1.00  0.00    -0.200 F 
ATOM     72  C   UNL     1       6.045   6.265  -7.447  1.00  0.00     0.200 A 
ATOM     73  F   UNL     1       8.128   5.662  -8.381  1.00  0.00    -0.200 F 
ATOM     74  F   UNL     1       5.892   7.223  -8.372  1.00  0.00    -0.200 F 
ENDBRANCH  50  64
BRANCH  51  75
ATOM     75  C   UNL     1       7.790  -3.083   1.205  1.00  0.00     0.064 A 
ATOM     76  C   UNL     1       7.689  -2.858   2.584  1.00  0.00     0.173 A 
ATOM     77  C   UNL     1       8.172  -4.365   0.781  1.00  0.00     0.173 A 
ATOM     78  F   UNL     1       7.343  -1.646   3.041  1.00  0.00    -0.203 F 
ATOM     79  C   UNL     1       8.000  -3.860   3.502  1.00  0.00     0.198 A 
ATOM     80  C   UNL     1       8.444  -5.377   1.698  1.00  0.00     0.198 A 
ATOM     81  F   UNL     1       8.279  -4.639  -0.528  1.00  0.00    -0.203 F 
ATOM     82  F   UNL     1       7.963  -3.596   4.815  1.00  0.00    -0.200 F 
ATOM     83  C   UNL     1       8.373  -5.120   3.058  1.00  0.00     0.200 A 
ATOM     84  F   UNL     1       8.785  -6.598   1.264  1.00  0.00    -0.200 F 
ATOM     85  F   UNL     1       8.678  -6.080   3.941  1.00  0.00    -0.200 F 
ENDBRANCH  51  75
BRANCH  63  86
ATOM     86  C   UNL     1      10.933   2.997  -0.077  1.00  0.00     0.064 A 
ATOM     87  C   UNL     1      12.249   2.527  -0.188  1.00  0.00     0.173 A 
ATOM     88  C   UNL     1      10.713   4.173   0.657  1.00  0.00     0.173 A 
ATOM     89  F   UNL     1      12.509   1.398  -0.865  1.00  0.00    -0.203 F 
ATOM     90  C   UNL     1      13.299   3.190   0.441  1.00  0.00     0.198 A 
ATOM     91  C   UNL     1      11.770   4.855   1.250  1.00  0.00     0.198 A 
ATOM     92  F   UNL     1       9.473   4.669   0.787  1.00  0.00    -0.203 F 
ATOM     93  F   UNL     1      14.540   2.688   0.375  1.00  0.00    -0.200 F 
ATOM     94  C   UNL     1      13.060   4.357   1.151  1.00  0.00     0.200 A 
ATOM     95  F   UNL     1      11.539   5.993   1.918  1.00  0.00    -0.200 F 
ATOM     96  F   UNL     1      14.073   4.999   1.748  1.00  0.00    -0.200 F 
ENDBRANCH  63  86
ENDBRANCH  37  38
ENDBRANCH  30  32
ENDBRANCH  29  30
ENDBRANCH  28  29
ENDBRANCH   1  28
TORSDOF 16
