REMARK SMILES Cc1ccc(Cl)c(NC(=O)C[N@@H+]2CCC[C@H]2C(=O)OCCOC(=O)c2ccc(-c3c4nc(c(-c5c(F)c(F)c(F)c(F)c5F)c5ccc([nH]5)c(-c5c(F)c(F)c(F)c(F)c5F)c5nc(c(-c6c(F)c(F)c(F)c(F)c6F)c6ccc3[nH]6)C=C5)C=C4)cc2)c1Cl
REMARK SMILES IDX 20 1 19 2 17 3 18 4 16 5 12 6 13 7 14 9 15 10 11 11 9 12
REMARK SMILES IDX 8 13 10 15 7 16 1 17 2 18 3 19 88 20 4 21 89 22 5 23 6 24
REMARK SMILES IDX 21 25 22 26 23 27 24 28 25 29 26 30 87 31 27 32 86 33 28 34
REMARK SMILES IDX 29 35 30 36 80 37 31 38 85 39 79 40 81 41 32 42 84 43 78 44
REMARK SMILES IDX 77 45 33 47 65 48 45 49 64 50 46 51 49 52 63 53 82 54 47 55
REMARK SMILES IDX 48 56 62 58 83 59 50 60 34 61 35 62 43 63 36 64 37 65 41 66
REMARK SMILES IDX 44 67 38 68 39 69 42 70 40 71 66 72 67 73 75 74 68 75 69 76
REMARK SMILES IDX 73 77 76 78 70 79 71 80 74 81 72 82 51 83 52 84 60 85 53 86
REMARK SMILES IDX 54 87 58 88 61 89 55 90 56 91 59 92 57 93
REMARK H PARENT 12 8 8 14 81 46 49 57
REMARK Flexibility Score: inf
ROOT
ATOM      1  C   UNL     1      -0.350   0.022  -4.304  1.00  0.00     0.274 C 
ENDROOT
BRANCH   1   2
ATOM      2  O   UNL     1       0.158  -0.430  -3.033  1.00  0.00    -0.458 OA
BRANCH   2   3
ATOM      3  C   UNL     1       1.504  -0.640  -2.934  1.00  0.00     0.365 C 
ATOM      4  O   UNL     1       2.311  -0.499  -3.845  1.00  0.00    -0.245 OA
BRANCH   3   5
ATOM      5  C   UNL     1       1.867  -1.012  -1.485  1.00  0.00     0.295 C 
ATOM      6  N   UNL     1       1.988  -2.483  -1.329  1.00  0.00    -0.315 N 
ATOM      7  C   UNL     1       3.379  -2.750  -1.760  1.00  0.00     0.263 C 
ATOM      8  H   UNL     1       1.281  -2.992  -1.859  1.00  0.00     0.349 HD
ATOM      9  C   UNL     1       4.214  -1.589  -1.242  1.00  0.00     0.068 C 
ATOM     10  C   UNL     1       3.223  -0.452  -1.053  1.00  0.00     0.083 C 
BRANCH   6  11
ATOM     11  C   UNL     1       1.819  -2.892   0.094  1.00  0.00     0.364 C 
BRANCH  11  12
ATOM     12  C   UNL     1       0.357  -3.137   0.473  1.00  0.00     0.279 C 
ATOM     13  N   UNL     1      -0.529  -2.181   0.871  1.00  0.00    -0.319 N 
ATOM     14  H   UNL     1      -1.427  -2.550   1.034  1.00  0.00     0.170 HD
ATOM     15  O   UNL     1      -0.113  -4.279   0.352  1.00  0.00    -0.268 OA
BRANCH  13  16
ATOM     16  C   UNL     1      -0.474  -0.787   1.109  1.00  0.00     0.079 A 
ATOM     17  C   UNL     1       1.818   2.131   2.115  1.00  0.00     0.046 C 
ATOM     18  C   UNL     1       0.611   1.335   1.690  1.00  0.00    -0.030 A 
ATOM     19  C   UNL     1      -0.484   2.033   1.163  1.00  0.00     0.006 A 
ATOM     20  C   UNL     1       0.576  -0.080   1.726  1.00  0.00     0.069 A 
ATOM     21  C   UNL     1      -1.599   1.347   0.696  1.00  0.00     0.023 A 
ATOM     22  Cl  UNL     1       1.718  -0.895   2.747  1.00  0.00    -0.082 Cl
ATOM     23  C   UNL     1      -1.590  -0.045   0.663  1.00  0.00     0.066 A 
ATOM     24  Cl  UNL     1      -2.978  -0.829  -0.021  1.00  0.00    -0.082 Cl
ENDBRANCH  13  16
ENDBRANCH  11  12
ENDBRANCH   6  11
ENDBRANCH   3   5
ENDBRANCH   2   3
ENDBRANCH   1   2
BRANCH   1  25
ATOM     25  C   UNL     1      -0.816   1.472  -4.185  1.00  0.00     0.275 C 
BRANCH  25  26
ATOM     26  O   UNL     1       0.335   2.321  -4.010  1.00  0.00    -0.458 OA
BRANCH  26  27
ATOM     27  C   UNL     1       0.419   2.981  -2.837  1.00  0.00     0.338 C 
ATOM     28  O   UNL     1      -0.406   3.023  -1.935  1.00  0.00    -0.246 OA
BRANCH  27  29
ATOM     29  C   UNL     1       1.733   3.628  -2.735  1.00  0.00     0.060 A 
ATOM     30  C   UNL     1       2.867   2.825  -2.684  1.00  0.00     0.016 A 
ATOM     31  C   UNL     1       1.846   5.004  -2.559  1.00  0.00     0.016 A 
ATOM     32  C   UNL     1       4.103   3.375  -2.357  1.00  0.00     0.010 A 
ATOM     33  C   UNL     1       3.112   5.573  -2.362  1.00  0.00     0.010 A 
ATOM     34  C   UNL     1       4.256   4.763  -2.236  1.00  0.00    -0.014 A 
BRANCH  34  35
ATOM     35  C   UNL     1       5.609   5.353  -2.009  1.00  0.00     0.031 A 
ATOM     36  C   UNL     1       5.870   6.266  -0.839  1.00  0.00     0.074 A 
ATOM     37  C   UNL     1       6.623   5.063  -2.851  1.00  0.00     0.049 A 
ATOM     38  N   UNL     1       6.913   7.020  -0.595  1.00  0.00    -0.248 NA
ATOM     39  C   UNL     1       4.819   6.352   0.186  1.00  0.00     0.031 C 
ATOM     40  C   UNL     1       6.536   4.167  -4.006  1.00  0.00     0.029 A 
ATOM     41  N   UNL     1       7.933   5.478  -2.860  1.00  0.00    -0.354 N 
ATOM     42  C   UNL     1       6.617   7.718   0.568  1.00  0.00     0.074 A 
ATOM     43  C   UNL     1       5.303   7.286   0.995  1.00  0.00     0.031 C 
ATOM     44  C   UNL     1       7.747   4.044  -4.565  1.00  0.00     0.029 A 
ATOM     45  C   UNL     1       8.673   4.941  -3.885  1.00  0.00     0.049 A 
ATOM     46  H   UNL     1       8.306   6.101  -2.195  1.00  0.00     0.167 HD
ATOM     47  C   UNL     1       7.371   8.643   1.211  1.00  0.00     0.037 A 
ATOM     48  C   UNL     1       9.940   5.175  -4.277  1.00  0.00     0.037 A 
ATOM     49  C   UNL     1       8.704   9.025   0.821  1.00  0.00     0.049 A 
ATOM     50  C   UNL     1      10.748   6.213  -3.559  1.00  0.00     0.074 A 
ATOM     51  C   UNL     1       9.549   9.947   1.416  1.00  0.00     0.029 A 
ATOM     52  N   UNL     1       9.396   8.488  -0.254  1.00  0.00    -0.354 N 
ATOM     53  N   UNL     1      10.420   6.937  -2.518  1.00  0.00    -0.248 NA
ATOM     54  C   UNL     1      12.086   6.497  -4.095  1.00  0.00     0.031 C 
ATOM     55  C   UNL     1      10.742   9.986   0.686  1.00  0.00     0.029 A 
ATOM     56  C   UNL     1      10.654   9.065  -0.344  1.00  0.00     0.049 A 
ATOM     57  H   UNL     1       9.047   7.798  -0.863  1.00  0.00     0.167 HD
ATOM     58  C   UNL     1      11.502   7.771  -2.281  1.00  0.00     0.074 A 
ATOM     59  C   UNL     1      12.511   7.441  -3.266  1.00  0.00     0.031 C 
ATOM     60  C   UNL     1      11.639   8.736  -1.339  1.00  0.00     0.037 A 
BRANCH  47  61
ATOM     61  C   UNL     1       6.761   9.346   2.388  1.00  0.00     0.064 A 
ATOM     62  C   UNL     1       6.630   8.727   3.638  1.00  0.00     0.173 A 
ATOM     63  C   UNL     1       6.355  10.685   2.272  1.00  0.00     0.173 A 
ATOM     64  F   UNL     1       6.990   7.445   3.797  1.00  0.00    -0.203 F 
ATOM     65  C   UNL     1       6.102   9.419   4.727  1.00  0.00     0.198 A 
ATOM     66  C   UNL     1       5.848  11.380   3.366  1.00  0.00     0.198 A 
ATOM     67  F   UNL     1       6.464  11.324   1.097  1.00  0.00    -0.203 F 
ATOM     68  F   UNL     1       5.956   8.799   5.906  1.00  0.00    -0.200 F 
ATOM     69  C   UNL     1       5.719  10.745   4.592  1.00  0.00     0.200 A 
ATOM     70  F   UNL     1       5.488  12.664   3.235  1.00  0.00    -0.200 F 
ATOM     71  F   UNL     1       5.220  11.411   5.643  1.00  0.00    -0.200 F 
ENDBRANCH  47  61
BRANCH  48  72
ATOM     72  C   UNL     1      10.492   4.447  -5.448  1.00  0.00     0.064 A 
ATOM     73  C   UNL     1      11.485   3.472  -5.287  1.00  0.00     0.173 A 
ATOM     74  C   UNL     1      10.011   4.683  -6.745  1.00  0.00     0.173 A 
ATOM     75  F   UNL     1      11.995   3.232  -4.070  1.00  0.00    -0.203 F 
ATOM     76  C   UNL     1      11.972   2.756  -6.378  1.00  0.00     0.198 A 
ATOM     77  C   UNL     1      10.477   3.946  -7.831  1.00  0.00     0.198 A 
ATOM     78  F   UNL     1       9.062   5.608  -6.951  1.00  0.00    -0.203 F 
ATOM     79  F   UNL     1      12.940   1.847  -6.202  1.00  0.00    -0.200 F 
ATOM     80  C   UNL     1      11.459   2.985  -7.647  1.00  0.00     0.200 A 
ATOM     81  F   UNL     1       9.966   4.160  -9.051  1.00  0.00    -0.200 F 
ATOM     82  F   UNL     1      11.914   2.282  -8.693  1.00  0.00    -0.200 F 
ENDBRANCH  48  72
BRANCH  60  83
ATOM     83  C   UNL     1      12.927   9.500  -1.337  1.00  0.00     0.064 A 
ATOM     84  C   UNL     1      13.178  10.500  -2.287  1.00  0.00     0.173 A 
ATOM     85  C   UNL     1      13.908   9.244  -0.370  1.00  0.00     0.173 A 
ATOM     86  F   UNL     1      12.274  10.765  -3.243  1.00  0.00    -0.203 F 
ATOM     87  C   UNL     1      14.378  11.205  -2.280  1.00  0.00     0.198 A 
ATOM     88  C   UNL     1      15.098   9.964  -0.353  1.00  0.00     0.198 A 
ATOM     89  F   UNL     1      13.710   8.296   0.559  1.00  0.00    -0.203 F 
ATOM     90  F   UNL     1      14.615  12.131  -3.219  1.00  0.00    -0.200 F 
ATOM     91  C   UNL     1      15.334  10.940  -1.311  1.00  0.00     0.200 A 
ATOM     92  F   UNL     1      16.021   9.710   0.585  1.00  0.00    -0.200 F 
ATOM     93  F   UNL     1      16.490  11.619  -1.306  1.00  0.00    -0.200 F 
ENDBRANCH  60  83
ENDBRANCH  34  35
ENDBRANCH  27  29
ENDBRANCH  26  27
ENDBRANCH  25  26
ENDBRANCH   1  25
TORSDOF 14
