REMARK SMILES CC(=O)N1CC[NH+](C[C@@H](CC(=O)Nc2ccccc2F)C(=O)OCCOC(=O)c2ccc(-c3c4nc(c(-c5c(F)c(F)c(F)c(F)c5F)c5ccc([nH]5)c(-c5c(F)c(F)c(F)c(F)c5F)c5nc(c(-c6c(F)c(F)c(F)c(F)c6F)c6ccc3[nH]6)C=C5)C=C4)cc2)CC1
REMARK SMILES IDX 24 1 23 2 21 3 22 4 9 5 8 6 7 7 1 8 2 9 3 10 4 11 5 12 93 13
REMARK SMILES IDX 6 14 92 15 10 17 11 18 12 19 13 20 14 22 15 23 19 24 16 25
REMARK SMILES IDX 18 26 20 27 17 28 25 29 26 30 27 31 28 32 29 33 30 34 91 35
REMARK SMILES IDX 31 36 90 37 32 38 33 39 34 40 84 41 35 42 89 43 83 44 85 45
REMARK SMILES IDX 36 46 88 47 82 48 81 49 37 51 69 52 49 53 68 54 50 55 53 56
REMARK SMILES IDX 67 57 86 58 51 59 52 60 66 62 87 63 54 64 38 65 39 66 47 67
REMARK SMILES IDX 40 68 41 69 45 70 48 71 42 72 43 73 46 74 44 75 70 76 71 77
REMARK SMILES IDX 79 78 72 79 73 80 77 81 80 82 74 83 75 84 78 85 76 86 55 87
REMARK SMILES IDX 56 88 64 89 57 90 58 91 62 92 65 93 59 94 60 95 63 96 61 97
REMARK H PARENT 7 16 13 21 85 50 53 61
REMARK Flexibility Score: inf
ROOT
ATOM      1  C   UNL     1       2.217  -4.345  -7.948  1.00  0.00     0.274 C 
ENDROOT
BRANCH   1   2
ATOM      2  O   UNL     1       1.631  -3.243  -7.223  1.00  0.00    -0.462 OA
BRANCH   2   3
ATOM      3  C   UNL     1       1.513  -3.392  -5.883  1.00  0.00     0.315 C 
ATOM      4  O   UNL     1       2.041  -4.286  -5.230  1.00  0.00    -0.252 OA
BRANCH   3   5
ATOM      5  C   UNL     1       0.679  -2.295  -5.228  1.00  0.00     0.163 C 
BRANCH   5   6
ATOM      6  C   UNL     1       1.509  -1.001  -5.146  1.00  0.00     0.278 C 
BRANCH   6   7
ATOM      7  N   UNL     1       1.133   0.193  -4.366  1.00  0.00    -0.331 N 
ATOM      8  C   UNL     1       1.655   0.026   0.837  1.00  0.00     0.114 C 
ATOM      9  C   UNL     1       0.577  -0.406  -0.118  1.00  0.00     0.219 C 
ATOM     10  O   UNL     1      -0.499  -0.824   0.311  1.00  0.00    -0.275 OA
ATOM     11  N   UNL     1       0.833  -0.266  -1.472  1.00  0.00    -0.332 N 
ATOM     12  C   UNL     1      -0.257  -0.564  -2.397  1.00  0.00     0.181 C 
ATOM     13  C   UNL     1       2.172  -0.138  -2.068  1.00  0.00     0.181 C 
ATOM     14  C   UNL     1      -0.158   0.261  -3.683  1.00  0.00     0.284 C 
ATOM     15  C   UNL     1       2.181   0.624  -3.414  1.00  0.00     0.284 C 
ATOM     16  H   UNL     1       1.025   0.831  -5.155  1.00  0.00     0.348 HD
ENDBRANCH   6   7
ENDBRANCH   5   6
BRANCH   5  17
ATOM     17  C   UNL     1      -0.753  -2.272  -5.769  1.00  0.00     0.121 C 
BRANCH  17  18
ATOM     18  C   UNL     1      -1.010  -2.175  -7.260  1.00  0.00     0.225 C 
ATOM     19  O   UNL     1      -1.149  -3.202  -7.931  1.00  0.00    -0.275 OA
ATOM     20  N   UNL     1      -1.231  -0.971  -7.871  1.00  0.00    -0.324 N 
ATOM     21  H   UNL     1      -1.888  -0.958  -8.604  1.00  0.00     0.170 HD
BRANCH  20  22
ATOM     22  C   UNL     1      -0.611   0.247  -7.552  1.00  0.00     0.077 A 
ATOM     23  C   UNL     1      -1.298   1.242  -6.860  1.00  0.00     0.029 A 
ATOM     24  C   UNL     1       0.651   0.527  -8.085  1.00  0.00     0.146 A 
ATOM     25  C   UNL     1      -0.682   2.482  -6.641  1.00  0.00     0.002 A 
ATOM     26  C   UNL     1       1.279   1.743  -7.846  1.00  0.00     0.041 A 
ATOM     27  F   UNL     1       1.292  -0.410  -8.800  1.00  0.00    -0.205 F 
ATOM     28  C   UNL     1       0.611   2.725  -7.117  1.00  0.00     0.003 A 
ENDBRANCH  20  22
ENDBRANCH  17  18
ENDBRANCH   5  17
ENDBRANCH   3   5
ENDBRANCH   2   3
ENDBRANCH   1   2
BRANCH   1  29
ATOM     29  C   UNL     1       3.627  -4.023  -8.446  1.00  0.00     0.275 C 
BRANCH  29  30
ATOM     30  O   UNL     1       4.571  -3.959  -7.361  1.00  0.00    -0.458 OA
BRANCH  30  31
ATOM     31  C   UNL     1       4.732  -2.728  -6.834  1.00  0.00     0.338 C 
ATOM     32  O   UNL     1       4.207  -1.686  -7.188  1.00  0.00    -0.246 OA
BRANCH  31  33
ATOM     33  C   UNL     1       5.587  -2.790  -5.643  1.00  0.00     0.060 A 
ATOM     34  C   UNL     1       4.983  -2.562  -4.409  1.00  0.00     0.016 A 
ATOM     35  C   UNL     1       6.973  -2.897  -5.745  1.00  0.00     0.016 A 
ATOM     36  C   UNL     1       5.757  -2.331  -3.283  1.00  0.00     0.010 A 
ATOM     37  C   UNL     1       7.752  -2.744  -4.593  1.00  0.00     0.010 A 
ATOM     38  C   UNL     1       7.151  -2.424  -3.361  1.00  0.00    -0.014 A 
BRANCH  38  39
ATOM     39  C   UNL     1       7.963  -2.175  -2.145  1.00  0.00     0.031 A 
ATOM     40  C   UNL     1       8.893  -0.998  -2.084  1.00  0.00     0.074 A 
ATOM     41  C   UNL     1       7.831  -2.991  -1.082  1.00  0.00     0.049 A 
ATOM     42  N   UNL     1       9.765  -0.684  -1.159  1.00  0.00    -0.248 NA
ATOM     43  C   UNL     1       8.841  -0.048  -3.206  1.00  0.00     0.031 C 
ATOM     44  C   UNL     1       6.922  -4.137  -1.006  1.00  0.00     0.029 A 
ATOM     45  N   UNL     1       8.457  -2.983   0.139  1.00  0.00    -0.354 N 
ATOM     46  C   UNL     1      10.394   0.469  -1.608  1.00  0.00     0.074 A 
ATOM     47  C   UNL     1       9.803   0.807  -2.885  1.00  0.00     0.031 C 
ATOM     48  C   UNL     1       7.038  -4.711   0.200  1.00  0.00     0.029 A 
ATOM     49  C   UNL     1       8.079  -4.022   0.954  1.00  0.00     0.049 A 
ATOM     50  H   UNL     1       9.112  -2.298   0.405  1.00  0.00     0.167 HD
ATOM     51  C   UNL     1      11.379   1.174  -1.004  1.00  0.00     0.037 A 
ATOM     52  C   UNL     1       8.550  -4.405   2.155  1.00  0.00     0.037 A 
ATOM     53  C   UNL     1      11.928   0.857   0.288  1.00  0.00     0.049 A 
ATOM     54  C   UNL     1       9.661  -3.619   2.789  1.00  0.00     0.074 A 
ATOM     55  C   UNL     1      12.909   1.529   0.995  1.00  0.00     0.029 A 
ATOM     56  N   UNL     1      11.535  -0.218   1.071  1.00  0.00    -0.354 N 
ATOM     57  N   UNL     1      10.271  -2.549   2.342  1.00  0.00    -0.248 NA
ATOM     58  C   UNL     1      10.158  -4.098   4.086  1.00  0.00     0.031 C 
ATOM     59  C   UNL     1      13.136   0.841   2.190  1.00  0.00     0.029 A 
ATOM     60  C   UNL     1      12.266  -0.236   2.247  1.00  0.00     0.049 A 
ATOM     61  H   UNL     1      10.839  -0.871   0.828  1.00  0.00     0.167 HD
ATOM     62  C   UNL     1      11.219  -2.223   3.301  1.00  0.00     0.074 A 
ATOM     63  C   UNL     1      11.090  -3.197   4.365  1.00  0.00     0.031 C 
ATOM     64  C   UNL     1      12.120  -1.212   3.295  1.00  0.00     0.037 A 
BRANCH  51  65
ATOM     65  C   UNL     1      11.955   2.350  -1.732  1.00  0.00     0.064 A 
ATOM     66  C   UNL     1      13.244   2.274  -2.281  1.00  0.00     0.173 A 
ATOM     67  C   UNL     1      11.279   3.575  -1.805  1.00  0.00     0.173 A 
ATOM     68  F   UNL     1      13.932   1.123  -2.232  1.00  0.00    -0.203 F 
ATOM     69  C   UNL     1      13.844   3.388  -2.860  1.00  0.00     0.198 A 
ATOM     70  C   UNL     1      11.874   4.684  -2.403  1.00  0.00     0.198 A 
ATOM     71  F   UNL     1      10.040   3.694  -1.305  1.00  0.00    -0.203 F 
ATOM     72  F   UNL     1      15.089   3.300  -3.348  1.00  0.00    -0.200 F 
ATOM     73  C   UNL     1      13.159   4.592  -2.920  1.00  0.00     0.200 A 
ATOM     74  F   UNL     1      11.206   5.843  -2.477  1.00  0.00    -0.200 F 
ATOM     75  F   UNL     1      13.737   5.666  -3.476  1.00  0.00    -0.200 F 
ENDBRANCH  51  65
BRANCH  52  76
ATOM     76  C   UNL     1       7.995  -5.620   2.804  1.00  0.00     0.064 A 
ATOM     77  C   UNL     1       8.227  -6.896   2.268  1.00  0.00     0.173 A 
ATOM     78  C   UNL     1       7.200  -5.528   3.952  1.00  0.00     0.173 A 
ATOM     79  F   UNL     1       8.981  -7.036   1.167  1.00  0.00    -0.203 F 
ATOM     80  C   UNL     1       7.665  -8.032   2.844  1.00  0.00     0.198 A 
ATOM     81  C   UNL     1       6.660  -6.669   4.544  1.00  0.00     0.198 A 
ATOM     82  F   UNL     1       6.969  -4.332   4.513  1.00  0.00    -0.203 F 
ATOM     83  F   UNL     1       7.873  -9.235   2.291  1.00  0.00    -0.200 F 
ATOM     84  C   UNL     1       6.885  -7.918   3.985  1.00  0.00     0.200 A 
ATOM     85  F   UNL     1       5.928  -6.558   5.661  1.00  0.00    -0.200 F 
ATOM     86  F   UNL     1       6.355  -9.012   4.548  1.00  0.00    -0.200 F 
ENDBRANCH  52  76
BRANCH  64  87
ATOM     87  C   UNL     1      13.031  -1.094   4.478  1.00  0.00     0.064 A 
ATOM     88  C   UNL     1      12.856  -0.060   5.409  1.00  0.00     0.173 A 
ATOM     89  C   UNL     1      14.121  -1.958   4.646  1.00  0.00     0.173 A 
ATOM     90  F   UNL     1      11.831   0.796   5.284  1.00  0.00    -0.203 F 
ATOM     91  C   UNL     1      13.750   0.112   6.461  1.00  0.00     0.198 A 
ATOM     92  C   UNL     1      15.001  -1.797   5.713  1.00  0.00     0.198 A 
ATOM     93  F   UNL     1      14.320  -2.969   3.787  1.00  0.00    -0.203 F 
ATOM     94  F   UNL     1      13.581   1.125   7.323  1.00  0.00    -0.200 F 
ATOM     95  C   UNL     1      14.820  -0.757   6.613  1.00  0.00     0.200 A 
ATOM     96  F   UNL     1      16.022  -2.650   5.872  1.00  0.00    -0.200 F 
ATOM     97  F   UNL     1      15.677  -0.594   7.631  1.00  0.00    -0.200 F 
ENDBRANCH  64  87
ENDBRANCH  38  39
ENDBRANCH  31  33
ENDBRANCH  30  31
ENDBRANCH  29  30
ENDBRANCH   1  29
TORSDOF 16
