REMARK SMILES [NH3+][C@@]1(C(=O)OCCOC(=O)c2ccc(-c3c4nc(c(-c5c(F)c(F)c(F)c(F)c5F)c5ccc([nH]5)c(-c5c(F)c(F)c(F)c(F)c5F)c5nc(c(-c6c(F)c(F)c(F)c(F)c6F)c6ccc3[nH]6)C=C5)C=C4)cc2)CC[N@H+](Cc2ccc(OCC(=O)N3CCCCC3)cc2)C1
REMARK SMILES IDX 5 1 3 2 4 3 2 4 74 5 94 6 75 7 76 8 1 10 77 14 78 15 79 16
REMARK SMILES IDX 93 17 80 18 92 19 81 20 82 21 83 22 84 23 85 24 86 25 87 26
REMARK SMILES IDX 91 27 88 28 90 29 89 30 6 31 7 32 8 33 9 34 10 35 11 36
REMARK SMILES IDX 12 37 73 38 13 39 72 40 14 41 15 42 16 43 66 44 17 45 71 46
REMARK SMILES IDX 65 47 67 48 18 49 70 50 64 51 63 52 19 54 51 55 31 56 50 57
REMARK SMILES IDX 32 58 35 59 49 60 68 61 33 62 34 63 48 65 69 66 36 67 20 68
REMARK SMILES IDX 21 69 29 70 22 71 23 72 27 73 30 74 24 75 25 76 28 77 26 78
REMARK SMILES IDX 52 79 53 80 61 81 54 82 55 83 59 84 62 85 56 86 57 87 60 88
REMARK SMILES IDX 58 89 37 90 38 91 46 92 39 93 40 94 44 95 47 96 41 97 42 98
REMARK SMILES IDX 45 99 43 100
REMARK H PARENT 76 9 1 11 1 12 1 13 67 53 35 64
REMARK Flexibility Score: inf
ROOT
ATOM      1  O   UNL     1      -0.865  -0.355   2.223  1.00  0.00    -0.457 OA
ENDROOT
BRANCH   1   2
ATOM      2  C   UNL     1      -0.199  -0.884   1.174  1.00  0.00     0.374 C 
ATOM      3  O   UNL     1      -0.690  -1.064   0.065  1.00  0.00    -0.244 OA
BRANCH   2   4
ATOM      4  C   UNL     1       1.278  -1.170   1.561  1.00  0.00     0.246 C 
ATOM      5  C   UNL     1       1.507  -2.679   1.568  1.00  0.00     0.148 C 
ATOM      6  C   UNL     1       1.603  -0.778   3.028  1.00  0.00     0.344 C 
ATOM      7  C   UNL     1       1.011  -3.086   2.952  1.00  0.00     0.270 C 
ATOM      8  N   UNL     1       1.432  -1.998   3.825  1.00  0.00    -0.325 N 
ATOM      9  H   UNL     1       2.347  -2.254   4.196  1.00  0.00     0.348 HD
BRANCH   4  10
ATOM     10  N   UNL     1       2.157  -0.493   0.571  1.00  0.00    -0.338 N 
ATOM     11  H   UNL     1       1.898  -0.788  -0.371  1.00  0.00     0.345 HD
ATOM     12  H   UNL     1       3.129  -0.745   0.751  1.00  0.00     0.345 HD
ATOM     13  H   UNL     1       2.046   0.517   0.653  1.00  0.00     0.345 HD
ENDBRANCH   4  10
BRANCH   8  14
ATOM     14  C   UNL     1       0.784  -1.870   5.136  1.00  0.00     0.299 C 
BRANCH  14  15
ATOM     15  C   UNL     1      -0.686  -1.475   5.195  1.00  0.00     0.006 A 
ATOM     16  C   UNL     1      -1.067  -0.222   5.689  1.00  0.00     0.013 A 
ATOM     17  C   UNL     1      -1.716  -2.339   4.788  1.00  0.00     0.013 A 
ATOM     18  C   UNL     1      -2.405   0.199   5.624  1.00  0.00     0.047 A 
ATOM     19  C   UNL     1      -3.050  -1.901   4.679  1.00  0.00     0.047 A 
ATOM     20  C   UNL     1      -3.381  -0.593   5.010  1.00  0.00     0.120 A 
BRANCH  20  21
ATOM     21  O   UNL     1      -4.531   0.076   4.685  1.00  0.00    -0.484 OA
BRANCH  21  22
ATOM     22  C   UNL     1      -5.556  -0.557   3.941  1.00  0.00     0.329 C 
BRANCH  22  23
ATOM     23  C   UNL     1      -5.426  -0.981   2.448  1.00  0.00     0.260 C 
ATOM     24  O   UNL     1      -5.219  -2.174   2.192  1.00  0.00    -0.271 OA
ATOM     25  N   UNL     1      -5.627  -0.055   1.424  1.00  0.00    -0.340 N 
ATOM     26  C   UNL     1      -5.907  -0.556   0.075  1.00  0.00     0.119 C 
ATOM     27  C   UNL     1      -5.688   1.401   1.555  1.00  0.00     0.119 C 
ATOM     28  C   UNL     1      -4.962   0.042  -0.957  1.00  0.00     0.022 C 
ATOM     29  C   UNL     1      -4.848   2.111   0.479  1.00  0.00     0.022 C 
ATOM     30  C   UNL     1      -5.037   1.565  -0.935  1.00  0.00     0.004 C 
ENDBRANCH  22  23
ENDBRANCH  21  22
ENDBRANCH  20  21
ENDBRANCH  14  15
ENDBRANCH   8  14
ENDBRANCH   2   4
ENDBRANCH   1   2
BRANCH   1  31
ATOM     31  C   UNL     1      -2.144   0.235   2.002  1.00  0.00     0.274 C 
BRANCH  31  32
ATOM     32  C   UNL     1      -2.173   1.554   2.790  1.00  0.00     0.275 C 
BRANCH  32  33
ATOM     33  O   UNL     1      -1.862   2.648   1.925  1.00  0.00    -0.458 OA
BRANCH  33  34
ATOM     34  C   UNL     1      -0.572   2.664   1.536  1.00  0.00     0.338 C 
ATOM     35  O   UNL     1       0.402   2.203   2.101  1.00  0.00    -0.246 OA
BRANCH  34  36
ATOM     36  C   UNL     1      -0.585   3.073   0.135  1.00  0.00     0.060 A 
ATOM     37  C   UNL     1       0.072   2.237  -0.769  1.00  0.00     0.016 A 
ATOM     38  C   UNL     1      -1.230   4.238  -0.276  1.00  0.00     0.016 A 
ATOM     39  C   UNL     1       0.204   2.626  -2.084  1.00  0.00     0.010 A 
ATOM     40  C   UNL     1      -1.128   4.614  -1.607  1.00  0.00     0.010 A 
ATOM     41  C   UNL     1      -0.356   3.838  -2.491  1.00  0.00    -0.014 A 
BRANCH  41  42
ATOM     42  C   UNL     1       0.040   4.401  -3.788  1.00  0.00     0.031 A 
ATOM     43  C   UNL     1       0.959   5.583  -3.782  1.00  0.00     0.074 A 
ATOM     44  C   UNL     1      -0.390   3.839  -4.926  1.00  0.00     0.049 A 
ATOM     45  N   UNL     1       1.287   6.383  -4.758  1.00  0.00    -0.248 NA
ATOM     46  C   UNL     1       1.575   5.924  -2.487  1.00  0.00     0.031 C 
ATOM     47  C   UNL     1      -1.210   2.631  -5.015  1.00  0.00     0.029 A 
ATOM     48  N   UNL     1      -0.201   4.221  -6.225  1.00  0.00    -0.354 N 
ATOM     49  C   UNL     1       2.093   7.356  -4.183  1.00  0.00     0.074 A 
ATOM     50  C   UNL     1       2.205   7.051  -2.776  1.00  0.00     0.031 C 
ATOM     51  C   UNL     1      -1.467   2.377  -6.307  1.00  0.00     0.029 A 
ATOM     52  C   UNL     1      -0.890   3.444  -7.119  1.00  0.00     0.049 A 
ATOM     53  H   UNL     1       0.370   4.977  -6.490  1.00  0.00     0.167 HD
ATOM     54  C   UNL     1       2.675   8.413  -4.793  1.00  0.00     0.037 A 
ATOM     55  C   UNL     1      -1.074   3.619  -8.439  1.00  0.00     0.037 A 
ATOM     56  C   UNL     1       2.581   8.649  -6.208  1.00  0.00     0.049 A 
ATOM     57  C   UNL     1      -0.438   4.813  -9.094  1.00  0.00     0.074 A 
ATOM     58  C   UNL     1       3.147   9.663  -6.955  1.00  0.00     0.029 A 
ATOM     59  N   UNL     1       1.875   7.839  -7.090  1.00  0.00    -0.354 N 
ATOM     60  N   UNL     1       0.289   5.762  -8.552  1.00  0.00    -0.248 NA
ATOM     61  C   UNL     1      -0.653   4.970 -10.537  1.00  0.00     0.031 C 
ATOM     62  C   UNL     1       2.747   9.492  -8.285  1.00  0.00     0.029 A 
ATOM     63  C   UNL     1       1.974   8.342  -8.374  1.00  0.00     0.049 A 
ATOM     64  H   UNL     1       1.378   7.027  -6.838  1.00  0.00     0.167 HD
ATOM     65  C   UNL     1       0.635   6.620  -9.585  1.00  0.00     0.074 A 
ATOM     66  C   UNL     1       0.042   6.072 -10.791  1.00  0.00     0.031 C 
ATOM     67  C   UNL     1       1.374   7.756  -9.547  1.00  0.00     0.037 A 
BRANCH  54  68
ATOM     68  C   UNL     1       3.397   9.402  -3.929  1.00  0.00     0.064 A 
ATOM     69  C   UNL     1       4.607   9.099  -3.288  1.00  0.00     0.173 A 
ATOM     70  C   UNL     1       2.853  10.681  -3.729  1.00  0.00     0.173 A 
ATOM     71  F   UNL     1       5.157   7.883  -3.424  1.00  0.00    -0.203 F 
ATOM     72  C   UNL     1       5.229  10.027  -2.455  1.00  0.00     0.198 A 
ATOM     73  C   UNL     1       3.493  11.617  -2.921  1.00  0.00     0.198 A 
ATOM     74  F   UNL     1       1.695  11.023  -4.314  1.00  0.00    -0.203 F 
ATOM     75  F   UNL     1       6.352   9.694  -1.804  1.00  0.00    -0.200 F 
ATOM     76  C   UNL     1       4.675  11.286  -2.277  1.00  0.00     0.200 A 
ATOM     77  F   UNL     1       2.959  12.835  -2.757  1.00  0.00    -0.200 F 
ATOM     78  F   UNL     1       5.274  12.177  -1.475  1.00  0.00    -0.200 F 
ENDBRANCH  54  68
BRANCH  55  79
ATOM     79  C   UNL     1      -1.928   2.664  -9.186  1.00  0.00     0.064 A 
ATOM     80  C   UNL     1      -1.377   1.768 -10.109  1.00  0.00     0.173 A 
ATOM     81  C   UNL     1      -3.310   2.591  -8.947  1.00  0.00     0.173 A 
ATOM     82  F   UNL     1      -0.065   1.810 -10.383  1.00  0.00    -0.203 F 
ATOM     83  C   UNL     1      -2.176   0.834 -10.767  1.00  0.00     0.198 A 
ATOM     84  C   UNL     1      -4.102   1.639  -9.584  1.00  0.00     0.198 A 
ATOM     85  F   UNL     1      -3.885   3.424  -8.067  1.00  0.00    -0.203 F 
ATOM     86  F   UNL     1      -1.629   0.002 -11.665  1.00  0.00    -0.200 F 
ATOM     87  C   UNL     1      -3.535   0.763 -10.496  1.00  0.00     0.200 A 
ATOM     88  F   UNL     1      -5.410   1.564  -9.305  1.00  0.00    -0.200 F 
ATOM     89  F   UNL     1      -4.298  -0.147 -11.116  1.00  0.00    -0.200 F 
ENDBRANCH  55  79
BRANCH  67  90
ATOM     90  C   UNL     1       1.611   8.459 -10.848  1.00  0.00     0.064 A 
ATOM     91  C   UNL     1       0.608   9.221 -11.461  1.00  0.00     0.173 A 
ATOM     92  C   UNL     1       2.882   8.433 -11.440  1.00  0.00     0.173 A 
ATOM     93  F   UNL     1      -0.625   9.263 -10.936  1.00  0.00    -0.203 F 
ATOM     94  C   UNL     1       0.868   9.927 -12.632  1.00  0.00     0.198 A 
ATOM     95  C   UNL     1       3.146   9.161 -12.595  1.00  0.00     0.198 A 
ATOM     96  F   UNL     1       3.874   7.724 -10.881  1.00  0.00    -0.203 F 
ATOM     97  F   UNL     1      -0.111  10.627 -13.221  1.00  0.00    -0.200 F 
ATOM     98  C   UNL     1       2.138   9.905 -13.191  1.00  0.00     0.200 A 
ATOM     99  F   UNL     1       4.376   9.152 -13.125  1.00  0.00    -0.200 F 
ATOM    100  F   UNL     1       2.391  10.600 -14.308  1.00  0.00    -0.200 F 
ENDBRANCH  67  90
ENDBRANCH  41  42
ENDBRANCH  34  36
ENDBRANCH  33  34
ENDBRANCH  32  33
ENDBRANCH  31  32
ENDBRANCH   1  31
TORSDOF 17
