REMARK SMILES [NH3+][C@@H](CC(=O)OCCOC(=O)c1ccc(-c2c3nc(c(-c4c(F)c(F)c(F)c(F)c4F)c4ccc([nH]4)c(-c4c(F)c(F)c(F)c(F)c4F)c4nc(c(-c5c(F)c(F)c(F)c(F)c5F)c5ccc2[nH]5)C=C4)C=C3)cc1)c1cc([N+](=O)[O-])ccc1Cl
REMARK SMILES IDX 7 1 6 2 4 3 5 4 3 5 2 6 1 7 75 11 76 12 83 13 77 14 82 15
REMARK SMILES IDX 84 16 81 17 78 18 79 19 80 20 8 21 9 22 10 23 11 24 12 25
REMARK SMILES IDX 13 26 74 27 14 28 73 29 15 30 16 31 17 32 67 33 18 34 72 35
REMARK SMILES IDX 66 36 68 37 19 38 71 39 65 40 64 41 20 43 52 44 32 45 51 46
REMARK SMILES IDX 33 47 36 48 50 49 69 50 34 51 35 52 49 54 70 55 37 56 21 57
REMARK SMILES IDX 22 58 30 59 23 60 24 61 28 62 31 63 25 64 26 65 29 66 27 67
REMARK SMILES IDX 53 68 54 69 62 70 55 71 56 72 60 73 63 74 57 75 58 76 61 77
REMARK SMILES IDX 59 78 38 79 39 80 47 81 40 82 41 83 45 84 48 85 42 86 43 87
REMARK SMILES IDX 46 88 44 89
REMARK H PARENT 1 8 1 9 1 10 68 42 36 53
REMARK Flexibility Score: inf
ROOT
ATOM      1  C   UNL     1       0.505  -3.452   1.159  1.00  0.00     0.274 C 
ENDROOT
BRANCH   1   2
ATOM      2  O   UNL     1       0.557  -2.206   0.430  1.00  0.00    -0.462 OA
BRANCH   2   3
ATOM      3  C   UNL     1       1.071  -2.295  -0.824  1.00  0.00     0.312 C 
ATOM      4  O   UNL     1       1.401  -3.348  -1.363  1.00  0.00    -0.252 OA
BRANCH   3   5
ATOM      5  C   UNL     1       1.375  -0.964  -1.466  1.00  0.00     0.192 C 
BRANCH   5   6
ATOM      6  C   UNL     1       0.595   0.300  -1.058  1.00  0.00     0.225 C 
BRANCH   6   7
ATOM      7  N   UNL     1       0.986   0.656   0.323  1.00  0.00    -0.351 N 
ATOM      8  H   UNL     1       1.998   0.583   0.419  1.00  0.00     0.345 HD
ATOM      9  H   UNL     1       0.535   0.018   0.979  1.00  0.00     0.345 HD
ATOM     10  H   UNL     1       0.693   1.612   0.524  1.00  0.00     0.345 HD
ENDBRANCH   6   7
BRANCH   6  11
ATOM     11  C   UNL     1      -0.923   0.393  -1.260  1.00  0.00     0.035 A 
ATOM     12  C   UNL     1      -1.688   1.152  -0.335  1.00  0.00     0.097 A 
ATOM     13  C   UNL     1      -1.617  -0.070  -2.395  1.00  0.00     0.050 A 
ATOM     14  C   UNL     1      -3.071   1.335  -0.490  1.00  0.00     0.270 A 
ATOM     15  C   UNL     1      -3.018   0.037  -2.497  1.00  0.00     0.028 A 
ATOM     16  Cl  UNL     1      -0.822  -0.605  -3.830  1.00  0.00    -0.084 Cl
ATOM     17  C   UNL     1      -3.754   0.731  -1.540  1.00  0.00     0.087 A 
BRANCH  14  18
ATOM     18  N   UNL     1      -3.790   2.243   0.409  1.00  0.00     0.062 N 
ATOM     19  O   UNL     1      -3.132   3.121   0.985  1.00  0.00    -0.258 OA
ATOM     20  O   UNL     1      -5.017   2.100   0.509  1.00  0.00    -0.258 OA
ENDBRANCH  14  18
ENDBRANCH   6  11
ENDBRANCH   5   6
ENDBRANCH   3   5
ENDBRANCH   2   3
ENDBRANCH   1   2
BRANCH   1  21
ATOM     21  C   UNL     1      -0.870  -4.111   1.083  1.00  0.00     0.275 C 
BRANCH  21  22
ATOM     22  O   UNL     1      -1.238  -4.354  -0.285  1.00  0.00    -0.458 OA
BRANCH  22  23
ATOM     23  C   UNL     1      -2.318  -3.676  -0.727  1.00  0.00     0.338 C 
ATOM     24  O   UNL     1      -3.034  -2.919  -0.087  1.00  0.00    -0.246 OA
BRANCH  23  25
ATOM     25  C   UNL     1      -2.559  -3.970  -2.149  1.00  0.00     0.060 A 
ATOM     26  C   UNL     1      -1.541  -3.817  -3.090  1.00  0.00     0.016 A 
ATOM     27  C   UNL     1      -3.857  -4.271  -2.566  1.00  0.00     0.016 A 
ATOM     28  C   UNL     1      -1.839  -3.877  -4.451  1.00  0.00     0.010 A 
ATOM     29  C   UNL     1      -4.133  -4.415  -3.928  1.00  0.00     0.010 A 
ATOM     30  C   UNL     1      -3.135  -4.184  -4.889  1.00  0.00    -0.014 A 
BRANCH  30  31
ATOM     31  C   UNL     1      -3.459  -4.253  -6.339  1.00  0.00     0.031 A 
ATOM     32  C   UNL     1      -4.512  -3.352  -6.930  1.00  0.00     0.074 A 
ATOM     33  C   UNL     1      -2.826  -5.138  -7.132  1.00  0.00     0.049 A 
ATOM     34  N   UNL     1      -5.088  -3.408  -8.105  1.00  0.00    -0.248 NA
ATOM     35  C   UNL     1      -4.986  -2.246  -6.085  1.00  0.00     0.031 C 
ATOM     36  C   UNL     1      -1.754  -6.039  -6.710  1.00  0.00     0.029 A 
ATOM     37  N   UNL     1      -3.004  -5.434  -8.462  1.00  0.00    -0.354 N 
ATOM     38  C   UNL     1      -6.023  -2.382  -8.121  1.00  0.00     0.074 A 
ATOM     39  C   UNL     1      -5.937  -1.712  -6.841  1.00  0.00     0.031 C 
ATOM     40  C   UNL     1      -1.356  -6.773  -7.759  1.00  0.00     0.029 A 
ATOM     41  C   UNL     1      -2.204  -6.458  -8.904  1.00  0.00     0.049 A 
ATOM     42  H   UNL     1      -3.642  -4.958  -9.041  1.00  0.00     0.167 HD
ATOM     43  C   UNL     1      -6.878  -2.036  -9.114  1.00  0.00     0.037 A 
ATOM     44  C   UNL     1      -2.187  -7.114 -10.079  1.00  0.00     0.037 A 
ATOM     45  C   UNL     1      -6.928  -2.670 -10.406  1.00  0.00     0.049 A 
ATOM     46  C   UNL     1      -3.173  -6.744 -11.147  1.00  0.00     0.074 A 
ATOM     47  C   UNL     1      -7.740  -2.369 -11.486  1.00  0.00     0.029 A 
ATOM     48  N   UNL     1      -6.121  -3.728 -10.797  1.00  0.00    -0.354 N 
ATOM     49  N   UNL     1      -4.095  -5.814 -11.131  1.00  0.00    -0.248 NA
ATOM     50  C   UNL     1      -3.133  -7.531 -12.386  1.00  0.00     0.031 C 
ATOM     51  C   UNL     1      -7.447  -3.264 -12.520  1.00  0.00     0.029 A 
ATOM     52  C   UNL     1      -6.428  -4.101 -12.096  1.00  0.00     0.049 A 
ATOM     53  H   UNL     1      -5.433  -4.152 -10.235  1.00  0.00     0.167 HD
ATOM     54  C   UNL     1      -4.742  -5.899 -12.354  1.00  0.00     0.074 A 
ATOM     55  C   UNL     1      -4.096  -6.962 -13.097  1.00  0.00     0.031 C 
ATOM     56  C   UNL     1      -5.782  -5.165 -12.817  1.00  0.00     0.037 A 
BRANCH  43  57
ATOM     57  C   UNL     1      -7.858  -0.934  -8.843  1.00  0.00     0.064 A 
ATOM     58  C   UNL     1      -7.475   0.414  -8.843  1.00  0.00     0.173 A 
ATOM     59  C   UNL     1      -9.217  -1.232  -8.654  1.00  0.00     0.173 A 
ATOM     60  F   UNL     1      -6.186   0.749  -9.006  1.00  0.00    -0.203 F 
ATOM     61  C   UNL     1      -8.416   1.424  -8.655  1.00  0.00     0.198 A 
ATOM     62  C   UNL     1     -10.157  -0.220  -8.488  1.00  0.00     0.198 A 
ATOM     63  F   UNL     1      -9.634  -2.507  -8.651  1.00  0.00    -0.203 F 
ATOM     64  F   UNL     1      -8.025   2.706  -8.634  1.00  0.00    -0.200 F 
ATOM     65  C   UNL     1      -9.756   1.107  -8.487  1.00  0.00     0.200 A 
ATOM     66  F   UNL     1     -11.453  -0.528  -8.335  1.00  0.00    -0.200 F 
ATOM     67  F   UNL     1     -10.661   2.082  -8.321  1.00  0.00    -0.200 F 
ENDBRANCH  43  57
BRANCH  44  68
ATOM     68  C   UNL     1      -1.226  -8.228 -10.274  1.00  0.00     0.064 A 
ATOM     69  C   UNL     1      -0.122  -8.086 -11.123  1.00  0.00     0.173 A 
ATOM     70  C   UNL     1      -1.375  -9.441  -9.585  1.00  0.00     0.173 A 
ATOM     71  F   UNL     1       0.045  -6.953 -11.820  1.00  0.00    -0.203 F 
ATOM     72  C   UNL     1       0.803  -9.117 -11.273  1.00  0.00     0.198 A 
ATOM     73  C   UNL     1      -0.436 -10.460  -9.716  1.00  0.00     0.198 A 
ATOM     74  F   UNL     1      -2.417  -9.623  -8.762  1.00  0.00    -0.203 F 
ATOM     75  F   UNL     1       1.839  -8.967 -12.109  1.00  0.00    -0.200 F 
ATOM     76  C   UNL     1       0.651 -10.299 -10.562  1.00  0.00     0.200 A 
ATOM     77  F   UNL     1      -0.579 -11.594  -9.016  1.00  0.00    -0.200 F 
ATOM     78  F   UNL     1       1.551 -11.282 -10.693  1.00  0.00    -0.200 F 
ENDBRANCH  44  68
BRANCH  56  79
ATOM     79  C   UNL     1      -6.275  -5.479 -14.197  1.00  0.00     0.064 A 
ATOM     80  C   UNL     1      -7.066  -6.609 -14.448  1.00  0.00     0.173 A 
ATOM     81  C   UNL     1      -5.973  -4.630 -15.271  1.00  0.00     0.173 A 
ATOM     82  F   UNL     1      -7.365  -7.458 -13.454  1.00  0.00    -0.203 F 
ATOM     83  C   UNL     1      -7.522  -6.888 -15.733  1.00  0.00     0.198 A 
ATOM     84  C   UNL     1      -6.448  -4.901 -16.550  1.00  0.00     0.198 A 
ATOM     85  F   UNL     1      -5.221  -3.536 -15.077  1.00  0.00    -0.203 F 
ATOM     86  F   UNL     1      -8.245  -7.993 -15.960  1.00  0.00    -0.200 F 
ATOM     87  C   UNL     1      -7.217  -6.032 -16.782  1.00  0.00     0.200 A 
ATOM     88  F   UNL     1      -6.157  -4.071 -17.562  1.00  0.00    -0.200 F 
ATOM     89  F   UNL     1      -7.657  -6.303 -18.018  1.00  0.00    -0.200 F 
ENDBRANCH  56  79
ENDBRANCH  30  31
ENDBRANCH  23  25
ENDBRANCH  22  23
ENDBRANCH  21  22
ENDBRANCH   1  21
TORSDOF 15
