REMARK SMILES [NH3+][C@H](c1cc(F)c(F)cc1C(=O)OCCOC(=O)c1ccc(-c2c3nc(c(-c4c(F)c(F)c(F)c(F)c4F)c4ccc([nH]4)c(-c4c(F)c(F)c(F)c(F)c4F)c4nc(c(-c5c(F)c(F)c(F)c(F)c5F)c5ccc2[nH]5)C=C4)C=C3)cc1)C(F)(F)F
REMARK SMILES IDX 14 1 13 2 11 3 12 4 10 5 3 6 4 7 5 8 9 9 6 10 7 11 8 12 2 13
REMARK SMILES IDX 1 14 82 18 83 19 84 20 85 21 15 22 16 23 17 24 18 25 19 26
REMARK SMILES IDX 20 27 81 28 21 29 80 30 22 31 23 32 24 33 74 34 25 35 79 36
REMARK SMILES IDX 73 37 75 38 26 39 78 40 72 41 71 42 27 44 59 45 39 46 58 47
REMARK SMILES IDX 40 48 43 49 57 50 76 51 41 52 42 53 56 55 77 56 44 57 28 58
REMARK SMILES IDX 29 59 37 60 30 61 31 62 35 63 38 64 32 65 33 66 36 67 34 68
REMARK SMILES IDX 60 69 61 70 69 71 62 72 63 73 67 74 70 75 64 76 65 77 68 78
REMARK SMILES IDX 66 79 45 80 46 81 54 82 47 83 48 84 52 85 55 86 49 87 50 88
REMARK SMILES IDX 53 89 51 90
REMARK H PARENT 1 15 1 16 1 17 75 43 43 54
REMARK Flexibility Score: inf
ROOT
ATOM      1  C   UNL     1       2.122  -3.456   2.033  1.00  0.00     0.275 C 
ENDROOT
BRANCH   1   2
ATOM      2  O   UNL     1       1.884  -2.307   1.189  1.00  0.00    -0.458 OA
BRANCH   2   3
ATOM      3  C   UNL     1       2.267  -1.094   1.648  1.00  0.00     0.338 C 
ATOM      4  O   UNL     1       2.909  -0.865   2.660  1.00  0.00    -0.246 OA
BRANCH   3   5
ATOM      5  C   UNL     1       1.819  -0.021   0.720  1.00  0.00     0.072 A 
ATOM      6  C   UNL     1       0.491   0.073   0.229  1.00  0.00     0.036 A 
ATOM      7  C   UNL     1       0.198   1.156  -0.631  1.00  0.00     0.053 A 
ATOM      8  C   UNL     1       1.174   2.088  -0.989  1.00  0.00     0.159 A 
ATOM      9  C   UNL     1       2.770   0.968   0.403  1.00  0.00     0.058 A 
ATOM     10  F   UNL     1       0.855   3.089  -1.819  1.00  0.00    -0.204 F 
ATOM     11  C   UNL     1       2.452   1.994  -0.473  1.00  0.00     0.159 A 
ATOM     12  F   UNL     1       3.388   2.895  -0.799  1.00  0.00    -0.204 F 
BRANCH   6  13
ATOM     13  C   UNL     1      -0.595  -0.931   0.647  1.00  0.00     0.319 C 
BRANCH  13  14
ATOM     14  N   UNL     1      -0.739  -0.938   2.130  1.00  0.00    -0.344 N 
ATOM     15  H   UNL     1      -1.461  -1.606   2.398  1.00  0.00     0.345 HD
ATOM     16  H   UNL     1      -1.002  -0.006   2.450  1.00  0.00     0.345 HD
ATOM     17  H   UNL     1       0.148  -1.206   2.556  1.00  0.00     0.345 HD
ENDBRANCH  13  14
BRANCH  13  18
ATOM     18  C   UNL     1      -1.971  -0.807  -0.087  1.00  0.00     0.445 C 
ATOM     19  F   UNL     1      -1.817  -0.805  -1.432  1.00  0.00    -0.165 F 
ATOM     20  F   UNL     1      -2.778  -1.853   0.213  1.00  0.00    -0.165 F 
ATOM     21  F   UNL     1      -2.623   0.328   0.256  1.00  0.00    -0.165 F 
ENDBRANCH  13  18
ENDBRANCH   6  13
ENDBRANCH   3   5
ENDBRANCH   2   3
ENDBRANCH   1   2
BRANCH   1  22
ATOM     22  C   UNL     1       2.963  -4.507   1.309  1.00  0.00     0.275 C 
BRANCH  22  23
ATOM     23  O   UNL     1       4.311  -4.032   1.156  1.00  0.00    -0.458 OA
BRANCH  23  24
ATOM     24  C   UNL     1       4.547  -3.390  -0.009  1.00  0.00     0.338 C 
ATOM     25  O   UNL     1       3.805  -3.277  -0.969  1.00  0.00    -0.246 OA
BRANCH  24  26
ATOM     26  C   UNL     1       5.783  -2.616   0.125  1.00  0.00     0.060 A 
ATOM     27  C   UNL     1       5.638  -1.277   0.468  1.00  0.00     0.016 A 
ATOM     28  C   UNL     1       7.030  -3.134  -0.199  1.00  0.00     0.016 A 
ATOM     29  C   UNL     1       6.714  -0.408   0.406  1.00  0.00     0.010 A 
ATOM     30  C   UNL     1       8.135  -2.276  -0.185  1.00  0.00     0.010 A 
ATOM     31  C   UNL     1       7.980  -0.900   0.085  1.00  0.00    -0.014 A 
BRANCH  31  32
ATOM     32  C   UNL     1       9.125   0.036  -0.037  1.00  0.00     0.031 A 
ATOM     33  C   UNL     1       9.828   0.168  -1.357  1.00  0.00     0.074 A 
ATOM     34  C   UNL     1       9.510   0.784   1.015  1.00  0.00     0.049 A 
ATOM     35  N   UNL     1      10.966   0.748  -1.636  1.00  0.00    -0.248 NA
ATOM     36  C   UNL     1       9.168  -0.451  -2.520  1.00  0.00     0.031 C 
ATOM     37  C   UNL     1       8.847   0.814   2.321  1.00  0.00     0.029 A 
ATOM     38  N   UNL     1      10.552   1.666   1.154  1.00  0.00    -0.354 N 
ATOM     39  C   UNL     1      11.184   0.517  -2.988  1.00  0.00     0.074 A 
ATOM     40  C   UNL     1      10.069  -0.264  -3.474  1.00  0.00     0.031 C 
ATOM     41  C   UNL     1       9.480   1.689   3.116  1.00  0.00     0.029 A 
ATOM     42  C   UNL     1      10.650   2.203   2.415  1.00  0.00     0.049 A 
ATOM     43  H   UNL     1      11.168   1.893   0.421  1.00  0.00     0.167 HD
ATOM     44  C   UNL     1      12.228   0.927  -3.746  1.00  0.00     0.037 A 
ATOM     45  C   UNL     1      11.606   2.978   2.962  1.00  0.00     0.037 A 
ATOM     46  C   UNL     1      13.300   1.748  -3.250  1.00  0.00     0.049 A 
ATOM     47  C   UNL     1      12.792   3.359   2.121  1.00  0.00     0.074 A 
ATOM     48  C   UNL     1      14.408   2.221  -3.929  1.00  0.00     0.029 A 
ATOM     49  N   UNL     1      13.387   2.233  -1.952  1.00  0.00    -0.354 N 
ATOM     50  N   UNL     1      13.035   3.079   0.863  1.00  0.00    -0.248 NA
ATOM     51  C   UNL     1      13.846   4.145   2.776  1.00  0.00     0.031 C 
ATOM     52  C   UNL     1      15.191   2.949  -3.029  1.00  0.00     0.029 A 
ATOM     53  C   UNL     1      14.542   2.983  -1.805  1.00  0.00     0.049 A 
ATOM     54  H   UNL     1      12.727   2.067  -1.241  1.00  0.00     0.167 HD
ATOM     55  C   UNL     1      14.257   3.666   0.569  1.00  0.00     0.074 A 
ATOM     56  C   UNL     1      14.698   4.334   1.777  1.00  0.00     0.031 C 
ATOM     57  C   UNL     1      14.953   3.649  -0.594  1.00  0.00     0.037 A 
BRANCH  44  58
ATOM     58  C   UNL     1      12.283   0.475  -5.177  1.00  0.00     0.064 A 
ATOM     59  C   UNL     1      13.278  -0.424  -5.594  1.00  0.00     0.173 A 
ATOM     60  C   UNL     1      11.402   0.970  -6.149  1.00  0.00     0.173 A 
ATOM     61  F   UNL     1      14.149  -0.928  -4.706  1.00  0.00    -0.203 F 
ATOM     62  C   UNL     1      13.400  -0.795  -6.930  1.00  0.00     0.198 A 
ATOM     63  C   UNL     1      11.507   0.572  -7.481  1.00  0.00     0.198 A 
ATOM     64  F   UNL     1      10.422   1.818  -5.804  1.00  0.00    -0.203 F 
ATOM     65  F   UNL     1      14.382  -1.626  -7.307  1.00  0.00    -0.200 F 
ATOM     66  C   UNL     1      12.512  -0.300  -7.872  1.00  0.00     0.200 A 
ATOM     67  F   UNL     1      10.630   1.029  -8.386  1.00  0.00    -0.200 F 
ATOM     68  F   UNL     1      12.622  -0.666  -9.156  1.00  0.00    -0.200 F 
ENDBRANCH  44  58
BRANCH  45  69
ATOM     69  C   UNL     1      11.486   3.406   4.381  1.00  0.00     0.064 A 
ATOM     70  C   UNL     1      11.531   2.477   5.434  1.00  0.00     0.173 A 
ATOM     71  C   UNL     1      11.280   4.751   4.712  1.00  0.00     0.173 A 
ATOM     72  F   UNL     1      11.727   1.176   5.175  1.00  0.00    -0.203 F 
ATOM     73  C   UNL     1      11.338   2.873   6.756  1.00  0.00     0.198 A 
ATOM     74  C   UNL     1      11.121   5.152   6.038  1.00  0.00     0.198 A 
ATOM     75  F   UNL     1      11.254   5.681   3.746  1.00  0.00    -0.203 F 
ATOM     76  F   UNL     1      11.334   1.958   7.734  1.00  0.00    -0.200 F 
ATOM     77  C   UNL     1      11.137   4.211   7.057  1.00  0.00     0.200 A 
ATOM     78  F   UNL     1      10.954   6.449   6.328  1.00  0.00    -0.200 F 
ATOM     79  F   UNL     1      10.961   4.594   8.329  1.00  0.00    -0.200 F 
ENDBRANCH  45  69
BRANCH  57  80
ATOM     80  C   UNL     1      16.253   4.397  -0.635  1.00  0.00     0.064 A 
ATOM     81  C   UNL     1      16.376   5.559  -1.413  1.00  0.00     0.173 A 
ATOM     82  C   UNL     1      17.396   3.917   0.018  1.00  0.00     0.173 A 
ATOM     83  F   UNL     1      15.312   6.053  -2.065  1.00  0.00    -0.203 F 
ATOM     84  C   UNL     1      17.603   6.199  -1.554  1.00  0.00     0.198 A 
ATOM     85  C   UNL     1      18.615   4.579  -0.098  1.00  0.00     0.198 A 
ATOM     86  F   UNL     1      17.325   2.818   0.785  1.00  0.00    -0.203 F 
ATOM     87  F   UNL     1      17.707   7.280  -2.338  1.00  0.00    -0.200 F 
ATOM     88  C   UNL     1      18.720   5.711  -0.893  1.00  0.00     0.200 A 
ATOM     89  F   UNL     1      19.689   4.122   0.561  1.00  0.00    -0.200 F 
ATOM     90  F   UNL     1      19.901   6.332  -1.024  1.00  0.00    -0.200 F 
ENDBRANCH  57  80
ENDBRANCH  31  32
ENDBRANCH  24  26
ENDBRANCH  23  24
ENDBRANCH  22  23
ENDBRANCH   1  22
TORSDOF 14
