REMARK SMILES O=C(CCCN1C(=O)/C(=C\c2ccc(O)c(O)c2)SC1=S)OCCOC(=O)c1ccc(-c2c3nc(c(-c4c(F)c(F)c(F)c(F)c4F)c4ccc([nH]4)c(-c4c(F)c(F)c(F)c(F)c4F)c4nc(c(-c5c(F)c(F)c(F)c(F)c5F)c5ccc2[nH]5)C=C4)C=C3)cc1
REMARK SMILES IDX 22 1 2 2 1 3 3 4 4 5 5 6 6 7 7 8 20 9 8 10 9 11 19 12 21 13
REMARK SMILES IDX 10 14 11 15 12 16 18 17 13 18 16 19 14 20 17 21 15 23 23 25
REMARK SMILES IDX 24 26 25 27 26 28 27 29 28 30 29 31 90 32 30 33 89 34 31 35
REMARK SMILES IDX 32 36 33 37 83 38 34 39 88 40 82 41 84 42 35 43 87 44 81 45
REMARK SMILES IDX 80 46 36 48 68 49 48 50 67 51 49 52 52 53 66 54 85 55 50 56
REMARK SMILES IDX 51 57 65 59 86 60 53 61 37 62 38 63 46 64 39 65 40 66 44 67
REMARK SMILES IDX 47 68 41 69 42 70 45 71 43 72 69 73 70 74 78 75 71 76 72 77
REMARK SMILES IDX 76 78 79 79 73 80 74 81 77 82 75 83 54 84 55 85 63 86 56 87
REMARK SMILES IDX 57 88 61 89 64 90 58 91 59 92 62 93 60 94
REMARK H PARENT 17 22 15 24 84 47 52 58
REMARK Flexibility Score: inf
ROOT
ATOM      1  O   UNL     1       3.683   0.672   0.558  1.00  0.00    -0.462 OA
ENDROOT
BRANCH   1   2
ATOM      2  C   UNL     1       2.767   1.054  -0.369  1.00  0.00     0.305 C 
ATOM      3  O   UNL     1       1.577   1.240  -0.141  1.00  0.00    -0.252 OA
BRANCH   2   4
ATOM      4  C   UNL     1       3.321   0.947  -1.771  1.00  0.00     0.124 C 
BRANCH   4   5
ATOM      5  C   UNL     1       4.707   1.489  -2.106  1.00  0.00     0.034 C 
BRANCH   5   6
ATOM      6  C   UNL     1       5.894   1.284  -1.166  1.00  0.00     0.128 C 
BRANCH   6   7
ATOM      7  N   UNL     1       6.719   0.069  -1.073  1.00  0.00    -0.293 N 
ATOM      8  C   UNL     1       7.877   0.253  -0.319  1.00  0.00     0.266 C 
ATOM      9  C   UNL     1       6.569  -1.193  -1.590  1.00  0.00     0.148 C 
ATOM     10  O   UNL     1       8.182   1.312   0.215  1.00  0.00    -0.268 OA
ATOM     11  C   UNL     1       8.677  -1.000  -0.222  1.00  0.00     0.081 C 
ATOM     12  S   UNL     1       7.754  -2.295  -0.869  1.00  0.00    -0.054 SA
ATOM     13  S   UNL     1       5.541  -1.748  -2.765  1.00  0.00    -0.052 S 
ATOM     14  C   UNL     1       9.946  -1.134   0.196  1.00  0.00     0.029 C 
BRANCH  14  15
ATOM     15  C   UNL     1      10.817   0.014   0.467  1.00  0.00    -0.020 A 
ATOM     16  C   UNL     1      10.620   0.853   1.574  1.00  0.00     0.012 A 
ATOM     17  C   UNL     1      11.775   0.350  -0.497  1.00  0.00     0.058 A 
ATOM     18  C   UNL     1      11.297   2.074   1.665  1.00  0.00     0.051 A 
ATOM     19  C   UNL     1      12.451   1.555  -0.391  1.00  0.00     0.157 A 
ATOM     20  C   UNL     1      12.197   2.425   0.666  1.00  0.00     0.157 A 
BRANCH  19  21
ATOM     21  O   UNL     1      13.336   1.908  -1.369  1.00  0.00    -0.504 OA
ATOM     22  H   UNL     1      13.800   2.720  -1.310  1.00  0.00     0.293 HD
ENDBRANCH  19  21
BRANCH  20  23
ATOM     23  O   UNL     1      12.834   3.635   0.661  1.00  0.00    -0.504 OA
ATOM     24  H   UNL     1      12.686   4.245   1.356  1.00  0.00     0.293 HD
ENDBRANCH  20  23
ENDBRANCH  14  15
ENDBRANCH   6   7
ENDBRANCH   5   6
ENDBRANCH   4   5
ENDBRANCH   2   4
ENDBRANCH   1   2
BRANCH   1  25
ATOM     25  C   UNL     1       3.138  -0.026   1.690  1.00  0.00     0.274 C 
BRANCH  25  26
ATOM     26  C   UNL     1       3.115  -1.528   1.374  1.00  0.00     0.275 C 
BRANCH  26  27
ATOM     27  O   UNL     1       2.765  -1.748  -0.008  1.00  0.00    -0.458 OA
BRANCH  27  28
ATOM     28  C   UNL     1       1.607  -2.379  -0.295  1.00  0.00     0.338 C 
ATOM     29  O   UNL     1       0.817  -2.877   0.484  1.00  0.00    -0.246 OA
BRANCH  28  30
ATOM     30  C   UNL     1       1.445  -2.330  -1.764  1.00  0.00     0.060 A 
ATOM     31  C   UNL     1       0.479  -1.501  -2.341  1.00  0.00     0.016 A 
ATOM     32  C   UNL     1       2.291  -3.085  -2.576  1.00  0.00     0.016 A 
ATOM     33  C   UNL     1       0.338  -1.459  -3.738  1.00  0.00     0.010 A 
ATOM     34  C   UNL     1       2.186  -2.996  -3.969  1.00  0.00     0.010 A 
ATOM     35  C   UNL     1       1.174  -2.225  -4.568  1.00  0.00    -0.014 A 
BRANCH  35  36
ATOM     36  C   UNL     1       0.901  -2.364  -6.032  1.00  0.00     0.031 A 
ATOM     37  C   UNL     1       0.434  -3.701  -6.562  1.00  0.00     0.074 A 
ATOM     38  C   UNL     1       1.073  -1.347  -6.900  1.00  0.00     0.049 A 
ATOM     39  N   UNL     1       0.127  -4.055  -7.787  1.00  0.00    -0.248 NA
ATOM     40  C   UNL     1       0.325  -4.795  -5.584  1.00  0.00     0.031 C 
ATOM     41  C   UNL     1       1.567  -0.014  -6.564  1.00  0.00     0.029 A 
ATOM     42  N   UNL     1       0.859  -1.288  -8.261  1.00  0.00    -0.354 N 
ATOM     43  C   UNL     1      -0.198  -5.405  -7.720  1.00  0.00     0.074 A 
ATOM     44  C   UNL     1       0.023  -5.826  -6.355  1.00  0.00     0.031 C 
ATOM     45  C   UNL     1       1.611   0.733  -7.683  1.00  0.00     0.029 A 
ATOM     46  C   UNL     1       1.160  -0.069  -8.820  1.00  0.00     0.049 A 
ATOM     47  H   UNL     1       0.521  -2.050  -8.784  1.00  0.00     0.167 HD
ATOM     48  C   UNL     1      -0.678  -6.220  -8.689  1.00  0.00     0.037 A 
ATOM     49  C   UNL     1       1.078   0.354 -10.100  1.00  0.00     0.037 A 
ATOM     50  C   UNL     1      -0.936  -5.815 -10.042  1.00  0.00     0.049 A 
ATOM     51  C   UNL     1       0.548  -0.571 -11.170  1.00  0.00     0.074 A 
ATOM     52  C   UNL     1      -1.500  -6.551 -11.070  1.00  0.00     0.029 A 
ATOM     53  N   UNL     1      -0.639  -4.565 -10.559  1.00  0.00    -0.354 N 
ATOM     54  N   UNL     1       0.136  -1.811 -11.066  1.00  0.00    -0.248 NA
ATOM     55  C   UNL     1       0.457  -0.029 -12.536  1.00  0.00     0.031 C 
ATOM     56  C   UNL     1      -1.498  -5.762 -12.224  1.00  0.00     0.029 A 
ATOM     57  C   UNL     1      -0.980  -4.518 -11.901  1.00  0.00     0.049 A 
ATOM     58  H   UNL     1      -0.243  -3.821 -10.050  1.00  0.00     0.167 HD
ATOM     59  C   UNL     1      -0.291  -2.183 -12.337  1.00  0.00     0.074 A 
ATOM     60  C   UNL     1      -0.098  -1.036 -13.197  1.00  0.00     0.031 C 
ATOM     61  C   UNL     1      -0.801  -3.369 -12.750  1.00  0.00     0.037 A 
BRANCH  48  62
ATOM     62  C   UNL     1      -0.971  -7.642  -8.306  1.00  0.00     0.064 A 
ATOM     63  C   UNL     1      -2.037  -7.966  -7.452  1.00  0.00     0.173 A 
ATOM     64  C   UNL     1      -0.191  -8.692  -8.811  1.00  0.00     0.173 A 
ATOM     65  F   UNL     1      -2.806  -6.997  -6.933  1.00  0.00    -0.203 F 
ATOM     66  C   UNL     1      -2.285  -9.286  -7.086  1.00  0.00     0.198 A 
ATOM     67  C   UNL     1      -0.463 -10.014  -8.468  1.00  0.00     0.198 A 
ATOM     68  F   UNL     1       0.835  -8.437  -9.637  1.00  0.00    -0.203 F 
ATOM     69  F   UNL     1      -3.271  -9.565  -6.221  1.00  0.00    -0.200 F 
ATOM     70  C   UNL     1      -1.502 -10.309  -7.598  1.00  0.00     0.200 A 
ATOM     71  F   UNL     1       0.286 -11.003  -8.975  1.00  0.00    -0.200 F 
ATOM     72  F   UNL     1      -1.744 -11.579  -7.248  1.00  0.00    -0.200 F 
ENDBRANCH  48  62
BRANCH  49  73
ATOM     73  C   UNL     1       1.481   1.743 -10.454  1.00  0.00     0.064 A 
ATOM     74  C   UNL     1       0.527   2.699 -10.834  1.00  0.00     0.173 A 
ATOM     75  C   UNL     1       2.828   2.132 -10.455  1.00  0.00     0.173 A 
ATOM     76  F   UNL     1      -0.771   2.366 -10.880  1.00  0.00    -0.203 F 
ATOM     77  C   UNL     1       0.907   3.983 -11.219  1.00  0.00     0.198 A 
ATOM     78  C   UNL     1       3.204   3.425 -10.815  1.00  0.00     0.198 A 
ATOM     79  F   UNL     1       3.781   1.255 -10.107  1.00  0.00    -0.203 F 
ATOM     80  F   UNL     1      -0.021   4.861 -11.625  1.00  0.00    -0.200 F 
ATOM     81  C   UNL     1       2.245   4.347 -11.204  1.00  0.00     0.200 A 
ATOM     82  F   UNL     1       4.498   3.775 -10.794  1.00  0.00    -0.200 F 
ATOM     83  F   UNL     1       2.610   5.582 -11.575  1.00  0.00    -0.200 F 
ENDBRANCH  49  73
BRANCH  61  84
ATOM     84  C   UNL     1      -1.225  -3.493 -14.185  1.00  0.00     0.064 A 
ATOM     85  C   UNL     1      -0.290  -3.577 -15.226  1.00  0.00     0.173 A 
ATOM     86  C   UNL     1      -2.586  -3.604 -14.515  1.00  0.00     0.173 A 
ATOM     87  F   UNL     1       1.021  -3.466 -14.966  1.00  0.00    -0.203 F 
ATOM     88  C   UNL     1      -0.701  -3.751 -16.546  1.00  0.00     0.198 A 
ATOM     89  C   UNL     1      -2.991  -3.807 -15.831  1.00  0.00     0.198 A 
ATOM     90  F   UNL     1      -3.521  -3.540 -13.556  1.00  0.00    -0.203 F 
ATOM     91  F   UNL     1       0.209  -3.794 -17.529  1.00  0.00    -0.200 F 
ATOM     92  C   UNL     1      -2.049  -3.875 -16.846  1.00  0.00     0.200 A 
ATOM     93  F   UNL     1      -4.294  -3.942 -16.117  1.00  0.00    -0.200 F 
ATOM     94  F   UNL     1      -2.441  -4.058 -18.114  1.00  0.00    -0.200 F 
ENDBRANCH  61  84
ENDBRANCH  35  36
ENDBRANCH  28  30
ENDBRANCH  27  28
ENDBRANCH  26  27
ENDBRANCH  25  26
ENDBRANCH   1  25
TORSDOF 17
