REMARK SMILES C/C=C/c1cncc(-c2ccc([C@@H](C)C(=O)OCCOC(=O)c3ccc(-c4c5nc(c(-c6c(F)c(F)c(F)c(F)c6F)c6ccc([nH]6)c(-c6c(F)c(F)c(F)c(F)c6F)c6nc(c(-c7c(F)c(F)c(F)c(F)c7F)c7ccc4[nH]7)C=C6)C=C5)cc3)cc2)c1
REMARK SMILES IDX 18 1 17 2 15 3 16 4 13 5 14 6 12 7 9 8 10 9 87 10 11 11
REMARK SMILES IDX 86 12 8 13 4 14 5 15 88 16 6 17 7 18 3 19 1 20 2 21 19 22
REMARK SMILES IDX 20 23 21 24 22 25 23 26 24 27 85 28 25 29 84 30 26 31 27 32
REMARK SMILES IDX 28 33 78 34 29 35 83 36 77 37 79 38 30 39 82 40 76 41 75 42
REMARK SMILES IDX 31 44 63 45 43 46 62 47 44 48 47 49 61 50 80 51 45 52 46 53
REMARK SMILES IDX 60 55 81 56 48 57 32 58 33 59 41 60 34 61 35 62 39 63 42 64
REMARK SMILES IDX 36 65 37 66 40 67 38 68 64 69 65 70 73 71 66 72 67 73 71 74
REMARK SMILES IDX 74 75 68 76 69 77 72 78 70 79 49 80 50 81 58 82 51 83 52 84
REMARK SMILES IDX 56 85 59 86 53 87 54 88 57 89 55 90
REMARK H PARENT 79 43 47 54
REMARK Flexibility Score: inf
ROOT
ATOM      1  C   UNL     1       2.126   7.458   8.971  1.00  0.00     0.274 C 
ENDROOT
BRANCH   1   2
ATOM      2  O   UNL     1       1.625   7.932   7.707  1.00  0.00    -0.462 OA
BRANCH   2   3
ATOM      3  C   UNL     1       2.318   8.936   7.112  1.00  0.00     0.313 C 
ATOM      4  O   UNL     1       3.283   9.504   7.615  1.00  0.00    -0.252 OA
BRANCH   3   5
ATOM      5  C   UNL     1       1.758   9.347   5.757  1.00  0.00     0.126 C 
ATOM      6  C   UNL     1       0.834  10.553   5.924  1.00  0.00     0.025 C 
BRANCH   5   7
ATOM      7  C   UNL     1       1.126   8.238   4.929  1.00  0.00    -0.034 A 
ATOM      8  C   UNL     1      -0.091   6.270   3.269  1.00  0.00    -0.017 A 
ATOM      9  C   UNL     1      -0.697   6.696   4.462  1.00  0.00     0.009 A 
ATOM     10  C   UNL     1       1.160   6.813   2.947  1.00  0.00     0.009 A 
ATOM     11  C   UNL     1      -0.103   7.666   5.276  1.00  0.00     0.005 A 
ATOM     12  C   UNL     1       1.759   7.783   3.762  1.00  0.00     0.005 A 
BRANCH   8  13
ATOM     13  C   UNL     1      -0.786   5.347   2.358  1.00  0.00     0.001 A 
ATOM     14  C   UNL     1      -0.880   3.392   0.906  1.00  0.00    -0.007 A 
ATOM     15  C   UNL     1      -2.192   3.753   0.606  1.00  0.00     0.119 A 
ATOM     16  C   UNL     1      -0.174   4.215   1.794  1.00  0.00     0.020 A 
ATOM     17  N   UNL     1      -2.828   4.827   1.122  1.00  0.00    -0.263 NA
ATOM     18  C   UNL     1      -2.110   5.590   1.977  1.00  0.00     0.119 A 
BRANCH  14  19
ATOM     19  C   UNL     1      -0.295   2.224   0.237  1.00  0.00     0.005 C 
ATOM     20  C   UNL     1       1.038   0.118   0.129  1.00  0.00     0.035 C 
ATOM     21  C   UNL     1       0.504   1.325   0.831  1.00  0.00    -0.030 C 
ENDBRANCH  14  19
ENDBRANCH   8  13
ENDBRANCH   5   7
ENDBRANCH   3   5
ENDBRANCH   2   3
ENDBRANCH   1   2
BRANCH   1  22
ATOM     22  C   UNL     1       2.964   6.190   8.794  1.00  0.00     0.275 C 
BRANCH  22  23
ATOM     23  O   UNL     1       4.209   6.480   8.132  1.00  0.00    -0.458 OA
BRANCH  23  24
ATOM     24  C   UNL     1       4.232   6.221   6.805  1.00  0.00     0.338 C 
ATOM     25  O   UNL     1       3.355   5.724   6.124  1.00  0.00    -0.246 OA
BRANCH  24  26
ATOM     26  C   UNL     1       5.487   6.731   6.235  1.00  0.00     0.060 A 
ATOM     27  C   UNL     1       5.431   7.854   5.407  1.00  0.00     0.016 A 
ATOM     28  C   UNL     1       6.690   6.057   6.442  1.00  0.00     0.016 A 
ATOM     29  C   UNL     1       6.581   8.308   4.768  1.00  0.00     0.010 A 
ATOM     30  C   UNL     1       7.847   6.517   5.806  1.00  0.00     0.010 A 
ATOM     31  C   UNL     1       7.795   7.636   4.955  1.00  0.00    -0.014 A 
BRANCH  31  32
ATOM     32  C   UNL     1       9.004   8.076   4.220  1.00  0.00     0.031 A 
ATOM     33  C   UNL     1       9.495   7.277   3.049  1.00  0.00     0.074 A 
ATOM     34  C   UNL     1       9.650   9.193   4.599  1.00  0.00     0.049 A 
ATOM     35  N   UNL     1      10.579   7.436   2.333  1.00  0.00    -0.248 NA
ATOM     36  C   UNL     1       8.655   6.145   2.626  1.00  0.00     0.031 C 
ATOM     37  C   UNL     1       9.241  10.075   5.691  1.00  0.00     0.029 A 
ATOM     38  N   UNL     1      10.793   9.772   4.110  1.00  0.00    -0.354 N 
ATOM     39  C   UNL     1      10.566   6.412   1.396  1.00  0.00     0.074 A 
ATOM     40  C   UNL     1       9.370   5.633   1.634  1.00  0.00     0.031 C 
ATOM     41  C   UNL     1      10.121  11.085   5.790  1.00  0.00     0.029 A 
ATOM     42  C   UNL     1      11.178  10.895   4.801  1.00  0.00     0.049 A 
ATOM     43  H   UNL     1      11.290   9.417   3.337  1.00  0.00     0.167 HD
ATOM     44  C   UNL     1      11.475   6.149   0.427  1.00  0.00     0.037 A 
ATOM     45  C   UNL     1      12.275  11.664   4.666  1.00  0.00     0.037 A 
ATOM     46  C   UNL     1      12.647   6.945   0.174  1.00  0.00     0.049 A 
ATOM     47  C   UNL     1      13.292  11.316   3.613  1.00  0.00     0.074 A 
ATOM     48  C   UNL     1      13.606   6.780  -0.810  1.00  0.00     0.029 A 
ATOM     49  N   UNL     1      13.018   8.058   0.913  1.00  0.00    -0.354 N 
ATOM     50  N   UNL     1      13.270  10.351   2.727  1.00  0.00    -0.248 NA
ATOM     51  C   UNL     1      14.493  12.162   3.548  1.00  0.00     0.031 C 
ATOM     52  C   UNL     1      14.579   7.771  -0.643  1.00  0.00     0.029 A 
ATOM     53  C   UNL     1      14.205   8.576   0.421  1.00  0.00     0.049 A 
ATOM     54  H   UNL     1      12.513   8.425   1.674  1.00  0.00     0.167 HD
ATOM     55  C   UNL     1      14.436  10.486   1.986  1.00  0.00     0.074 A 
ATOM     56  C   UNL     1      15.140  11.633   2.519  1.00  0.00     0.031 C 
ATOM     57  C   UNL     1      14.884   9.726   0.957  1.00  0.00     0.037 A 
BRANCH  44  58
ATOM     58  C   UNL     1      11.255   4.933  -0.420  1.00  0.00     0.064 A 
ATOM     59  C   UNL     1      10.289   4.904  -1.435  1.00  0.00     0.173 A 
ATOM     60  C   UNL     1      12.064   3.799  -0.246  1.00  0.00     0.173 A 
ATOM     61  F   UNL     1       9.483   5.959  -1.630  1.00  0.00    -0.203 F 
ATOM     62  C   UNL     1      10.130   3.778  -2.238  1.00  0.00     0.198 A 
ATOM     63  C   UNL     1      11.916   2.683  -1.064  1.00  0.00     0.198 A 
ATOM     64  F   UNL     1      13.004   3.780   0.710  1.00  0.00    -0.203 F 
ATOM     65  F   UNL     1       9.180   3.759  -3.183  1.00  0.00    -0.200 F 
ATOM     66  C   UNL     1      10.948   2.672  -2.057  1.00  0.00     0.200 A 
ATOM     67  F   UNL     1      12.713   1.619  -0.894  1.00  0.00    -0.200 F 
ATOM     68  F   UNL     1      10.800   1.592  -2.837  1.00  0.00    -0.200 F 
ENDBRANCH  44  58
BRANCH  45  69
ATOM     69  C   UNL     1      12.483  12.827   5.565  1.00  0.00     0.064 A 
ATOM     70  C   UNL     1      12.412  14.137   5.074  1.00  0.00     0.173 A 
ATOM     71  C   UNL     1      12.779  12.652   6.925  1.00  0.00     0.173 A 
ATOM     72  F   UNL     1      12.159  14.352   3.774  1.00  0.00    -0.203 F 
ATOM     73  C   UNL     1      12.644  15.230   5.907  1.00  0.00     0.198 A 
ATOM     74  C   UNL     1      12.986  13.746   7.761  1.00  0.00     0.198 A 
ATOM     75  F   UNL     1      12.864  11.418   7.441  1.00  0.00    -0.203 F 
ATOM     76  F   UNL     1      12.615  16.471   5.403  1.00  0.00    -0.200 F 
ATOM     77  C   UNL     1      12.925  15.034   7.250  1.00  0.00     0.200 A 
ATOM     78  F   UNL     1      13.250  13.553   9.061  1.00  0.00    -0.200 F 
ATOM     79  F   UNL     1      13.150  16.085   8.050  1.00  0.00    -0.200 F 
ENDBRANCH  45  69
BRANCH  57  80
ATOM     80  C   UNL     1      16.177  10.134   0.318  1.00  0.00     0.064 A 
ATOM     81  C   UNL     1      17.409   9.899   0.943  1.00  0.00     0.173 A 
ATOM     82  C   UNL     1      16.183  10.730  -0.952  1.00  0.00     0.173 A 
ATOM     83  F   UNL     1      17.451   9.347   2.165  1.00  0.00    -0.203 F 
ATOM     84  C   UNL     1      18.603  10.265   0.327  1.00  0.00     0.198 A 
ATOM     85  C   UNL     1      17.379  11.073  -1.575  1.00  0.00     0.198 A 
ATOM     86  F   UNL     1      15.028  10.970  -1.592  1.00  0.00    -0.203 F 
ATOM     87  F   UNL     1      19.768  10.068   0.958  1.00  0.00    -0.200 F 
ATOM     88  C   UNL     1      18.587  10.845  -0.933  1.00  0.00     0.200 A 
ATOM     89  F   UNL     1      17.363  11.625  -2.796  1.00  0.00    -0.200 F 
ATOM     90  F   UNL     1      19.738  11.192  -1.526  1.00  0.00    -0.200 F 
ENDBRANCH  57  80
ENDBRANCH  31  32
ENDBRANCH  24  26
ENDBRANCH  23  24
ENDBRANCH  22  23
ENDBRANCH   1  22
TORSDOF 14
