REMARK SMILES Nn1c(S[C@@H](C(=O)OCCOC(=O)c2ccc(-c3c4nc(c(-c5c(F)c(F)c(F)c(F)c5F)c5ccc([nH]5)c(-c5c(F)c(F)c(F)c(F)c5F)c5nc(c(-c6c(F)c(F)c(F)c(F)c6F)c6ccc3[nH]6)C=C5)C=C4)cc2)c2ccccc2)nc2ccc(Br)cc2c1=O
REMARK SMILES IDX 9 1 8 2 6 3 7 4 5 5 4 6 3 7 2 8 91 9 83 10 90 11 92 12 84 13
REMARK SMILES IDX 89 14 85 15 87 16 86 17 88 18 1 19 77 22 78 23 82 24 79 25
REMARK SMILES IDX 81 26 80 27 10 28 11 29 12 30 13 31 14 32 15 33 76 34 16 35
REMARK SMILES IDX 75 36 17 37 18 38 19 39 69 40 20 41 74 42 68 43 70 44 21 45
REMARK SMILES IDX 73 46 67 47 66 48 22 50 54 51 34 52 53 53 35 54 38 55 52 56
REMARK SMILES IDX 71 57 36 58 37 59 51 61 72 62 39 63 23 64 24 65 32 66 25 67
REMARK SMILES IDX 26 68 30 69 33 70 27 71 28 72 31 73 29 74 55 75 56 76 64 77
REMARK SMILES IDX 57 78 58 79 62 80 65 81 59 82 60 83 63 84 61 85 40 86 41 87
REMARK SMILES IDX 49 88 42 89 43 90 47 91 50 92 44 93 45 94 48 95 46 96
REMARK H PARENT 1 20 1 21 70 49 38 60
REMARK Flexibility Score: inf
ROOT
ATOM      1  C   UNL     1       4.311  -1.159   1.256  1.00  0.00     0.274 C 
ENDROOT
BRANCH   1   2
ATOM      2  O   UNL     1       3.485   0.030   1.300  1.00  0.00    -0.461 OA
BRANCH   2   3
ATOM      3  C   UNL     1       3.382   0.722   0.127  1.00  0.00     0.324 C 
ATOM      4  O   UNL     1       3.877   0.294  -0.913  1.00  0.00    -0.251 OA
BRANCH   3   5
ATOM      5  C   UNL     1       2.757   2.125   0.263  1.00  0.00     0.194 C 
BRANCH   5   6
ATOM      6  S   UNL     1       1.904   2.432   1.846  1.00  0.00    -0.066 SA
BRANCH   6   7
ATOM      7  C   UNL     1       0.566   1.337   2.120  1.00  0.00     0.191 A 
ATOM      8  N   UNL     1      -0.218   0.779   1.113  1.00  0.00    -0.202 N 
ATOM      9  C   UNL     1      -1.276  -0.097   1.386  1.00  0.00     0.280 A 
ATOM     10  N   UNL     1       0.290   1.161   3.377  1.00  0.00    -0.222 NA
ATOM     11  C   UNL     1      -1.625  -0.258   2.802  1.00  0.00     0.069 A 
ATOM     12  O   UNL     1      -1.950  -0.642   0.511  1.00  0.00    -0.267 OA
ATOM     13  C   UNL     1      -0.853   0.433   3.732  1.00  0.00     0.079 A 
ATOM     14  C   UNL     1      -2.771  -0.969   3.178  1.00  0.00     0.031 A 
ATOM     15  C   UNL     1      -1.276   0.451   5.063  1.00  0.00     0.030 A 
ATOM     16  C   UNL     1      -3.171  -0.945   4.509  1.00  0.00     0.018 A 
ATOM     17  C   UNL     1      -2.438  -0.226   5.453  1.00  0.00     0.018 A 
ATOM     18  Br  UNL     1      -4.743  -1.854   5.033  1.00  0.00    -0.051 Br
BRANCH   8  19
ATOM     19  N   UNL     1      -0.112   1.176  -0.227  1.00  0.00    -0.334 N 
ATOM     20  H   UNL     1       0.605   1.792  -0.503  1.00  0.00     0.178 HD
ATOM     21  H   UNL     1      -0.755   0.840  -0.893  1.00  0.00     0.178 HD
ENDBRANCH   8  19
ENDBRANCH   6   7
ENDBRANCH   5   6
BRANCH   5  22
ATOM     22  C   UNL     1       2.108   2.767  -0.988  1.00  0.00    -0.023 A 
ATOM     23  C   UNL     1       2.248   2.246  -2.290  1.00  0.00     0.005 A 
ATOM     24  C   UNL     1       1.349   3.951  -0.869  1.00  0.00     0.005 A 
ATOM     25  C   UNL     1       1.584   2.810  -3.387  1.00  0.00     0.000 A 
ATOM     26  C   UNL     1       0.678   4.511  -1.962  1.00  0.00     0.000 A 
ATOM     27  C   UNL     1       0.782   3.930  -3.219  1.00  0.00     0.000 A 
ENDBRANCH   5  22
ENDBRANCH   3   5
ENDBRANCH   2   3
ENDBRANCH   1   2
BRANCH   1  28
ATOM     28  C   UNL     1       3.465  -2.426   1.159  1.00  0.00     0.275 C 
BRANCH  28  29
ATOM     29  O   UNL     1       2.666  -2.377  -0.034  1.00  0.00    -0.458 OA
BRANCH  29  30
ATOM     30  C   UNL     1       1.379  -2.775   0.099  1.00  0.00     0.338 C 
ATOM     31  O   UNL     1       0.860  -3.244   1.097  1.00  0.00    -0.246 OA
BRANCH  30  32
ATOM     32  C   UNL     1       0.631  -2.498  -1.151  1.00  0.00     0.060 A 
ATOM     33  C   UNL     1      -0.520  -3.232  -1.436  1.00  0.00     0.016 A 
ATOM     34  C   UNL     1       0.979  -1.426  -1.974  1.00  0.00     0.016 A 
ATOM     35  C   UNL     1      -1.315  -2.886  -2.535  1.00  0.00     0.010 A 
ATOM     36  C   UNL     1       0.108  -0.999  -2.978  1.00  0.00     0.010 A 
ATOM     37  C   UNL     1      -1.035  -1.740  -3.301  1.00  0.00    -0.014 A 
BRANCH  37  38
ATOM     38  C   UNL     1      -1.921  -1.335  -4.434  1.00  0.00     0.031 A 
ATOM     39  C   UNL     1      -1.366  -1.140  -5.827  1.00  0.00     0.074 A 
ATOM     40  C   UNL     1      -3.235  -1.109  -4.224  1.00  0.00     0.049 A 
ATOM     41  N   UNL     1      -2.001  -0.856  -6.939  1.00  0.00    -0.248 NA
ATOM     42  C   UNL     1       0.094  -1.223  -5.991  1.00  0.00     0.031 C 
ATOM     43  C   UNL     1      -3.906  -1.125  -2.923  1.00  0.00     0.029 A 
ATOM     44  N   UNL     1      -4.250  -0.839  -5.113  1.00  0.00    -0.354 N 
ATOM     45  C   UNL     1      -1.020  -0.701  -7.910  1.00  0.00     0.074 A 
ATOM     46  C   UNL     1       0.255  -0.836  -7.246  1.00  0.00     0.031 C 
ATOM     47  C   UNL     1      -5.225  -0.950  -3.104  1.00  0.00     0.029 A 
ATOM     48  C   UNL     1      -5.495  -0.795  -4.531  1.00  0.00     0.049 A 
ATOM     49  H   UNL     1      -4.099  -0.691  -6.075  1.00  0.00     0.167 HD
ATOM     50  C   UNL     1      -1.158  -0.522  -9.246  1.00  0.00     0.037 A 
ATOM     51  C   UNL     1      -6.718  -0.683  -5.085  1.00  0.00     0.037 A 
ATOM     52  C   UNL     1      -2.418  -0.480  -9.934  1.00  0.00     0.049 A 
ATOM     53  C   UNL     1      -6.860  -0.596  -6.580  1.00  0.00     0.074 A 
ATOM     54  C   UNL     1      -2.655  -0.428 -11.297  1.00  0.00     0.029 A 
ATOM     55  N   UNL     1      -3.655  -0.504  -9.311  1.00  0.00    -0.354 N 
ATOM     56  N   UNL     1      -5.927  -0.577  -7.499  1.00  0.00    -0.248 NA
ATOM     57  C   UNL     1      -8.229  -0.533  -7.117  1.00  0.00     0.031 C 
ATOM     58  C   UNL     1      -4.038  -0.403 -11.499  1.00  0.00     0.029 A 
ATOM     59  C   UNL     1      -4.660  -0.466 -10.263  1.00  0.00     0.049 A 
ATOM     60  H   UNL     1      -3.798  -0.542  -8.338  1.00  0.00     0.167 HD
ATOM     61  C   UNL     1      -6.591  -0.530  -8.717  1.00  0.00     0.074 A 
ATOM     62  C   UNL     1      -8.008  -0.530  -8.425  1.00  0.00     0.031 C 
ATOM     63  C   UNL     1      -6.068  -0.490  -9.966  1.00  0.00     0.037 A 
BRANCH  50  64
ATOM     64  C   UNL     1       0.095  -0.421 -10.065  1.00  0.00     0.064 A 
ATOM     65  C   UNL     1       0.920  -1.537 -10.273  1.00  0.00     0.173 A 
ATOM     66  C   UNL     1       0.454   0.786 -10.682  1.00  0.00     0.173 A 
ATOM     67  F   UNL     1       0.624  -2.712  -9.697  1.00  0.00    -0.203 F 
ATOM     68  C   UNL     1       2.077  -1.440 -11.040  1.00  0.00     0.198 A 
ATOM     69  C   UNL     1       1.597   0.872 -11.473  1.00  0.00     0.198 A 
ATOM     70  F   UNL     1      -0.306   1.880 -10.523  1.00  0.00    -0.203 F 
ATOM     71  F   UNL     1       2.876  -2.507 -11.180  1.00  0.00    -0.200 F 
ATOM     72  C   UNL     1       2.411  -0.238 -11.645  1.00  0.00     0.200 A 
ATOM     73  F   UNL     1       1.913   2.030 -12.070  1.00  0.00    -0.200 F 
ATOM     74  F   UNL     1       3.522  -0.148 -12.388  1.00  0.00    -0.200 F 
ENDBRANCH  50  64
BRANCH  51  75
ATOM     75  C   UNL     1      -7.923  -0.752  -4.221  1.00  0.00     0.064 A 
ATOM     76  C   UNL     1      -8.699  -1.920  -4.178  1.00  0.00     0.173 A 
ATOM     77  C   UNL     1      -8.322   0.330  -3.427  1.00  0.00     0.173 A 
ATOM     78  F   UNL     1      -8.366  -2.973  -4.940  1.00  0.00    -0.203 F 
ATOM     79  C   UNL     1      -9.837  -1.998  -3.380  1.00  0.00     0.198 A 
ATOM     80  C   UNL     1      -9.451   0.244  -2.615  1.00  0.00     0.198 A 
ATOM     81  F   UNL     1      -7.611   1.467  -3.436  1.00  0.00    -0.203 F 
ATOM     82  F   UNL     1     -10.580  -3.113  -3.383  1.00  0.00    -0.200 F 
ATOM     83  C   UNL     1     -10.210  -0.917  -2.596  1.00  0.00     0.200 A 
ATOM     84  F   UNL     1      -9.808   1.288  -1.854  1.00  0.00    -0.200 F 
ATOM     85  F   UNL     1     -11.306  -0.992  -1.828  1.00  0.00    -0.200 F 
ENDBRANCH  51  75
BRANCH  63  86
ATOM     86  C   UNL     1      -7.017  -0.475 -11.124  1.00  0.00     0.064 A 
ATOM     87  C   UNL     1      -7.715   0.687 -11.480  1.00  0.00     0.173 A 
ATOM     88  C   UNL     1      -7.158  -1.608 -11.940  1.00  0.00     0.173 A 
ATOM     89  F   UNL     1      -7.618   1.791 -10.725  1.00  0.00    -0.203 F 
ATOM     90  C   UNL     1      -8.528   0.712 -12.610  1.00  0.00     0.198 A 
ATOM     91  C   UNL     1      -7.956  -1.572 -13.080  1.00  0.00     0.198 A 
ATOM     92  F   UNL     1      -6.503  -2.740 -11.643  1.00  0.00    -0.203 F 
ATOM     93  F   UNL     1      -9.203   1.827 -12.923  1.00  0.00    -0.200 F 
ATOM     94  C   UNL     1      -8.640  -0.413 -13.414  1.00  0.00     0.200 A 
ATOM     95  F   UNL     1      -8.053  -2.656 -13.862  1.00  0.00    -0.200 F 
ATOM     96  F   UNL     1      -9.409  -0.381 -14.511  1.00  0.00    -0.200 F 
ENDBRANCH  63  86
ENDBRANCH  37  38
ENDBRANCH  30  32
ENDBRANCH  29  30
ENDBRANCH  28  29
ENDBRANCH   1  28
TORSDOF 15
