REMARK SMILES Cc1c(Cc2ccccc2)c(=O)oc2cc(OCC(=O)N[C@H](C)C(=O)OCCOC(=O)c3ccc(-c4c5nc(c(-c6c(F)c(F)c(F)c(F)c6F)c6ccc([nH]6)c(-c6c(F)c(F)c(F)c(F)c6F)c6nc(c(-c7c(F)c(F)c(F)c(F)c7F)c7ccc4[nH]7)C=C6)C=C5)cc3)ccc12
REMARK SMILES IDX 24 1 25 2 22 3 23 4 21 5 19 6 20 7 18 9 17 10 16 11 1 12
REMARK SMILES IDX 2 13 3 14 97 15 11 16 14 17 96 18 12 19 13 20 15 21 95 22
REMARK SMILES IDX 4 23 5 24 6 25 10 26 7 27 9 28 8 29 26 30 27 31 28 32 29 33
REMARK SMILES IDX 30 34 31 35 32 36 33 37 94 38 34 39 93 40 35 41 36 42 37 43
REMARK SMILES IDX 87 44 38 45 92 46 86 47 88 48 39 49 91 50 85 51 84 52 40 54
REMARK SMILES IDX 72 55 52 56 71 57 53 58 56 59 70 60 89 61 54 62 55 63 69 65
REMARK SMILES IDX 90 66 57 67 41 68 42 69 50 70 43 71 44 72 48 73 51 74 45 75
REMARK SMILES IDX 46 76 49 77 47 78 73 79 74 80 82 81 75 82 76 83 80 84 83 85
REMARK SMILES IDX 77 86 78 87 81 88 79 89 58 90 59 91 67 92 60 93 61 94 65 95
REMARK SMILES IDX 68 96 62 97 63 98 66 99 64 100
REMARK H PARENT 21 8 88 53 56 64
REMARK Flexibility Score: inf
ROOT
ATOM      1  C   UNL     1       5.621   3.360  -3.978  1.00  0.00     0.328 C 
ATOM      2  O   UNL     1       6.773   2.943  -4.037  1.00  0.00    -0.250 OA
ENDROOT
BRANCH   1   3
ATOM      3  C   UNL     1       4.521   2.623  -3.207  1.00  0.00     0.189 C 
ATOM      4  C   UNL     1       3.409   3.501  -2.663  1.00  0.00     0.043 C 
BRANCH   3   5
ATOM      5  N   UNL     1       4.156   1.411  -3.934  1.00  0.00    -0.340 N 
ATOM      6  C   UNL     1       3.290   1.187  -4.954  1.00  0.00     0.258 C 
ATOM      7  O   UNL     1       3.439   0.149  -5.607  1.00  0.00    -0.271 OA
ATOM      8  H   UNL     1       4.627   0.603  -3.625  1.00  0.00     0.164 HD
BRANCH   6   9
ATOM      9  C   UNL     1       2.163   2.166  -5.300  1.00  0.00     0.329 C 
BRANCH   9  10
ATOM     10  O   UNL     1       1.217   2.527  -4.310  1.00  0.00    -0.484 OA
BRANCH  10  11
ATOM     11  C   UNL     1       0.571   1.555  -3.605  1.00  0.00     0.123 A 
ATOM     12  C   UNL     1      -2.557  -0.659  -0.109  1.00  0.00     0.046 C 
ATOM     13  C   UNL     1      -1.554  -1.214  -1.088  1.00  0.00    -0.029 A 
ATOM     14  C   UNL     1      -1.313  -2.532  -1.274  1.00  0.00     0.046 A 
ATOM     15  C   UNL     1      -0.817  -0.231  -1.901  1.00  0.00     0.021 A 
ATOM     16  C   UNL     1      -0.393  -3.000  -2.353  1.00  0.00     0.340 A 
ATOM     17  C   UNL     1      -0.088  -0.678  -2.998  1.00  0.00     0.142 A 
ATOM     18  C   UNL     1      -0.819   1.145  -1.651  1.00  0.00     0.016 A 
ATOM     19  O   UNL     1      -0.103  -4.184  -2.495  1.00  0.00    -0.246 OA
ATOM     20  O   UNL     1       0.057  -2.050  -3.256  1.00  0.00    -0.422 OA
ATOM     21  C   UNL     1       0.573   0.192  -3.872  1.00  0.00     0.094 A 
ATOM     22  C   UNL     1      -0.130   2.025  -2.492  1.00  0.00     0.047 A 
BRANCH  14  23
ATOM     23  C   UNL     1      -1.981  -3.661  -0.517  1.00  0.00     0.079 C 
BRANCH  23  24
ATOM     24  C   UNL     1      -1.258  -4.093   0.743  1.00  0.00    -0.043 A 
ATOM     25  C   UNL     1      -0.586  -5.323   0.789  1.00  0.00     0.004 A 
ATOM     26  C   UNL     1      -1.274  -3.298   1.900  1.00  0.00     0.004 A 
ATOM     27  C   UNL     1       0.032  -5.753   1.967  1.00  0.00     0.000 A 
ATOM     28  C   UNL     1      -0.646  -3.723   3.072  1.00  0.00     0.000 A 
ATOM     29  C   UNL     1       0.001  -4.954   3.108  1.00  0.00     0.000 A 
ENDBRANCH  23  24
ENDBRANCH  14  23
ENDBRANCH  10  11
ENDBRANCH   9  10
ENDBRANCH   6   9
ENDBRANCH   3   5
ENDBRANCH   1   3
BRANCH   1  30
ATOM     30  O   UNL     1       5.152   4.449  -4.641  1.00  0.00    -0.461 OA
BRANCH  30  31
ATOM     31  C   UNL     1       6.124   5.207  -5.386  1.00  0.00     0.274 C 
BRANCH  31  32
ATOM     32  C   UNL     1       6.429   6.532  -4.686  1.00  0.00     0.275 C 
BRANCH  32  33
ATOM     33  O   UNL     1       7.006   6.313  -3.384  1.00  0.00    -0.458 OA
BRANCH  33  34
ATOM     34  C   UNL     1       6.126   6.354  -2.357  1.00  0.00     0.338 C 
ATOM     35  O   UNL     1       4.930   6.580  -2.409  1.00  0.00    -0.246 OA
BRANCH  34  36
ATOM     36  C   UNL     1       6.796   5.946  -1.116  1.00  0.00     0.060 A 
ATOM     37  C   UNL     1       6.502   4.685  -0.593  1.00  0.00     0.016 A 
ATOM     38  C   UNL     1       7.608   6.834  -0.411  1.00  0.00     0.016 A 
ATOM     39  C   UNL     1       6.992   4.311   0.652  1.00  0.00     0.010 A 
ATOM     40  C   UNL     1       8.118   6.450   0.833  1.00  0.00     0.010 A 
ATOM     41  C   UNL     1       7.798   5.194   1.379  1.00  0.00    -0.014 A 
BRANCH  41  42
ATOM     42  C   UNL     1       8.252   4.811   2.735  1.00  0.00     0.031 A 
ATOM     43  C   UNL     1       7.631   5.454   3.940  1.00  0.00     0.074 A 
ATOM     44  C   UNL     1       9.185   3.854   2.882  1.00  0.00     0.049 A 
ATOM     45  N   UNL     1       7.938   5.315   5.205  1.00  0.00    -0.248 NA
ATOM     46  C   UNL     1       6.511   6.374   3.689  1.00  0.00     0.031 C 
ATOM     47  C   UNL     1       9.810   3.111   1.788  1.00  0.00     0.029 A 
ATOM     48  N   UNL     1       9.763   3.337   4.013  1.00  0.00    -0.354 N 
ATOM     49  C   UNL     1       7.068   6.145   5.897  1.00  0.00     0.074 A 
ATOM     50  C   UNL     1       6.227   6.794   4.913  1.00  0.00     0.031 C 
ATOM     51  C   UNL     1      10.678   2.224   2.302  1.00  0.00     0.029 A 
ATOM     52  C   UNL     1      10.706   2.374   3.754  1.00  0.00     0.049 A 
ATOM     53  H   UNL     1       9.525   3.629   4.923  1.00  0.00     0.167 HD
ATOM     54  C   UNL     1       6.981   6.345   7.234  1.00  0.00     0.037 A 
ATOM     55  C   UNL     1      11.518   1.707   4.595  1.00  0.00     0.037 A 
ATOM     56  C   UNL     1       7.809   5.686   8.209  1.00  0.00     0.049 A 
ATOM     57  C   UNL     1      11.448   1.998   6.068  1.00  0.00     0.074 A 
ATOM     58  C   UNL     1       7.807   5.828   9.586  1.00  0.00     0.029 A 
ATOM     59  N   UNL     1       8.790   4.752   7.906  1.00  0.00    -0.354 N 
ATOM     60  N   UNL     1      10.650   2.813   6.713  1.00  0.00    -0.248 NA
ATOM     61  C   UNL     1      12.402   1.284   6.928  1.00  0.00     0.031 C 
ATOM     62  C   UNL     1       8.808   5.004  10.113  1.00  0.00     0.029 A 
ATOM     63  C   UNL     1       9.408   4.319   9.069  1.00  0.00     0.049 A 
ATOM     64  H   UNL     1       9.013   4.442   6.999  1.00  0.00     0.167 HD
ATOM     65  C   UNL     1      10.991   2.699   8.053  1.00  0.00     0.074 A 
ATOM     66  C   UNL     1      12.060   1.724   8.131  1.00  0.00     0.031 C 
ATOM     67  C   UNL     1      10.468   3.346   9.124  1.00  0.00     0.037 A 
BRANCH  54  68
ATOM     68  C   UNL     1       5.971   7.344   7.715  1.00  0.00     0.064 A 
ATOM     69  C   UNL     1       4.598   7.063   7.714  1.00  0.00     0.173 A 
ATOM     70  C   UNL     1       6.387   8.594   8.197  1.00  0.00     0.173 A 
ATOM     71  F   UNL     1       4.149   5.888   7.246  1.00  0.00    -0.203 F 
ATOM     72  C   UNL     1       3.674   8.007   8.157  1.00  0.00     0.198 A 
ATOM     73  C   UNL     1       5.463   9.527   8.660  1.00  0.00     0.198 A 
ATOM     74  F   UNL     1       7.691   8.911   8.218  1.00  0.00    -0.203 F 
ATOM     75  F   UNL     1       2.363   7.735   8.106  1.00  0.00    -0.200 F 
ATOM     76  C   UNL     1       4.108   9.236   8.634  1.00  0.00     0.200 A 
ATOM     77  F   UNL     1       5.885  10.710   9.127  1.00  0.00    -0.200 F 
ATOM     78  F   UNL     1       3.218  10.143   9.059  1.00  0.00    -0.200 F 
ENDBRANCH  54  68
BRANCH  55  79
ATOM     79  C   UNL     1      12.480   0.712   4.058  1.00  0.00     0.064 A 
ATOM     80  C   UNL     1      12.305  -0.657   4.293  1.00  0.00     0.173 A 
ATOM     81  C   UNL     1      13.591   1.110   3.299  1.00  0.00     0.173 A 
ATOM     82  F   UNL     1      11.272  -1.082   5.036  1.00  0.00    -0.203 F 
ATOM     83  C   UNL     1      13.210  -1.593   3.796  1.00  0.00     0.198 A 
ATOM     84  C   UNL     1      14.481   0.172   2.782  1.00  0.00     0.198 A 
ATOM     85  F   UNL     1      13.803   2.410   3.050  1.00  0.00    -0.203 F 
ATOM     86  F   UNL     1      13.040  -2.894   4.066  1.00  0.00    -0.200 F 
ATOM     87  C   UNL     1      14.293  -1.178   3.035  1.00  0.00     0.200 A 
ATOM     88  F   UNL     1      15.520   0.576   2.039  1.00  0.00    -0.200 F 
ATOM     89  F   UNL     1      15.159  -2.079   2.553  1.00  0.00    -0.200 F 
ENDBRANCH  55  79
BRANCH  67  90
ATOM     90  C   UNL     1      11.028   2.996  10.470  1.00  0.00     0.064 A 
ATOM     91  C   UNL     1      12.290   3.450  10.878  1.00  0.00     0.173 A 
ATOM     92  C   UNL     1      10.282   2.219  11.368  1.00  0.00     0.173 A 
ATOM     93  F   UNL     1      13.045   4.182  10.046  1.00  0.00    -0.203 F 
ATOM     94  C   UNL     1      12.795   3.119  12.132  1.00  0.00     0.198 A 
ATOM     95  C   UNL     1      10.782   1.909  12.630  1.00  0.00     0.198 A 
ATOM     96  F   UNL     1       9.068   1.764  11.024  1.00  0.00    -0.203 F 
ATOM     97  F   UNL     1      14.021   3.528  12.487  1.00  0.00    -0.200 F 
ATOM     98  C   UNL     1      12.040   2.354  13.008  1.00  0.00     0.200 A 
ATOM     99  F   UNL     1      10.047   1.177  13.478  1.00  0.00    -0.200 F 
ATOM    100  F   UNL     1      12.528   2.037  14.215  1.00  0.00    -0.200 F 
ENDBRANCH  67  90
ENDBRANCH  41  42
ENDBRANCH  34  36
ENDBRANCH  33  34
ENDBRANCH  32  33
ENDBRANCH  31  32
ENDBRANCH  30  31
ENDBRANCH   1  30
TORSDOF 17
