REMARK SMILES COc1cc(C(=O)N[C@H](C(=O)OCCOC(=O)c2ccc(-c3c4nc(c(-c5c(F)c(F)c(F)c(F)c5F)c5ccc([nH]5)c(-c5c(F)c(F)c(F)c(F)c5F)c5nc(c(-c6c(F)c(F)c(F)c(F)c6F)c6ccc3[nH]6)C=C5)C=C4)cc2)C2=C(C)N=N[C@H]2C)ccc1C
REMARK SMILES IDX 13 1 12 2 10 3 11 4 9 5 8 6 6 7 7 8 5 10 3 11 4 12 90 13
REMARK SMILES IDX 89 14 91 15 88 16 2 17 1 18 81 19 82 20 86 21 83 22 84 23
REMARK SMILES IDX 85 24 87 25 14 26 15 27 16 28 17 29 18 30 19 31 80 32 20 33
REMARK SMILES IDX 79 34 21 35 22 36 23 37 73 38 24 39 78 40 72 41 74 42 25 43
REMARK SMILES IDX 77 44 71 45 70 46 26 48 58 49 38 50 57 51 39 52 42 53 56 54
REMARK SMILES IDX 75 55 40 56 41 57 55 59 76 60 43 61 27 62 28 63 36 64 29 65
REMARK SMILES IDX 30 66 34 67 37 68 31 69 32 70 35 71 33 72 59 73 60 74 68 75
REMARK SMILES IDX 61 76 62 77 66 78 69 79 63 80 64 81 67 82 65 83 44 84 45 85
REMARK SMILES IDX 53 86 46 87 47 88 51 89 54 90 48 91 49 92 52 93 50 94
REMARK H PARENT 8 9 74 47 42 58
REMARK Flexibility Score: inf
ROOT
ATOM      1  C   UNL     1       2.604   3.002  -3.627  1.00  0.00     0.274 C 
ENDROOT
BRANCH   1   2
ATOM      2  O   UNL     1       2.409   2.035  -2.587  1.00  0.00    -0.460 OA
BRANCH   2   3
ATOM      3  C   UNL     1       2.717   0.783  -3.009  1.00  0.00     0.333 C 
ATOM      4  O   UNL     1       2.219   0.266  -4.005  1.00  0.00    -0.249 OA
BRANCH   3   5
ATOM      5  C   UNL     1       4.021   0.281  -2.376  1.00  0.00     0.223 C 
BRANCH   5   6
ATOM      6  N   UNL     1       5.242   0.939  -3.334  1.00  0.00    -0.335 N 
ATOM      7  C   UNL     1       6.086   2.007  -3.841  1.00  0.00     0.252 C 
ATOM      8  O   UNL     1       6.639   1.547  -4.865  1.00  0.00    -0.269 OA
ATOM      9  H   UNL     1       5.566   0.155  -3.834  1.00  0.00     0.165 HD
BRANCH   7  10
ATOM     10  C   UNL     1       6.636   3.567  -3.472  1.00  0.00     0.043 A 
ATOM     11  C   UNL     1       7.218   5.864  -2.201  1.00  0.00     0.122 A 
ATOM     12  C   UNL     1       6.471   4.596  -2.437  1.00  0.00     0.060 A 
ATOM     13  C   UNL     1       8.204   6.136  -3.168  1.00  0.00    -0.009 A 
ATOM     14  C   UNL     1       8.386   5.166  -4.202  1.00  0.00     0.008 A 
ATOM     15  C   UNL     1       9.203   7.258  -3.267  1.00  0.00     0.048 C 
ATOM     16  C   UNL     1       7.658   3.956  -4.343  1.00  0.00     0.014 A 
BRANCH  11  17
ATOM     17  O   UNL     1       7.142   6.462  -0.744  1.00  0.00    -0.496 OA
ATOM     18  C   UNL     1       6.693   7.915   0.598  1.00  0.00     0.278 C 
ENDBRANCH  11  17
ENDBRANCH   7  10
ENDBRANCH   5   6
BRANCH   5  19
ATOM     19  C   UNL     1       4.140  -0.087  -0.854  1.00  0.00     0.012 C 
ATOM     20  C   UNL     1       3.703   0.278   0.389  1.00  0.00     0.064 C 
ATOM     21  C   UNL     1       4.638  -1.477  -0.468  1.00  0.00     0.156 C 
ATOM     22  C   UNL     1       2.623   1.149   0.953  1.00  0.00     0.069 C 
ATOM     23  N   UNL     1       4.410  -0.358   1.401  1.00  0.00    -0.160 NA
ATOM     24  N   UNL     1       5.097  -1.287   0.922  1.00  0.00    -0.181 NA
ATOM     25  C   UNL     1       3.452  -2.477  -0.336  1.00  0.00     0.040 C 
ENDBRANCH   5  19
ENDBRANCH   3   5
ENDBRANCH   2   3
ENDBRANCH   1   2
BRANCH   1  26
ATOM     26  C   UNL     1       2.825   4.396  -3.020  1.00  0.00     0.275 C 
BRANCH  26  27
ATOM     27  O   UNL     1       3.654   4.375  -1.825  1.00  0.00    -0.458 OA
BRANCH  27  28
ATOM     28  C   UNL     1       3.314   3.907  -0.578  1.00  0.00     0.338 C 
ATOM     29  O   UNL     1       2.210   3.960  -0.082  1.00  0.00    -0.246 OA
BRANCH  28  30
ATOM     30  C   UNL     1       4.581   3.196  -0.035  1.00  0.00     0.060 A 
ATOM     31  C   UNL     1       5.256   3.126   1.177  1.00  0.00     0.016 A 
ATOM     32  C   UNL     1       5.200   2.468  -1.006  1.00  0.00     0.016 A 
ATOM     33  C   UNL     1       6.592   2.517   1.265  1.00  0.00     0.010 A 
ATOM     34  C   UNL     1       6.435   1.825  -0.921  1.00  0.00     0.010 A 
ATOM     35  C   UNL     1       7.230   1.905   0.166  1.00  0.00    -0.014 A 
BRANCH  35  36
ATOM     36  C   UNL     1       8.666   1.734  -0.242  1.00  0.00     0.031 A 
ATOM     37  C   UNL     1       9.345   0.586  -0.912  1.00  0.00     0.074 A 
ATOM     38  C   UNL     1       9.299   2.883  -0.588  1.00  0.00     0.049 A 
ATOM     39  N   UNL     1      10.594   0.317  -0.685  1.00  0.00    -0.248 NA
ATOM     40  C   UNL     1       8.828  -0.153  -2.062  1.00  0.00     0.031 C 
ATOM     41  C   UNL     1      10.549   3.189  -1.276  1.00  0.00     0.029 A 
ATOM     42  N   UNL     1       8.833   4.121  -0.302  1.00  0.00    -0.354 N 
ATOM     43  C   UNL     1      11.120  -0.233  -1.847  1.00  0.00     0.074 A 
ATOM     44  C   UNL     1       9.956  -0.620  -2.616  1.00  0.00     0.031 C 
ATOM     45  C   UNL     1      10.870   4.482  -1.079  1.00  0.00     0.029 A 
ATOM     46  C   UNL     1       9.802   5.109  -0.335  1.00  0.00     0.049 A 
ATOM     47  H   UNL     1       7.889   4.303  -0.088  1.00  0.00     0.167 HD
ATOM     48  C   UNL     1      12.463  -0.114  -2.134  1.00  0.00     0.037 A 
ATOM     49  C   UNL     1       9.873   5.854   0.794  1.00  0.00     0.037 A 
ATOM     50  C   UNL     1      13.130   0.847  -1.216  1.00  0.00     0.049 A 
ATOM     51  C   UNL     1      10.636   4.961   1.805  1.00  0.00     0.074 A 
ATOM     52  C   UNL     1      13.815   2.045  -1.389  1.00  0.00     0.029 A 
ATOM     53  N   UNL     1      12.875   0.784   0.153  1.00  0.00    -0.354 N 
ATOM     54  N   UNL     1      11.651   4.204   1.433  1.00  0.00    -0.248 NA
ATOM     55  C   UNL     1      10.369   4.773   3.235  1.00  0.00     0.031 C 
ATOM     56  C   UNL     1      13.845   2.743  -0.147  1.00  0.00     0.029 A 
ATOM     57  C   UNL     1      13.162   1.986   0.784  1.00  0.00     0.049 A 
ATOM     58  H   UNL     1      12.533  -0.015   0.615  1.00  0.00     0.167 HD
ATOM     59  C   UNL     1      11.965   3.288   2.417  1.00  0.00     0.074 A 
ATOM     60  C   UNL     1      11.232   3.784   3.568  1.00  0.00     0.031 C 
ATOM     61  C   UNL     1      12.746   2.178   2.175  1.00  0.00     0.037 A 
BRANCH  48  62
ATOM     62  C   UNL     1      13.159  -0.663  -3.389  1.00  0.00     0.064 A 
ATOM     63  C   UNL     1      14.465  -0.258  -3.763  1.00  0.00     0.173 A 
ATOM     64  C   UNL     1      12.626  -1.668  -4.224  1.00  0.00     0.173 A 
ATOM     65  F   UNL     1      15.191   0.574  -3.008  1.00  0.00    -0.203 F 
ATOM     66  C   UNL     1      15.120  -0.729  -4.910  1.00  0.00     0.198 A 
ATOM     67  C   UNL     1      13.264  -2.114  -5.394  1.00  0.00     0.198 A 
ATOM     68  F   UNL     1      11.511  -2.330  -3.898  1.00  0.00    -0.203 F 
ATOM     69  F   UNL     1      16.361  -0.304  -5.189  1.00  0.00    -0.200 F 
ATOM     70  C   UNL     1      14.510  -1.641  -5.740  1.00  0.00     0.200 A 
ATOM     71  F   UNL     1      12.668  -3.036  -6.164  1.00  0.00    -0.200 F 
ATOM     72  F   UNL     1      15.135  -2.095  -6.835  1.00  0.00    -0.200 F 
ENDBRANCH  48  62
BRANCH  49  73
ATOM     73  C   UNL     1       8.533   6.590   0.715  1.00  0.00     0.064 A 
ATOM     74  C   UNL     1       8.500   7.864  -0.555  1.00  0.00     0.173 A 
ATOM     75  C   UNL     1       6.980   5.781   1.094  1.00  0.00     0.173 A 
ATOM     76  F   UNL     1       9.607   8.594  -0.754  1.00  0.00    -0.203 F 
ATOM     77  C   UNL     1       6.973   8.298  -1.458  1.00  0.00     0.198 A 
ATOM     78  C   UNL     1       5.460   6.189   0.217  1.00  0.00     0.198 A 
ATOM     79  F   UNL     1       6.913   5.073   2.230  1.00  0.00    -0.203 F 
ATOM     80  F   UNL     1       6.943   9.381  -2.245  1.00  0.00    -0.200 F 
ATOM     81  C   UNL     1       5.452   7.425  -1.093  1.00  0.00     0.200 A 
ATOM     82  F   UNL     1       4.287   5.863   0.776  1.00  0.00    -0.200 F 
ATOM     83  F   UNL     1       4.292   7.828  -1.628  1.00  0.00    -0.200 F 
ENDBRANCH  49  73
BRANCH  61  84
ATOM     84  C   UNL     1      13.213   1.108   3.159  1.00  0.00     0.064 A 
ATOM     85  C   UNL     1      12.508   0.656   4.282  1.00  0.00     0.173 A 
ATOM     86  C   UNL     1      14.419   0.400   2.881  1.00  0.00     0.173 A 
ATOM     87  F   UNL     1      11.314   1.170   4.604  1.00  0.00    -0.203 F 
ATOM     88  C   UNL     1      12.995  -0.386   5.090  1.00  0.00     0.198 A 
ATOM     89  C   UNL     1      14.867  -0.675   3.649  1.00  0.00     0.198 A 
ATOM     90  F   UNL     1      15.194   0.727   1.835  1.00  0.00    -0.203 F 
ATOM     91  F   UNL     1      12.310  -0.756   6.182  1.00  0.00    -0.200 F 
ATOM     92  C   UNL     1      14.164  -1.056   4.768  1.00  0.00     0.200 A 
ATOM     93  F   UNL     1      15.975  -1.339   3.289  1.00  0.00    -0.200 F 
ATOM     94  F   UNL     1      14.605  -2.069   5.527  1.00  0.00    -0.200 F 
ENDBRANCH  61  84
ENDBRANCH  35  36
ENDBRANCH  28  30
ENDBRANCH  27  28
ENDBRANCH  26  27
ENDBRANCH   1  26
TORSDOF 15
