REMARK SMILES Cc1ccc(OCCn2ccnc2)c(/C=C/C(=O)OCCOC(=O)c2ccc(-c3c4nc(c(-c5c(F)c(F)c(F)c(F)c5F)c5ccc([nH]5)c(-c5c(F)c(F)c(F)c(F)c5F)c5nc(c(-c6c(F)c(F)c(F)c(F)c6F)c6ccc3[nH]6)C=C5)C=C4)cc2)n1
REMARK SMILES IDX 19 1 17 2 18 3 16 4 15 5 14 6 1 7 2 8 3 9 88 10 4 11 5 12
REMARK SMILES IDX 6 13 7 14 8 15 9 16 10 17 13 18 11 19 12 20 20 21 21 22
REMARK SMILES IDX 22 23 23 24 24 25 25 26 26 27 87 28 27 29 86 30 28 31 29 32
REMARK SMILES IDX 30 33 80 34 31 35 85 36 79 37 81 38 32 39 84 40 78 41 77 42
REMARK SMILES IDX 33 44 65 45 45 46 64 47 46 48 49 49 63 50 82 51 47 52 48 53
REMARK SMILES IDX 62 55 83 56 50 57 34 58 35 59 43 60 36 61 37 62 41 63 44 64
REMARK SMILES IDX 38 65 39 66 42 67 40 68 66 69 67 70 75 71 68 72 69 73 73 74
REMARK SMILES IDX 76 75 70 76 71 77 74 78 72 79 51 80 52 81 60 82 53 83 54 84
REMARK SMILES IDX 58 85 61 86 55 87 56 88 59 89 57 90
REMARK H PARENT 81 43 49 54
REMARK Flexibility Score: inf
ROOT
ATOM      1  O   UNL     1      -2.906   4.944  -0.439  1.00  0.00    -0.459 OA
ENDROOT
BRANCH   1   2
ATOM      2  C   UNL     1      -1.627   4.877  -0.882  1.00  0.00     0.330 C 
ATOM      3  O   UNL     1      -0.973   5.809  -1.335  1.00  0.00    -0.247 OA
BRANCH   2   4
ATOM      4  C   UNL     1      -1.038   3.542  -0.673  1.00  0.00     0.096 C 
ATOM      5  C   UNL     1      -1.718   2.457  -0.265  1.00  0.00     0.040 C 
BRANCH   5   6
ATOM      6  C   UNL     1      -1.064   1.183   0.084  1.00  0.00     0.105 A 
ATOM      7  C   UNL     1       2.446   0.072   0.245  1.00  0.00     0.067 C 
ATOM      8  C   UNL     1       0.956   0.067   0.399  1.00  0.00     0.038 A 
ATOM      9  C   UNL     1       0.305  -1.036   0.929  1.00  0.00     0.027 A 
ATOM     10  N   UNL     1       0.295   1.184   0.021  1.00  0.00    -0.250 NA
ATOM     11  C   UNL     1      -1.087  -1.035   0.976  1.00  0.00     0.050 A 
ATOM     12  C   UNL     1      -1.799   0.056   0.480  1.00  0.00     0.145 A 
BRANCH  12  13
ATOM     13  O   UNL     1      -3.162   0.076   0.340  1.00  0.00    -0.489 OA
BRANCH  13  14
ATOM     14  C   UNL     1      -3.819  -1.166   0.046  1.00  0.00     0.251 C 
BRANCH  14  15
ATOM     15  C   UNL     1      -3.671  -1.625  -1.412  1.00  0.00     0.164 C 
BRANCH  15  16
ATOM     16  N   UNL     1      -2.392  -2.231  -1.723  1.00  0.00    -0.334 N 
ATOM     17  C   UNL     1      -1.345  -1.629  -2.363  1.00  0.00     0.107 A 
ATOM     18  C   UNL     1      -2.014  -3.511  -1.430  1.00  0.00     0.199 A 
ATOM     19  C   UNL     1      -0.334  -2.562  -2.343  1.00  0.00     0.130 A 
ATOM     20  N   UNL     1      -0.763  -3.730  -1.767  1.00  0.00    -0.245 NA
ENDBRANCH  15  16
ENDBRANCH  14  15
ENDBRANCH  13  14
ENDBRANCH  12  13
ENDBRANCH   5   6
ENDBRANCH   2   4
ENDBRANCH   1   2
BRANCH   1  21
ATOM     21  C   UNL     1      -3.457   6.266  -0.324  1.00  0.00     0.275 C 
BRANCH  21  22
ATOM     22  C   UNL     1      -3.264   6.818   1.082  1.00  0.00     0.275 C 
BRANCH  22  23
ATOM     23  O   UNL     1      -1.904   7.159   1.359  1.00  0.00    -0.458 OA
BRANCH  23  24
ATOM     24  C   UNL     1      -1.216   6.213   2.040  1.00  0.00     0.338 C 
ATOM     25  O   UNL     1      -1.439   5.017   2.076  1.00  0.00    -0.246 OA
BRANCH  24  26
ATOM     26  C   UNL     1      -0.277   6.870   2.961  1.00  0.00     0.060 A 
ATOM     27  C   UNL     1       0.702   6.085   3.579  1.00  0.00     0.016 A 
ATOM     28  C   UNL     1      -0.505   8.196   3.358  1.00  0.00     0.016 A 
ATOM     29  C   UNL     1       1.417   6.613   4.641  1.00  0.00     0.010 A 
ATOM     30  C   UNL     1       0.195   8.715   4.427  1.00  0.00     0.010 A 
ATOM     31  C   UNL     1       1.135   7.913   5.077  1.00  0.00    -0.014 A 
BRANCH  31  32
ATOM     32  C   UNL     1       1.990   8.507   6.095  1.00  0.00     0.031 A 
ATOM     33  C   UNL     1       3.351   8.841   5.595  1.00  0.00     0.074 A 
ATOM     34  C   UNL     1       1.519   8.901   7.296  1.00  0.00     0.049 A 
ATOM     35  N   UNL     1       4.490   8.536   6.121  1.00  0.00    -0.248 NA
ATOM     36  C   UNL     1       3.465   9.524   4.291  1.00  0.00     0.031 C 
ATOM     37  C   UNL     1       0.116   8.880   7.720  1.00  0.00     0.029 A 
ATOM     38  N   UNL     1       2.150   9.527   8.337  1.00  0.00    -0.354 N 
ATOM     39  C   UNL     1       5.453   9.150   5.321  1.00  0.00     0.074 A 
ATOM     40  C   UNL     1       4.785   9.607   4.137  1.00  0.00     0.031 C 
ATOM     41  C   UNL     1      -0.030   9.664   8.809  1.00  0.00     0.029 A 
ATOM     42  C   UNL     1       1.276  10.152   9.220  1.00  0.00     0.049 A 
ATOM     43  H   UNL     1       3.128   9.535   8.449  1.00  0.00     0.167 HD
ATOM     44  C   UNL     1       6.657   9.496   5.845  1.00  0.00     0.037 A 
ATOM     45  C   UNL     1       1.583  11.064  10.176  1.00  0.00     0.037 A 
ATOM     46  C   UNL     1       6.928   8.750   7.043  1.00  0.00     0.049 A 
ATOM     47  C   UNL     1       3.030  10.959  10.473  1.00  0.00     0.074 A 
ATOM     48  C   UNL     1       7.327   7.472   7.361  1.00  0.00     0.029 A 
ATOM     49  N   UNL     1       6.420   9.317   8.177  1.00  0.00    -0.354 N 
ATOM     50  N   UNL     1       3.580   9.949  11.084  1.00  0.00    -0.248 NA
ATOM     51  C   UNL     1       3.961  11.884   9.831  1.00  0.00     0.031 C 
ATOM     52  C   UNL     1       6.917   7.249   8.709  1.00  0.00     0.029 A 
ATOM     53  C   UNL     1       6.295   8.402   9.184  1.00  0.00     0.049 A 
ATOM     54  H   UNL     1       6.174  10.267   8.259  1.00  0.00     0.167 HD
ATOM     55  C   UNL     1       4.845   9.876  10.541  1.00  0.00     0.074 A 
ATOM     56  C   UNL     1       5.089  11.180   9.945  1.00  0.00     0.031 C 
ATOM     57  C   UNL     1       5.430   8.667  10.310  1.00  0.00     0.037 A 
BRANCH  44  58
ATOM     58  C   UNL     1       7.321  10.844   5.616  1.00  0.00     0.064 A 
ATOM     59  C   UNL     1       8.569  11.090   6.229  1.00  0.00     0.173 A 
ATOM     60  C   UNL     1       6.646  11.991   5.142  1.00  0.00     0.173 A 
ATOM     61  F   UNL     1       9.297  10.079   6.726  1.00  0.00    -0.203 F 
ATOM     62  C   UNL     1       9.049  12.386   6.437  1.00  0.00     0.198 A 
ATOM     63  C   UNL     1       7.153  13.279   5.309  1.00  0.00     0.198 A 
ATOM     64  F   UNL     1       5.422  11.934   4.606  1.00  0.00    -0.203 F 
ATOM     65  F   UNL     1      10.172  12.574   7.144  1.00  0.00    -0.200 F 
ATOM     66  C   UNL     1       8.336  13.480   5.986  1.00  0.00     0.200 A 
ATOM     67  F   UNL     1       6.435  14.329   4.883  1.00  0.00    -0.200 F 
ATOM     68  F   UNL     1       8.758  14.725   6.245  1.00  0.00    -0.200 F 
ENDBRANCH  44  58
BRANCH  45  69
ATOM     69  C   UNL     1       0.753  12.161  10.736  1.00  0.00     0.064 A 
ATOM     70  C   UNL     1       1.121  12.807  11.930  1.00  0.00     0.173 A 
ATOM     71  C   UNL     1      -0.269  12.777   9.988  1.00  0.00     0.173 A 
ATOM     72  F   UNL     1       2.111  12.314  12.689  1.00  0.00    -0.203 F 
ATOM     73  C   UNL     1       0.531  14.011  12.329  1.00  0.00     0.198 A 
ATOM     74  C   UNL     1      -0.870  13.968  10.397  1.00  0.00     0.198 A 
ATOM     75  F   UNL     1      -0.644  12.289   8.797  1.00  0.00    -0.203 F 
ATOM     76  F   UNL     1       0.964  14.632  13.435  1.00  0.00    -0.200 F 
ATOM     77  C   UNL     1      -0.458  14.595  11.557  1.00  0.00     0.200 A 
ATOM     78  F   UNL     1      -1.807  14.538   9.625  1.00  0.00    -0.200 F 
ATOM     79  F   UNL     1      -0.981  15.778  11.907  1.00  0.00    -0.200 F 
ENDBRANCH  45  69
BRANCH  57  80
ATOM     80  C   UNL     1       5.011   7.519  11.168  1.00  0.00     0.064 A 
ATOM     81  C   UNL     1       3.724   6.962  11.185  1.00  0.00     0.173 A 
ATOM     82  C   UNL     1       5.996   6.914  11.963  1.00  0.00     0.173 A 
ATOM     83  F   UNL     1       2.753   7.437  10.393  1.00  0.00    -0.203 F 
ATOM     84  C   UNL     1       3.430   5.870  12.000  1.00  0.00     0.198 A 
ATOM     85  C   UNL     1       5.710   5.800  12.741  1.00  0.00     0.198 A 
ATOM     86  F   UNL     1       7.252   7.388  11.955  1.00  0.00    -0.203 F 
ATOM     87  F   UNL     1       2.188   5.366  12.025  1.00  0.00    -0.200 F 
ATOM     88  C   UNL     1       4.425   5.285  12.769  1.00  0.00     0.200 A 
ATOM     89  F   UNL     1       6.686   5.214  13.448  1.00  0.00    -0.200 F 
ATOM     90  F   UNL     1       4.150   4.213  13.524  1.00  0.00    -0.200 F 
ENDBRANCH  57  80
ENDBRANCH  31  32
ENDBRANCH  24  26
ENDBRANCH  23  24
ENDBRANCH  22  23
ENDBRANCH  21  22
ENDBRANCH   1  21
TORSDOF 16
