REMARK SMILES CCc1ccc2c(c1)C=C(C(=O)OCCOC(=O)c1ccc(-c3c4nc(c(-c5c(F)c(F)c(F)c(F)c5F)c5ccc([nH]5)c(-c5c(F)c(F)c(F)c(F)c5F)c5nc(c(-c6c(F)c(F)c(F)c(F)c6F)c6ccc3[nH]6)C=C5)C=C4)cc1)[C@H](C(F)(F)F)O2
REMARK SMILES IDX 15 1 14 2 13 3 11 4 12 5 10 6 3 7 4 8 8 9 5 10 7 11 6 12
REMARK SMILES IDX 9 13 87 14 82 15 2 16 1 17 83 18 84 19 85 20 86 21 16 22
REMARK SMILES IDX 17 23 18 24 19 25 20 26 81 27 21 28 80 29 22 30 23 31 24 32
REMARK SMILES IDX 74 33 25 34 79 35 73 36 75 37 26 38 78 39 72 40 71 41 27 43
REMARK SMILES IDX 59 44 39 45 58 46 40 47 43 48 57 49 76 50 41 51 42 52 56 54
REMARK SMILES IDX 77 55 44 56 28 57 29 58 37 59 30 60 31 61 35 62 38 63 32 64
REMARK SMILES IDX 33 65 36 66 34 67 60 68 61 69 69 70 62 71 63 72 67 73 70 74
REMARK SMILES IDX 64 75 65 76 68 77 66 78 45 79 46 80 54 81 47 82 48 83 52 84
REMARK SMILES IDX 55 85 49 86 50 87 53 88 51 89
REMARK H PARENT 75 42 43 53
REMARK Flexibility Score: inf
ROOT
ATOM      1  C   UNL     1       5.615   0.126   9.480  1.00  0.00     0.275 C 
ENDROOT
BRANCH   1   2
ATOM      2  C   UNL     1       4.142  -0.274   9.369  1.00  0.00     0.275 C 
BRANCH   2   3
ATOM      3  O   UNL     1       3.566   0.132   8.108  1.00  0.00    -0.459 OA
BRANCH   3   4
ATOM      4  C   UNL     1       2.683   1.165   8.166  1.00  0.00     0.338 C 
ATOM      5  O   UNL     1       2.375   1.766   9.174  1.00  0.00    -0.246 OA
BRANCH   4   6
ATOM      6  C   UNL     1       2.152   1.516   6.824  1.00  0.00     0.087 C 
ATOM      7  C   UNL     1       0.812   0.423   2.288  1.00  0.00    -0.047 A 
ATOM      8  C   UNL     1       0.316   1.726   2.146  1.00  0.00     0.007 A 
ATOM      9  C   UNL     1       1.393   0.047   3.514  1.00  0.00     0.015 A 
ATOM     10  C   UNL     1       0.375   2.625   3.209  1.00  0.00     0.047 A 
ATOM     11  C   UNL     1       1.460   0.950   4.585  1.00  0.00     0.018 A 
ATOM     12  C   UNL     1       0.934   2.231   4.422  1.00  0.00     0.128 A 
ATOM     13  C   UNL     1       1.998   0.563   5.888  1.00  0.00     0.027 C 
ATOM     14  O   UNL     1       0.849   3.129   5.446  1.00  0.00    -0.475 OA
ATOM     15  C   UNL     1       1.797   2.967   6.536  1.00  0.00     0.316 C 
BRANCH   7  16
ATOM     16  C   UNL     1       0.625  -0.594   1.185  1.00  0.00     0.032 C 
ATOM     17  C   UNL     1       1.156  -0.160  -0.175  1.00  0.00     0.009 C 
ENDBRANCH   7  16
BRANCH  15  18
ATOM     18  C   UNL     1       1.294   3.852   7.696  1.00  0.00     0.430 C 
ATOM     19  F   UNL     1       2.284   4.170   8.561  1.00  0.00    -0.167 F 
ATOM     20  F   UNL     1       0.844   5.045   7.218  1.00  0.00    -0.167 F 
ATOM     21  F   UNL     1       0.273   3.294   8.378  1.00  0.00    -0.167 F 
ENDBRANCH  15  18
ENDBRANCH   4   6
ENDBRANCH   3   4
ENDBRANCH   2   3
ENDBRANCH   1   2
BRANCH   1  22
ATOM     22  O   UNL     1       5.774   1.556   9.432  1.00  0.00    -0.458 OA
BRANCH  22  23
ATOM     23  C   UNL     1       6.073   2.054   8.209  1.00  0.00     0.338 C 
ATOM     24  O   UNL     1       6.289   1.419   7.189  1.00  0.00    -0.246 OA
BRANCH  23  25
ATOM     25  C   UNL     1       5.915   3.522   8.212  1.00  0.00     0.060 A 
ATOM     26  C   UNL     1       5.232   4.083   7.129  1.00  0.00     0.016 A 
ATOM     27  C   UNL     1       6.417   4.340   9.227  1.00  0.00     0.016 A 
ATOM     28  C   UNL     1       4.988   5.454   7.084  1.00  0.00     0.010 A 
ATOM     29  C   UNL     1       6.218   5.725   9.156  1.00  0.00     0.010 A 
ATOM     30  C   UNL     1       5.494   6.286   8.090  1.00  0.00    -0.014 A 
BRANCH  30  31
ATOM     31  C   UNL     1       5.346   7.753   7.953  1.00  0.00     0.031 A 
ATOM     32  C   UNL     1       6.341   8.514   7.127  1.00  0.00     0.074 A 
ATOM     33  C   UNL     1       4.309   8.394   8.520  1.00  0.00     0.049 A 
ATOM     34  N   UNL     1       6.400   9.795   6.869  1.00  0.00    -0.248 NA
ATOM     35  C   UNL     1       7.406   7.720   6.495  1.00  0.00     0.031 C 
ATOM     36  C   UNL     1       3.238   7.758   9.283  1.00  0.00     0.029 A 
ATOM     37  N   UNL     1       3.991   9.730   8.538  1.00  0.00    -0.354 N 
ATOM     38  C   UNL     1       7.494   9.960   6.031  1.00  0.00     0.074 A 
ATOM     39  C   UNL     1       8.084   8.652   5.841  1.00  0.00     0.031 C 
ATOM     40  C   UNL     1       2.389   8.708   9.714  1.00  0.00     0.029 A 
ATOM     41  C   UNL     1       2.873  10.018   9.279  1.00  0.00     0.049 A 
ATOM     42  H   UNL     1       4.516  10.415   8.065  1.00  0.00     0.167 HD
ATOM     43  C   UNL     1       7.963  11.099   5.471  1.00  0.00     0.037 A 
ATOM     44  C   UNL     1       2.320  11.207   9.589  1.00  0.00     0.037 A 
ATOM     45  C   UNL     1       7.403  12.406   5.692  1.00  0.00     0.049 A 
ATOM     46  C   UNL     1       2.938  12.475   9.053  1.00  0.00     0.074 A 
ATOM     47  C   UNL     1       7.825  13.623   5.184  1.00  0.00     0.029 A 
ATOM     48  N   UNL     1       6.309  12.668   6.503  1.00  0.00    -0.354 N 
ATOM     49  N   UNL     1       3.961  12.623   8.247  1.00  0.00    -0.248 NA
ATOM     50  C   UNL     1       2.323  13.743   9.475  1.00  0.00     0.031 C 
ATOM     51  C   UNL     1       7.019  14.627   5.731  1.00  0.00     0.029 A 
ATOM     52  C   UNL     1       6.061  14.031   6.536  1.00  0.00     0.049 A 
ATOM     53  H   UNL     1       5.787  11.987   6.985  1.00  0.00     0.167 HD
ATOM     54  C   UNL     1       4.091  13.991   8.039  1.00  0.00     0.074 A 
ATOM     55  C   UNL     1       3.037  14.631   8.797  1.00  0.00     0.031 C 
ATOM     56  C   UNL     1       5.001  14.656   7.285  1.00  0.00     0.037 A 
BRANCH  43  57
ATOM     57  C   UNL     1       9.175  10.982   4.598  1.00  0.00     0.064 A 
ATOM     58  C   UNL     1       9.105  10.417   3.316  1.00  0.00     0.173 A 
ATOM     59  C   UNL     1      10.418  11.458   5.042  1.00  0.00     0.173 A 
ATOM     60  F   UNL     1       7.943   9.932   2.854  1.00  0.00    -0.203 F 
ATOM     61  C   UNL     1      10.242  10.312   2.519  1.00  0.00     0.198 A 
ATOM     62  C   UNL     1      11.547  11.374   4.232  1.00  0.00     0.198 A 
ATOM     63  F   UNL     1      10.536  12.007   6.260  1.00  0.00    -0.203 F 
ATOM     64  F   UNL     1      10.162   9.729   1.315  1.00  0.00    -0.200 F 
ATOM     65  C   UNL     1      11.460  10.795   2.975  1.00  0.00     0.200 A 
ATOM     66  F   UNL     1      12.721  11.848   4.671  1.00  0.00    -0.200 F 
ATOM     67  F   UNL     1      12.552  10.694   2.206  1.00  0.00    -0.200 F 
ENDBRANCH  43  57
BRANCH  44  68
ATOM     68  C   UNL     1       1.129  11.269  10.476  1.00  0.00     0.064 A 
ATOM     69  C   UNL     1      -0.114  11.705   9.995  1.00  0.00     0.173 A 
ATOM     70  C   UNL     1       1.222  10.940  11.836  1.00  0.00     0.173 A 
ATOM     71  F   UNL     1      -0.245  12.065   8.710  1.00  0.00    -0.203 F 
ATOM     72  C   UNL     1      -1.212  11.829  10.845  1.00  0.00     0.198 A 
ATOM     73  C   UNL     1       0.117  11.037  12.679  1.00  0.00     0.198 A 
ATOM     74  F   UNL     1       2.391  10.530  12.350  1.00  0.00    -0.203 F 
ATOM     75  F   UNL     1      -2.372  12.303  10.372  1.00  0.00    -0.200 F 
ATOM     76  C   UNL     1      -1.097  11.491  12.185  1.00  0.00     0.200 A 
ATOM     77  F   UNL     1       0.232  10.707  13.973  1.00  0.00    -0.200 F 
ATOM     78  F   UNL     1      -2.150  11.618  13.003  1.00  0.00    -0.200 F 
ENDBRANCH  44  68
BRANCH  56  79
ATOM     79  C   UNL     1       4.879  16.151   7.207  1.00  0.00     0.064 A 
ATOM     80  C   UNL     1       5.208  16.977   8.291  1.00  0.00     0.173 A 
ATOM     81  C   UNL     1       4.476  16.767   6.011  1.00  0.00     0.173 A 
ATOM     82  F   UNL     1       5.586  16.438   9.460  1.00  0.00    -0.203 F 
ATOM     83  C   UNL     1       5.119  18.363   8.189  1.00  0.00     0.198 A 
ATOM     84  C   UNL     1       4.416  18.154   5.903  1.00  0.00     0.198 A 
ATOM     85  F   UNL     1       4.157  16.024   4.942  1.00  0.00    -0.203 F 
ATOM     86  F   UNL     1       5.398  19.132   9.251  1.00  0.00    -0.200 F 
ATOM     87  C   UNL     1       4.731  18.951   6.993  1.00  0.00     0.200 A 
ATOM     88  F   UNL     1       4.055  18.719   4.743  1.00  0.00    -0.200 F 
ATOM     89  F   UNL     1       4.656  20.285   6.893  1.00  0.00    -0.200 F 
ENDBRANCH  56  79
ENDBRANCH  30  31
ENDBRANCH  23  25
ENDBRANCH  22  23
ENDBRANCH   1  22
TORSDOF 13
