REMARK SMILES Cc1ccc(Nc2c(Cl)cc(Cl)cc2Cl)c(CC(=O)OCCOC(=O)c2ccc(-c3c4nc(c(-c5c(F)c(F)c(F)c(F)c5F)c5ccc([nH]5)c(-c5c(F)c(F)c(F)c(F)c5F)c5nc(c(-c6c(F)c(F)c(F)c(F)c6F)c6ccc3[nH]6)C=C5)C=C4)cc2)c1
REMARK SMILES IDX 21 1 20 2 18 3 19 4 17 5 16 6 1 7 2 8 3 9 89 10 4 11 5 12
REMARK SMILES IDX 6 13 7 15 8 16 14 17 9 18 10 19 13 20 15 21 11 22 12 23
REMARK SMILES IDX 22 24 23 25 24 26 25 27 26 28 27 29 88 30 28 31 87 32 29 33
REMARK SMILES IDX 30 34 31 35 81 36 32 37 86 38 80 39 82 40 33 41 85 42 79 43
REMARK SMILES IDX 78 44 34 46 66 47 46 48 65 49 47 50 50 51 64 52 83 53 48 54
REMARK SMILES IDX 49 55 63 57 84 58 51 59 35 60 36 61 44 62 37 63 38 64 42 65
REMARK SMILES IDX 45 66 39 67 40 68 43 69 41 70 67 71 68 72 76 73 69 74 70 75
REMARK SMILES IDX 74 76 77 77 71 78 72 79 75 80 73 81 52 82 53 83 61 84 54 85
REMARK SMILES IDX 55 86 59 87 62 88 56 89 57 90 60 91 58 92
REMARK H PARENT 6 14 82 45 50 56
REMARK Flexibility Score: inf
ROOT
ATOM      1  C   UNL     1      -2.209   0.848  -3.656  1.00  0.00     0.274 C 
ENDROOT
BRANCH   1   2
ATOM      2  O   UNL     1      -1.954   0.783  -2.261  1.00  0.00    -0.462 OA
BRANCH   2   3
ATOM      3  C   UNL     1      -1.089   1.693  -1.731  1.00  0.00     0.310 C 
ATOM      4  O   UNL     1      -0.464   2.520  -2.350  1.00  0.00    -0.252 OA
BRANCH   3   5
ATOM      5  C   UNL     1      -1.038   1.492  -0.228  1.00  0.00     0.160 C 
BRANCH   5   6
ATOM      6  C   UNL     1      -0.384   0.169   0.063  1.00  0.00    -0.013 A 
ATOM      7  C   UNL     1       3.254  -0.930   0.156  1.00  0.00     0.044 C 
ATOM      8  C   UNL     1       1.758  -0.980   0.173  1.00  0.00    -0.051 A 
ATOM      9  C   UNL     1       1.078  -2.197   0.144  1.00  0.00     0.005 A 
ATOM     10  C   UNL     1       1.020   0.197   0.152  1.00  0.00     0.009 A 
ATOM     11  C   UNL     1      -0.320  -2.234   0.096  1.00  0.00     0.026 A 
ATOM     12  C   UNL     1      -1.081  -1.062   0.047  1.00  0.00     0.042 A 
BRANCH  12  13
ATOM     13  N   UNL     1      -2.480  -1.133  -0.097  1.00  0.00    -0.353 N 
ATOM     14  H   UNL     1      -2.911  -0.303  -0.404  1.00  0.00     0.167 HD
BRANCH  13  15
ATOM     15  C   UNL     1      -3.362  -2.220   0.133  1.00  0.00     0.076 A 
ATOM     16  C   UNL     1      -3.726  -2.602   1.438  1.00  0.00     0.067 A 
ATOM     17  C   UNL     1      -4.079  -2.808  -0.929  1.00  0.00     0.067 A 
ATOM     18  Cl  UNL     1      -2.932  -1.944   2.828  1.00  0.00    -0.082 Cl
ATOM     19  C   UNL     1      -4.745  -3.533   1.664  1.00  0.00     0.043 A 
ATOM     20  C   UNL     1      -5.149  -3.678  -0.707  1.00  0.00     0.043 A 
ATOM     21  Cl  UNL     1      -3.576  -2.623  -2.567  1.00  0.00    -0.082 Cl
ATOM     22  C   UNL     1      -5.469  -4.043   0.592  1.00  0.00     0.044 A 
ATOM     23  Cl  UNL     1      -6.746  -5.160   0.870  1.00  0.00    -0.084 Cl
ENDBRANCH  13  15
ENDBRANCH  12  13
ENDBRANCH   5   6
ENDBRANCH   3   5
ENDBRANCH   2   3
ENDBRANCH   1   2
BRANCH   1  24
ATOM     24  C   UNL     1      -3.647   0.383  -3.938  1.00  0.00     0.275 C 
BRANCH  24  25
ATOM     25  O   UNL     1      -4.585   0.272  -2.800  1.00  0.00    -0.458 OA
BRANCH  25  26
ATOM     26  C   UNL     1      -4.734   1.065  -1.700  1.00  0.00     0.338 C 
ATOM     27  O   UNL     1      -5.068   0.624  -0.609  1.00  0.00    -0.246 OA
BRANCH  26  28
ATOM     28  C   UNL     1      -4.381   2.485  -1.851  1.00  0.00     0.060 A 
ATOM     29  C   UNL     1      -3.878   3.252  -0.784  1.00  0.00     0.016 A 
ATOM     30  C   UNL     1      -4.377   2.980  -3.135  1.00  0.00     0.016 A 
ATOM     31  C   UNL     1      -3.230   4.455  -1.062  1.00  0.00     0.010 A 
ATOM     32  C   UNL     1      -3.475   3.954  -3.430  1.00  0.00     0.010 A 
ATOM     33  C   UNL     1      -2.999   4.770  -2.401  1.00  0.00    -0.014 A 
BRANCH  33  34
ATOM     34  C   UNL     1      -2.605   6.073  -2.906  1.00  0.00     0.031 A 
ATOM     35  C   UNL     1      -1.245   6.599  -2.785  1.00  0.00     0.074 A 
ATOM     36  C   UNL     1      -3.603   6.681  -3.592  1.00  0.00     0.049 A 
ATOM     37  N   UNL     1      -0.986   7.833  -2.521  1.00  0.00    -0.248 NA
ATOM     38  C   UNL     1      -0.047   5.782  -2.959  1.00  0.00     0.031 C 
ATOM     39  C   UNL     1      -3.617   7.861  -4.428  1.00  0.00     0.029 A 
ATOM     40  N   UNL     1      -4.956   6.280  -3.564  1.00  0.00    -0.354 N 
ATOM     41  C   UNL     1       0.339   8.028  -2.845  1.00  0.00     0.074 A 
ATOM     42  C   UNL     1       0.920   6.710  -2.937  1.00  0.00     0.031 C 
ATOM     43  C   UNL     1      -4.897   8.278  -4.541  1.00  0.00     0.029 A 
ATOM     44  C   UNL     1      -5.729   7.426  -3.694  1.00  0.00     0.049 A 
ATOM     45  H   UNL     1      -5.290   5.359  -3.470  1.00  0.00     0.167 HD
ATOM     46  C   UNL     1       0.751   9.258  -3.267  1.00  0.00     0.037 A 
ATOM     47  C   UNL     1      -6.472   7.793  -2.611  1.00  0.00     0.037 A 
ATOM     48  C   UNL     1      -0.399  10.148  -3.401  1.00  0.00     0.049 A 
ATOM     49  C   UNL     1      -5.928   9.064  -2.021  1.00  0.00     0.074 A 
ATOM     50  C   UNL     1      -1.177  10.457  -4.506  1.00  0.00     0.029 A 
ATOM     51  N   UNL     1      -1.149  10.498  -2.283  1.00  0.00    -0.354 N 
ATOM     52  N   UNL     1      -4.687   9.445  -2.144  1.00  0.00    -0.248 NA
ATOM     53  C   UNL     1      -6.749  10.024  -1.296  1.00  0.00     0.031 C 
ATOM     54  C   UNL     1      -2.425  10.942  -4.047  1.00  0.00     0.029 A 
ATOM     55  C   UNL     1      -2.406  10.933  -2.664  1.00  0.00     0.049 A 
ATOM     56  H   UNL     1      -0.831  10.444  -1.353  1.00  0.00     0.167 HD
ATOM     57  C   UNL     1      -4.545  10.694  -1.610  1.00  0.00     0.074 A 
ATOM     58  C   UNL     1      -5.859  11.006  -1.074  1.00  0.00     0.031 C 
ATOM     59  C   UNL     1      -3.371  11.387  -1.678  1.00  0.00     0.037 A 
BRANCH  46  60
ATOM     60  C   UNL     1       2.095   9.513  -3.903  1.00  0.00     0.064 A 
ATOM     61  C   UNL     1       2.240  10.389  -5.001  1.00  0.00     0.173 A 
ATOM     62  C   UNL     1       3.289   8.916  -3.454  1.00  0.00     0.173 A 
ATOM     63  F   UNL     1       1.201  11.069  -5.500  1.00  0.00    -0.203 F 
ATOM     64  C   UNL     1       3.462  10.598  -5.642  1.00  0.00     0.198 A 
ATOM     65  C   UNL     1       4.511   9.105  -4.114  1.00  0.00     0.198 A 
ATOM     66  F   UNL     1       3.300   8.150  -2.353  1.00  0.00    -0.203 F 
ATOM     67  F   UNL     1       3.529  11.435  -6.687  1.00  0.00    -0.200 F 
ATOM     68  C   UNL     1       4.596   9.942  -5.211  1.00  0.00     0.200 A 
ATOM     69  F   UNL     1       5.609   8.470  -3.681  1.00  0.00    -0.200 F 
ATOM     70  F   UNL     1       5.764  10.127  -5.841  1.00  0.00    -0.200 F 
ENDBRANCH  46  60
BRANCH  47  71
ATOM     71  C   UNL     1      -7.035   6.630  -1.840  1.00  0.00     0.064 A 
ATOM     72  C   UNL     1      -7.843   5.698  -2.531  1.00  0.00     0.173 A 
ATOM     73  C   UNL     1      -6.577   6.242  -0.574  1.00  0.00     0.173 A 
ATOM     74  F   UNL     1      -8.313   5.997  -3.754  1.00  0.00    -0.203 F 
ATOM     75  C   UNL     1      -8.094   4.418  -2.033  1.00  0.00     0.198 A 
ATOM     76  C   UNL     1      -6.851   4.963  -0.064  1.00  0.00     0.198 A 
ATOM     77  F   UNL     1      -5.799   7.059   0.149  1.00  0.00    -0.203 F 
ATOM     78  F   UNL     1      -8.770   3.530  -2.776  1.00  0.00    -0.200 F 
ATOM     79  C   UNL     1      -7.583   4.045  -0.804  1.00  0.00     0.200 A 
ATOM     80  F   UNL     1      -6.344   4.592   1.122  1.00  0.00    -0.200 F 
ATOM     81  F   UNL     1      -7.763   2.795  -0.355  1.00  0.00    -0.200 F 
ENDBRANCH  47  71
BRANCH  59  82
ATOM     82  C   UNL     1      -3.057  12.642  -0.914  1.00  0.00     0.064 A 
ATOM     83  C   UNL     1      -3.608  12.937   0.340  1.00  0.00     0.173 A 
ATOM     84  C   UNL     1      -2.038  13.517  -1.365  1.00  0.00     0.173 A 
ATOM     85  F   UNL     1      -4.489  12.116   0.927  1.00  0.00    -0.203 F 
ATOM     86  C   UNL     1      -3.220  14.065   1.061  1.00  0.00     0.198 A 
ATOM     87  C   UNL     1      -1.602  14.598  -0.607  1.00  0.00     0.198 A 
ATOM     88  F   UNL     1      -1.414  13.333  -2.537  1.00  0.00    -0.203 F 
ATOM     89  F   UNL     1      -3.815  14.337   2.230  1.00  0.00    -0.200 F 
ATOM     90  C   UNL     1      -2.208  14.885   0.597  1.00  0.00     0.200 A 
ATOM     91  F   UNL     1      -0.577  15.343  -1.043  1.00  0.00    -0.200 F 
ATOM     92  F   UNL     1      -1.803  15.936   1.319  1.00  0.00    -0.200 F 
ENDBRANCH  59  82
ENDBRANCH  33  34
ENDBRANCH  26  28
ENDBRANCH  25  26
ENDBRANCH  24  25
ENDBRANCH   1  24
TORSDOF 14
