REMARK SMILES O=C(OCCOC(=O)c1ccc(-c2c3nc(c(-c4c(F)c(F)c(F)c(F)c4F)c4ccc([nH]4)c(-c4c(F)c(F)c(F)c(F)c4F)c4nc(c(-c5c(F)c(F)c(F)c(F)c5F)c5ccc2[nH]5)C=C4)C=C3)cc1)C1=Cc2c(ccc(Cl)c2Cl)O[C@H]1C(F)(F)F
REMARK SMILES IDX 5 1 4 2 3 3 2 4 1 5 72 6 73 7 83 8 74 9 82 10 75 11 80 12
REMARK SMILES IDX 76 13 78 14 81 15 77 16 79 17 84 18 85 19 86 20 87 21 6 22
REMARK SMILES IDX 7 23 8 24 9 25 10 26 71 27 11 28 70 29 12 30 13 31 14 32
REMARK SMILES IDX 64 33 15 34 69 35 63 36 65 37 16 38 68 39 62 40 61 41 17 43
REMARK SMILES IDX 49 44 29 45 48 46 30 47 33 48 47 49 66 50 31 51 32 52 46 54
REMARK SMILES IDX 67 55 34 56 18 57 19 58 27 59 20 60 21 61 25 62 28 63 22 64
REMARK SMILES IDX 23 65 26 66 24 67 50 68 51 69 59 70 52 71 53 72 57 73 60 74
REMARK SMILES IDX 54 75 55 76 58 77 56 78 35 79 36 80 44 81 37 82 38 83 42 84
REMARK SMILES IDX 45 85 39 86 40 87 43 88 41 89
REMARK H PARENT 65 42 33 53
REMARK Flexibility Score: inf
ROOT
ATOM      1  C   UNL     1       2.821   2.524   1.410  1.00  0.00     0.275 C 
ENDROOT
BRANCH   1   2
ATOM      2  C   UNL     1       2.648   1.915   0.011  1.00  0.00     0.275 C 
BRANCH   2   3
ATOM      3  O   UNL     1       2.007   0.621   0.001  1.00  0.00    -0.459 OA
BRANCH   3   4
ATOM      4  C   UNL     1       2.553  -0.599   0.176  1.00  0.00     0.338 C 
ATOM      5  O   UNL     1       1.853  -1.595  -0.004  1.00  0.00    -0.246 OA
BRANCH   4   6
ATOM      6  C   UNL     1       3.967  -0.809   0.577  1.00  0.00     0.087 C 
ATOM      7  C   UNL     1       4.863   0.146   0.890  1.00  0.00     0.029 C 
ATOM      8  C   UNL     1       4.478  -2.185   0.169  1.00  0.00     0.316 C 
ATOM      9  C   UNL     1       5.879   0.265  -0.188  1.00  0.00     0.037 A 
ATOM     10  O   UNL     1       5.805  -2.145  -0.440  1.00  0.00    -0.475 OA
ATOM     11  C   UNL     1       6.220  -0.910  -0.873  1.00  0.00     0.129 A 
ATOM     12  C   UNL     1       6.428   1.494  -0.595  1.00  0.00     0.070 A 
ATOM     13  C   UNL     1       7.025  -0.856  -2.003  1.00  0.00     0.049 A 
ATOM     14  C   UNL     1       7.171   1.554  -1.778  1.00  0.00     0.060 A 
ATOM     15  Cl  UNL     1       6.218   2.916   0.374  1.00  0.00    -0.082 Cl
ATOM     16  C   UNL     1       7.457   0.382  -2.484  1.00  0.00     0.026 A 
ATOM     17  Cl  UNL     1       7.727   3.050  -2.446  1.00  0.00    -0.083 Cl
BRANCH   8  18
ATOM     18  C   UNL     1       4.451  -3.143   1.372  1.00  0.00     0.430 C 
ATOM     19  F   UNL     1       3.243  -3.170   1.981  1.00  0.00    -0.167 F 
ATOM     20  F   UNL     1       4.736  -4.413   1.003  1.00  0.00    -0.167 F 
ATOM     21  F   UNL     1       5.358  -2.781   2.313  1.00  0.00    -0.167 F 
ENDBRANCH   8  18
ENDBRANCH   4   6
ENDBRANCH   3   4
ENDBRANCH   2   3
ENDBRANCH   1   2
BRANCH   1  22
ATOM     22  O   UNL     1       2.747   1.535   2.437  1.00  0.00    -0.458 OA
BRANCH  22  23
ATOM     23  C   UNL     1       1.472   1.206   2.745  1.00  0.00     0.338 C 
ATOM     24  O   UNL     1       0.464   1.815   2.419  1.00  0.00    -0.246 OA
BRANCH  23  25
ATOM     25  C   UNL     1       1.456  -0.109   3.404  1.00  0.00     0.060 A 
ATOM     26  C   UNL     1       0.320  -0.895   3.200  1.00  0.00     0.016 A 
ATOM     27  C   UNL     1       2.493  -0.547   4.239  1.00  0.00     0.016 A 
ATOM     28  C   UNL     1       0.140  -2.040   3.956  1.00  0.00     0.010 A 
ATOM     29  C   UNL     1       2.327  -1.720   4.974  1.00  0.00     0.010 A 
ATOM     30  C   UNL     1       1.105  -2.406   4.905  1.00  0.00    -0.014 A 
BRANCH  30  31
ATOM     31  C   UNL     1       0.668  -3.312   5.990  1.00  0.00     0.031 A 
ATOM     32  C   UNL     1       0.284  -2.697   7.311  1.00  0.00     0.074 A 
ATOM     33  C   UNL     1       0.455  -4.613   5.737  1.00  0.00     0.049 A 
ATOM     34  N   UNL     1      -0.330  -3.234   8.333  1.00  0.00    -0.248 NA
ATOM     35  C   UNL     1       0.632  -1.278   7.507  1.00  0.00     0.031 C 
ATOM     36  C   UNL     1       0.765  -5.287   4.477  1.00  0.00     0.029 A 
ATOM     37  N   UNL     1      -0.115  -5.586   6.514  1.00  0.00    -0.354 N 
ATOM     38  C   UNL     1      -0.448  -2.219   9.276  1.00  0.00     0.074 A 
ATOM     39  C   UNL     1       0.214  -1.055   8.740  1.00  0.00     0.031 C 
ATOM     40  C   UNL     1       0.347  -6.562   4.554  1.00  0.00     0.029 A 
ATOM     41  C   UNL     1      -0.243  -6.791   5.870  1.00  0.00     0.049 A 
ATOM     42  H   UNL     1      -0.405  -5.436   7.443  1.00  0.00     0.167 HD
ATOM     43  C   UNL     1      -1.079  -2.248  10.473  1.00  0.00     0.037 A 
ATOM     44  C   UNL     1      -0.794  -7.941   6.303  1.00  0.00     0.037 A 
ATOM     45  C   UNL     1      -1.734  -3.416  10.993  1.00  0.00     0.049 A 
ATOM     46  C   UNL     1      -1.439  -7.963   7.665  1.00  0.00     0.074 A 
ATOM     47  C   UNL     1      -2.406  -3.572  12.190  1.00  0.00     0.029 A 
ATOM     48  N   UNL     1      -1.785  -4.639  10.338  1.00  0.00    -0.354 N 
ATOM     49  N   UNL     1      -1.588  -6.988   8.532  1.00  0.00    -0.248 NA
ATOM     50  C   UNL     1      -2.012  -9.242   8.100  1.00  0.00     0.031 C 
ATOM     51  C   UNL     1      -2.805  -4.909  12.290  1.00  0.00     0.029 A 
ATOM     52  C   UNL     1      -2.453  -5.565  11.120  1.00  0.00     0.049 A 
ATOM     53  H   UNL     1      -1.403  -4.821   9.449  1.00  0.00     0.167 HD
ATOM     54  C   UNL     1      -2.309  -7.524   9.592  1.00  0.00     0.074 A 
ATOM     55  C   UNL     1      -2.577  -8.906   9.250  1.00  0.00     0.031 C 
ATOM     56  C   UNL     1      -2.717  -6.931  10.743  1.00  0.00     0.037 A 
BRANCH  43  57
ATOM     57  C   UNL     1      -1.051  -0.993  11.301  1.00  0.00     0.064 A 
ATOM     58  C   UNL     1      -1.731   0.173  10.912  1.00  0.00     0.173 A 
ATOM     59  C   UNL     1      -0.317  -0.952  12.496  1.00  0.00     0.173 A 
ATOM     60  F   UNL     1      -2.431   0.197   9.767  1.00  0.00    -0.203 F 
ATOM     61  C   UNL     1      -1.643   1.341  11.665  1.00  0.00     0.198 A 
ATOM     62  C   UNL     1      -0.261   0.208  13.265  1.00  0.00     0.198 A 
ATOM     63  F   UNL     1       0.353  -2.035  12.916  1.00  0.00    -0.203 F 
ATOM     64  F   UNL     1      -2.243   2.461  11.237  1.00  0.00    -0.200 F 
ATOM     65  C   UNL     1      -0.913   1.356  12.844  1.00  0.00     0.200 A 
ATOM     66  F   UNL     1       0.436   0.217  14.410  1.00  0.00    -0.200 F 
ATOM     67  F   UNL     1      -0.827   2.481  13.567  1.00  0.00    -0.200 F 
ENDBRANCH  43  57
BRANCH  44  68
ATOM     68  C   UNL     1      -0.783  -9.149   5.436  1.00  0.00     0.064 A 
ATOM     69  C   UNL     1      -1.971  -9.706   4.942  1.00  0.00     0.173 A 
ATOM     70  C   UNL     1       0.420  -9.792   5.107  1.00  0.00     0.173 A 
ATOM     71  F   UNL     1      -3.151  -9.141   5.240  1.00  0.00    -0.203 F 
ATOM     72  C   UNL     1      -1.959 -10.877   4.185  1.00  0.00     0.198 A 
ATOM     73  C   UNL     1       0.434 -10.943   4.322  1.00  0.00     0.198 A 
ATOM     74  F   UNL     1       1.587  -9.300   5.549  1.00  0.00    -0.203 F 
ATOM     75  F   UNL     1      -3.114 -11.422   3.780  1.00  0.00    -0.200 F 
ATOM     76  C   UNL     1      -0.756 -11.492   3.873  1.00  0.00     0.200 A 
ATOM     77  F   UNL     1       1.600 -11.525   4.011  1.00  0.00    -0.200 F 
ATOM     78  F   UNL     1      -0.746 -12.620   3.150  1.00  0.00    -0.200 F 
ENDBRANCH  44  68
BRANCH  56  79
ATOM     79  C   UNL     1      -3.549  -7.757  11.683  1.00  0.00     0.064 A 
ATOM     80  C   UNL     1      -3.016  -8.847  12.387  1.00  0.00     0.173 A 
ATOM     81  C   UNL     1      -4.895  -7.427  11.905  1.00  0.00     0.173 A 
ATOM     82  F   UNL     1      -1.737  -9.209  12.206  1.00  0.00    -0.203 F 
ATOM     83  C   UNL     1      -3.812  -9.603  13.243  1.00  0.00     0.198 A 
ATOM     84  C   UNL     1      -5.676  -8.158  12.794  1.00  0.00     0.198 A 
ATOM     85  F   UNL     1      -5.451  -6.385  11.269  1.00  0.00    -0.203 F 
ATOM     86  F   UNL     1      -3.300 -10.681  13.852  1.00  0.00    -0.200 F 
ATOM     87  C   UNL     1      -5.138  -9.253  13.452  1.00  0.00     0.200 A 
ATOM     88  F   UNL     1      -6.950  -7.804  13.012  1.00  0.00    -0.200 F 
ATOM     89  F   UNL     1      -5.901  -9.979  14.281  1.00  0.00    -0.200 F 
ENDBRANCH  56  79
ENDBRANCH  30  31
ENDBRANCH  23  25
ENDBRANCH  22  23
ENDBRANCH   1  22
TORSDOF 12
