REMARK SMILES CC(C)[C@H](C(=O)OCCOC(=O)c1ccc(-c2c3nc(c(-c4c(F)c(F)c(F)c(F)c4F)c4ccc([nH]4)c(-c4c(F)c(F)c(F)c(F)c4F)c4nc(c(-c5c(F)c(F)c(F)c(F)c5F)c5ccc2[nH]5)C=C4)C=C3)cc1)[C@H](C)[C@@H](C)O
REMARK SMILES IDX 8 1 7 2 5 3 6 4 4 5 2 6 1 7 3 8 76 9 77 10 78 11 79 12 80 13
REMARK SMILES IDX 9 15 10 16 11 17 12 18 13 19 14 20 75 21 15 22 74 23 16 24
REMARK SMILES IDX 17 25 18 26 68 27 19 28 73 29 67 30 69 31 20 32 72 33 66 34
REMARK SMILES IDX 65 35 21 37 53 38 33 39 52 40 34 41 37 42 51 43 70 44 35 45
REMARK SMILES IDX 36 46 50 48 71 49 38 50 22 51 23 52 31 53 24 54 25 55 29 56
REMARK SMILES IDX 32 57 26 58 27 59 30 60 28 61 54 62 55 63 63 64 56 65 57 66
REMARK SMILES IDX 61 67 64 68 58 69 59 70 62 71 60 72 39 73 40 74 48 75 41 76
REMARK SMILES IDX 42 77 46 78 49 79 43 80 44 81 47 82 45 83
REMARK H PARENT 80 14 69 36 37 47
REMARK Flexibility Score: inf
ROOT
ATOM      1  C   UNL     1      -1.865   6.124   1.493  1.00  0.00     0.274 C 
ENDROOT
BRANCH   1   2
ATOM      2  O   UNL     1      -1.348   5.060   2.320  1.00  0.00    -0.462 OA
BRANCH   2   3
ATOM      3  C   UNL     1      -1.775   3.795   2.042  1.00  0.00     0.309 C 
ATOM      4  O   UNL     1      -2.444   3.514   1.054  1.00  0.00    -0.252 OA
BRANCH   3   5
ATOM      5  C   UNL     1      -1.165   2.745   3.000  1.00  0.00     0.107 C 
BRANCH   5   6
ATOM      6  C   UNL     1      -0.778   3.343   4.402  1.00  0.00    -0.003 C 
ATOM      7  C   UNL     1      -1.116   2.513   5.641  1.00  0.00     0.008 C 
ATOM      8  C   UNL     1       0.741   3.614   4.421  1.00  0.00     0.008 C 
ENDBRANCH   5   6
BRANCH   5   9
ATOM      9  C   UNL     1      -1.927   1.365   3.006  1.00  0.00     0.029 C 
ATOM     10  C   UNL     1      -1.336   0.410   1.955  1.00  0.00     0.011 C 
BRANCH   9  11
ATOM     11  C   UNL     1      -3.467   1.437   2.868  1.00  0.00     0.115 C 
ATOM     12  C   UNL     1      -4.148   0.069   2.964  1.00  0.00     0.038 C 
BRANCH  11  13
ATOM     13  O   UNL     1      -3.990   2.297   3.875  1.00  0.00    -0.393 OA
ATOM     14  H   UNL     1      -3.789   1.930   4.750  1.00  0.00     0.210 HD
ENDBRANCH  11  13
ENDBRANCH   9  11
ENDBRANCH   5   9
ENDBRANCH   3   5
ENDBRANCH   2   3
ENDBRANCH   1   2
BRANCH   1  15
ATOM     15  C   UNL     1      -0.882   6.545   0.396  1.00  0.00     0.275 C 
BRANCH  15  16
ATOM     16  O   UNL     1      -0.763   5.533  -0.621  1.00  0.00    -0.458 OA
BRANCH  16  17
ATOM     17  C   UNL     1       0.326   4.739  -0.509  1.00  0.00     0.338 C 
ATOM     18  O   UNL     1       1.246   4.851   0.282  1.00  0.00    -0.246 OA
BRANCH  17  19
ATOM     19  C   UNL     1       0.165   3.549  -1.360  1.00  0.00     0.060 A 
ATOM     20  C   UNL     1       0.077   2.329  -0.693  1.00  0.00     0.016 A 
ATOM     21  C   UNL     1       0.181   3.586  -2.755  1.00  0.00     0.016 A 
ATOM     22  C   UNL     1      -0.008   1.139  -1.400  1.00  0.00     0.010 A 
ATOM     23  C   UNL     1       0.109   2.381  -3.474  1.00  0.00     0.010 A 
ATOM     24  C   UNL     1       0.019   1.151  -2.797  1.00  0.00    -0.014 A 
BRANCH  24  25
ATOM     25  C   UNL     1       0.061  -0.161  -3.486  1.00  0.00     0.031 A 
ATOM     26  C   UNL     1       1.380  -0.711  -3.943  1.00  0.00     0.074 A 
ATOM     27  C   UNL     1      -1.046  -0.925  -3.548  1.00  0.00     0.049 A 
ATOM     28  N   UNL     1       1.652  -1.870  -4.489  1.00  0.00    -0.248 NA
ATOM     29  C   UNL     1       2.554   0.152  -3.743  1.00  0.00     0.031 C 
ATOM     30  C   UNL     1      -2.365  -0.537  -3.050  1.00  0.00     0.029 A 
ATOM     31  N   UNL     1      -1.226  -2.200  -4.022  1.00  0.00    -0.354 N 
ATOM     32  C   UNL     1       3.023  -1.871  -4.706  1.00  0.00     0.074 A 
ATOM     33  C   UNL     1       3.527  -0.594  -4.246  1.00  0.00     0.031 C 
ATOM     34  C   UNL     1      -3.215  -1.563  -3.224  1.00  0.00     0.029 A 
ATOM     35  C   UNL     1      -2.509  -2.665  -3.876  1.00  0.00     0.049 A 
ATOM     36  H   UNL     1      -0.503  -2.731  -4.429  1.00  0.00     0.167 HD
ATOM     37  C   UNL     1       3.792  -2.851  -5.238  1.00  0.00     0.037 A 
ATOM     38  C   UNL     1      -3.054  -3.843  -4.235  1.00  0.00     0.037 A 
ATOM     39  C   UNL     1       3.295  -4.125  -5.687  1.00  0.00     0.049 A 
ATOM     40  C   UNL     1      -2.187  -4.890  -4.884  1.00  0.00     0.074 A 
ATOM     41  C   UNL     1       3.992  -5.166  -6.276  1.00  0.00     0.029 A 
ATOM     42  N   UNL     1       1.973  -4.534  -5.590  1.00  0.00    -0.354 N 
ATOM     43  N   UNL     1      -0.899  -4.867  -5.123  1.00  0.00    -0.248 NA
ATOM     44  C   UNL     1      -2.855  -6.127  -5.314  1.00  0.00     0.031 C 
ATOM     45  C   UNL     1       3.085  -6.192  -6.566  1.00  0.00     0.029 A 
ATOM     46  C   UNL     1       1.832  -5.807  -6.119  1.00  0.00     0.049 A 
ATOM     47  H   UNL     1       1.243  -3.998  -5.203  1.00  0.00     0.167 HD
ATOM     48  C   UNL     1      -0.598  -6.087  -5.714  1.00  0.00     0.074 A 
ATOM     49  C   UNL     1      -1.835  -6.837  -5.776  1.00  0.00     0.031 C 
ATOM     50  C   UNL     1       0.595  -6.543  -6.168  1.00  0.00     0.037 A 
BRANCH  37  51
ATOM     51  C   UNL     1       5.253  -2.559  -5.402  1.00  0.00     0.064 A 
ATOM     52  C   UNL     1       6.130  -2.545  -4.308  1.00  0.00     0.173 A 
ATOM     53  C   UNL     1       5.782  -2.302  -6.675  1.00  0.00     0.173 A 
ATOM     54  F   UNL     1       5.668  -2.765  -3.068  1.00  0.00    -0.203 F 
ATOM     55  C   UNL     1       7.483  -2.261  -4.482  1.00  0.00     0.198 A 
ATOM     56  C   UNL     1       7.138  -2.043  -6.848  1.00  0.00     0.198 A 
ATOM     57  F   UNL     1       4.982  -2.305  -7.752  1.00  0.00    -0.203 F 
ATOM     58  F   UNL     1       8.297  -2.210  -3.419  1.00  0.00    -0.200 F 
ATOM     59  C   UNL     1       7.986  -2.017  -5.751  1.00  0.00     0.200 A 
ATOM     60  F   UNL     1       7.623  -1.814  -8.076  1.00  0.00    -0.200 F 
ATOM     61  F   UNL     1       9.288  -1.745  -5.917  1.00  0.00    -0.200 F 
ENDBRANCH  37  51
BRANCH  38  62
ATOM     62  C   UNL     1      -4.500  -4.097  -4.004  1.00  0.00     0.064 A 
ATOM     63  C   UNL     1      -4.931  -5.056  -3.077  1.00  0.00     0.173 A 
ATOM     64  C   UNL     1      -5.480  -3.402  -4.728  1.00  0.00     0.173 A 
ATOM     65  F   UNL     1      -4.031  -5.767  -2.381  1.00  0.00    -0.203 F 
ATOM     66  C   UNL     1      -6.287  -5.321  -2.895  1.00  0.00     0.198 A 
ATOM     67  C   UNL     1      -6.835  -3.648  -4.526  1.00  0.00     0.198 A 
ATOM     68  F   UNL     1      -5.119  -2.480  -5.633  1.00  0.00    -0.203 F 
ATOM     69  F   UNL     1      -6.671  -6.276  -2.037  1.00  0.00    -0.200 F 
ATOM     70  C   UNL     1      -7.238  -4.613  -3.615  1.00  0.00     0.200 A 
ATOM     71  F   UNL     1      -7.751  -2.957  -5.218  1.00  0.00    -0.200 F 
ATOM     72  F   UNL     1      -8.541  -4.870  -3.440  1.00  0.00    -0.200 F 
ENDBRANCH  38  62
BRANCH  50  73
ATOM     73  C   UNL     1       0.622  -7.928  -6.745  1.00  0.00     0.064 A 
ATOM     74  C   UNL     1       0.058  -8.214  -7.997  1.00  0.00     0.173 A 
ATOM     75  C   UNL     1       1.238  -8.977  -6.046  1.00  0.00     0.173 A 
ATOM     76  F   UNL     1      -0.555  -7.248  -8.698  1.00  0.00    -0.203 F 
ATOM     77  C   UNL     1       0.083  -9.506  -8.515  1.00  0.00     0.198 A 
ATOM     78  C   UNL     1       1.284 -10.263  -6.579  1.00  0.00     0.198 A 
ATOM     79  F   UNL     1       1.798  -8.755  -4.848  1.00  0.00    -0.203 F 
ATOM     80  F   UNL     1      -0.507  -9.767  -9.690  1.00  0.00    -0.200 F 
ATOM     81  C   UNL     1       0.699 -10.528  -7.808  1.00  0.00     0.200 A 
ATOM     82  F   UNL     1       1.888 -11.247  -5.899  1.00  0.00    -0.200 F 
ATOM     83  F   UNL     1       0.720 -11.772  -8.307  1.00  0.00    -0.200 F 
ENDBRANCH  50  73
ENDBRANCH  24  25
ENDBRANCH  17  19
ENDBRANCH  16  17
ENDBRANCH  15  16
ENDBRANCH   1  15
TORSDOF 15
