REMARK SMILES C#CCN(CC(=O)OCCOC(=O)c1ccc(-c2c3nc(c(-c4c(F)c(F)c(F)c(F)c4F)c4ccc([nH]4)c(-c4c(F)c(F)c(F)c(F)c4F)c4nc(c(-c5c(F)c(F)c(F)c(F)c5F)c5ccc2[nH]5)C=C4)C=C3)cc1)C(=O)/C=C/c1ccnn1C
REMARK SMILES IDX 9 1 8 2 6 3 7 4 5 5 4 6 3 7 2 8 1 9 77 10 78 11 79 12 80 13
REMARK SMILES IDX 81 14 82 15 85 16 83 17 84 18 86 19 10 20 11 21 12 22 13 23
REMARK SMILES IDX 14 24 15 25 76 26 16 27 75 28 17 29 18 30 19 31 69 32 20 33
REMARK SMILES IDX 74 34 68 35 70 36 21 37 73 38 67 39 66 40 22 42 54 43 34 44
REMARK SMILES IDX 53 45 35 46 38 47 52 48 71 49 36 50 37 51 51 53 72 54 39 55
REMARK SMILES IDX 23 56 24 57 32 58 25 59 26 60 30 61 33 62 27 63 28 64 31 65
REMARK SMILES IDX 29 66 55 67 56 68 64 69 57 70 58 71 62 72 65 73 59 74 60 75
REMARK SMILES IDX 63 76 61 77 40 78 41 79 49 80 42 81 43 82 47 83 50 84 44 85
REMARK SMILES IDX 45 86 48 87 46 88
REMARK H PARENT 70 41 38 52
REMARK Flexibility Score: inf
ROOT
ATOM      1  C   UNL     1      -6.589   0.189   1.726  1.00  0.00     0.274 C 
ENDROOT
BRANCH   1   2
ATOM      2  O   UNL     1      -5.190  -0.110   1.494  1.00  0.00    -0.461 OA
BRANCH   2   3
ATOM      3  C   UNL     1      -4.308   0.754   2.069  1.00  0.00     0.325 C 
ATOM      4  O   UNL     1      -4.640   1.812   2.600  1.00  0.00    -0.250 OA
BRANCH   3   5
ATOM      5  C   UNL     1      -2.888   0.183   2.243  1.00  0.00     0.243 C 
BRANCH   5   6
ATOM      6  N   UNL     1      -2.357  -0.714   1.235  1.00  0.00    -0.317 N 
BRANCH   6   7
ATOM      7  C   UNL     1      -1.782  -0.029   0.086  1.00  0.00     0.210 C 
BRANCH   7   8
ATOM      8  C   UNL     1      -0.262  -0.029   0.086  1.00  0.00    -0.085 C 
ATOM      9  C   UNL     1       1.042  -0.029   0.086  1.00  0.00     0.006 C 
ENDBRANCH   7   8
ENDBRANCH   6   7
BRANCH   6  10
ATOM     10  C   UNL     1      -2.418  -2.097   1.215  1.00  0.00     0.247 C 
ATOM     11  O   UNL     1      -1.994  -2.746   0.255  1.00  0.00    -0.270 OA
BRANCH  10  12
ATOM     12  C   UNL     1      -3.061  -2.907   2.300  1.00  0.00     0.073 C 
ATOM     13  C   UNL     1      -2.583  -3.028   3.549  1.00  0.00     0.033 C 
BRANCH  13  14
ATOM     14  C   UNL     1      -2.989  -4.018   4.505  1.00  0.00     0.061 A 
ATOM     15  C   UNL     1      -2.169  -4.748   5.354  1.00  0.00     0.050 A 
ATOM     16  N   UNL     1      -4.272  -4.443   4.826  1.00  0.00    -0.269 N 
ATOM     17  C   UNL     1      -3.016  -5.518   6.158  1.00  0.00     0.136 A 
ATOM     18  N   UNL     1      -4.295  -5.304   5.874  1.00  0.00    -0.181 NA
ATOM     19  C   UNL     1      -5.568  -4.130   4.277  1.00  0.00     0.174 C 
ENDBRANCH  13  14
ENDBRANCH  10  12
ENDBRANCH   6  10
ENDBRANCH   5   6
ENDBRANCH   3   5
ENDBRANCH   2   3
ENDBRANCH   1   2
BRANCH   1  20
ATOM     20  C   UNL     1      -7.161  -0.412   3.034  1.00  0.00     0.275 C 
BRANCH  20  21
ATOM     21  O   UNL     1      -6.528   0.058   4.253  1.00  0.00    -0.458 OA
BRANCH  21  22
ATOM     22  C   UNL     1      -5.387  -0.615   4.491  1.00  0.00     0.338 C 
ATOM     23  O   UNL     1      -4.915  -1.441   3.727  1.00  0.00    -0.246 OA
BRANCH  22  24
ATOM     24  C   UNL     1      -4.635  -0.365   5.719  1.00  0.00     0.060 A 
ATOM     25  C   UNL     1      -3.488   0.433   5.633  1.00  0.00     0.016 A 
ATOM     26  C   UNL     1      -4.761  -1.309   6.741  1.00  0.00     0.016 A 
ATOM     27  C   UNL     1      -2.438   0.245   6.531  1.00  0.00     0.010 A 
ATOM     28  C   UNL     1      -3.737  -1.458   7.676  1.00  0.00     0.010 A 
ATOM     29  C   UNL     1      -2.568  -0.685   7.576  1.00  0.00    -0.014 A 
BRANCH  29  30
ATOM     30  C   UNL     1      -1.662  -0.610   8.742  1.00  0.00     0.031 A 
ATOM     31  C   UNL     1      -0.624  -1.638   9.065  1.00  0.00     0.074 A 
ATOM     32  C   UNL     1      -1.922   0.401   9.591  1.00  0.00     0.049 A 
ATOM     33  N   UNL     1       0.127  -1.732  10.134  1.00  0.00    -0.248 NA
ATOM     34  C   UNL     1      -0.391  -2.695   8.074  1.00  0.00     0.031 C 
ATOM     35  C   UNL     1      -2.945   1.429   9.371  1.00  0.00     0.029 A 
ATOM     36  N   UNL     1      -1.400   0.704  10.816  1.00  0.00    -0.354 N 
ATOM     37  C   UNL     1       0.918  -2.859   9.954  1.00  0.00     0.074 A 
ATOM     38  C   UNL     1       0.546  -3.426   8.672  1.00  0.00     0.031 C 
ATOM     39  C   UNL     1      -3.014   2.217  10.447  1.00  0.00     0.029 A 
ATOM     40  C   UNL     1      -2.064   1.730  11.436  1.00  0.00     0.049 A 
ATOM     41  H   UNL     1      -0.630   0.235  11.212  1.00  0.00     0.167 HD
ATOM     42  C   UNL     1       1.865  -3.355  10.789  1.00  0.00     0.037 A 
ATOM     43  C   UNL     1      -1.957   2.211  12.684  1.00  0.00     0.037 A 
ATOM     44  C   UNL     1       2.221  -2.757  12.057  1.00  0.00     0.049 A 
ATOM     45  C   UNL     1      -0.912   1.646  13.582  1.00  0.00     0.074 A 
ATOM     46  C   UNL     1       3.236  -3.115  12.929  1.00  0.00     0.029 A 
ATOM     47  N   UNL     1       1.559  -1.685  12.642  1.00  0.00    -0.354 N 
ATOM     48  N   UNL     1      -0.113   0.630  13.370  1.00  0.00    -0.248 NA
ATOM     49  C   UNL     1      -0.727   2.312  14.872  1.00  0.00     0.031 C 
ATOM     50  C   UNL     1       3.161  -2.289  14.058  1.00  0.00     0.029 A 
ATOM     51  C   UNL     1       2.127  -1.387  13.872  1.00  0.00     0.049 A 
ATOM     52  H   UNL     1       0.798  -1.206  12.241  1.00  0.00     0.167 HD
ATOM     53  C   UNL     1       0.693   0.546  14.490  1.00  0.00     0.074 A 
ATOM     54  C   UNL     1       0.284   1.619  15.378  1.00  0.00     0.031 C 
ATOM     55  C   UNL     1       1.692  -0.332  14.751  1.00  0.00     0.037 A 
BRANCH  42  56
ATOM     56  C   UNL     1       2.604  -4.601  10.386  1.00  0.00     0.064 A 
ATOM     57  C   UNL     1       3.592  -4.581   9.391  1.00  0.00     0.173 A 
ATOM     58  C   UNL     1       2.414  -5.799  11.093  1.00  0.00     0.173 A 
ATOM     59  F   UNL     1       3.818  -3.462   8.686  1.00  0.00    -0.203 F 
ATOM     60  C   UNL     1       4.359  -5.713   9.117  1.00  0.00     0.198 A 
ATOM     61  C   UNL     1       3.196  -6.923  10.831  1.00  0.00     0.198 A 
ATOM     62  F   UNL     1       1.493  -5.871  12.066  1.00  0.00    -0.203 F 
ATOM     63  F   UNL     1       5.292  -5.672   8.155  1.00  0.00    -0.200 F 
ATOM     64  C   UNL     1       4.167  -6.879   9.843  1.00  0.00     0.200 A 
ATOM     65  F   UNL     1       3.020  -8.043  11.546  1.00  0.00    -0.200 F 
ATOM     66  F   UNL     1       4.923  -7.958   9.595  1.00  0.00    -0.200 F 
ENDBRANCH  42  56
BRANCH  43  67
ATOM     67  C   UNL     1      -2.865   3.305  13.088  1.00  0.00     0.064 A 
ATOM     68  C   UNL     1      -2.428   4.633  13.072  1.00  0.00     0.173 A 
ATOM     69  C   UNL     1      -4.223   3.054  13.335  1.00  0.00     0.173 A 
ATOM     70  F   UNL     1      -1.139   4.910  12.829  1.00  0.00    -0.203 F 
ATOM     71  C   UNL     1      -3.321   5.679  13.283  1.00  0.00     0.198 A 
ATOM     72  C   UNL     1      -5.118   4.102  13.526  1.00  0.00     0.198 A 
ATOM     73  F   UNL     1      -4.688   1.796  13.322  1.00  0.00    -0.203 F 
ATOM     74  F   UNL     1      -2.883   6.944  13.254  1.00  0.00    -0.200 F 
ATOM     75  C   UNL     1      -4.666   5.413  13.498  1.00  0.00     0.200 A 
ATOM     76  F   UNL     1      -6.421   3.845  13.702  1.00  0.00    -0.200 F 
ATOM     77  F   UNL     1      -5.531   6.424  13.662  1.00  0.00    -0.200 F 
ENDBRANCH  43  67
BRANCH  55  78
ATOM     78  C   UNL     1       2.415  -0.138  16.047  1.00  0.00     0.064 A 
ATOM     79  C   UNL     1       1.829  -0.494  17.270  1.00  0.00     0.173 A 
ATOM     80  C   UNL     1       3.691   0.442  16.067  1.00  0.00     0.173 A 
ATOM     81  F   UNL     1       0.598  -1.028  17.298  1.00  0.00    -0.203 F 
ATOM     82  C   UNL     1       2.482  -0.244  18.472  1.00  0.00     0.198 A 
ATOM     83  C   UNL     1       4.351   0.669  17.270  1.00  0.00     0.198 A 
ATOM     84  F   UNL     1       4.289   0.801  14.921  1.00  0.00    -0.203 F 
ATOM     85  F   UNL     1       1.880  -0.535  19.633  1.00  0.00    -0.200 F 
ATOM     86  C   UNL     1       3.743   0.336  18.471  1.00  0.00     0.200 A 
ATOM     87  F   UNL     1       5.569   1.229  17.269  1.00  0.00    -0.200 F 
ATOM     88  F   UNL     1       4.364   0.591  19.631  1.00  0.00    -0.200 F 
ENDBRANCH  55  78
ENDBRANCH  29  30
ENDBRANCH  22  24
ENDBRANCH  21  22
ENDBRANCH  20  21
ENDBRANCH   1  20
TORSDOF 17
