REMARK SMILES COc1cccc(C(=O)N2CCC(C(=O)N3CC[N@H+](C)[C@@H](C(=O)OCCOC(=O)c4ccc(-c5c6nc(c(-c7c(F)c(F)c(F)c(F)c7F)c7ccc([nH]7)c(-c7c(F)c(F)c(F)c(F)c7F)c7nc(c(-c8c(F)c(F)c(F)c(F)c8F)c8ccc5[nH]8)C=C7)C=C6)cc4)C3)CC2)c1
REMARK SMILES IDX 25 1 24 2 22 3 23 4 21 5 16 6 17 7 93 8 18 9 19 10 20 11
REMARK SMILES IDX 14 13 15 14 13 15 8 16 9 17 10 18 11 19 95 20 12 21 94 22
REMARK SMILES IDX 7 23 3 24 4 25 96 26 5 27 6 28 2 29 1 30 26 31 27 32 28 33
REMARK SMILES IDX 29 34 30 35 31 36 92 37 32 38 91 39 33 40 34 41 35 42 85 43
REMARK SMILES IDX 36 44 90 45 84 46 86 47 37 48 89 49 83 50 82 51 38 53 70 54
REMARK SMILES IDX 50 55 69 56 51 57 54 58 68 59 87 60 52 61 53 62 67 64 88 65
REMARK SMILES IDX 55 66 39 67 40 68 48 69 41 70 42 71 46 72 49 73 43 74 44 75
REMARK SMILES IDX 47 76 45 77 71 78 72 79 80 80 73 81 74 82 78 83 81 84 75 85
REMARK SMILES IDX 76 86 79 87 77 88 56 89 57 90 65 91 58 92 59 93 63 94 66 95
REMARK SMILES IDX 60 96 61 97 64 98 62 99
REMARK H PARENT 19 12 86 52 54 63
REMARK Flexibility Score: inf
ROOT
ATOM      1  C   UNL     1       9.413  -2.894  -5.902  1.00  0.00     0.274 C 
ENDROOT
BRANCH   1   2
ATOM      2  O   UNL     1       9.867  -2.498  -4.591  1.00  0.00    -0.458 OA
BRANCH   2   3
ATOM      3  C   UNL     1      10.772  -1.486  -4.547  1.00  0.00     0.366 C 
ATOM      4  O   UNL     1      11.221  -0.919  -5.540  1.00  0.00    -0.245 OA
BRANCH   3   5
ATOM      5  C   UNL     1      11.173  -1.088  -3.114  1.00  0.00     0.314 C 
ATOM      6  N   UNL     1      10.142  -2.659  -1.376  1.00  0.00    -0.330 N 
ATOM      7  C   UNL     1      11.482  -3.195  -1.131  1.00  0.00     0.181 C 
ATOM      8  C   UNL     1      10.078  -1.357  -2.055  1.00  0.00     0.197 C 
ATOM      9  C   UNL     1      12.442  -2.990  -2.314  1.00  0.00     0.284 C 
ATOM     10  N   UNL     1      12.531  -1.605  -2.807  1.00  0.00    -0.323 N 
ATOM     11  C   UNL     1      13.227  -0.731  -1.863  1.00  0.00     0.333 C 
ATOM     12  H   UNL     1      13.084  -1.611  -3.664  1.00  0.00     0.348 HD
BRANCH   6  13
ATOM     13  C   UNL     1       9.088  -3.211  -0.645  1.00  0.00     0.226 C 
ATOM     14  O   UNL     1       9.282  -4.110   0.176  1.00  0.00    -0.275 OA
BRANCH  13  15
ATOM     15  C   UNL     1       7.670  -2.705  -0.924  1.00  0.00     0.082 C 
ATOM     16  C   UNL     1       3.753  -3.941  -1.774  1.00  0.00     0.253 C 
ATOM     17  O   UNL     1       3.743  -4.723  -2.725  1.00  0.00    -0.269 OA
ATOM     18  N   UNL     1       4.858  -3.149  -1.476  1.00  0.00    -0.339 N 
ATOM     19  C   UNL     1       5.778  -2.829  -2.557  1.00  0.00     0.120 C 
ATOM     20  C   UNL     1       5.242  -2.679  -0.144  1.00  0.00     0.120 C 
ATOM     21  C   UNL     1       7.183  -3.309  -2.245  1.00  0.00     0.035 C 
ATOM     22  C   UNL     1       6.682  -3.089   0.196  1.00  0.00     0.035 C 
BRANCH  16  23
ATOM     23  C   UNL     1       2.483  -3.768  -1.016  1.00  0.00     0.043 A 
ATOM     24  C   UNL     1       0.796  -2.331  -0.032  1.00  0.00     0.119 A 
ATOM     25  C   UNL     1      -0.063  -3.428   0.072  1.00  0.00     0.046 A 
ATOM     26  C   UNL     1       2.072  -2.502  -0.574  1.00  0.00     0.060 A 
ATOM     27  C   UNL     1       0.331  -4.685  -0.385  1.00  0.00     0.005 A 
ATOM     28  C   UNL     1       1.602  -4.854  -0.934  1.00  0.00     0.014 A 
BRANCH  24  29
ATOM     29  O   UNL     1       0.277  -1.148   0.420  1.00  0.00    -0.497 OA
ATOM     30  C   UNL     1       0.910   0.037  -0.046  1.00  0.00     0.278 C 
ENDBRANCH  24  29
ENDBRANCH  16  23
ENDBRANCH  13  15
ENDBRANCH   6  13
ENDBRANCH   3   5
ENDBRANCH   2   3
ENDBRANCH   1   2
BRANCH   1  31
ATOM     31  C   UNL     1       8.054  -2.275  -6.246  1.00  0.00     0.275 C 
BRANCH  31  32
ATOM     32  O   UNL     1       8.138  -0.845  -6.399  1.00  0.00    -0.458 OA
BRANCH  32  33
ATOM     33  C   UNL     1       7.820  -0.127  -5.301  1.00  0.00     0.338 C 
ATOM     34  O   UNL     1       7.460  -0.543  -4.213  1.00  0.00    -0.246 OA
BRANCH  33  35
ATOM     35  C   UNL     1       8.095   1.296  -5.531  1.00  0.00     0.060 A 
ATOM     36  C   UNL     1       9.204   1.855  -4.894  1.00  0.00     0.016 A 
ATOM     37  C   UNL     1       7.208   2.095  -6.251  1.00  0.00     0.016 A 
ATOM     38  C   UNL     1       9.429   3.225  -4.956  1.00  0.00     0.010 A 
ATOM     39  C   UNL     1       7.443   3.471  -6.327  1.00  0.00     0.010 A 
ATOM     40  C   UNL     1       8.546   4.044  -5.668  1.00  0.00    -0.014 A 
BRANCH  40  41
ATOM     41  C   UNL     1       8.757   5.509  -5.679  1.00  0.00     0.031 A 
ATOM     42  C   UNL     1       7.854   6.399  -4.879  1.00  0.00     0.074 A 
ATOM     43  C   UNL     1       9.774   6.032  -6.388  1.00  0.00     0.049 A 
ATOM     44  N   UNL     1       7.794   7.705  -4.846  1.00  0.00    -0.248 NA
ATOM     45  C   UNL     1       6.888   5.728  -3.995  1.00  0.00     0.031 C 
ATOM     46  C   UNL     1      10.753   5.260  -7.153  1.00  0.00     0.029 A 
ATOM     47  N   UNL     1      10.149   7.336  -6.581  1.00  0.00    -0.354 N 
ATOM     48  C   UNL     1       6.767   8.014  -3.965  1.00  0.00     0.074 A 
ATOM     49  C   UNL     1       6.229   6.759  -3.485  1.00  0.00     0.031 C 
ATOM     50  C   UNL     1      11.617   6.106  -7.736  1.00  0.00     0.029 A 
ATOM     51  C   UNL     1      11.219   7.477  -7.428  1.00  0.00     0.049 A 
ATOM     52  H   UNL     1       9.694   8.098  -6.154  1.00  0.00     0.167 HD
ATOM     53  C   UNL     1       6.317   9.236  -3.597  1.00  0.00     0.037 A 
ATOM     54  C   UNL     1      11.789   8.589  -7.929  1.00  0.00     0.037 A 
ATOM     55  C   UNL     1       6.871  10.479  -4.064  1.00  0.00     0.049 A 
ATOM     56  C   UNL     1      11.235   9.932  -7.546  1.00  0.00     0.074 A 
ATOM     57  C   UNL     1       6.488  11.771  -3.748  1.00  0.00     0.029 A 
ATOM     58  N   UNL     1       7.936  10.583  -4.947  1.00  0.00    -0.354 N 
ATOM     59  N   UNL     1      10.241  10.218  -6.740  1.00  0.00    -0.248 NA
ATOM     60  C   UNL     1      11.872  11.108  -8.155  1.00  0.00     0.031 C 
ATOM     61  C   UNL     1       7.301  12.656  -4.465  1.00  0.00     0.029 A 
ATOM     62  C   UNL     1       8.214  11.916  -5.200  1.00  0.00     0.049 A 
ATOM     63  H   UNL     1       8.423   9.821  -5.337  1.00  0.00     0.167 HD
ATOM     64  C   UNL     1      10.140  11.601  -6.734  1.00  0.00     0.074 A 
ATOM     65  C   UNL     1      11.185  12.100  -7.605  1.00  0.00     0.031 C 
ATOM     66  C   UNL     1       9.259  12.389  -6.071  1.00  0.00     0.037 A 
BRANCH  53  67
ATOM     67  C   UNL     1       5.141   9.287  -2.668  1.00  0.00     0.064 A 
ATOM     68  C   UNL     1       5.266   8.993  -1.303  1.00  0.00     0.173 A 
ATOM     69  C   UNL     1       3.877   9.660  -3.150  1.00  0.00     0.173 A 
ATOM     70  F   UNL     1       6.450   8.613  -0.800  1.00  0.00    -0.203 F 
ATOM     71  C   UNL     1       4.162   9.052  -0.456  1.00  0.00     0.198 A 
ATOM     72  C   UNL     1       2.781   9.739  -2.296  1.00  0.00     0.198 A 
ATOM     73  F   UNL     1       3.707   9.950  -4.448  1.00  0.00    -0.203 F 
ATOM     74  F   UNL     1       4.294   8.727   0.837  1.00  0.00    -0.200 F 
ATOM     75  C   UNL     1       2.922   9.430  -0.952  1.00  0.00     0.200 A 
ATOM     76  F   UNL     1       1.585  10.109  -2.775  1.00  0.00    -0.200 F 
ATOM     77  F   UNL     1       1.861   9.487  -0.135  1.00  0.00    -0.200 F 
ENDBRANCH  53  67
BRANCH  54  78
ATOM     78  C   UNL     1      12.928   8.471  -8.873  1.00  0.00     0.064 A 
ATOM     79  C   UNL     1      14.223   8.842  -8.491  1.00  0.00     0.173 A 
ATOM     80  C   UNL     1      12.744   7.977 -10.173  1.00  0.00     0.173 A 
ATOM     81  F   UNL     1      14.442   9.344  -7.266  1.00  0.00    -0.203 F 
ATOM     82  C   UNL     1      15.292   8.732  -9.377  1.00  0.00     0.198 A 
ATOM     83  C   UNL     1      13.818   7.844 -11.050  1.00  0.00     0.198 A 
ATOM     84  F   UNL     1      11.522   7.611 -10.585  1.00  0.00    -0.203 F 
ATOM     85  F   UNL     1      16.516   9.127  -9.000  1.00  0.00    -0.200 F 
ATOM     86  C   UNL     1      15.090   8.226 -10.653  1.00  0.00     0.200 A 
ATOM     87  F   UNL     1      13.619   7.345 -12.278  1.00  0.00    -0.200 F 
ATOM     88  F   UNL     1      16.120   8.114 -11.503  1.00  0.00    -0.200 F 
ENDBRANCH  54  78
BRANCH  66  89
ATOM     89  C   UNL     1       9.402  13.870  -6.248  1.00  0.00     0.064 A 
ATOM     90  C   UNL     1       8.982  14.508  -7.423  1.00  0.00     0.173 A 
ATOM     91  C   UNL     1       9.934  14.660  -5.219  1.00  0.00     0.173 A 
ATOM     92  F   UNL     1       8.482  13.790  -8.440  1.00  0.00    -0.203 F 
ATOM     93  C   UNL     1       9.106  15.887  -7.568  1.00  0.00     0.198 A 
ATOM     94  C   UNL     1      10.037  16.041  -5.359  1.00  0.00     0.198 A 
ATOM     95  F   UNL     1      10.346  14.093  -4.075  1.00  0.00    -0.203 F 
ATOM     96  F   UNL     1       8.733  16.474  -8.714  1.00  0.00    -0.200 F 
ATOM     97  C   UNL     1       9.627  16.652  -6.535  1.00  0.00     0.200 A 
ATOM     98  F   UNL     1      10.533  16.780  -4.358  1.00  0.00    -0.200 F 
ATOM     99  F   UNL     1       9.743  17.980  -6.676  1.00  0.00    -0.200 F 
ENDBRANCH  66  89
ENDBRANCH  40  41
ENDBRANCH  33  35
ENDBRANCH  32  33
ENDBRANCH  31  32
ENDBRANCH   1  31
TORSDOF 15
