REMARK SMILES Nc1nccc(N2CCC[C@@](Cc3ccc(F)cc3F)(C(=O)OCCOC(=O)c3ccc(-c4c5nc(c(-c6c(F)c(F)c(F)c(F)c6F)c6ccc([nH]6)c(-c6c(F)c(F)c(F)c(F)c6F)c6nc(c(-c7c(F)c(F)c(F)c(F)c7F)c7ccc4[nH]7)C=C6)C=C5)cc3)C2)n1
REMARK SMILES IDX 24 1 23 2 21 3 22 4 11 5 7 6 8 7 92 8 9 9 10 10 6 11 2 12
REMARK SMILES IDX 3 13 93 14 4 15 5 16 1 17 12 20 13 21 14 22 19 23 15 24
REMARK SMILES IDX 18 25 20 26 16 27 17 28 25 29 26 30 27 31 28 32 29 33 30 34
REMARK SMILES IDX 91 35 31 36 90 37 32 38 33 39 34 40 84 41 35 42 89 43 83 44
REMARK SMILES IDX 85 45 36 46 88 47 82 48 81 49 37 51 69 52 49 53 68 54 50 55
REMARK SMILES IDX 53 56 67 57 86 58 51 59 52 60 66 62 87 63 54 64 38 65 39 66
REMARK SMILES IDX 47 67 40 68 41 69 45 70 48 71 42 72 43 73 46 74 44 75 70 76
REMARK SMILES IDX 71 77 79 78 72 79 73 80 77 81 80 82 74 83 75 84 78 85 76 86
REMARK SMILES IDX 55 87 56 88 64 89 57 90 58 91 62 92 65 93 59 94 60 95 63 96
REMARK SMILES IDX 61 97
REMARK H PARENT 1 18 1 19 85 50 53 61
REMARK Flexibility Score: inf
ROOT
ATOM      1  C   UNL     1       3.180  -6.370  -4.262  1.00  0.00     0.274 C 
ENDROOT
BRANCH   1   2
ATOM      2  O   UNL     1       3.435  -5.586  -3.076  1.00  0.00    -0.462 OA
BRANCH   2   3
ATOM      3  C   UNL     1       2.829  -4.369  -3.023  1.00  0.00     0.314 C 
ATOM      4  O   UNL     1       2.057  -3.949  -3.880  1.00  0.00    -0.252 OA
BRANCH   3   5
ATOM      5  C   UNL     1       3.289  -3.522  -1.839  1.00  0.00     0.090 C 
ATOM      6  N   UNL     1       2.366  -1.998  -0.146  1.00  0.00    -0.355 N 
ATOM      7  C   UNL     1       2.860  -2.728   1.018  1.00  0.00     0.118 C 
ATOM      8  C   UNL     1       2.020  -2.820  -1.302  1.00  0.00     0.137 C 
ATOM      9  C   UNL     1       4.089  -3.546   0.610  1.00  0.00     0.023 C 
ATOM     10  C   UNL     1       3.873  -4.360  -0.675  1.00  0.00     0.023 C 
BRANCH   6  11
ATOM     11  C   UNL     1       1.476  -0.956   0.117  1.00  0.00     0.134 A 
ATOM     12  C   UNL     1      -0.644  -0.086   0.147  1.00  0.00     0.221 A 
ATOM     13  N   UNL     1      -0.221   1.145   0.447  1.00  0.00    -0.222 NA
ATOM     14  N   UNL     1       0.152  -1.146  -0.039  1.00  0.00    -0.196 NA
ATOM     15  C   UNL     1       1.104   1.302   0.588  1.00  0.00     0.119 A 
ATOM     16  C   UNL     1       2.001   0.275   0.451  1.00  0.00     0.067 A 
BRANCH  12  17
ATOM     17  N   UNL     1      -1.993  -0.260   0.034  1.00  0.00    -0.368 N 
ATOM     18  H   UNL     1      -2.601   0.503   0.166  1.00  0.00     0.159 HD
ATOM     19  H   UNL     1      -2.359  -1.149  -0.178  1.00  0.00     0.159 HD
ENDBRANCH  12  17
ENDBRANCH   6  11
BRANCH   5  20
ATOM     20  C   UNL     1       4.260  -2.439  -2.392  1.00  0.00     0.059 C 
BRANCH  20  21
ATOM     21  C   UNL     1       5.543  -2.947  -3.009  1.00  0.00    -0.011 A 
ATOM     22  C   UNL     1       5.568  -3.426  -4.328  1.00  0.00     0.010 A 
ATOM     23  C   UNL     1       6.738  -2.939  -2.278  1.00  0.00     0.129 A 
ATOM     24  C   UNL     1       6.753  -3.920  -4.875  1.00  0.00     0.040 A 
ATOM     25  C   UNL     1       7.924  -3.417  -2.820  1.00  0.00     0.078 A 
ATOM     26  F   UNL     1       6.755  -2.457  -1.028  1.00  0.00    -0.207 F 
ATOM     27  C   UNL     1       7.917  -3.912  -4.115  1.00  0.00     0.126 A 
ATOM     28  F   UNL     1       9.052  -4.385  -4.646  1.00  0.00    -0.207 F 
ENDBRANCH  20  21
ENDBRANCH   5  20
ENDBRANCH   3   5
ENDBRANCH   2   3
ENDBRANCH   1   2
BRANCH   1  29
ATOM     29  C   UNL     1       2.165  -7.471  -3.975  1.00  0.00     0.275 C 
BRANCH  29  30
ATOM     30  O   UNL     1       0.934  -6.870  -3.542  1.00  0.00    -0.458 OA
BRANCH  30  31
ATOM     31  C   UNL     1       0.354  -7.433  -2.458  1.00  0.00     0.338 C 
ATOM     32  O   UNL     1       0.703  -8.444  -1.873  1.00  0.00    -0.246 OA
BRANCH  31  33
ATOM     33  C   UNL     1      -0.795  -6.612  -2.026  1.00  0.00     0.060 A 
ATOM     34  C   UNL     1      -0.691  -5.223  -1.979  1.00  0.00     0.016 A 
ATOM     35  C   UNL     1      -1.945  -7.236  -1.546  1.00  0.00     0.016 A 
ATOM     36  C   UNL     1      -1.676  -4.463  -1.352  1.00  0.00     0.010 A 
ATOM     37  C   UNL     1      -2.985  -6.462  -1.021  1.00  0.00     0.010 A 
ATOM     38  C   UNL     1      -2.846  -5.069  -0.876  1.00  0.00    -0.014 A 
BRANCH  38  39
ATOM     39  C   UNL     1      -3.901  -4.274  -0.183  1.00  0.00     0.031 A 
ATOM     40  C   UNL     1      -4.336  -4.657   1.208  1.00  0.00     0.074 A 
ATOM     41  C   UNL     1      -4.473  -3.207  -0.775  1.00  0.00     0.049 A 
ATOM     42  N   UNL     1      -5.394  -4.277   1.880  1.00  0.00    -0.248 NA
ATOM     43  C   UNL     1      -3.475  -5.605   1.933  1.00  0.00     0.031 C 
ATOM     44  C   UNL     1      -4.120  -2.670  -2.089  1.00  0.00     0.029 A 
ATOM     45  N   UNL     1      -5.475  -2.372  -0.338  1.00  0.00    -0.354 N 
ATOM     46  C   UNL     1      -5.365  -4.996   3.068  1.00  0.00     0.074 A 
ATOM     47  C   UNL     1      -4.177  -5.821   3.038  1.00  0.00     0.031 C 
ATOM     48  C   UNL     1      -4.854  -1.573  -2.330  1.00  0.00     0.029 A 
ATOM     49  C   UNL     1      -5.801  -1.387  -1.237  1.00  0.00     0.049 A 
ATOM     50  H   UNL     1      -5.915  -2.472   0.537  1.00  0.00     0.167 HD
ATOM     51  C   UNL     1      -6.257  -4.974   4.087  1.00  0.00     0.037 A 
ATOM     52  C   UNL     1      -6.783  -0.464  -1.212  1.00  0.00     0.037 A 
ATOM     53  C   UNL     1      -7.395  -4.095   4.153  1.00  0.00     0.049 A 
ATOM     54  C   UNL     1      -7.761  -0.455  -0.072  1.00  0.00     0.074 A 
ATOM     55  C   UNL     1      -8.364  -4.009   5.138  1.00  0.00     0.029 A 
ATOM     56  N   UNL     1      -7.693  -3.123   3.211  1.00  0.00    -0.354 N 
ATOM     57  N   UNL     1      -7.799  -1.224   0.987  1.00  0.00    -0.248 NA
ATOM     58  C   UNL     1      -8.853   0.527  -0.142  1.00  0.00     0.031 C 
ATOM     59  C   UNL     1      -9.258  -2.992   4.785  1.00  0.00     0.029 A 
ATOM     60  C   UNL     1      -8.827  -2.428   3.595  1.00  0.00     0.049 A 
ATOM     61  H   UNL     1      -7.176  -2.953   2.391  1.00  0.00     0.167 HD
ATOM     62  C   UNL     1      -8.916  -0.825   1.707  1.00  0.00     0.074 A 
ATOM     63  C   UNL     1      -9.517   0.272   0.978  1.00  0.00     0.031 C 
ATOM     64  C   UNL     1      -9.407  -1.335   2.862  1.00  0.00     0.037 A 
BRANCH  51  65
ATOM     65  C   UNL     1      -6.064  -5.947   5.210  1.00  0.00     0.064 A 
ATOM     66  C   UNL     1      -6.912  -7.060   5.327  1.00  0.00     0.173 A 
ATOM     67  C   UNL     1      -5.098  -5.748   6.204  1.00  0.00     0.173 A 
ATOM     68  F   UNL     1      -7.856  -7.290   4.402  1.00  0.00    -0.203 F 
ATOM     69  C   UNL     1      -6.808  -7.930   6.408  1.00  0.00     0.198 A 
ATOM     70  C   UNL     1      -4.982  -6.633   7.273  1.00  0.00     0.198 A 
ATOM     71  F   UNL     1      -4.256  -4.707   6.128  1.00  0.00    -0.203 F 
ATOM     72  F   UNL     1      -7.647  -8.970   6.513  1.00  0.00    -0.200 F 
ATOM     73  C   UNL     1      -5.842  -7.717   7.379  1.00  0.00     0.200 A 
ATOM     74  F   UNL     1      -4.035  -6.439   8.202  1.00  0.00    -0.200 F 
ATOM     75  F   UNL     1      -5.738  -8.558   8.418  1.00  0.00    -0.200 F 
ENDBRANCH  51  65
BRANCH  52  76
ATOM     76  C   UNL     1      -6.909   0.502  -2.333  1.00  0.00     0.064 A 
ATOM     77  C   UNL     1      -7.321   0.092  -3.610  1.00  0.00     0.173 A 
ATOM     78  C   UNL     1      -6.591   1.854  -2.151  1.00  0.00     0.173 A 
ATOM     79  F   UNL     1      -7.640  -1.191  -3.832  1.00  0.00    -0.203 F 
ATOM     80  C   UNL     1      -7.383   0.994  -4.669  1.00  0.00     0.198 A 
ATOM     81  C   UNL     1      -6.679   2.761  -3.205  1.00  0.00     0.198 A 
ATOM     82  F   UNL     1      -6.220   2.297  -0.940  1.00  0.00    -0.203 F 
ATOM     83  F   UNL     1      -7.745   0.569  -5.887  1.00  0.00    -0.200 F 
ATOM     84  C   UNL     1      -7.064   2.328  -4.466  1.00  0.00     0.200 A 
ATOM     85  F   UNL     1      -6.398   4.055  -2.999  1.00  0.00    -0.200 F 
ATOM     86  F   UNL     1      -7.135   3.197  -5.483  1.00  0.00    -0.200 F 
ENDBRANCH  52  76
BRANCH  64  87
ATOM     87  C   UNL     1     -10.646  -0.708   3.421  1.00  0.00     0.064 A 
ATOM     88  C   UNL     1     -10.575   0.140   4.535  1.00  0.00     0.173 A 
ATOM     89  C   UNL     1     -11.910  -1.004   2.893  1.00  0.00     0.173 A 
ATOM     90  F   UNL     1      -9.386   0.446   5.077  1.00  0.00    -0.203 F 
ATOM     91  C   UNL     1     -11.730   0.662   5.109  1.00  0.00     0.198 A 
ATOM     92  C   UNL     1     -13.062  -0.465   3.459  1.00  0.00     0.198 A 
ATOM     93  F   UNL     1     -12.024  -1.800   1.820  1.00  0.00    -0.203 F 
ATOM     94  F   UNL     1     -11.642   1.454   6.187  1.00  0.00    -0.200 F 
ATOM     95  C   UNL     1     -12.972   0.361   4.570  1.00  0.00     0.200 A 
ATOM     96  F   UNL     1     -14.261  -0.743   2.927  1.00  0.00    -0.200 F 
ATOM     97  F   UNL     1     -14.083   0.870   5.120  1.00  0.00    -0.200 F 
ENDBRANCH  64  87
ENDBRANCH  38  39
ENDBRANCH  31  33
ENDBRANCH  30  31
ENDBRANCH  29  30
ENDBRANCH   1  29
TORSDOF 15
