REMARK SMILES Cc1c(NC(=O)c2ccc(Br)cc2N)cccc1C(=O)OCCOC(=O)c1ccc(-c2c3nc(c(-c4c(F)c(F)c(F)c(F)c4F)c4ccc([nH]4)c(-c4c(F)c(F)c(F)c(F)c4F)c4nc(c(-c5c(F)c(F)c(F)c(F)c5F)c5ccc2[nH]5)C=C4)C=C3)cc1
REMARK SMILES IDX 22 1 21 2 19 3 20 4 18 5 1 6 2 7 3 8 15 9 17 10 16 11 4 12
REMARK SMILES IDX 5 13 6 15 7 16 8 17 13 18 9 19 12 20 10 21 11 22 14 23 23 26
REMARK SMILES IDX 24 27 25 28 26 29 27 30 28 31 89 32 29 33 88 34 30 35 31 36
REMARK SMILES IDX 32 37 82 38 33 39 87 40 81 41 83 42 34 43 86 44 80 45 79 46
REMARK SMILES IDX 35 48 67 49 47 50 66 51 48 52 51 53 65 54 84 55 49 56 50 57
REMARK SMILES IDX 64 59 85 60 52 61 36 62 37 63 45 64 38 65 39 66 43 67 46 68
REMARK SMILES IDX 40 69 41 70 44 71 42 72 68 73 69 74 77 75 70 76 71 77 75 78
REMARK SMILES IDX 78 79 72 80 73 81 76 82 74 83 53 84 54 85 62 86 55 87 56 88
REMARK SMILES IDX 60 89 63 90 57 91 58 92 61 93 59 94
REMARK H PARENT 4 14 14 24 14 25 83 47 51 58
REMARK Flexibility Score: inf
ROOT
ATOM      1  C   UNL     1       3.180   2.925  -2.177  1.00  0.00     0.275 C 
ENDROOT
BRANCH   1   2
ATOM      2  O   UNL     1       2.076   2.014  -2.032  1.00  0.00    -0.458 OA
BRANCH   2   3
ATOM      3  C   UNL     1       2.169   1.306  -0.874  1.00  0.00     0.338 C 
ATOM      4  O   UNL     1       3.049   1.460  -0.038  1.00  0.00    -0.246 OA
BRANCH   3   5
ATOM      5  C   UNL     1       1.127   0.269  -0.680  1.00  0.00     0.065 A 
ATOM      6  C   UNL     1       2.946  -1.450  -0.180  1.00  0.00     0.047 C 
ATOM      7  C   UNL     1       1.502  -1.004  -0.204  1.00  0.00    -0.013 A 
ATOM      8  C   UNL     1       0.478  -1.937   0.066  1.00  0.00     0.045 A 
ATOM      9  C   UNL     1      -0.863  -1.543   0.081  1.00  0.00     0.026 A 
ATOM     10  C   UNL     1      -0.230   0.581  -0.854  1.00  0.00     0.016 A 
ATOM     11  C   UNL     1      -1.220  -0.289  -0.400  1.00  0.00     0.003 A 
BRANCH   8  12
ATOM     12  N   UNL     1       0.837  -3.289   0.171  1.00  0.00    -0.322 N 
ATOM     13  C   UNL     1       0.249  -4.413  -0.371  1.00  0.00     0.257 C 
ATOM     14  H   UNL     1       1.636  -3.464   0.719  1.00  0.00     0.170 HD
ATOM     15  O   UNL     1       0.745  -5.508  -0.100  1.00  0.00    -0.269 OA
BRANCH  13  16
ATOM     16  C   UNL     1      -0.928  -4.372  -1.286  1.00  0.00     0.063 A 
ATOM     17  C   UNL     1      -1.887  -5.373  -1.042  1.00  0.00     0.017 A 
ATOM     18  C   UNL     1      -1.129  -3.456  -2.343  1.00  0.00     0.045 A 
ATOM     19  C   UNL     1      -3.060  -5.441  -1.792  1.00  0.00     0.016 A 
ATOM     20  C   UNL     1      -2.333  -3.519  -3.064  1.00  0.00     0.042 A 
ATOM     21  C   UNL     1      -3.288  -4.497  -2.785  1.00  0.00     0.020 A 
ATOM     22  Br  UNL     1      -4.883  -4.564  -3.796  1.00  0.00    -0.051 Br
BRANCH  18  23
ATOM     23  N   UNL     1      -0.152  -2.584  -2.825  1.00  0.00    -0.398 N 
ATOM     24  H   UNL     1       0.710  -2.503  -2.357  1.00  0.00     0.156 HD
ATOM     25  H   UNL     1      -0.324  -2.051  -3.635  1.00  0.00     0.156 HD
ENDBRANCH  18  23
ENDBRANCH  13  16
ENDBRANCH   8  12
ENDBRANCH   3   5
ENDBRANCH   2   3
ENDBRANCH   1   2
BRANCH   1  26
ATOM     26  C   UNL     1       2.885   4.197  -2.986  1.00  0.00     0.275 C 
BRANCH  26  27
ATOM     27  O   UNL     1       1.659   4.959  -2.817  1.00  0.00    -0.458 OA
BRANCH  27  28
ATOM     28  C   UNL     1       0.598   4.529  -2.105  1.00  0.00     0.338 C 
ATOM     29  O   UNL     1      -0.506   4.312  -2.597  1.00  0.00    -0.246 OA
BRANCH  28  30
ATOM     30  C   UNL     1       0.848   4.401  -0.660  1.00  0.00     0.060 A 
ATOM     31  C   UNL     1      -0.037   3.637   0.119  1.00  0.00     0.016 A 
ATOM     32  C   UNL     1       2.038   4.886  -0.128  1.00  0.00     0.016 A 
ATOM     33  C   UNL     1       0.328   3.231   1.393  1.00  0.00     0.010 A 
ATOM     34  C   UNL     1       2.465   4.385   1.071  1.00  0.00     0.010 A 
ATOM     35  C   UNL     1       1.589   3.603   1.843  1.00  0.00    -0.014 A 
BRANCH  35  36
ATOM     36  C   UNL     1       1.950   3.595   3.244  1.00  0.00     0.031 A 
ATOM     37  C   UNL     1       2.543   2.415   3.884  1.00  0.00     0.074 A 
ATOM     38  C   UNL     1       1.828   4.848   3.740  1.00  0.00     0.049 A 
ATOM     39  N   UNL     1       2.646   2.278   5.155  1.00  0.00    -0.248 NA
ATOM     40  C   UNL     1       3.038   1.243   3.168  1.00  0.00     0.031 C 
ATOM     41  C   UNL     1       2.332   5.486   4.937  1.00  0.00     0.029 A 
ATOM     42  N   UNL     1       1.002   5.840   3.161  1.00  0.00    -0.354 N 
ATOM     43  C   UNL     1       3.501   1.221   5.405  1.00  0.00     0.074 A 
ATOM     44  C   UNL     1       3.600   0.526   4.151  1.00  0.00     0.031 C 
ATOM     45  C   UNL     1       1.567   6.571   5.187  1.00  0.00     0.029 A 
ATOM     46  C   UNL     1       0.469   6.568   4.220  1.00  0.00     0.049 A 
ATOM     47  H   UNL     1       0.838   5.986   2.202  1.00  0.00     0.167 HD
ATOM     48  C   UNL     1       4.133   1.203   6.616  1.00  0.00     0.037 A 
ATOM     49  C   UNL     1      -0.852   6.363   4.503  1.00  0.00     0.037 A 
ATOM     50  C   UNL     1       3.587   2.289   7.431  1.00  0.00     0.049 A 
ATOM     51  C   UNL     1      -0.965   5.666   5.834  1.00  0.00     0.074 A 
ATOM     52  C   UNL     1       4.011   3.594   7.620  1.00  0.00     0.029 A 
ATOM     53  N   UNL     1       2.244   2.247   7.793  1.00  0.00    -0.354 N 
ATOM     54  N   UNL     1      -0.141   4.743   6.262  1.00  0.00    -0.248 NA
ATOM     55  C   UNL     1      -1.934   6.089   6.835  1.00  0.00     0.031 C 
ATOM     56  C   UNL     1       2.872   4.362   7.988  1.00  0.00     0.029 A 
ATOM     57  C   UNL     1       1.768   3.523   8.028  1.00  0.00     0.049 A 
ATOM     58  H   UNL     1       1.709   1.424   7.870  1.00  0.00     0.167 HD
ATOM     59  C   UNL     1      -0.383   4.529   7.593  1.00  0.00     0.074 A 
ATOM     60  C   UNL     1      -1.529   5.374   7.895  1.00  0.00     0.031 C 
ATOM     61  C   UNL     1       0.380   3.736   8.403  1.00  0.00     0.037 A 
BRANCH  48  62
ATOM     62  C   UNL     1       5.396   0.453   7.002  1.00  0.00     0.064 A 
ATOM     63  C   UNL     1       6.110   0.842   8.164  1.00  0.00     0.173 A 
ATOM     64  C   UNL     1       6.006  -0.587   6.274  1.00  0.00     0.173 A 
ATOM     65  F   UNL     1       5.634   1.780   8.995  1.00  0.00    -0.203 F 
ATOM     66  C   UNL     1       7.345   0.292   8.521  1.00  0.00     0.198 A 
ATOM     67  C   UNL     1       7.247  -1.137   6.632  1.00  0.00     0.198 A 
ATOM     68  F   UNL     1       5.431  -1.133   5.201  1.00  0.00    -0.203 F 
ATOM     69  F   UNL     1       7.977   0.734   9.618  1.00  0.00    -0.200 F 
ATOM     70  C   UNL     1       7.921  -0.691   7.749  1.00  0.00     0.200 A 
ATOM     71  F   UNL     1       7.785  -2.107   5.877  1.00  0.00    -0.200 F 
ATOM     72  F   UNL     1       9.109  -1.213   8.083  1.00  0.00    -0.200 F 
ENDBRANCH  48  62
BRANCH  49  73
ATOM     73  C   UNL     1      -1.722   6.131   3.295  1.00  0.00     0.064 A 
ATOM     74  C   UNL     1      -1.644   7.052   2.220  1.00  0.00     0.173 A 
ATOM     75  C   UNL     1      -2.418   4.942   3.041  1.00  0.00     0.173 A 
ATOM     76  F   UNL     1      -1.010   8.225   2.388  1.00  0.00    -0.203 F 
ATOM     77  C   UNL     1      -2.127   6.755   0.944  1.00  0.00     0.198 A 
ATOM     78  C   UNL     1      -2.929   4.658   1.764  1.00  0.00     0.198 A 
ATOM     79  F   UNL     1      -2.547   4.010   3.995  1.00  0.00    -0.203 F 
ATOM     80  F   UNL     1      -1.916   7.608  -0.068  1.00  0.00    -0.200 F 
ATOM     81  C   UNL     1      -2.760   5.550   0.713  1.00  0.00     0.200 A 
ATOM     82  F   UNL     1      -3.508   3.471   1.523  1.00  0.00    -0.200 F 
ATOM     83  F   UNL     1      -3.156   5.221  -0.525  1.00  0.00    -0.200 F 
ENDBRANCH  49  73
BRANCH  61  84
ATOM     84  C   UNL     1      -0.103   3.166   9.712  1.00  0.00     0.064 A 
ATOM     85  C   UNL     1      -1.462   2.957   9.998  1.00  0.00     0.173 A 
ATOM     86  C   UNL     1       0.809   2.637  10.657  1.00  0.00     0.173 A 
ATOM     87  F   UNL     1      -2.421   3.265   9.114  1.00  0.00    -0.203 F 
ATOM     88  C   UNL     1      -1.881   2.363  11.185  1.00  0.00     0.198 A 
ATOM     89  C   UNL     1       0.387   1.963  11.798  1.00  0.00     0.198 A 
ATOM     90  F   UNL     1       2.137   2.720  10.486  1.00  0.00    -0.203 F 
ATOM     91  F   UNL     1      -3.192   2.259  11.442  1.00  0.00    -0.200 F 
ATOM     92  C   UNL     1      -0.959   1.853  12.078  1.00  0.00     0.200 A 
ATOM     93  F   UNL     1       1.292   1.402  12.611  1.00  0.00    -0.200 F 
ATOM     94  F   UNL     1      -1.367   1.235  13.192  1.00  0.00    -0.200 F 
ENDBRANCH  61  84
ENDBRANCH  35  36
ENDBRANCH  28  30
ENDBRANCH  27  28
ENDBRANCH  26  27
ENDBRANCH   1  26
TORSDOF 14
