REMARK SMILES NS(=O)(=O)c1ccc(-n2nc(C(=O)OCCOC(=O)c3ccc(-c4c5nc(c(-c6c(F)c(F)c(F)c(F)c6F)c6ccc([nH]6)c(-c6c(F)c(F)c(F)c(F)c6F)c6nc(c(-c7c(F)c(F)c(F)c(F)c7F)c7ccc4[nH]7)C=C6)C=C5)cc3)cc2-c2ccc(Cl)s2)cc1
REMARK SMILES IDX 15 1 14 2 12 3 13 4 11 5 9 6 10 7 84 8 83 9 8 10 5 11 6 12
REMARK SMILES IDX 92 13 7 14 91 15 2 16 3 17 4 18 1 19 85 22 86 23 90 24 87 25
REMARK SMILES IDX 88 26 89 27 16 28 17 29 18 30 19 31 20 32 21 33 82 34 22 35
REMARK SMILES IDX 81 36 23 37 24 38 25 39 75 40 26 41 80 42 74 43 76 44 27 45
REMARK SMILES IDX 79 46 73 47 72 48 28 50 60 51 40 52 59 53 41 54 44 55 58 56
REMARK SMILES IDX 77 57 42 58 43 59 57 61 78 62 45 63 29 64 30 65 38 66 31 67
REMARK SMILES IDX 32 68 36 69 39 70 33 71 34 72 37 73 35 74 61 75 62 76 70 77
REMARK SMILES IDX 63 78 64 79 68 80 71 81 65 82 66 83 69 84 67 85 46 86 47 87
REMARK SMILES IDX 55 88 48 89 49 90 53 91 56 92 50 93 51 94 54 95 52 96
REMARK H PARENT 1 20 1 21 76 49 44 60
REMARK Flexibility Score: inf
ROOT
ATOM      1  C   UNL     1       1.377  -9.447   8.229  1.00  0.00     0.275 C 
ENDROOT
BRANCH   1   2
ATOM      2  O   UNL     1       1.647  -8.687   7.040  1.00  0.00    -0.457 OA
BRANCH   2   3
ATOM      3  C   UNL     1       0.897  -7.549   6.864  1.00  0.00     0.358 C 
ATOM      4  O   UNL     1      -0.096  -7.274   7.530  1.00  0.00    -0.244 OA
BRANCH   3   5
ATOM      5  C   UNL     1       1.457  -6.690   5.810  1.00  0.00     0.171 A 
ATOM      6  N   UNL     1       1.745  -5.004   4.522  1.00  0.00    -0.231 N 
ATOM      7  N   UNL     1       1.129  -5.389   5.666  1.00  0.00    -0.160 NA
ATOM      8  C   UNL     1       2.557  -5.999   4.003  1.00  0.00     0.085 A 
ATOM      9  C   UNL     1       2.410  -7.081   4.837  1.00  0.00     0.068 A 
BRANCH   6  10
ATOM     10  C   UNL     1       1.402  -3.775   3.910  1.00  0.00     0.065 A 
ATOM     11  C   UNL     1       0.869  -1.369   2.633  1.00  0.00     0.082 A 
ATOM     12  C   UNL     1       0.708  -2.568   1.934  1.00  0.00     0.024 A 
ATOM     13  C   UNL     1       1.275  -1.366   3.974  1.00  0.00     0.024 A 
ATOM     14  C   UNL     1       0.990  -3.773   2.570  1.00  0.00     0.030 A 
ATOM     15  C   UNL     1       1.513  -2.579   4.629  1.00  0.00     0.030 A 
BRANCH  11  16
ATOM     16  S   UNL     1       0.579   0.160   1.795  1.00  0.00     0.238 S 
ATOM     17  O   UNL     1       1.337   1.206   2.433  1.00  0.00    -0.207 OA
ATOM     18  O   UNL     1      -0.837   0.269   1.521  1.00  0.00    -0.207 OA
BRANCH  16  19
ATOM     19  N   UNL     1       1.323  -0.075   0.303  1.00  0.00    -0.225 NA
ATOM     20  H   UNL     1       1.212   0.763  -0.268  1.00  0.00     0.137 HD
ATOM     21  H   UNL     1       0.891  -0.869  -0.171  1.00  0.00     0.137 HD
ENDBRANCH  16  19
ENDBRANCH  11  16
ENDBRANCH   6  10
BRANCH   8  22
ATOM     22  C   UNL     1       3.365  -5.890   2.828  1.00  0.00     0.054 A 
ATOM     23  C   UNL     1       3.285  -6.697   1.710  1.00  0.00     0.024 A 
ATOM     24  S   UNL     1       4.577  -4.689   2.657  1.00  0.00    -0.122 S 
ATOM     25  C   UNL     1       4.172  -6.273   0.677  1.00  0.00     0.033 A 
ATOM     26  C   UNL     1       4.914  -5.192   1.078  1.00  0.00     0.094 A 
ATOM     27  Cl  UNL     1       6.088  -4.356   0.147  1.00  0.00    -0.072 Cl
ENDBRANCH   8  22
ENDBRANCH   3   5
ENDBRANCH   2   3
ENDBRANCH   1   2
BRANCH   1  28
ATOM     28  C   UNL     1       2.162  -8.911   9.418  1.00  0.00     0.275 C 
BRANCH  28  29
ATOM     29  O   UNL     1       1.673  -7.633   9.817  1.00  0.00    -0.458 OA
BRANCH  29  30
ATOM     30  C   UNL     1       2.337  -6.571   9.306  1.00  0.00     0.338 C 
ATOM     31  O   UNL     1       3.125  -6.573   8.375  1.00  0.00    -0.246 OA
BRANCH  30  32
ATOM     32  C   UNL     1       2.154  -5.433  10.209  1.00  0.00     0.060 A 
ATOM     33  C   UNL     1       2.693  -4.203   9.823  1.00  0.00     0.016 A 
ATOM     34  C   UNL     1       1.746  -5.686  11.526  1.00  0.00     0.016 A 
ATOM     35  C   UNL     1       2.996  -3.286  10.807  1.00  0.00     0.010 A 
ATOM     36  C   UNL     1       2.073  -4.788  12.506  1.00  0.00     0.010 A 
ATOM     37  C   UNL     1       2.760  -3.634  12.143  1.00  0.00    -0.014 A 
BRANCH  37  38
ATOM     38  C   UNL     1       3.106  -2.692  13.184  1.00  0.00     0.031 A 
ATOM     39  C   UNL     1       2.158  -1.557  13.222  1.00  0.00     0.074 A 
ATOM     40  C   UNL     1       4.078  -2.945  14.083  1.00  0.00     0.049 A 
ATOM     41  N   UNL     1       2.399  -0.328  12.912  1.00  0.00    -0.248 NA
ATOM     42  C   UNL     1       0.728  -1.852  13.420  1.00  0.00     0.031 C 
ATOM     43  C   UNL     1       4.838  -4.189  14.247  1.00  0.00     0.029 A 
ATOM     44  N   UNL     1       4.525  -2.176  15.115  1.00  0.00    -0.354 N 
ATOM     45  C   UNL     1       1.196   0.345  13.107  1.00  0.00     0.074 A 
ATOM     46  C   UNL     1       0.177  -0.662  13.181  1.00  0.00     0.031 C 
ATOM     47  C   UNL     1       5.477  -4.171  15.440  1.00  0.00     0.029 A 
ATOM     48  C   UNL     1       5.282  -2.870  16.054  1.00  0.00     0.049 A 
ATOM     49  H   UNL     1       4.329  -1.214  15.190  1.00  0.00     0.167 HD
ATOM     50  C   UNL     1       1.211   1.633  13.546  1.00  0.00     0.037 A 
ATOM     51  C   UNL     1       5.660  -2.408  17.272  1.00  0.00     0.037 A 
ATOM     52  C   UNL     1       2.525   2.200  13.355  1.00  0.00     0.049 A 
ATOM     53  C   UNL     1       5.565  -0.930  17.227  1.00  0.00     0.074 A 
ATOM     54  C   UNL     1       3.288   2.622  12.290  1.00  0.00     0.029 A 
ATOM     55  N   UNL     1       3.375   1.975  14.405  1.00  0.00    -0.354 N 
ATOM     56  N   UNL     1       6.346  -0.183  16.496  1.00  0.00    -0.248 NA
ATOM     57  C   UNL     1       4.342  -0.286  17.690  1.00  0.00     0.031 C 
ATOM     58  C   UNL     1       4.648   2.451  12.690  1.00  0.00     0.029 A 
ATOM     59  C   UNL     1       4.678   1.980  14.002  1.00  0.00     0.049 A 
ATOM     60  H   UNL     1       3.082   1.828  15.334  1.00  0.00     0.167 HD
ATOM     61  C   UNL     1       5.527   0.838  16.050  1.00  0.00     0.074 A 
ATOM     62  C   UNL     1       4.375   0.822  16.944  1.00  0.00     0.031 C 
ATOM     63  C   UNL     1       5.714   1.375  14.809  1.00  0.00     0.037 A 
BRANCH  50  64
ATOM     64  C   UNL     1       0.295   2.174  14.637  1.00  0.00     0.064 A 
ATOM     65  C   UNL     1       0.484   3.510  15.054  1.00  0.00     0.173 A 
ATOM     66  C   UNL     1      -0.483   1.381  15.510  1.00  0.00     0.173 A 
ATOM     67  F   UNL     1       1.197   4.366  14.306  1.00  0.00    -0.203 F 
ATOM     68  C   UNL     1       0.036   3.972  16.295  1.00  0.00     0.198 A 
ATOM     69  C   UNL     1      -0.963   1.859  16.729  1.00  0.00     0.198 A 
ATOM     70  F   UNL     1      -0.732   0.087  15.291  1.00  0.00    -0.203 F 
ATOM     71  F   UNL     1       0.362   5.206  16.703  1.00  0.00    -0.200 F 
ATOM     72  C   UNL     1      -0.673   3.140  17.139  1.00  0.00     0.200 A 
ATOM     73  F   UNL     1      -1.637   1.028  17.539  1.00  0.00    -0.200 F 
ATOM     74  F   UNL     1      -1.038   3.553  18.360  1.00  0.00    -0.200 F 
ENDBRANCH  50  64
BRANCH  51  75
ATOM     75  C   UNL     1       5.817  -3.152  18.544  1.00  0.00     0.064 A 
ATOM     76  C   UNL     1       6.542  -2.617  19.623  1.00  0.00     0.173 A 
ATOM     77  C   UNL     1       5.014  -4.274  18.826  1.00  0.00     0.173 A 
ATOM     78  F   UNL     1       7.295  -1.520  19.452  1.00  0.00    -0.203 F 
ATOM     79  C   UNL     1       6.449  -3.158  20.911  1.00  0.00     0.198 A 
ATOM     80  C   UNL     1       4.924  -4.814  20.110  1.00  0.00     0.198 A 
ATOM     81  F   UNL     1       4.225  -4.806  17.882  1.00  0.00    -0.203 F 
ATOM     82  F   UNL     1       7.108  -2.584  21.928  1.00  0.00    -0.200 F 
ATOM     83  C   UNL     1       5.631  -4.249  21.155  1.00  0.00     0.200 A 
ATOM     84  F   UNL     1       4.096  -5.843  20.341  1.00  0.00    -0.200 F 
ATOM     85  F   UNL     1       5.490  -4.727  22.400  1.00  0.00    -0.200 F 
ENDBRANCH  51  75
BRANCH  63  86
ATOM     86  C   UNL     1       7.058   1.183  14.178  1.00  0.00     0.064 A 
ATOM     87  C   UNL     1       7.572  -0.052  13.753  1.00  0.00     0.173 A 
ATOM     88  C   UNL     1       7.817   2.330  13.912  1.00  0.00     0.173 A 
ATOM     89  F   UNL     1       6.866  -1.181  13.901  1.00  0.00    -0.203 F 
ATOM     90  C   UNL     1       8.813  -0.135  13.125  1.00  0.00     0.198 A 
ATOM     91  C   UNL     1       9.037   2.249  13.250  1.00  0.00     0.198 A 
ATOM     92  F   UNL     1       7.350   3.539  14.259  1.00  0.00    -0.203 F 
ATOM     93  F   UNL     1       9.297  -1.326  12.743  1.00  0.00    -0.200 F 
ATOM     94  C   UNL     1       9.540   1.017  12.867  1.00  0.00     0.200 A 
ATOM     95  F   UNL     1       9.712   3.371  12.965  1.00  0.00    -0.200 F 
ATOM     96  F   UNL     1      10.717   0.943  12.231  1.00  0.00    -0.200 F 
ENDBRANCH  63  86
ENDBRANCH  37  38
ENDBRANCH  30  32
ENDBRANCH  29  30
ENDBRANCH  28  29
ENDBRANCH   1  28
TORSDOF 15
