REMARK SMILES C[C@H]([C@@H](C)C(=O)OCCOC(=O)c1ccc(-c2c3nc(c(-c4c(F)c(F)c(F)c(F)c4F)c4ccc([nH]4)c(-c4c(F)c(F)c(F)c(F)c4F)c4nc(c(-c5c(F)c(F)c(F)c(F)c5F)c5ccc2[nH]5)C=C4)C=C3)cc1)[S@@](=O)c1ccc2ccccc2c1
REMARK SMILES IDX 8 1 7 2 5 3 6 4 3 5 4 6 2 7 1 8 76 9 77 10 78 11 79 12 87 13
REMARK SMILES IDX 80 14 86 15 81 16 85 17 82 18 84 19 83 20 9 21 10 22 11 23
REMARK SMILES IDX 12 24 13 25 14 26 75 27 15 28 74 29 16 30 17 31 18 32 68 33
REMARK SMILES IDX 19 34 73 35 67 36 69 37 20 38 72 39 66 40 65 41 21 43 53 44
REMARK SMILES IDX 33 45 52 46 34 47 37 48 51 49 70 50 35 51 36 52 50 54 71 55
REMARK SMILES IDX 38 56 22 57 23 58 31 59 24 60 25 61 29 62 32 63 26 64 27 65
REMARK SMILES IDX 30 66 28 67 54 68 55 69 63 70 56 71 57 72 61 73 64 74 58 75
REMARK SMILES IDX 59 76 62 77 60 78 39 79 40 80 48 81 41 82 42 83 46 84 49 85
REMARK SMILES IDX 43 86 44 87 47 88 45 89
REMARK H PARENT 69 42 37 53
REMARK Flexibility Score: inf
ROOT
ATOM      1  C   UNL     1       0.643   0.791   3.361  1.00  0.00     0.274 C 
ENDROOT
BRANCH   1   2
ATOM      2  O   UNL     1       0.839   1.006   1.947  1.00  0.00    -0.462 OA
BRANCH   2   3
ATOM      3  C   UNL     1       1.393  -0.029   1.270  1.00  0.00     0.309 C 
ATOM      4  O   UNL     1       1.744  -1.089   1.778  1.00  0.00    -0.252 OA
BRANCH   3   5
ATOM      5  C   UNL     1       1.610   0.244  -0.210  1.00  0.00     0.112 C 
ATOM      6  C   UNL     1       3.112   0.499  -0.381  1.00  0.00     0.021 C 
BRANCH   5   7
ATOM      7  C   UNL     1       0.749   1.355  -0.844  1.00  0.00     0.095 C 
ATOM      8  C   UNL     1       1.054   1.624  -2.318  1.00  0.00     0.023 C 
BRANCH   7   9
ATOM      9  S   UNL     1      -1.044   1.162  -0.538  1.00  0.00     0.057 S 
ATOM     10  O   UNL     1      -1.686   2.489  -0.825  1.00  0.00    -0.254 OA
BRANCH   9  11
ATOM     11  C   UNL     1      -1.715   0.029  -1.778  1.00  0.00     0.040 A 
ATOM     12  C   UNL     1      -3.068   0.184  -2.114  1.00  0.00     0.018 A 
ATOM     13  C   UNL     1      -1.032  -1.067  -2.310  1.00  0.00     0.026 A 
ATOM     14  C   UNL     1      -3.724  -0.733  -2.941  1.00  0.00     0.010 A 
ATOM     15  C   UNL     1      -1.676  -2.009  -3.139  1.00  0.00    -0.017 A 
ATOM     16  C   UNL     1      -3.043  -1.844  -3.450  1.00  0.00    -0.018 A 
ATOM     17  C   UNL     1      -0.993  -3.129  -3.642  1.00  0.00     0.009 A 
ATOM     18  C   UNL     1      -3.691  -2.800  -4.248  1.00  0.00     0.009 A 
ATOM     19  C   UNL     1      -1.654  -4.082  -4.419  1.00  0.00     0.001 A 
ATOM     20  C   UNL     1      -3.000  -3.916  -4.723  1.00  0.00     0.001 A 
ENDBRANCH   9  11
ENDBRANCH   7   9
ENDBRANCH   5   7
ENDBRANCH   3   5
ENDBRANCH   2   3
ENDBRANCH   1   2
BRANCH   1  21
ATOM     21  C   UNL     1      -0.738   0.205   3.655  1.00  0.00     0.275 C 
BRANCH  21  22
ATOM     22  O   UNL     1      -0.873  -1.082   3.024  1.00  0.00    -0.458 OA
BRANCH  22  23
ATOM     23  C   UNL     1      -2.002  -1.271   2.309  1.00  0.00     0.338 C 
ATOM     24  O   UNL     1      -2.939  -0.501   2.176  1.00  0.00    -0.246 OA
BRANCH  23  25
ATOM     25  C   UNL     1      -1.969  -2.594   1.667  1.00  0.00     0.060 A 
ATOM     26  C   UNL     1      -1.028  -2.865   0.673  1.00  0.00     0.016 A 
ATOM     27  C   UNL     1      -2.969  -3.520   1.963  1.00  0.00     0.016 A 
ATOM     28  C   UNL     1      -1.131  -4.036  -0.076  1.00  0.00     0.010 A 
ATOM     29  C   UNL     1      -3.033  -4.720   1.249  1.00  0.00     0.010 A 
ATOM     30  C   UNL     1      -2.142  -4.969   0.193  1.00  0.00    -0.014 A 
BRANCH  30  31
ATOM     31  C   UNL     1      -2.292  -6.175  -0.664  1.00  0.00     0.031 A 
ATOM     32  C   UNL     1      -3.507  -6.340  -1.538  1.00  0.00     0.074 A 
ATOM     33  C   UNL     1      -1.330  -7.117  -0.679  1.00  0.00     0.049 A 
ATOM     34  N   UNL     1      -3.844  -7.348  -2.304  1.00  0.00    -0.248 NA
ATOM     35  C   UNL     1      -4.470  -5.228  -1.552  1.00  0.00     0.031 C 
ATOM     36  C   UNL     1      -0.088  -7.066   0.091  1.00  0.00     0.029 A 
ATOM     37  N   UNL     1      -1.249  -8.303  -1.365  1.00  0.00    -0.354 N 
ATOM     38  C   UNL     1      -5.051  -6.991  -2.891  1.00  0.00     0.074 A 
ATOM     39  C   UNL     1      -5.412  -5.694  -2.361  1.00  0.00     0.031 C 
ATOM     40  C   UNL     1       0.635  -8.165  -0.171  1.00  0.00     0.029 A 
ATOM     41  C   UNL     1      -0.117  -9.025  -1.081  1.00  0.00     0.049 A 
ATOM     42  H   UNL     1      -1.937  -8.607  -2.001  1.00  0.00     0.167 HD
ATOM     43  C   UNL     1      -5.780  -7.671  -3.808  1.00  0.00     0.037 A 
ATOM     44  C   UNL     1       0.259 -10.256  -1.477  1.00  0.00     0.037 A 
ATOM     45  C   UNL     1      -5.426  -8.956  -4.347  1.00  0.00     0.049 A 
ATOM     46  C   UNL     1      -0.633 -11.045  -2.393  1.00  0.00     0.074 A 
ATOM     47  C   UNL     1      -6.086  -9.703  -5.308  1.00  0.00     0.029 A 
ATOM     48  N   UNL     1      -4.316  -9.692  -3.963  1.00  0.00    -0.354 N 
ATOM     49  N   UNL     1      -1.762 -10.690  -2.954  1.00  0.00    -0.248 NA
ATOM     50  C   UNL     1      -0.204 -12.414  -2.717  1.00  0.00     0.031 C 
ATOM     51  C   UNL     1      -5.396 -10.909  -5.476  1.00  0.00     0.029 A 
ATOM     52  C   UNL     1      -4.290 -10.900  -4.643  1.00  0.00     0.049 A 
ATOM     53  H   UNL     1      -3.645  -9.401  -3.304  1.00  0.00     0.167 HD
ATOM     54  C   UNL     1      -2.175 -11.783  -3.704  1.00  0.00     0.074 A 
ATOM     55  C   UNL     1      -1.166 -12.809  -3.539  1.00  0.00     0.031 C 
ATOM     56  C   UNL     1      -3.290 -11.920  -4.460  1.00  0.00     0.037 A 
BRANCH  43  57
ATOM     57  C   UNL     1      -7.045  -7.030  -4.293  1.00  0.00     0.064 A 
ATOM     58  C   UNL     1      -7.018  -5.977  -5.219  1.00  0.00     0.173 A 
ATOM     59  C   UNL     1      -8.295  -7.498  -3.864  1.00  0.00     0.173 A 
ATOM     60  F   UNL     1      -5.846  -5.492  -5.656  1.00  0.00    -0.203 F 
ATOM     61  C   UNL     1      -8.197  -5.401  -5.683  1.00  0.00     0.198 A 
ATOM     62  C   UNL     1      -9.473  -6.933  -4.345  1.00  0.00     0.198 A 
ATOM     63  F   UNL     1      -8.373  -8.508  -2.984  1.00  0.00    -0.203 F 
ATOM     64  F   UNL     1      -8.146  -4.375  -6.543  1.00  0.00    -0.200 F 
ATOM     65  C   UNL     1      -9.423  -5.883  -5.250  1.00  0.00     0.200 A 
ATOM     66  F   UNL     1     -10.658  -7.404  -3.933  1.00  0.00    -0.200 F 
ATOM     67  F   UNL     1     -10.558  -5.331  -5.702  1.00  0.00    -0.200 F 
ENDBRANCH  43  57
BRANCH  44  68
ATOM     68  C   UNL     1       1.531 -10.831  -0.970  1.00  0.00     0.064 A 
ATOM     69  C   UNL     1       2.632 -11.008  -1.817  1.00  0.00     0.173 A 
ATOM     70  C   UNL     1       1.671 -11.205   0.375  1.00  0.00     0.173 A 
ATOM     71  F   UNL     1       2.535 -10.691  -3.117  1.00  0.00    -0.203 F 
ATOM     72  C   UNL     1       3.827 -11.540  -1.338  1.00  0.00     0.198 A 
ATOM     73  C   UNL     1       2.874 -11.712   0.858  1.00  0.00     0.198 A 
ATOM     74  F   UNL     1       0.642 -11.060   1.223  1.00  0.00    -0.203 F 
ATOM     75  F   UNL     1       4.857 -11.728  -2.174  1.00  0.00    -0.200 F 
ATOM     76  C   UNL     1       3.950 -11.883   0.001  1.00  0.00     0.200 A 
ATOM     77  F   UNL     1       2.991 -12.033   2.154  1.00  0.00    -0.200 F 
ATOM     78  F   UNL     1       5.103 -12.384   0.463  1.00  0.00    -0.200 F 
ENDBRANCH  44  68
BRANCH  56  79
ATOM     79  C   UNL     1      -3.478 -13.226  -5.172  1.00  0.00     0.064 A 
ATOM     80  C   UNL     1      -3.878 -14.379  -4.481  1.00  0.00     0.173 A 
ATOM     81  C   UNL     1      -3.285 -13.320  -6.558  1.00  0.00     0.173 A 
ATOM     82  F   UNL     1      -4.056 -14.342  -3.152  1.00  0.00    -0.203 F 
ATOM     83  C   UNL     1      -4.062 -15.585  -5.152  1.00  0.00     0.198 A 
ATOM     84  C   UNL     1      -3.491 -14.523  -7.228  1.00  0.00     0.198 A 
ATOM     85  F   UNL     1      -2.904 -12.244  -7.262  1.00  0.00    -0.203 F 
ATOM     86  F   UNL     1      -4.407 -16.685  -4.467  1.00  0.00    -0.200 F 
ATOM     87  C   UNL     1      -3.875 -15.655  -6.524  1.00  0.00     0.200 A 
ATOM     88  F   UNL     1      -3.317 -14.587  -8.555  1.00  0.00    -0.200 F 
ATOM     89  F   UNL     1      -4.055 -16.816  -7.169  1.00  0.00    -0.200 F 
ENDBRANCH  56  79
ENDBRANCH  30  31
ENDBRANCH  23  25
ENDBRANCH  22  23
ENDBRANCH  21  22
ENDBRANCH   1  21
TORSDOF 14
