REMARK SMILES CCN1C(=O)C[C@@H](C(=O)Nc2cccc(C(=O)OCCOC(=O)c3ccc(-c4c5nc(c(-c6c(F)c(F)c(F)c(F)c6F)c6ccc([nH]6)c(-c6c(F)c(F)c(F)c(F)c6F)c6nc(c(-c7c(F)c(F)c(F)c(F)c7F)c7ccc4[nH]7)C=C6)C=C5)cc3)c2)S/C1=[NH+]/c1ccccc1
REMARK SMILES IDX 19 1 18 2 16 3 17 4 15 5 11 6 12 7 87 8 13 9 14 10 10 11
REMARK SMILES IDX 8 12 9 13 7 15 3 16 4 17 89 18 5 19 6 20 88 21 90 22 2 24
REMARK SMILES IDX 1 25 91 26 92 27 96 28 93 29 95 30 94 31 20 32 21 33 22 34
REMARK SMILES IDX 23 35 24 36 25 37 86 38 26 39 85 40 27 41 28 42 29 43 79 44
REMARK SMILES IDX 30 45 84 46 78 47 80 48 31 49 83 50 77 51 76 52 32 54 64 55
REMARK SMILES IDX 44 56 63 57 45 58 48 59 62 60 81 61 46 62 47 63 61 65 82 66
REMARK SMILES IDX 49 67 33 68 34 69 42 70 35 71 36 72 40 73 43 74 37 75 38 76
REMARK SMILES IDX 41 77 39 78 65 79 66 80 74 81 67 82 68 83 72 84 75 85 69 86
REMARK SMILES IDX 70 87 73 88 71 89 50 90 51 91 59 92 52 93 53 94 57 95 60 96
REMARK SMILES IDX 54 97 55 98 58 99 56 100
REMARK H PARENT 10 14 90 23 80 53 48 64
REMARK Flexibility Score: inf
ROOT
ATOM      1  C   UNL     1      -2.354   2.864   0.561  1.00  0.00     0.275 C 
ENDROOT
BRANCH   1   2
ATOM      2  O   UNL     1      -1.056   3.455   0.345  1.00  0.00    -0.458 OA
BRANCH   2   3
ATOM      3  C   UNL     1      -0.097   2.578  -0.020  1.00  0.00     0.338 C 
ATOM      4  O   UNL     1      -0.245   1.371  -0.150  1.00  0.00    -0.246 OA
BRANCH   3   5
ATOM      5  C   UNL     1       1.224   3.216  -0.197  1.00  0.00     0.062 A 
ATOM      6  C   UNL     1       3.007   4.398   0.889  1.00  0.00     0.042 A 
ATOM      7  C   UNL     1       3.895   4.044  -0.127  1.00  0.00     0.026 A 
ATOM      8  C   UNL     1       1.653   4.112   0.770  1.00  0.00     0.041 A 
ATOM      9  C   UNL     1       3.455   3.212  -1.153  1.00  0.00     0.003 A 
ATOM     10  C   UNL     1       2.139   2.748  -1.147  1.00  0.00     0.016 A 
BRANCH   6  11
ATOM     11  N   UNL     1       3.517   4.912   2.083  1.00  0.00    -0.325 N 
ATOM     12  C   UNL     1       3.283   4.493   3.374  1.00  0.00     0.238 C 
ATOM     13  O   UNL     1       3.728   5.209   4.280  1.00  0.00    -0.273 OA
ATOM     14  H   UNL     1       4.128   5.678   1.989  1.00  0.00     0.169 HD
BRANCH  12  15
ATOM     15  C   UNL     1       2.633   3.128   3.730  1.00  0.00     0.160 C 
ATOM     16  N   UNL     1       1.181   0.686   2.836  1.00  0.00    -0.191 N 
ATOM     17  C   UNL     1       2.519   0.679   3.185  1.00  0.00     0.311 C 
ATOM     18  C   UNL     1       0.294   1.582   3.418  1.00  0.00     0.319 C 
ATOM     19  O   UNL     1       3.123  -0.340   3.519  1.00  0.00    -0.247 OA
ATOM     20  C   UNL     1       3.247   1.970   2.986  1.00  0.00     0.153 C 
ATOM     21  S   UNL     1       0.841   3.220   3.739  1.00  0.00    -0.024 SA
ATOM     22  N   UNL     1      -0.941   1.412   3.770  1.00  0.00    -0.235 N 
ATOM     23  H   UNL     1      -1.475   2.219   3.952  1.00  0.00     0.313 HD
BRANCH  16  24
ATOM     24  C   UNL     1       0.719  -0.493   2.089  1.00  0.00     0.243 C 
ATOM     25  C   UNL     1       1.574  -0.812   0.858  1.00  0.00     0.054 C 
ENDBRANCH  16  24
BRANCH  22  26
ATOM     26  C   UNL     1      -1.579   0.177   3.914  1.00  0.00     0.125 A 
ATOM     27  C   UNL     1      -2.844  -0.020   3.355  1.00  0.00     0.051 A 
ATOM     28  C   UNL     1      -1.045  -0.824   4.735  1.00  0.00     0.051 A 
ATOM     29  C   UNL     1      -3.538  -1.216   3.563  1.00  0.00     0.004 A 
ATOM     30  C   UNL     1      -1.726  -2.025   4.933  1.00  0.00     0.004 A 
ATOM     31  C   UNL     1      -2.973  -2.221   4.345  1.00  0.00     0.000 A 
ENDBRANCH  22  26
ENDBRANCH  12  15
ENDBRANCH   6  11
ENDBRANCH   3   5
ENDBRANCH   2   3
ENDBRANCH   1   2
BRANCH   1  32
ATOM     32  C   UNL     1      -3.227   2.975  -0.689  1.00  0.00     0.275 C 
BRANCH  32  33
ATOM     33  O   UNL     1      -2.699   2.179  -1.770  1.00  0.00    -0.458 OA
BRANCH  33  34
ATOM     34  C   UNL     1      -1.951   2.859  -2.668  1.00  0.00     0.338 C 
ATOM     35  O   UNL     1      -1.712   4.054  -2.685  1.00  0.00    -0.246 OA
BRANCH  34  36
ATOM     36  C   UNL     1      -1.357   1.938  -3.649  1.00  0.00     0.060 A 
ATOM     37  C   UNL     1      -0.263   1.169  -3.272  1.00  0.00     0.016 A 
ATOM     38  C   UNL     1      -1.747   1.976  -4.983  1.00  0.00     0.016 A 
ATOM     39  C   UNL     1       0.524   0.535  -4.220  1.00  0.00     0.010 A 
ATOM     40  C   UNL     1      -1.041   1.215  -5.923  1.00  0.00     0.010 A 
ATOM     41  C   UNL     1       0.117   0.505  -5.553  1.00  0.00    -0.014 A 
BRANCH  41  42
ATOM     42  C   UNL     1       0.891  -0.287  -6.543  1.00  0.00     0.031 A 
ATOM     43  C   UNL     1       1.427   0.377  -7.778  1.00  0.00     0.074 A 
ATOM     44  C   UNL     1       1.098  -1.604  -6.335  1.00  0.00     0.049 A 
ATOM     45  N   UNL     1       1.895  -0.167  -8.871  1.00  0.00    -0.248 NA
ATOM     46  C   UNL     1       1.427   1.849  -7.793  1.00  0.00     0.031 C 
ATOM     47  C   UNL     1       0.702  -2.352  -5.137  1.00  0.00     0.029 A 
ATOM     48  N   UNL     1       1.686  -2.556  -7.130  1.00  0.00    -0.354 N 
ATOM     49  C   UNL     1       2.177   0.888  -9.728  1.00  0.00     0.074 A 
ATOM     50  C   UNL     1       1.845   2.108  -9.025  1.00  0.00     0.031 C 
ATOM     51  C   UNL     1       1.074  -3.632  -5.267  1.00  0.00     0.029 A 
ATOM     52  C   UNL     1       1.619  -3.824  -6.602  1.00  0.00     0.049 A 
ATOM     53  H   UNL     1       2.112  -2.352  -7.994  1.00  0.00     0.167 HD
ATOM     54  C   UNL     1       2.656   0.828 -10.992  1.00  0.00     0.037 A 
ATOM     55  C   UNL     1       1.889  -5.020  -7.157  1.00  0.00     0.037 A 
ATOM     56  C   UNL     1       3.030  -0.397 -11.650  1.00  0.00     0.049 A 
ATOM     57  C   UNL     1       2.333  -5.059  -8.591  1.00  0.00     0.074 A 
ATOM     58  C   UNL     1       3.572  -0.567 -12.911  1.00  0.00     0.029 A 
ATOM     59  N   UNL     1       2.899  -1.662 -11.096  1.00  0.00    -0.354 N 
ATOM     60  N   UNL     1       2.577  -4.063  -9.408  1.00  0.00    -0.248 NA
ATOM     61  C   UNL     1       2.509  -6.387  -9.192  1.00  0.00     0.031 C 
ATOM     62  C   UNL     1       3.708  -1.938 -13.145  1.00  0.00     0.029 A 
ATOM     63  C   UNL     1       3.308  -2.621 -12.008  1.00  0.00     0.049 A 
ATOM     64  H   UNL     1       2.564  -1.850 -10.189  1.00  0.00     0.167 HD
ATOM     65  C   UNL     1       2.955  -4.642 -10.610  1.00  0.00     0.074 A 
ATOM     66  C   UNL     1       2.929  -6.076 -10.410  1.00  0.00     0.031 C 
ATOM     67  C   UNL     1       3.285  -4.043 -11.779  1.00  0.00     0.037 A 
BRANCH  54  68
ATOM     68  C   UNL     1       2.756   2.104 -11.776  1.00  0.00     0.064 A 
ATOM     69  C   UNL     1       3.729   3.077 -11.508  1.00  0.00     0.173 A 
ATOM     70  C   UNL     1       1.898   2.319 -12.868  1.00  0.00     0.173 A 
ATOM     71  F   UNL     1       4.565   2.927 -10.469  1.00  0.00    -0.203 F 
ATOM     72  C   UNL     1       3.831   4.222 -12.294  1.00  0.00     0.198 A 
ATOM     73  C   UNL     1       2.022   3.450 -13.669  1.00  0.00     0.198 A 
ATOM     74  F   UNL     1       0.951   1.418 -13.171  1.00  0.00    -0.203 F 
ATOM     75  F   UNL     1       4.747   5.155 -12.000  1.00  0.00    -0.200 F 
ATOM     76  C   UNL     1       2.986   4.403 -13.380  1.00  0.00     0.200 A 
ATOM     77  F   UNL     1       1.213   3.614 -14.725  1.00  0.00    -0.200 F 
ATOM     78  F   UNL     1       3.099   5.497 -14.146  1.00  0.00    -0.200 F 
ENDBRANCH  54  68
BRANCH  55  79
ATOM     79  C   UNL     1       1.669  -6.276  -6.388  1.00  0.00     0.064 A 
ATOM     80  C   UNL     1       2.740  -7.123  -6.074  1.00  0.00     0.173 A 
ATOM     81  C   UNL     1       0.386  -6.671  -5.977  1.00  0.00     0.173 A 
ATOM     82  F   UNL     1       3.982  -6.804  -6.465  1.00  0.00    -0.203 F 
ATOM     83  C   UNL     1       2.534  -8.326  -5.401  1.00  0.00     0.198 A 
ATOM     84  C   UNL     1       0.186  -7.854  -5.270  1.00  0.00     0.198 A 
ATOM     85  F   UNL     1      -0.677  -5.901  -6.252  1.00  0.00    -0.203 F 
ATOM     86  F   UNL     1       3.568  -9.145  -5.167  1.00  0.00    -0.200 F 
ATOM     87  C   UNL     1       1.258  -8.687  -4.994  1.00  0.00     0.200 A 
ATOM     88  F   UNL     1      -1.046  -8.189  -4.862  1.00  0.00    -0.200 F 
ATOM     89  F   UNL     1       1.061  -9.844  -4.346  1.00  0.00    -0.200 F 
ENDBRANCH  55  79
BRANCH  67  90
ATOM     90  C   UNL     1       3.678  -4.934 -12.919  1.00  0.00     0.064 A 
ATOM     91  C   UNL     1       2.730  -5.706 -13.605  1.00  0.00     0.173 A 
ATOM     92  C   UNL     1       5.008  -4.974 -13.361  1.00  0.00     0.173 A 
ATOM     93  F   UNL     1       1.449  -5.717 -13.205  1.00  0.00    -0.203 F 
ATOM     94  C   UNL     1       3.104  -6.500 -14.685  1.00  0.00     0.198 A 
ATOM     95  C   UNL     1       5.372  -5.743 -14.462  1.00  0.00     0.198 A 
ATOM     96  F   UNL     1       5.950  -4.250 -12.738  1.00  0.00    -0.203 F 
ATOM     97  F   UNL     1       2.191  -7.263 -15.301  1.00  0.00    -0.200 F 
ATOM     98  C   UNL     1       4.422  -6.508 -15.120  1.00  0.00     0.200 A 
ATOM     99  F   UNL     1       6.642  -5.738 -14.889  1.00  0.00    -0.200 F 
ATOM    100  F   UNL     1       4.777  -7.260 -16.170  1.00  0.00    -0.200 F 
ENDBRANCH  67  90
ENDBRANCH  41  42
ENDBRANCH  34  36
ENDBRANCH  33  34
ENDBRANCH  32  33
ENDBRANCH   1  32
TORSDOF 15
