REMARK SMILES C[C@H](CNc1cccc(F)c1C(=O)OCCOC(=O)c1ccc(-c2c3nc(c(-c4c(F)c(F)c(F)c(F)c4F)c4ccc([nH]4)c(-c4c(F)c(F)c(F)c(F)c4F)c4nc(c(-c5c(F)c(F)c(F)c(F)c5F)c5ccc2[nH]5)C=C4)C=C3)cc1)C[NH+]1CCCC1
REMARK SMILES IDX 14 1 12 2 13 3 11 4 5 5 6 6 7 7 9 8 8 9 10 10 4 11 3 13 2 14
REMARK SMILES IDX 1 15 83 16 84 17 85 18 88 19 86 21 87 22 15 23 16 24 17 25
REMARK SMILES IDX 18 26 19 27 20 28 21 29 82 30 22 31 81 32 23 33 24 34 25 35
REMARK SMILES IDX 75 36 26 37 80 38 74 39 76 40 27 41 79 42 73 43 72 44 28 46
REMARK SMILES IDX 60 47 40 48 59 49 41 50 44 51 58 52 77 53 42 54 43 55 57 57
REMARK SMILES IDX 78 58 45 59 29 60 30 61 38 62 31 63 32 64 36 65 39 66 33 67
REMARK SMILES IDX 34 68 37 69 35 70 61 71 62 72 70 73 63 74 64 75 68 76 71 77
REMARK SMILES IDX 65 78 66 79 69 80 67 81 46 82 47 83 55 84 48 85 49 86 53 87
REMARK SMILES IDX 56 88 50 89 51 90 54 91 52 92
REMARK H PARENT 4 12 84 20 76 45 44 56
REMARK Flexibility Score: inf
ROOT
ATOM      1  O   UNL     1       5.227  -0.360   2.607  1.00  0.00    -0.458 OA
ENDROOT
BRANCH   1   2
ATOM      2  C   UNL     1       4.724  -1.222   1.686  1.00  0.00     0.343 C 
ATOM      3  O   UNL     1       4.203  -2.306   1.902  1.00  0.00    -0.246 OA
BRANCH   2   4
ATOM      4  C   UNL     1       4.947  -0.691   0.337  1.00  0.00     0.118 A 
ATOM      5  C   UNL     1       3.883  -0.312  -0.500  1.00  0.00     0.052 A 
ATOM      6  C   UNL     1       4.185   0.102  -1.809  1.00  0.00     0.027 A 
ATOM      7  C   UNL     1       5.505   0.161  -2.264  1.00  0.00     0.005 A 
ATOM      8  C   UNL     1       6.262  -0.638  -0.125  1.00  0.00     0.139 A 
ATOM      9  C   UNL     1       6.547  -0.200  -1.415  1.00  0.00     0.040 A 
ATOM     10  F   UNL     1       7.282  -1.000   0.666  1.00  0.00    -0.206 F 
BRANCH   5  11
ATOM     11  N   UNL     1       2.597  -0.092  -0.016  1.00  0.00    -0.384 N 
ATOM     12  H   UNL     1       2.463   0.617   0.654  1.00  0.00     0.160 HD
BRANCH  11  13
ATOM     13  C   UNL     1       1.442  -0.859  -0.453  1.00  0.00     0.122 C 
BRANCH  13  14
ATOM     14  C   UNL     1       0.831  -1.769   0.635  1.00  0.00     0.060 C 
ATOM     15  C   UNL     1       0.975  -1.287   2.085  1.00  0.00     0.015 C 
BRANCH  14  16
ATOM     16  C   UNL     1      -0.680  -1.990   0.374  1.00  0.00     0.267 C 
BRANCH  16  17
ATOM     17  N   UNL     1      -0.944  -2.241  -1.049  1.00  0.00    -0.335 N 
ATOM     18  C   UNL     1      -1.713  -1.149  -1.667  1.00  0.00     0.262 C 
ATOM     19  C   UNL     1      -1.741  -3.451  -1.282  1.00  0.00     0.262 C 
ATOM     20  H   UNL     1      -0.014  -2.334  -1.458  1.00  0.00     0.348 HD
ATOM     21  C   UNL     1      -3.156  -1.504  -1.407  1.00  0.00     0.067 C 
ATOM     22  C   UNL     1      -3.194  -3.017  -1.374  1.00  0.00     0.067 C 
ENDBRANCH  16  17
ENDBRANCH  14  16
ENDBRANCH  13  14
ENDBRANCH  11  13
ENDBRANCH   5  11
ENDBRANCH   2   4
ENDBRANCH   1   2
BRANCH   1  23
ATOM     23  C   UNL     1       5.178  -0.821   3.970  1.00  0.00     0.275 C 
BRANCH  23  24
ATOM     24  C   UNL     1       4.892   0.347   4.915  1.00  0.00     0.275 C 
BRANCH  24  25
ATOM     25  O   UNL     1       3.581   0.892   4.652  1.00  0.00    -0.458 OA
BRANCH  25  26
ATOM     26  C   UNL     1       3.564   2.107   4.051  1.00  0.00     0.338 C 
ATOM     27  O   UNL     1       4.508   2.829   3.792  1.00  0.00    -0.246 OA
BRANCH  26  28
ATOM     28  C   UNL     1       2.201   2.381   3.559  1.00  0.00     0.060 A 
ATOM     29  C   UNL     1       1.956   2.061   2.231  1.00  0.00     0.016 A 
ATOM     30  C   UNL     1       1.215   3.009   4.312  1.00  0.00     0.016 A 
ATOM     31  C   UNL     1       0.712   2.312   1.646  1.00  0.00     0.010 A 
ATOM     32  C   UNL     1      -0.036   3.283   3.724  1.00  0.00     0.010 A 
ATOM     33  C   UNL     1      -0.302   2.927   2.389  1.00  0.00    -0.014 A 
BRANCH  33  34
ATOM     34  C   UNL     1      -1.586   3.267   1.710  1.00  0.00     0.031 A 
ATOM     35  C   UNL     1      -1.752   4.627   1.100  1.00  0.00     0.074 A 
ATOM     36  C   UNL     1      -2.577   2.360   1.591  1.00  0.00     0.049 A 
ATOM     37  N   UNL     1      -2.783   5.131   0.472  1.00  0.00    -0.248 NA
ATOM     38  C   UNL     1      -0.617   5.551   1.240  1.00  0.00     0.031 C 
ATOM     39  C   UNL     1      -2.527   1.012   2.142  1.00  0.00     0.029 A 
ATOM     40  N   UNL     1      -3.798   2.411   0.951  1.00  0.00    -0.354 N 
ATOM     41  C   UNL     1      -2.464   6.461   0.237  1.00  0.00     0.074 A 
ATOM     42  C   UNL     1      -1.115   6.664   0.721  1.00  0.00     0.031 C 
ATOM     43  C   UNL     1      -3.623   0.340   1.754  1.00  0.00     0.029 A 
ATOM     44  C   UNL     1      -4.482   1.211   0.952  1.00  0.00     0.049 A 
ATOM     45  H   UNL     1      -4.149   3.229   0.532  1.00  0.00     0.167 HD
ATOM     46  C   UNL     1      -3.256   7.431  -0.277  1.00  0.00     0.037 A 
ATOM     47  C   UNL     1      -5.645   0.861   0.350  1.00  0.00     0.037 A 
ATOM     48  C   UNL     1      -4.588   7.210  -0.779  1.00  0.00     0.049 A 
ATOM     49  C   UNL     1      -6.435   1.938  -0.361  1.00  0.00     0.074 A 
ATOM     50  C   UNL     1      -5.476   8.136  -1.297  1.00  0.00     0.029 A 
ATOM     51  N   UNL     1      -5.221   5.977  -0.830  1.00  0.00    -0.354 N 
ATOM     52  N   UNL     1      -6.112   3.188  -0.592  1.00  0.00    -0.248 NA
ATOM     53  C   UNL     1      -7.768   1.567  -0.864  1.00  0.00     0.031 C 
ATOM     54  C   UNL     1      -6.670   7.476  -1.600  1.00  0.00     0.029 A 
ATOM     55  C   UNL     1      -6.501   6.126  -1.341  1.00  0.00     0.049 A 
ATOM     56  H   UNL     1      -4.821   5.124  -0.546  1.00  0.00     0.167 HD
ATOM     57  C   UNL     1      -7.210   3.754  -1.229  1.00  0.00     0.074 A 
ATOM     58  C   UNL     1      -8.165   2.689  -1.445  1.00  0.00     0.031 C 
ATOM     59  C   UNL     1      -7.437   5.051  -1.549  1.00  0.00     0.037 A 
BRANCH  46  60
ATOM     60  C   UNL     1      -2.755   8.843  -0.203  1.00  0.00     0.064 A 
ATOM     61  C   UNL     1      -3.355   9.739   0.699  1.00  0.00     0.173 A 
ATOM     62  C   UNL     1      -1.718   9.324  -1.012  1.00  0.00     0.173 A 
ATOM     63  F   UNL     1      -4.353   9.329   1.496  1.00  0.00    -0.203 F 
ATOM     64  C   UNL     1      -2.940  11.063   0.781  1.00  0.00     0.198 A 
ATOM     65  C   UNL     1      -1.282  10.643  -0.902  1.00  0.00     0.198 A 
ATOM     66  F   UNL     1      -1.099   8.505  -1.875  1.00  0.00    -0.203 F 
ATOM     67  F   UNL     1      -3.548  11.902   1.631  1.00  0.00    -0.200 F 
ATOM     68  C   UNL     1      -1.898  11.513  -0.013  1.00  0.00     0.200 A 
ATOM     69  F   UNL     1      -0.252  11.070  -1.647  1.00  0.00    -0.200 F 
ATOM     70  F   UNL     1      -1.480  12.783   0.085  1.00  0.00    -0.200 F 
ENDBRANCH  46  60
BRANCH  47  71
ATOM     71  C   UNL     1      -6.120  -0.565   0.311  1.00  0.00     0.064 A 
ATOM     72  C   UNL     1      -6.317  -1.342   1.460  1.00  0.00     0.173 A 
ATOM     73  C   UNL     1      -6.348  -1.203  -0.925  1.00  0.00     0.173 A 
ATOM     74  F   UNL     1      -6.170  -0.798   2.676  1.00  0.00    -0.203 F 
ATOM     75  C   UNL     1      -6.637  -2.700   1.376  1.00  0.00     0.198 A 
ATOM     76  C   UNL     1      -6.710  -2.548  -1.008  1.00  0.00     0.198 A 
ATOM     77  F   UNL     1      -6.199  -0.520  -2.070  1.00  0.00    -0.203 F 
ATOM     78  F   UNL     1      -6.736  -3.431   2.495  1.00  0.00    -0.200 F 
ATOM     79  C   UNL     1      -6.830  -3.303   0.143  1.00  0.00     0.200 A 
ATOM     80  F   UNL     1      -6.907  -3.113  -2.208  1.00  0.00    -0.200 F 
ATOM     81  F   UNL     1      -7.120  -4.609   0.065  1.00  0.00    -0.200 F 
ENDBRANCH  47  71
BRANCH  59  82
ATOM     82  C   UNL     1      -8.786   5.403  -2.112  1.00  0.00     0.064 A 
ATOM     83  C   UNL     1      -8.921   5.885  -3.422  1.00  0.00     0.173 A 
ATOM     84  C   UNL     1      -9.940   5.348  -1.312  1.00  0.00     0.173 A 
ATOM     85  F   UNL     1      -7.850   5.966  -4.226  1.00  0.00    -0.203 F 
ATOM     86  C   UNL     1     -10.155   6.315  -3.904  1.00  0.00     0.198 A 
ATOM     87  C   UNL     1     -11.177   5.748  -1.809  1.00  0.00     0.198 A 
ATOM     88  F   UNL     1      -9.869   4.887  -0.055  1.00  0.00    -0.203 F 
ATOM     89  F   UNL     1     -10.251   6.811  -5.146  1.00  0.00    -0.200 F 
ATOM     90  C   UNL     1     -11.282   6.243  -3.099  1.00  0.00     0.200 A 
ATOM     91  F   UNL     1     -12.269   5.653  -1.037  1.00  0.00    -0.200 F 
ATOM     92  F   UNL     1     -12.469   6.650  -3.567  1.00  0.00    -0.200 F 
ENDBRANCH  59  82
ENDBRANCH  33  34
ENDBRANCH  26  28
ENDBRANCH  25  26
ENDBRANCH  24  25
ENDBRANCH  23  24
ENDBRANCH   1  23
TORSDOF 16
