REMARK SMILES O=C(NCc1ccc(C(=O)OCCOC(=O)c2ccc(-c3c4nc(c(-c5c(F)c(F)c(F)c(F)c5F)c5ccc([nH]5)c(-c5c(F)c(F)c(F)c(F)c5F)c5nc(c(-c6c(F)c(F)c(F)c(F)c6F)c6ccc3[nH]6)C=C5)C=C4)cc2)o1)Nc1ccc(F)c(Cl)c1
REMARK SMILES IDX 12 1 11 2 9 3 10 4 8 5 5 6 6 7 80 8 7 9 4 10 3 11 1 12 2 13
REMARK SMILES IDX 81 14 82 17 83 18 89 19 84 20 87 21 85 22 88 23 86 24 13 25
REMARK SMILES IDX 14 26 15 27 16 28 17 29 18 30 79 31 19 32 78 33 20 34 21 35
REMARK SMILES IDX 22 36 72 37 23 38 77 39 71 40 73 41 24 42 76 43 70 44 69 45
REMARK SMILES IDX 25 47 57 48 37 49 56 50 38 51 41 52 55 53 74 54 39 55 40 56
REMARK SMILES IDX 54 58 75 59 42 60 26 61 27 62 35 63 28 64 29 65 33 66 36 67
REMARK SMILES IDX 30 68 31 69 34 70 32 71 58 72 59 73 67 74 60 75 61 76 65 77
REMARK SMILES IDX 68 78 62 79 63 80 66 81 64 82 43 83 44 84 52 85 45 86 46 87
REMARK SMILES IDX 50 88 53 89 47 90 48 91 51 92 49 93
REMARK H PARENT 3 15 81 16 73 46 41 57
REMARK Flexibility Score: inf
ROOT
ATOM      1  C   UNL     1       6.509  -0.850  -7.252  1.00  0.00     0.275 C 
ENDROOT
BRANCH   1   2
ATOM      2  O   UNL     1       6.202   0.232  -6.354  1.00  0.00    -0.456 OA
BRANCH   2   3
ATOM      3  C   UNL     1       5.263  -0.042  -5.402  1.00  0.00     0.374 C 
ATOM      4  O   UNL     1       4.603  -1.076  -5.360  1.00  0.00    -0.242 OA
BRANCH   3   5
ATOM      5  C   UNL     1       5.256   0.994  -4.397  1.00  0.00     0.211 A 
ATOM      6  C   UNL     1       4.969   1.712  -2.328  1.00  0.00     0.124 A 
ATOM      7  C   UNL     1       5.552   2.752  -3.019  1.00  0.00     0.048 A 
ATOM      8  O   UNL     1       4.730   0.675  -3.175  1.00  0.00    -0.452 OA
ATOM      9  C   UNL     1       5.747   2.287  -4.347  1.00  0.00     0.058 A 
BRANCH   6  10
ATOM     10  C   UNL     1       4.588   1.487  -0.913  1.00  0.00     0.193 C 
BRANCH  10  11
ATOM     11  N   UNL     1       3.151   1.394  -0.847  1.00  0.00    -0.331 N 
ATOM     12  O   UNL     1       1.151   0.511  -0.549  1.00  0.00    -0.248 OA
ATOM     13  C   UNL     1       2.351   0.449  -0.298  1.00  0.00     0.319 C 
ATOM     14  N   UNL     1       2.947  -0.461   0.532  1.00  0.00    -0.308 N 
ATOM     15  H   UNL     1       2.671   2.141  -1.272  1.00  0.00     0.165 HD
ATOM     16  H   UNL     1       3.910  -0.358   0.710  1.00  0.00     0.171 HD
BRANCH  14  17
ATOM     17  C   UNL     1       2.279  -1.538   1.152  1.00  0.00     0.044 A 
ATOM     18  C   UNL     1       2.817  -2.042   2.343  1.00  0.00     0.029 A 
ATOM     19  C   UNL     1       1.085  -2.072   0.651  1.00  0.00     0.049 A 
ATOM     20  C   UNL     1       2.091  -2.958   3.102  1.00  0.00     0.043 A 
ATOM     21  C   UNL     1       0.373  -3.003   1.400  1.00  0.00     0.078 A 
ATOM     22  C   UNL     1       0.854  -3.390   2.644  1.00  0.00     0.141 A 
ATOM     23  Cl  UNL     1      -1.097  -3.656   0.784  1.00  0.00    -0.081 Cl
ATOM     24  F   UNL     1       0.113  -4.163   3.443  1.00  0.00    -0.205 F 
ENDBRANCH  14  17
ENDBRANCH  10  11
ENDBRANCH   6  10
ENDBRANCH   3   5
ENDBRANCH   2   3
ENDBRANCH   1   2
BRANCH   1  25
ATOM     25  C   UNL     1       7.703  -1.678  -6.758  1.00  0.00     0.275 C 
BRANCH  25  26
ATOM     26  O   UNL     1       7.367  -2.514  -5.631  1.00  0.00    -0.458 OA
BRANCH  26  27
ATOM     27  C   UNL     1       7.608  -1.969  -4.415  1.00  0.00     0.338 C 
ATOM     28  O   UNL     1       8.088  -0.869  -4.191  1.00  0.00    -0.246 OA
BRANCH  27  29
ATOM     29  C   UNL     1       7.106  -2.841  -3.336  1.00  0.00     0.060 A 
ATOM     30  C   UNL     1       6.256  -2.267  -2.389  1.00  0.00     0.016 A 
ATOM     31  C   UNL     1       7.543  -4.158  -3.176  1.00  0.00     0.016 A 
ATOM     32  C   UNL     1       5.863  -2.982  -1.262  1.00  0.00     0.010 A 
ATOM     33  C   UNL     1       7.148  -4.880  -2.039  1.00  0.00     0.010 A 
ATOM     34  C   UNL     1       6.331  -4.285  -1.060  1.00  0.00    -0.014 A 
BRANCH  34  35
ATOM     35  C   UNL     1       6.037  -4.956   0.234  1.00  0.00     0.031 A 
ATOM     36  C   UNL     1       7.114  -5.036   1.280  1.00  0.00     0.074 A 
ATOM     37  C   UNL     1       4.800  -5.422   0.492  1.00  0.00     0.049 A 
ATOM     38  N   UNL     1       7.050  -5.500   2.502  1.00  0.00    -0.248 NA
ATOM     39  C   UNL     1       8.438  -4.512   0.909  1.00  0.00     0.031 C 
ATOM     40  C   UNL     1       3.674  -5.348  -0.435  1.00  0.00     0.029 A 
ATOM     41  N   UNL     1       4.278  -6.039   1.604  1.00  0.00    -0.354 N 
ATOM     42  C   UNL     1       8.323  -5.346   3.035  1.00  0.00     0.074 A 
ATOM     43  C   UNL     1       9.147  -4.757   2.002  1.00  0.00     0.031 C 
ATOM     44  C   UNL     1       2.594  -5.894   0.146  1.00  0.00     0.029 A 
ATOM     45  C   UNL     1       2.954  -6.397   1.471  1.00  0.00     0.049 A 
ATOM     46  H   UNL     1       4.802  -6.209   2.420  1.00  0.00     0.167 HD
ATOM     47  C   UNL     1       8.760  -5.658   4.278  1.00  0.00     0.037 A 
ATOM     48  C   UNL     1       2.136  -7.059   2.319  1.00  0.00     0.037 A 
ATOM     49  C   UNL     1       7.926  -6.215   5.309  1.00  0.00     0.049 A 
ATOM     50  C   UNL     1       2.677  -7.416   3.686  1.00  0.00     0.074 A 
ATOM     51  C   UNL     1       8.259  -6.532   6.614  1.00  0.00     0.029 A 
ATOM     52  N   UNL     1       6.587  -6.542   5.146  1.00  0.00    -0.354 N 
ATOM     53  N   UNL     1       3.838  -7.118   4.224  1.00  0.00    -0.248 NA
ATOM     54  C   UNL     1       1.789  -8.173   4.578  1.00  0.00     0.031 C 
ATOM     55  C   UNL     1       7.131  -7.085   7.230  1.00  0.00     0.029 A 
ATOM     56  C   UNL     1       6.087  -7.082   6.319  1.00  0.00     0.049 A 
ATOM     57  H   UNL     1       6.070  -6.411   4.319  1.00  0.00     0.167 HD
ATOM     58  C   UNL     1       3.785  -7.583   5.533  1.00  0.00     0.074 A 
ATOM     59  C   UNL     1       2.468  -8.155   5.715  1.00  0.00     0.031 C 
ATOM     60  C   UNL     1       4.739  -7.558   6.497  1.00  0.00     0.037 A 
BRANCH  47  61
ATOM     61  C   UNL     1      10.210  -5.428   4.584  1.00  0.00     0.064 A 
ATOM     62  C   UNL     1      10.729  -4.140   4.779  1.00  0.00     0.173 A 
ATOM     63  C   UNL     1      11.086  -6.516   4.719  1.00  0.00     0.173 A 
ATOM     64  F   UNL     1       9.936  -3.066   4.647  1.00  0.00    -0.203 F 
ATOM     65  C   UNL     1      12.077  -3.948   5.076  1.00  0.00     0.198 A 
ATOM     66  C   UNL     1      12.427  -6.323   5.039  1.00  0.00     0.198 A 
ATOM     67  F   UNL     1      10.639  -7.769   4.545  1.00  0.00    -0.203 F 
ATOM     68  F   UNL     1      12.560  -2.706   5.219  1.00  0.00    -0.200 F 
ATOM     69  C   UNL     1      12.923  -5.039   5.212  1.00  0.00     0.200 A 
ATOM     70  F   UNL     1      13.241  -7.378   5.177  1.00  0.00    -0.200 F 
ATOM     71  F   UNL     1      14.218  -4.853   5.502  1.00  0.00    -0.200 F 
ENDBRANCH  47  61
BRANCH  48  72
ATOM     72  C   UNL     1       0.721  -7.367   1.927  1.00  0.00     0.064 A 
ATOM     73  C   UNL     1      -0.377  -6.943   2.695  1.00  0.00     0.173 A 
ATOM     74  C   UNL     1       0.422  -8.088   0.759  1.00  0.00     0.173 A 
ATOM     75  F   UNL     1      -0.181  -6.374   3.892  1.00  0.00    -0.203 F 
ATOM     76  C   UNL     1      -1.693  -7.157   2.286  1.00  0.00     0.198 A 
ATOM     77  C   UNL     1      -0.894  -8.289   0.338  1.00  0.00     0.198 A 
ATOM     78  F   UNL     1       1.412  -8.594   0.008  1.00  0.00    -0.203 F 
ATOM     79  F   UNL     1      -2.707  -6.748   3.061  1.00  0.00    -0.200 F 
ATOM     80  C   UNL     1      -1.951  -7.813   1.096  1.00  0.00     0.200 A 
ATOM     81  F   UNL     1      -1.135  -8.947  -0.804  1.00  0.00    -0.200 F 
ATOM     82  F   UNL     1      -3.214  -8.014   0.697  1.00  0.00    -0.200 F 
ENDBRANCH  48  72
BRANCH  60  83
ATOM     83  C   UNL     1       4.357  -8.076   7.855  1.00  0.00     0.064 A 
ATOM     84  C   UNL     1       4.134  -9.441   8.089  1.00  0.00     0.173 A 
ATOM     85  C   UNL     1       4.231  -7.195   8.940  1.00  0.00     0.173 A 
ATOM     86  F   UNL     1       4.235 -10.323   7.084  1.00  0.00    -0.203 F 
ATOM     87  C   UNL     1       3.755  -9.899   9.348  1.00  0.00     0.198 A 
ATOM     88  C   UNL     1       3.886  -7.661  10.206  1.00  0.00     0.198 A 
ATOM     89  F   UNL     1       4.451  -5.881   8.775  1.00  0.00    -0.203 F 
ATOM     90  F   UNL     1       3.486 -11.199   9.532  1.00  0.00    -0.200 F 
ATOM     91  C   UNL     1       3.636  -9.010  10.406  1.00  0.00     0.200 A 
ATOM     92  F   UNL     1       3.790  -6.803  11.232  1.00  0.00    -0.200 F 
ATOM     93  F   UNL     1       3.272  -9.453  11.617  1.00  0.00    -0.200 F 
ENDBRANCH  60  83
ENDBRANCH  34  35
ENDBRANCH  27  29
ENDBRANCH  26  27
ENDBRANCH  25  26
ENDBRANCH   1  25
TORSDOF 14
