REMARK SMILES O=C(OCCOC(=O)[C@@H]1CCCCC[C@H]1NC(=O)c1ccc(Cl)o1)c1ccc(-c2c3nc(c(-c4c(F)c(F)c(F)c(F)c4F)c4ccc([nH]4)c(-c4c(F)c(F)c(F)c(F)c4F)c4nc(c(-c5c(F)c(F)c(F)c(F)c5F)c5ccc2[nH]5)C=C4)C=C3)cc1
REMARK SMILES IDX 5 1 4 2 3 3 2 4 1 5 25 6 26 7 87 8 27 9 86 10 28 11 29 12
REMARK SMILES IDX 30 13 80 14 31 15 85 16 79 17 81 18 32 19 84 20 78 21 77 22
REMARK SMILES IDX 33 24 65 25 45 26 64 27 46 28 49 29 63 30 82 31 47 32 48 33
REMARK SMILES IDX 62 35 83 36 50 37 34 38 35 39 43 40 36 41 37 42 41 43 44 44
REMARK SMILES IDX 38 45 39 46 42 47 40 48 66 49 67 50 75 51 68 52 69 53 73 54
REMARK SMILES IDX 76 55 70 56 71 57 74 58 72 59 51 60 52 61 60 62 53 63 54 64
REMARK SMILES IDX 58 65 61 66 55 67 56 68 59 69 57 70 6 71 7 72 8 73 9 74
REMARK SMILES IDX 10 75 11 76 12 77 15 79 14 80 13 81 16 83 17 84 18 86 19 87
REMARK SMILES IDX 20 88 24 89 21 90 22 91 23 92
REMARK H PARENT 81 23 49 34 16 85
REMARK Flexibility Score: 100.00
ROOT
ATOM      1  C   UNL     1       3.604   1.338   1.917  1.00  0.00     0.274 C 
ENDROOT
BRANCH   1   2
ATOM      2  C   UNL     1       4.219   1.747   0.580  1.00  0.00     0.275 C 
BRANCH   2   3
ATOM      3  O   UNL     1       3.571   1.183  -0.570  1.00  0.00    -0.458 OA
BRANCH   3   4
ATOM      4  C   UNL     1       4.053   0.164  -1.321  1.00  0.00     0.338 C 
ATOM      5  O   UNL     1       3.698   0.014  -2.487  1.00  0.00    -0.246 OA
BRANCH   4   6
ATOM      6  C   UNL     1       4.787  -0.946  -0.663  1.00  0.00     0.060 A 
ATOM      7  C   UNL     1       6.000  -0.824   0.019  1.00  0.00     0.016 A 
ATOM      8  C   UNL     1       4.226  -2.215  -0.814  1.00  0.00     0.016 A 
ATOM      9  C   UNL     1       6.574  -1.938   0.653  1.00  0.00     0.010 A 
ATOM     10  C   UNL     1       4.790  -3.320  -0.174  1.00  0.00     0.010 A 
ATOM     11  C   UNL     1       5.959  -3.194   0.587  1.00  0.00    -0.014 A 
BRANCH  11  12
ATOM     12  C   UNL     1       6.536  -4.392   1.256  1.00  0.00     0.031 A 
ATOM     13  C   UNL     1       6.996  -5.562   0.427  1.00  0.00     0.074 A 
ATOM     14  C   UNL     1       6.561  -4.488   2.602  1.00  0.00     0.049 A 
ATOM     15  N   UNL     1       7.506  -6.705   0.816  1.00  0.00    -0.248 NA
ATOM     16  C   UNL     1       6.830  -5.447  -1.030  1.00  0.00     0.031 C 
ATOM     17  C   UNL     1       6.065  -3.480   3.539  1.00  0.00     0.029 A 
ATOM     18  N   UNL     1       6.987  -5.510   3.416  1.00  0.00    -0.354 N 
ATOM     19  C   UNL     1       7.740  -7.424  -0.348  1.00  0.00     0.074 A 
ATOM     20  C   UNL     1       7.203  -6.647  -1.442  1.00  0.00     0.031 C 
ATOM     21  C   UNL     1       6.168  -3.952   4.794  1.00  0.00     0.029 A 
ATOM     22  C   UNL     1       6.768  -5.282   4.754  1.00  0.00     0.049 A 
ATOM     23  H   UNL     1       7.410  -6.330   3.073  1.00  0.00     0.167 HD
ATOM     24  C   UNL     1       8.416  -8.587  -0.508  1.00  0.00     0.037 A 
ATOM     25  C   UNL     1       7.038  -6.052   5.826  1.00  0.00     0.037 A 
ATOM     26  C   UNL     1       8.988  -9.345   0.568  1.00  0.00     0.049 A 
ATOM     27  C   UNL     1       7.787  -7.344   5.637  1.00  0.00     0.074 A 
ATOM     28  C   UNL     1       9.784 -10.475   0.507  1.00  0.00     0.029 A 
ATOM     29  N   UNL     1       8.822  -9.042   1.910  1.00  0.00    -0.354 N 
ATOM     30  N   UNL     1       8.157  -7.929   4.526  1.00  0.00    -0.248 NA
ATOM     31  C   UNL     1       8.207  -8.052   6.856  1.00  0.00     0.031 C 
ATOM     32  C   UNL     1      10.093 -10.861   1.818  1.00  0.00     0.029 A 
ATOM     33  C   UNL     1       9.503  -9.960   2.689  1.00  0.00     0.049 A 
ATOM     34  H   UNL     1       8.297  -8.285   2.257  1.00  0.00     0.167 HD
ATOM     35  C   UNL     1       8.909  -9.032   4.908  1.00  0.00     0.074 A 
ATOM     36  C   UNL     1       8.925  -9.048   6.356  1.00  0.00     0.031 C 
ATOM     37  C   UNL     1       9.547  -9.937   4.128  1.00  0.00     0.037 A 
BRANCH  24  38
ATOM     38  C   UNL     1       8.638  -9.045  -1.918  1.00  0.00     0.064 A 
ATOM     39  C   UNL     1       9.505  -8.339  -2.769  1.00  0.00     0.173 A 
ATOM     40  C   UNL     1       7.977 -10.166  -2.435  1.00  0.00     0.173 A 
ATOM     41  F   UNL     1      10.150  -7.251  -2.322  1.00  0.00    -0.203 F 
ATOM     42  C   UNL     1       9.664  -8.710  -4.100  1.00  0.00     0.198 A 
ATOM     43  C   UNL     1       8.160 -10.552  -3.761  1.00  0.00     0.198 A 
ATOM     44  F   UNL     1       7.143 -10.877  -1.662  1.00  0.00    -0.203 F 
ATOM     45  F   UNL     1      10.442  -7.978  -4.909  1.00  0.00    -0.200 F 
ATOM     46  C   UNL     1       8.992  -9.817  -4.595  1.00  0.00     0.200 A 
ATOM     47  F   UNL     1       7.517 -11.626  -4.240  1.00  0.00    -0.200 F 
ATOM     48  F   UNL     1       9.135 -10.167  -5.881  1.00  0.00    -0.200 F 
ENDBRANCH  24  38
BRANCH  25  49
ATOM     49  C   UNL     1       6.671  -5.592   7.190  1.00  0.00     0.064 A 
ATOM     50  C   UNL     1       7.644  -5.099   8.070  1.00  0.00     0.173 A 
ATOM     51  C   UNL     1       5.352  -5.678   7.653  1.00  0.00     0.173 A 
ATOM     52  F   UNL     1       8.923  -5.018   7.675  1.00  0.00    -0.203 F 
ATOM     53  C   UNL     1       7.317  -4.738   9.376  1.00  0.00     0.198 A 
ATOM     54  C   UNL     1       5.022  -5.300   8.954  1.00  0.00     0.198 A 
ATOM     55  F   UNL     1       4.385  -6.138   6.846  1.00  0.00    -0.203 F 
ATOM     56  F   UNL     1       8.275  -4.316  10.212  1.00  0.00    -0.200 F 
ATOM     57  C   UNL     1       6.006  -4.840   9.817  1.00  0.00     0.200 A 
ATOM     58  F   UNL     1       3.754  -5.395   9.377  1.00  0.00    -0.200 F 
ATOM     59  F   UNL     1       5.694  -4.505  11.076  1.00  0.00    -0.200 F 
ENDBRANCH  25  49
BRANCH  37  60
ATOM     60  C   UNL     1      10.390 -10.967   4.815  1.00  0.00     0.064 A 
ATOM     61  C   UNL     1       9.824 -12.064   5.476  1.00  0.00     0.173 A 
ATOM     62  C   UNL     1      11.790 -10.870   4.771  1.00  0.00     0.173 A 
ATOM     63  F   UNL     1       8.491 -12.188   5.559  1.00  0.00    -0.203 F 
ATOM     64  C   UNL     1      10.631 -13.023   6.085  1.00  0.00     0.198 A 
ATOM     65  C   UNL     1      12.592 -11.841   5.362  1.00  0.00     0.198 A 
ATOM     66  F   UNL     1      12.377  -9.836   4.149  1.00  0.00    -0.203 F 
ATOM     67  F   UNL     1      10.070 -14.046   6.744  1.00  0.00    -0.200 F 
ATOM     68  C   UNL     1      12.012 -12.914   6.021  1.00  0.00     0.200 A 
ATOM     69  F   UNL     1      13.927 -11.738   5.293  1.00  0.00    -0.200 F 
ATOM     70  F   UNL     1      12.786 -13.841   6.602  1.00  0.00    -0.200 F 
ENDBRANCH  37  60
ENDBRANCH  11  12
ENDBRANCH   4   6
ENDBRANCH   3   4
ENDBRANCH   2   3
ENDBRANCH   1   2
BRANCH   1  71
ATOM     71  O   UNL     1       3.249  -0.053   2.013  1.00  0.00    -0.462 OA
BRANCH  71  72
ATOM     72  C   UNL     1       1.911  -0.307   1.939  1.00  0.00     0.311 C 
ATOM     73  O   UNL     1       1.079   0.527   1.601  1.00  0.00    -0.252 OA
BRANCH  72  74
ATOM     74  C   UNL     1       1.515  -1.724   2.378  1.00  0.00     0.121 C 
BRANCH  74  75
ATOM     75  C   UNL     1       2.693  -2.539   2.912  1.00  0.00     0.017 C 
BRANCH  75  76
ATOM     76  C   UNL     1       2.316  -3.917   3.448  1.00  0.00     0.001 C 
BRANCH  76  77
ATOM     77  C   UNL     1       2.361  -5.006   2.386  1.00  0.00     0.000 CG0
ATOM     78  G   UNL     1       1.245  -4.928   1.357  1.00  0.00     0.000 G0
ENDBRANCH  76  77
ENDBRANCH  75  76
ENDBRANCH  74  75
BRANCH  74  79
ATOM     79  C   UNL     1       0.661  -2.374   1.262  1.00  0.00     0.096 C 
BRANCH  79  80
ATOM     80  C   UNL     1       1.189  -3.630   0.560  1.00  0.00     0.026 C 
BRANCH  80  81
ATOM     81  C   UNL     1       1.245  -4.928   1.357  1.00  0.00     0.002 CG0
ATOM     82  G   UNL     1       2.361  -5.006   2.386  1.00  0.00     0.000 G0
ENDBRANCH  80  81
ENDBRANCH  79  80
BRANCH  79  83
ATOM     83  N   UNL     1      -0.700  -2.640   1.741  1.00  0.00    -0.346 N 
ATOM     84  C   UNL     1      -1.878  -1.998   1.429  1.00  0.00     0.287 C 
ATOM     85  H   UNL     1      -0.784  -3.387   2.377  1.00  0.00     0.164 HD
ATOM     86  O   UNL     1      -2.879  -2.318   2.064  1.00  0.00    -0.266 OA
BRANCH  84  87
ATOM     87  C   UNL     1      -1.868  -0.985   0.400  1.00  0.00     0.193 A 
ATOM     88  C   UNL     1      -1.423  -0.978  -0.910  1.00  0.00     0.058 A 
ATOM     89  O   UNL     1      -2.373   0.246   0.714  1.00  0.00    -0.440 OA
ATOM     90  C   UNL     1      -1.601   0.343  -1.389  1.00  0.00     0.064 A 
ATOM     91  C   UNL     1      -2.179   1.055  -0.362  1.00  0.00     0.194 A 
ATOM     92  Cl  UNL     1      -2.610   2.717  -0.381  1.00  0.00    -0.043 Cl
ENDBRANCH  84  87
ENDBRANCH  79  83
ENDBRANCH  74  79
ENDBRANCH  72  74
ENDBRANCH  71  72
ENDBRANCH   1  71
TORSDOF 13
