REMARK SMILES COc1cccc(-c2cc(OCC(=O)OCCOC(=O)c3ccc(-c4c5nc(c(-c6c(F)c(F)c(F)c(F)c6F)c6ccc([nH]6)c(-c6c(F)c(F)c(F)c(F)c6F)c6nc(c(-c7c(F)c(F)c(F)c(F)c7F)c7ccc4[nH]7)C=C6)C=C5)cc3)nc(Nc3ccccc3Br)n2)c1
REMARK SMILES IDX 16 1 15 2 13 3 14 4 12 5 11 6 10 7 8 8 9 9 94 10 85 11 84 12
REMARK SMILES IDX 7 13 3 14 4 15 95 16 5 17 6 18 2 19 1 20 86 21 87 23 88 24
REMARK SMILES IDX 92 25 89 26 91 27 93 28 90 29 17 30 18 31 19 32 20 33 21 34
REMARK SMILES IDX 22 35 83 36 23 37 82 38 24 39 25 40 26 41 76 42 27 43 81 44
REMARK SMILES IDX 75 45 77 46 28 47 80 48 74 49 73 50 29 52 61 53 41 54 60 55
REMARK SMILES IDX 42 56 45 57 59 58 78 59 43 60 44 61 58 63 79 64 46 65 30 66
REMARK SMILES IDX 31 67 39 68 32 69 33 70 37 71 40 72 34 73 35 74 38 75 36 76
REMARK SMILES IDX 62 77 63 78 71 79 64 80 65 81 69 82 72 83 66 84 67 85 70 86
REMARK SMILES IDX 68 87 47 88 48 89 56 90 49 91 50 92 54 93 57 94 51 95 52 96
REMARK SMILES IDX 55 97 53 98
REMARK H PARENT 86 22 77 51 45 62
REMARK Flexibility Score: inf
ROOT
ATOM      1  C   UNL     1       6.748  -1.734   1.166  1.00  0.00     0.274 C 
ENDROOT
BRANCH   1   2
ATOM      2  O   UNL     1       6.798  -2.370  -0.129  1.00  0.00    -0.460 OA
BRANCH   2   3
ATOM      3  C   UNL     1       6.919  -3.723  -0.114  1.00  0.00     0.344 C 
ATOM      4  O   UNL     1       6.901  -4.412   0.902  1.00  0.00    -0.248 OA
BRANCH   3   5
ATOM      5  C   UNL     1       7.060  -4.345  -1.503  1.00  0.00     0.353 C 
BRANCH   5   6
ATOM      6  O   UNL     1       7.191  -3.481  -2.614  1.00  0.00    -0.466 OA
BRANCH   6   7
ATOM      7  C   UNL     1       6.105  -3.287  -3.420  1.00  0.00     0.219 A 
ATOM      8  C   UNL     1       3.840  -2.991  -3.925  1.00  0.00     0.080 A 
ATOM      9  C   UNL     1       4.797  -3.365  -3.007  1.00  0.00     0.097 A 
ATOM     10  N   UNL     1       4.163  -2.630  -5.170  1.00  0.00    -0.212 NA
ATOM     11  C   UNL     1       5.460  -2.567  -5.492  1.00  0.00     0.231 A 
ATOM     12  N   UNL     1       6.450  -2.912  -4.662  1.00  0.00    -0.177 NA
BRANCH   8  13
ATOM     13  C   UNL     1       2.416  -2.845  -3.604  1.00  0.00     0.004 A 
ATOM     14  C   UNL     1       0.646  -1.649  -2.411  1.00  0.00     0.119 A 
ATOM     15  C   UNL     1      -0.299  -2.509  -2.966  1.00  0.00     0.046 A 
ATOM     16  C   UNL     1       1.988  -1.804  -2.760  1.00  0.00     0.056 A 
ATOM     17  C   UNL     1       0.092  -3.504  -3.862  1.00  0.00     0.005 A 
ATOM     18  C   UNL     1       1.443  -3.674  -4.176  1.00  0.00     0.010 A 
BRANCH  14  19
ATOM     19  O   UNL     1       0.144  -0.713  -1.549  1.00  0.00    -0.497 OA
ATOM     20  C   UNL     1       1.083   0.156  -0.923  1.00  0.00     0.278 C 
ENDBRANCH  14  19
ENDBRANCH   8  13
BRANCH  11  21
ATOM     21  N   UNL     1       5.805  -2.135  -6.769  1.00  0.00    -0.323 N 
ATOM     22  H   UNL     1       6.758  -2.164  -7.014  1.00  0.00     0.170 HD
BRANCH  21  23
ATOM     23  C   UNL     1       4.907  -1.663  -7.736  1.00  0.00     0.055 A 
ATOM     24  C   UNL     1       4.706  -2.433  -8.890  1.00  0.00     0.027 A 
ATOM     25  C   UNL     1       4.089  -0.530  -7.540  1.00  0.00     0.041 A 
ATOM     26  C   UNL     1       3.699  -2.109  -9.802  1.00  0.00     0.002 A 
ATOM     27  C   UNL     1       3.087  -0.203  -8.458  1.00  0.00     0.018 A 
ATOM     28  Br  UNL     1       4.341   0.666  -6.077  1.00  0.00    -0.049 Br
ATOM     29  C   UNL     1       2.885  -1.001  -9.582  1.00  0.00     0.001 A 
ENDBRANCH  21  23
ENDBRANCH  11  21
ENDBRANCH   6   7
ENDBRANCH   5   6
ENDBRANCH   3   5
ENDBRANCH   2   3
ENDBRANCH   1   2
BRANCH   1  30
ATOM     30  C   UNL     1       5.322  -1.427   1.629  1.00  0.00     0.275 C 
BRANCH  30  31
ATOM     31  O   UNL     1       4.486  -2.602   1.621  1.00  0.00    -0.458 OA
BRANCH  31  32
ATOM     32  C   UNL     1       3.743  -2.706   0.502  1.00  0.00     0.338 C 
ATOM     33  O   UNL     1       3.751  -1.914  -0.432  1.00  0.00    -0.246 OA
BRANCH  32  34
ATOM     34  C   UNL     1       2.921  -3.923   0.453  1.00  0.00     0.060 A 
ATOM     35  C   UNL     1       3.522  -5.172   0.281  1.00  0.00     0.016 A 
ATOM     36  C   UNL     1       1.534  -3.791   0.357  1.00  0.00     0.016 A 
ATOM     37  C   UNL     1       2.735  -6.288  -0.011  1.00  0.00     0.010 A 
ATOM     38  C   UNL     1       0.743  -4.914   0.106  1.00  0.00     0.010 A 
ATOM     39  C   UNL     1       1.338  -6.170  -0.087  1.00  0.00    -0.014 A 
BRANCH  39  40
ATOM     40  C   UNL     1       0.483  -7.372  -0.240  1.00  0.00     0.031 A 
ATOM     41  C   UNL     1      -0.231  -7.679  -1.522  1.00  0.00     0.074 A 
ATOM     42  C   UNL     1       0.310  -8.162   0.833  1.00  0.00     0.049 A 
ATOM     43  N   UNL     1      -1.159  -8.571  -1.761  1.00  0.00    -0.248 NA
ATOM     44  C   UNL     1       0.149  -6.880  -2.691  1.00  0.00     0.031 C 
ATOM     45  C   UNL     1       0.964  -7.973   2.127  1.00  0.00     0.029 A 
ATOM     46  N   UNL     1      -0.483  -9.265   1.011  1.00  0.00    -0.354 N 
ATOM     47  C   UNL     1      -1.502  -8.415  -3.098  1.00  0.00     0.074 A 
ATOM     48  C   UNL     1      -0.675  -7.347  -3.621  1.00  0.00     0.031 C 
ATOM     49  C   UNL     1       0.533  -8.918   2.975  1.00  0.00     0.029 A 
ATOM     50  C   UNL     1      -0.458  -9.745   2.295  1.00  0.00     0.049 A 
ATOM     51  H   UNL     1      -1.016  -9.672   0.290  1.00  0.00     0.167 HD
ATOM     52  C   UNL     1      -2.424  -9.103  -3.814  1.00  0.00     0.037 A 
ATOM     53  C   UNL     1      -1.184 -10.717   2.875  1.00  0.00     0.037 A 
ATOM     54  C   UNL     1      -3.210 -10.195  -3.295  1.00  0.00     0.049 A 
ATOM     55  C   UNL     1      -2.191 -11.469   2.062  1.00  0.00     0.074 A 
ATOM     56  C   UNL     1      -4.147 -10.977  -3.951  1.00  0.00     0.029 A 
ATOM     57  N   UNL     1      -3.140 -10.667  -1.993  1.00  0.00    -0.354 N 
ATOM     58  N   UNL     1      -2.535 -11.293   0.810  1.00  0.00    -0.248 NA
ATOM     59  C   UNL     1      -2.912 -12.553   2.741  1.00  0.00     0.031 C 
ATOM     60  C   UNL     1      -4.656 -11.911  -3.041  1.00  0.00     0.029 A 
ATOM     61  C   UNL     1      -4.017 -11.727  -1.826  1.00  0.00     0.049 A 
ATOM     62  H   UNL     1      -2.554 -10.303  -1.291  1.00  0.00     0.167 HD
ATOM     63  C   UNL     1      -3.508 -12.244   0.547  1.00  0.00     0.074 A 
ATOM     64  C   UNL     1      -3.690 -13.006   1.767  1.00  0.00     0.031 C 
ATOM     65  C   UNL     1      -4.190 -12.465  -0.602  1.00  0.00     0.037 A 
BRANCH  52  66
ATOM     66  C   UNL     1      -2.655  -8.702  -5.241  1.00  0.00     0.064 A 
ATOM     67  C   UNL     1      -1.768  -9.072  -6.261  1.00  0.00     0.173 A 
ATOM     68  C   UNL     1      -3.828  -8.021  -5.603  1.00  0.00     0.173 A 
ATOM     69  F   UNL     1      -0.631  -9.718  -5.965  1.00  0.00    -0.203 F 
ATOM     70  C   UNL     1      -2.045  -8.770  -7.593  1.00  0.00     0.198 A 
ATOM     71  C   UNL     1      -4.109  -7.736  -6.937  1.00  0.00     0.198 A 
ATOM     72  F   UNL     1      -4.712  -7.653  -4.664  1.00  0.00    -0.203 F 
ATOM     73  F   UNL     1      -1.177  -9.120  -8.552  1.00  0.00    -0.200 F 
ATOM     74  C   UNL     1      -3.218  -8.111  -7.930  1.00  0.00     0.200 A 
ATOM     75  F   UNL     1      -5.249  -7.109  -7.261  1.00  0.00    -0.200 F 
ATOM     76  F   UNL     1      -3.490  -7.837  -9.214  1.00  0.00    -0.200 F 
ENDBRANCH  52  66
BRANCH  53  77
ATOM     77  C   UNL     1      -0.976 -11.001   4.313  1.00  0.00     0.064 A 
ATOM     78  C   UNL     1      -0.239 -12.117   4.725  1.00  0.00     0.173 A 
ATOM     79  C   UNL     1      -1.446 -10.118   5.296  1.00  0.00     0.173 A 
ATOM     80  F   UNL     1       0.216 -12.991   3.816  1.00  0.00    -0.203 F 
ATOM     81  C   UNL     1       0.024 -12.340   6.074  1.00  0.00     0.198 A 
ATOM     82  C   UNL     1      -1.166 -10.332   6.642  1.00  0.00     0.198 A 
ATOM     83  F   UNL     1      -2.147  -9.031   4.942  1.00  0.00    -0.203 F 
ATOM     84  F   UNL     1       0.721 -13.421   6.447  1.00  0.00    -0.200 F 
ATOM     85  C   UNL     1      -0.432 -11.443   7.030  1.00  0.00     0.200 A 
ATOM     86  F   UNL     1      -1.593  -9.455   7.561  1.00  0.00    -0.200 F 
ATOM     87  F   UNL     1      -0.160 -11.648   8.326  1.00  0.00    -0.200 F 
ENDBRANCH  53  77
BRANCH  65  88
ATOM     88  C   UNL     1      -5.184 -13.583  -0.590  1.00  0.00     0.064 A 
ATOM     89  C   UNL     1      -6.447 -13.425  -0.002  1.00  0.00     0.173 A 
ATOM     90  C   UNL     1      -4.875 -14.817  -1.179  1.00  0.00     0.173 A 
ATOM     91  F   UNL     1      -6.776 -12.267   0.588  1.00  0.00    -0.203 F 
ATOM     92  C   UNL     1      -7.361 -14.475   0.013  1.00  0.00     0.198 A 
ATOM     93  C   UNL     1      -5.797 -15.859  -1.175  1.00  0.00     0.198 A 
ATOM     94  F   UNL     1      -3.678 -15.011  -1.752  1.00  0.00    -0.203 F 
ATOM     95  F   UNL     1      -8.549 -14.318   0.613  1.00  0.00    -0.200 F 
ATOM     96  C   UNL     1      -7.037 -15.689  -0.575  1.00  0.00     0.200 A 
ATOM     97  F   UNL     1      -5.484 -17.031  -1.744  1.00  0.00    -0.200 F 
ATOM     98  F   UNL     1      -7.915 -16.700  -0.553  1.00  0.00    -0.200 F 
ENDBRANCH  65  88
ENDBRANCH  39  40
ENDBRANCH  32  34
ENDBRANCH  31  32
ENDBRANCH  30  31
ENDBRANCH   1  30
TORSDOF 17
