REMARK SMILES CC(C)(C)OC(=O)N1CCN(C(=O)c2ccc3c(c2)OCO3)[C@H](C(=O)OCCOC(=O)c2ccc(-c3c4nc(c(-c5c(F)c(F)c(F)c(F)c5F)c5ccc([nH]5)c(-c5c(F)c(F)c(F)c(F)c5F)c5nc(c(-c6c(F)c(F)c(F)c(F)c6F)c6ccc3[nH]6)C=C5)C=C4)cc2)C1
REMARK SMILES IDX 27 1 26 2 24 3 25 4 23 5 8 6 9 7 95 8 10 9 11 10 6 11 7 12
REMARK SMILES IDX 5 13 2 14 1 15 3 16 4 17 12 18 13 19 14 20 15 21 19 22 16 23
REMARK SMILES IDX 18 24 17 25 20 26 22 27 21 28 28 29 29 30 30 31 31 32 32 33
REMARK SMILES IDX 33 34 94 35 34 36 93 37 35 38 36 39 37 40 87 41 38 42 92 43
REMARK SMILES IDX 86 44 88 45 39 46 91 47 85 48 84 49 40 51 72 52 52 53 71 54
REMARK SMILES IDX 53 55 56 56 70 57 89 58 54 59 55 60 69 62 90 63 57 64 41 65
REMARK SMILES IDX 42 66 50 67 43 68 44 69 48 70 51 71 45 72 46 73 49 74 47 75
REMARK SMILES IDX 73 76 74 77 82 78 75 79 76 80 80 81 83 82 77 83 78 84 81 85
REMARK SMILES IDX 79 86 58 87 59 88 67 89 60 90 61 91 65 92 68 93 62 94 63 95
REMARK SMILES IDX 66 96 64 97
REMARK H PARENT 88 50 56 61
REMARK Flexibility Score: inf
ROOT
ATOM      1  C   UNL     1       5.812  -2.995   5.205  1.00  0.00     0.274 C 
ENDROOT
BRANCH   1   2
ATOM      2  O   UNL     1       4.400  -2.775   4.973  1.00  0.00    -0.460 OA
BRANCH   2   3
ATOM      3  C   UNL     1       3.849  -1.897   5.849  1.00  0.00     0.330 C 
ATOM      4  O   UNL     1       4.527  -1.222   6.607  1.00  0.00    -0.250 OA
BRANCH   3   5
ATOM      5  C   UNL     1       2.328  -1.788   5.776  1.00  0.00     0.215 C 
ATOM      6  N   UNL     1       0.812   0.029   4.703  1.00  0.00    -0.304 N 
ATOM      7  C   UNL     1       0.260   0.318   6.015  1.00  0.00     0.144 C 
ATOM      8  C   UNL     1       2.065  -0.735   4.645  1.00  0.00     0.160 C 
ATOM      9  C   UNL     1       0.279  -0.914   6.904  1.00  0.00     0.142 C 
ATOM     10  N   UNL     1       1.638  -1.434   7.077  1.00  0.00    -0.321 N 
BRANCH   6  11
ATOM     11  C   UNL     1       0.369   0.804   3.638  1.00  0.00     0.410 C 
ATOM     12  O   UNL     1      -0.451   1.702   3.758  1.00  0.00    -0.224 OA
BRANCH  11  13
ATOM     13  O   UNL     1       0.926   0.423   2.463  1.00  0.00    -0.444 OA
BRANCH  13  14
ATOM     14  C   UNL     1       0.489   1.003   1.204  1.00  0.00     0.106 C 
ATOM     15  C   UNL     1       1.118   0.096   0.136  1.00  0.00     0.056 C 
ATOM     16  C   UNL     1       1.033   2.425   1.038  1.00  0.00     0.056 C 
ATOM     17  C   UNL     1      -1.036   0.960   1.032  1.00  0.00     0.056 C 
ENDBRANCH  13  14
ENDBRANCH  11  13
ENDBRANCH   6  11
BRANCH  10  18
ATOM     18  C   UNL     1       1.904  -1.942   8.362  1.00  0.00     0.254 C 
ATOM     19  O   UNL     1       1.063  -1.990   9.259  1.00  0.00    -0.269 OA
BRANCH  18  20
ATOM     20  C   UNL     1       3.263  -2.339   8.764  1.00  0.00     0.044 A 
ATOM     21  C   UNL     1       4.156  -1.337   9.220  1.00  0.00     0.018 A 
ATOM     22  C   UNL     1       3.650  -3.679   8.702  1.00  0.00     0.064 A 
ATOM     23  C   UNL     1       5.490  -1.656   9.494  1.00  0.00     0.051 A 
ATOM     24  C   UNL     1       4.968  -3.958   9.002  1.00  0.00     0.166 A 
ATOM     25  C   UNL     1       5.866  -2.975   9.363  1.00  0.00     0.165 A 
ATOM     26  O   UNL     1       5.550  -5.186   8.934  1.00  0.00    -0.454 OA
ATOM     27  O   UNL     1       7.125  -3.460   9.535  1.00  0.00    -0.454 OA
ATOM     28  C   UNL     1       6.915  -4.863   9.276  1.00  0.00     0.468 C 
ENDBRANCH  18  20
ENDBRANCH  10  18
ENDBRANCH   3   5
ENDBRANCH   2   3
ENDBRANCH   1   2
BRANCH   1  29
ATOM     29  C   UNL     1       6.763  -1.930   4.618  1.00  0.00     0.275 C 
BRANCH  29  30
ATOM     30  O   UNL     1       6.683  -0.627   5.244  1.00  0.00    -0.458 OA
BRANCH  30  31
ATOM     31  C   UNL     1       5.837   0.244   4.643  1.00  0.00     0.338 C 
ATOM     32  O   UNL     1       5.197   0.037   3.622  1.00  0.00    -0.246 OA
BRANCH  31  33
ATOM     33  C   UNL     1       5.639   1.487   5.423  1.00  0.00     0.060 A 
ATOM     34  C   UNL     1       4.449   1.645   6.143  1.00  0.00     0.016 A 
ATOM     35  C   UNL     1       6.474   2.586   5.242  1.00  0.00     0.016 A 
ATOM     36  C   UNL     1       4.043   2.886   6.605  1.00  0.00     0.010 A 
ATOM     37  C   UNL     1       6.096   3.833   5.768  1.00  0.00     0.010 A 
ATOM     38  C   UNL     1       4.860   3.999   6.424  1.00  0.00    -0.014 A 
BRANCH  38  39
ATOM     39  C   UNL     1       4.369   5.329   6.868  1.00  0.00     0.031 A 
ATOM     40  C   UNL     1       4.136   6.414   5.855  1.00  0.00     0.074 A 
ATOM     41  C   UNL     1       4.085   5.547   8.167  1.00  0.00     0.049 A 
ATOM     42  N   UNL     1       3.881   7.684   6.045  1.00  0.00    -0.248 NA
ATOM     43  C   UNL     1       4.207   6.023   4.437  1.00  0.00     0.031 C 
ATOM     44  C   UNL     1       4.183   4.550   9.236  1.00  0.00     0.029 A 
ATOM     45  N   UNL     1       3.658   6.681   8.813  1.00  0.00    -0.354 N 
ATOM     46  C   UNL     1       3.824   8.252   4.779  1.00  0.00     0.074 A 
ATOM     47  C   UNL     1       4.062   7.191   3.825  1.00  0.00     0.031 C 
ATOM     48  C   UNL     1       3.828   5.114  10.400  1.00  0.00     0.029 A 
ATOM     49  C   UNL     1       3.567   6.531  10.177  1.00  0.00     0.049 A 
ATOM     50  H   UNL     1       3.438   7.519   8.346  1.00  0.00     0.167 HD
ATOM     51  C   UNL     1       3.602   9.547   4.453  1.00  0.00     0.037 A 
ATOM     52  C   UNL     1       3.361   7.444  11.145  1.00  0.00     0.037 A 
ATOM     53  C   UNL     1       3.304  10.581   5.412  1.00  0.00     0.049 A 
ATOM     54  C   UNL     1       3.168   8.884  10.754  1.00  0.00     0.074 A 
ATOM     55  C   UNL     1       3.022  11.915   5.180  1.00  0.00     0.029 A 
ATOM     56  N   UNL     1       3.244  10.392   6.785  1.00  0.00    -0.354 N 
ATOM     57  N   UNL     1       3.145   9.423   9.559  1.00  0.00    -0.248 NA
ATOM     58  C   UNL     1       2.983   9.847  11.848  1.00  0.00     0.031 C 
ATOM     59  C   UNL     1       2.857  12.548   6.415  1.00  0.00     0.029 A 
ATOM     60  C   UNL     1       2.964  11.595   7.414  1.00  0.00     0.049 A 
ATOM     61  H   UNL     1       3.380   9.532   7.244  1.00  0.00     0.167 HD
ATOM     62  C   UNL     1       2.916  10.777   9.755  1.00  0.00     0.074 A 
ATOM     63  C   UNL     1       2.788  10.976  11.183  1.00  0.00     0.031 C 
ATOM     64  C   UNL     1       2.825  11.770   8.837  1.00  0.00     0.037 A 
BRANCH  51  65
ATOM     65  C   UNL     1       3.721   9.948   3.011  1.00  0.00     0.064 A 
ATOM     66  C   UNL     1       2.764   9.596   2.050  1.00  0.00     0.173 A 
ATOM     67  C   UNL     1       4.786  10.770   2.606  1.00  0.00     0.173 A 
ATOM     68  F   UNL     1       1.734   8.802   2.381  1.00  0.00    -0.203 F 
ATOM     69  C   UNL     1       2.874  10.043   0.734  1.00  0.00     0.198 A 
ATOM     70  C   UNL     1       4.876  11.239   1.299  1.00  0.00     0.198 A 
ATOM     71  F   UNL     1       5.728  11.139   3.487  1.00  0.00    -0.203 F 
ATOM     72  F   UNL     1       1.965   9.668  -0.177  1.00  0.00    -0.200 F 
ATOM     73  C   UNL     1       3.922  10.873   0.363  1.00  0.00     0.200 A 
ATOM     74  F   UNL     1       5.881  12.053   0.948  1.00  0.00    -0.200 F 
ATOM     75  F   UNL     1       4.013  11.318  -0.898  1.00  0.00    -0.200 F 
ENDBRANCH  51  65
BRANCH  52  76
ATOM     76  C   UNL     1       3.407   7.041  12.577  1.00  0.00     0.064 A 
ATOM     77  C   UNL     1       2.281   7.156  13.404  1.00  0.00     0.173 A 
ATOM     78  C   UNL     1       4.595   6.571  13.161  1.00  0.00     0.173 A 
ATOM     79  F   UNL     1       1.128   7.624  12.903  1.00  0.00    -0.203 F 
ATOM     80  C   UNL     1       2.349   6.850  14.762  1.00  0.00     0.198 A 
ATOM     81  C   UNL     1       4.651   6.226  14.509  1.00  0.00     0.198 A 
ATOM     82  F   UNL     1       5.705   6.442  12.419  1.00  0.00    -0.203 F 
ATOM     83  F   UNL     1       1.277   7.037  15.543  1.00  0.00    -0.200 F 
ATOM     84  C   UNL     1       3.533   6.380  15.312  1.00  0.00     0.200 A 
ATOM     85  F   UNL     1       5.793   5.757  15.030  1.00  0.00    -0.200 F 
ATOM     86  F   UNL     1       3.599   6.089  16.618  1.00  0.00    -0.200 F 
ENDBRANCH  52  76
BRANCH  64  87
ATOM     87  C   UNL     1       2.523  13.150   9.345  1.00  0.00     0.064 A 
ATOM     88  C   UNL     1       3.464  13.894  10.072  1.00  0.00     0.173 A 
ATOM     89  C   UNL     1       1.282  13.747   9.072  1.00  0.00     0.173 A 
ATOM     90  F   UNL     1       4.659  13.363  10.373  1.00  0.00    -0.203 F 
ATOM     91  C   UNL     1       3.162  15.172  10.533  1.00  0.00     0.198 A 
ATOM     92  C   UNL     1       0.998  15.038   9.504  1.00  0.00     0.198 A 
ATOM     93  F   UNL     1       0.350  13.081   8.374  1.00  0.00    -0.203 F 
ATOM     94  F   UNL     1       4.055  15.842  11.275  1.00  0.00    -0.200 F 
ATOM     95  C   UNL     1       1.933  15.746  10.242  1.00  0.00     0.200 A 
ATOM     96  F   UNL     1      -0.183  15.598   9.206  1.00  0.00    -0.200 F 
ATOM     97  F   UNL     1       1.648  16.980  10.681  1.00  0.00    -0.200 F 
ENDBRANCH  64  87
ENDBRANCH  38  39
ENDBRANCH  31  33
ENDBRANCH  30  31
ENDBRANCH  29  30
ENDBRANCH   1  29
TORSDOF 16
