REMARK SMILES Cn1cc(C(=O)OCCOC(=O)c2ccc(-c3c4nc(c(-c5c(F)c(F)c(F)c(F)c5F)c5ccc([nH]5)c(-c5c(F)c(F)c(F)c(F)c5F)c5nc(c(-c6c(F)c(F)c(F)c(F)c6F)c6ccc3[nH]6)C=C5)C=C4)cc2)c(C(=O)Nc2ccc(-c3nc4cc(Cl)ccc4o3)cc2)n1
REMARK SMILES IDX 8 1 7 2 5 3 6 4 4 5 1 6 2 7 3 8 96 9 76 10 77 11 78 12 79 13
REMARK SMILES IDX 80 15 81 16 95 17 82 18 94 19 83 20 84 21 85 22 93 23 86 24
REMARK SMILES IDX 92 25 87 26 91 27 88 28 90 29 89 30 9 31 10 32 11 33 12 34
REMARK SMILES IDX 13 35 14 36 75 37 15 38 74 39 16 40 17 41 18 42 68 43 19 44
REMARK SMILES IDX 73 45 67 46 69 47 20 48 72 49 66 50 65 51 21 53 53 54 33 55
REMARK SMILES IDX 52 56 34 57 37 58 51 59 70 60 35 61 36 62 50 64 71 65 38 66
REMARK SMILES IDX 22 67 23 68 31 69 24 70 25 71 29 72 32 73 26 74 27 75 30 76
REMARK SMILES IDX 28 77 54 78 55 79 63 80 56 81 57 82 61 83 64 84 58 85 59 86
REMARK SMILES IDX 62 87 60 88 39 89 40 90 48 91 41 92 42 93 46 94 49 95 43 96
REMARK SMILES IDX 44 97 47 98 45 99
REMARK H PARENT 79 14 69 52 37 63
REMARK Flexibility Score: inf
ROOT
ATOM      1  C   UNL     1       2.510  -3.495  -1.841  1.00  0.00     0.275 C 
ENDROOT
BRANCH   1   2
ATOM      2  O   UNL     1       1.684  -2.496  -1.231  1.00  0.00    -0.458 OA
BRANCH   2   3
ATOM      3  C   UNL     1       1.815  -2.252   0.104  1.00  0.00     0.342 C 
ATOM      4  O   UNL     1       2.409  -2.959   0.902  1.00  0.00    -0.246 OA
BRANCH   3   5
ATOM      5  C   UNL     1       1.077  -1.059   0.440  1.00  0.00     0.111 A 
ATOM      6  C   UNL     1      -1.976   0.840   0.258  1.00  0.00     0.173 C 
ATOM      7  N   UNL     1      -0.661   0.276   0.449  1.00  0.00    -0.274 N 
ATOM      8  C   UNL     1      -0.269  -0.969   0.114  1.00  0.00     0.125 A 
ATOM      9  N   UNL     1       0.320   1.016   0.965  1.00  0.00    -0.167 NA
ATOM     10  C   UNL     1       1.418   0.215   1.014  1.00  0.00     0.165 A 
BRANCH  10  11
ATOM     11  C   UNL     1       2.635   0.836   1.626  1.00  0.00     0.277 C 
ATOM     12  O   UNL     1       2.677   2.047   1.880  1.00  0.00    -0.267 OA
ATOM     13  N   UNL     1       3.662   0.096   2.168  1.00  0.00    -0.321 N 
ATOM     14  H   UNL     1       3.847   0.291   3.115  1.00  0.00     0.170 HD
BRANCH  13  15
ATOM     15  C   UNL     1       4.486  -0.880   1.613  1.00  0.00     0.041 A 
ATOM     16  C   UNL     1       5.177  -1.725   2.482  1.00  0.00     0.027 A 
ATOM     17  C   UNL     1       4.660  -1.020   0.244  1.00  0.00     0.027 A 
ATOM     18  C   UNL     1       5.816  -2.863   1.981  1.00  0.00     0.016 A 
ATOM     19  C   UNL     1       5.351  -2.123  -0.260  1.00  0.00     0.016 A 
ATOM     20  C   UNL     1       5.809  -3.123   0.606  1.00  0.00     0.037 A 
BRANCH  20  21
ATOM     21  C   UNL     1       5.984  -4.477   0.078  1.00  0.00     0.227 A 
ATOM     22  N   UNL     1       5.917  -4.876  -1.184  1.00  0.00    -0.209 NA
ATOM     23  O   UNL     1       5.811  -5.484   0.999  1.00  0.00    -0.436 OA
ATOM     24  C   UNL     1       5.544  -6.194  -1.087  1.00  0.00     0.111 A 
ATOM     25  C   UNL     1       5.472  -6.566   0.244  1.00  0.00     0.155 A 
ATOM     26  C   UNL     1       5.182  -7.120  -2.074  1.00  0.00     0.053 A 
ATOM     27  C   UNL     1       5.052  -7.808   0.703  1.00  0.00     0.051 A 
ATOM     28  C   UNL     1       4.724  -8.374  -1.647  1.00  0.00     0.043 A 
ATOM     29  C   UNL     1       4.658  -8.713  -0.289  1.00  0.00     0.024 A 
ATOM     30  Cl  UNL     1       4.192  -9.514  -2.825  1.00  0.00    -0.084 Cl
ENDBRANCH  20  21
ENDBRANCH  13  15
ENDBRANCH  10  11
ENDBRANCH   3   5
ENDBRANCH   2   3
ENDBRANCH   1   2
BRANCH   1  31
ATOM     31  C   UNL     1       2.992  -2.961  -3.197  1.00  0.00     0.275 C 
BRANCH  31  32
ATOM     32  O   UNL     1       3.624  -1.668  -3.048  1.00  0.00    -0.458 OA
BRANCH  32  33
ATOM     33  C   UNL     1       2.818  -0.595  -3.259  1.00  0.00     0.338 C 
ATOM     34  O   UNL     1       1.669  -0.620  -3.666  1.00  0.00    -0.246 OA
BRANCH  33  35
ATOM     35  C   UNL     1       3.479   0.654  -2.799  1.00  0.00     0.060 A 
ATOM     36  C   UNL     1       2.667   1.644  -2.230  1.00  0.00     0.016 A 
ATOM     37  C   UNL     1       4.860   0.867  -2.900  1.00  0.00     0.016 A 
ATOM     38  C   UNL     1       3.220   2.855  -1.806  1.00  0.00     0.010 A 
ATOM     39  C   UNL     1       5.414   2.086  -2.477  1.00  0.00     0.010 A 
ATOM     40  C   UNL     1       4.590   3.102  -1.964  1.00  0.00    -0.014 A 
BRANCH  40  41
ATOM     41  C   UNL     1       5.090   4.494  -1.800  1.00  0.00     0.031 A 
ATOM     42  C   UNL     1       5.038   5.411  -2.994  1.00  0.00     0.074 A 
ATOM     43  C   UNL     1       5.515   4.977  -0.619  1.00  0.00     0.049 A 
ATOM     44  N   UNL     1       5.257   6.700  -3.066  1.00  0.00    -0.248 NA
ATOM     45  C   UNL     1       4.674   4.790  -4.278  1.00  0.00     0.031 C 
ATOM     46  C   UNL     1       5.599   4.226   0.629  1.00  0.00     0.029 A 
ATOM     47  N   UNL     1       5.947   6.240  -0.285  1.00  0.00    -0.354 N 
ATOM     48  C   UNL     1       5.005   7.050  -4.384  1.00  0.00     0.074 A 
ATOM     49  C   UNL     1       4.679   5.832  -5.095  1.00  0.00     0.031 C 
ATOM     50  C   UNL     1       6.058   5.043   1.597  1.00  0.00     0.029 A 
ATOM     51  C   UNL     1       6.292   6.374   1.037  1.00  0.00     0.049 A 
ATOM     52  H   UNL     1       6.003   6.979  -0.933  1.00  0.00     0.167 HD
ATOM     53  C   UNL     1       5.014   8.277  -4.954  1.00  0.00     0.037 A 
ATOM     54  C   UNL     1       6.731   7.452   1.717  1.00  0.00     0.037 A 
ATOM     55  C   UNL     1       5.371   9.494  -4.282  1.00  0.00     0.049 A 
ATOM     56  C   UNL     1       6.860   8.787   1.024  1.00  0.00     0.074 A 
ATOM     57  C   UNL     1       5.393  10.784  -4.784  1.00  0.00     0.029 A 
ATOM     58  N   UNL     1       5.795   9.568  -2.966  1.00  0.00    -0.354 N 
ATOM     59  N   UNL     1       6.532   9.125  -0.198  1.00  0.00    -0.248 NA
ATOM     60  C   UNL     1       7.415   9.896   1.819  1.00  0.00     0.031 C 
ATOM     61  C   UNL     1       5.875  11.634  -3.783  1.00  0.00     0.029 A 
ATOM     62  C   UNL     1       6.121  10.877  -2.650  1.00  0.00     0.049 A 
ATOM     63  H   UNL     1       5.855   8.805  -2.347  1.00  0.00     0.167 HD
ATOM     64  C   UNL     1       6.804  10.484  -0.306  1.00  0.00     0.074 A 
ATOM     65  C   UNL     1       7.325  10.913   0.973  1.00  0.00     0.031 C 
ATOM     66  C   UNL     1       6.630  11.302  -1.373  1.00  0.00     0.037 A 
BRANCH  53  67
ATOM     67  C   UNL     1       4.616   8.357  -6.393  1.00  0.00     0.064 A 
ATOM     68  C   UNL     1       3.267   8.286  -6.772  1.00  0.00     0.173 A 
ATOM     69  C   UNL     1       5.580   8.522  -7.395  1.00  0.00     0.173 A 
ATOM     70  F   UNL     1       2.313   8.113  -5.845  1.00  0.00    -0.203 F 
ATOM     71  C   UNL     1       2.899   8.364  -8.111  1.00  0.00     0.198 A 
ATOM     72  C   UNL     1       5.207   8.614  -8.732  1.00  0.00     0.198 A 
ATOM     73  F   UNL     1       6.881   8.591  -7.076  1.00  0.00    -0.203 F 
ATOM     74  F   UNL     1       1.609   8.263  -8.458  1.00  0.00    -0.200 F 
ATOM     75  C   UNL     1       3.869   8.531  -9.089  1.00  0.00     0.200 A 
ATOM     76  F   UNL     1       6.143   8.778  -9.677  1.00  0.00    -0.200 F 
ATOM     77  F   UNL     1       3.514   8.605 -10.380  1.00  0.00    -0.200 F 
ENDBRANCH  53  67
BRANCH  54  78
ATOM     78  C   UNL     1       7.082   7.337   3.155  1.00  0.00     0.064 A 
ATOM     79  C   UNL     1       6.286   7.933   4.143  1.00  0.00     0.173 A 
ATOM     80  C   UNL     1       8.259   6.693   3.561  1.00  0.00     0.173 A 
ATOM     81  F   UNL     1       5.172   8.594   3.797  1.00  0.00    -0.203 F 
ATOM     82  C   UNL     1       6.664   7.904   5.484  1.00  0.00     0.198 A 
ATOM     83  C   UNL     1       8.627   6.650   4.904  1.00  0.00     0.198 A 
ATOM     84  F   UNL     1       9.063   6.126   2.650  1.00  0.00    -0.203 F 
ATOM     85  F   UNL     1       5.915   8.527   6.404  1.00  0.00    -0.200 F 
ATOM     86  C   UNL     1       7.834   7.262   5.863  1.00  0.00     0.200 A 
ATOM     87  F   UNL     1       9.761   6.035   5.267  1.00  0.00    -0.200 F 
ATOM     88  F   UNL     1       8.207   7.251   7.150  1.00  0.00    -0.200 F 
ENDBRANCH  54  78
BRANCH  66  89
ATOM     89  C   UNL     1       6.982  12.750  -1.208  1.00  0.00     0.064 A 
ATOM     90  C   UNL     1       8.317  13.180  -1.187  1.00  0.00     0.173 A 
ATOM     91  C   UNL     1       5.976  13.725  -1.135  1.00  0.00     0.173 A 
ATOM     92  F   UNL     1       9.315  12.285  -1.241  1.00  0.00    -0.203 F 
ATOM     93  C   UNL     1       8.631  14.533  -1.086  1.00  0.00     0.198 A 
ATOM     94  C   UNL     1       6.293  15.079  -1.057  1.00  0.00     0.198 A 
ATOM     95  F   UNL     1       4.684  13.366  -1.158  1.00  0.00    -0.203 F 
ATOM     96  F   UNL     1       9.913  14.920  -1.039  1.00  0.00    -0.200 F 
ATOM     97  C   UNL     1       7.620  15.481  -1.029  1.00  0.00     0.200 A 
ATOM     98  F   UNL     1       5.315  15.994  -1.013  1.00  0.00    -0.200 F 
ATOM     99  F   UNL     1       7.925  16.784  -0.944  1.00  0.00    -0.200 F 
ENDBRANCH  66  89
ENDBRANCH  40  41
ENDBRANCH  33  35
ENDBRANCH  32  33
ENDBRANCH  31  32
ENDBRANCH   1  31
TORSDOF 14
