REMARK SMILES NC(=O)c1cc(NC(=O)/C=C\C(=O)OCCOC(=O)c2ccc(-c3c4nc(c(-c5c(F)c(F)c(F)c(F)c5F)c5ccc([nH]5)c(-c5c(F)c(F)c(F)c(F)c5F)c5nc(c(-c6c(F)c(F)c(F)c(F)c6F)c6ccc3[nH]6)C=C5)C=C4)cc2)ccc1N1CCOCC1
REMARK SMILES IDX 15 1 14 2 12 3 13 4 11 5 10 6 8 7 7 8 9 10 6 11 4 12 5 13
REMARK SMILES IDX 85 14 84 15 83 16 2 17 1 18 3 21 86 22 87 23 91 24 88 25
REMARK SMILES IDX 90 26 89 27 16 28 17 29 18 30 19 31 20 32 21 33 82 34 22 35
REMARK SMILES IDX 81 36 23 37 24 38 25 39 75 40 26 41 80 42 74 43 76 44 27 45
REMARK SMILES IDX 79 46 73 47 72 48 28 50 60 51 40 52 59 53 41 54 44 55 58 56
REMARK SMILES IDX 77 57 42 58 43 59 57 61 78 62 45 63 29 64 30 65 38 66 31 67
REMARK SMILES IDX 32 68 36 69 39 70 33 71 34 72 37 73 35 74 61 75 62 76 70 77
REMARK SMILES IDX 63 78 64 79 68 80 71 81 65 82 66 83 69 84 67 85 46 86 47 87
REMARK SMILES IDX 55 88 48 89 49 90 53 91 56 92 50 93 51 94 54 95 52 96
REMARK H PARENT 7 9 1 19 1 20 76 49 44 60
REMARK Flexibility Score: inf
ROOT
ATOM      1  C   UNL     1       3.252   4.159   2.600  1.00  0.00     0.275 C 
ENDROOT
BRANCH   1   2
ATOM      2  O   UNL     1       2.000   4.123   3.311  1.00  0.00    -0.459 OA
BRANCH   2   3
ATOM      3  C   UNL     1       1.074   3.308   2.766  1.00  0.00     0.331 C 
ATOM      4  O   UNL     1       1.274   2.479   1.892  1.00  0.00    -0.247 OA
BRANCH   3   5
ATOM      5  C   UNL     1      -0.261   3.463   3.344  1.00  0.00     0.099 C 
ATOM      6  C   UNL     1      -1.047   4.540   3.210  1.00  0.00     0.079 C 
BRANCH   6   7
ATOM      7  C   UNL     1      -0.711   5.869   2.647  1.00  0.00     0.248 C 
ATOM      8  N   UNL     1      -0.081   6.052   1.452  1.00  0.00    -0.322 N 
ATOM      9  H   UNL     1       0.218   6.977   1.299  1.00  0.00     0.170 HD
ATOM     10  O   UNL     1      -0.990   6.855   3.332  1.00  0.00    -0.270 OA
BRANCH   8  11
ATOM     11  C   UNL     1       0.224   5.176   0.401  1.00  0.00     0.042 A 
ATOM     12  C   UNL     1       0.052   3.024  -0.685  1.00  0.00     0.064 A 
ATOM     13  C   UNL     1      -0.515   4.041   0.107  1.00  0.00     0.042 A 
ATOM     14  C   UNL     1       1.351   3.151  -1.233  1.00  0.00     0.050 A 
ATOM     15  C   UNL     1       1.965   4.405  -1.096  1.00  0.00     0.029 A 
ATOM     16  C   UNL     1       1.402   5.416  -0.306  1.00  0.00     0.028 A 
BRANCH  12  17
ATOM     17  C   UNL     1      -0.693   1.743  -0.623  1.00  0.00     0.250 C 
ATOM     18  N   UNL     1       0.030   0.661  -0.228  1.00  0.00    -0.366 N 
ATOM     19  H   UNL     1      -0.400  -0.222  -0.164  1.00  0.00     0.159 HD
ATOM     20  H   UNL     1       0.984   0.761  -0.006  1.00  0.00     0.159 HD
ATOM     21  O   UNL     1      -1.902   1.679  -0.798  1.00  0.00    -0.269 OA
ENDBRANCH  12  17
BRANCH  14  22
ATOM     22  N   UNL     1       2.048   2.089  -1.789  1.00  0.00    -0.366 N 
ATOM     23  C   UNL     1       1.570   1.451  -3.024  1.00  0.00     0.145 C 
ATOM     24  C   UNL     1       3.470   1.865  -1.485  1.00  0.00     0.145 C 
ATOM     25  C   UNL     1       1.979  -0.033  -3.034  1.00  0.00     0.181 C 
ATOM     26  C   UNL     1       3.774   0.360  -1.560  1.00  0.00     0.181 C 
ATOM     27  O   UNL     1       3.394  -0.196  -2.828  1.00  0.00    -0.378 OA
ENDBRANCH  14  22
ENDBRANCH   8  11
ENDBRANCH   6   7
ENDBRANCH   3   5
ENDBRANCH   2   3
ENDBRANCH   1   2
BRANCH   1  28
ATOM     28  C   UNL     1       4.253   3.034   2.911  1.00  0.00     0.275 C 
BRANCH  28  29
ATOM     29  O   UNL     1       3.839   1.737   2.441  1.00  0.00    -0.458 OA
BRANCH  29  30
ATOM     30  C   UNL     1       3.104   1.014   3.328  1.00  0.00     0.338 C 
ATOM     31  O   UNL     1       2.843   1.316   4.476  1.00  0.00    -0.246 OA
BRANCH  30  32
ATOM     32  C   UNL     1       2.500  -0.153   2.643  1.00  0.00     0.060 A 
ATOM     33  C   UNL     1       1.130  -0.391   2.827  1.00  0.00     0.016 A 
ATOM     34  C   UNL     1       3.264  -1.021   1.862  1.00  0.00     0.016 A 
ATOM     35  C   UNL     1       0.518  -1.497   2.239  1.00  0.00     0.010 A 
ATOM     36  C   UNL     1       2.655  -2.140   1.284  1.00  0.00     0.010 A 
ATOM     37  C   UNL     1       1.287  -2.396   1.491  1.00  0.00    -0.014 A 
BRANCH  37  38
ATOM     38  C   UNL     1       0.744  -3.738   1.178  1.00  0.00     0.031 A 
ATOM     39  C   UNL     1       1.007  -4.825   2.181  1.00  0.00     0.074 A 
ATOM     40  C   UNL     1       0.043  -3.992   0.059  1.00  0.00     0.049 A 
ATOM     41  N   UNL     1       0.737  -6.102   2.118  1.00  0.00    -0.248 NA
ATOM     42  C   UNL     1       1.679  -4.412   3.426  1.00  0.00     0.031 C 
ATOM     43  C   UNL     1      -0.315  -3.011  -0.959  1.00  0.00     0.029 A 
ATOM     44  N   UNL     1      -0.488  -5.167  -0.414  1.00  0.00    -0.354 N 
ATOM     45  C   UNL     1       1.204  -6.639   3.310  1.00  0.00     0.074 A 
ATOM     46  C   UNL     1       1.810  -5.565   4.061  1.00  0.00     0.031 C 
ATOM     47  C   UNL     1      -1.006  -3.619  -1.939  1.00  0.00     0.029 A 
ATOM     48  C   UNL     1      -1.088  -5.046  -1.645  1.00  0.00     0.049 A 
ATOM     49  H   UNL     1      -0.443  -6.016   0.083  1.00  0.00     0.167 HD
ATOM     50  C   UNL     1       1.124  -7.917   3.743  1.00  0.00     0.037 A 
ATOM     51  C   UNL     1      -1.608  -5.992  -2.452  1.00  0.00     0.037 A 
ATOM     52  C   UNL     1       0.544  -8.984   2.978  1.00  0.00     0.049 A 
ATOM     53  C   UNL     1      -1.581  -7.430  -1.992  1.00  0.00     0.074 A 
ATOM     54  C   UNL     1       0.437 -10.323   3.305  1.00  0.00     0.029 A 
ATOM     55  N   UNL     1      -0.024  -8.829   1.721  1.00  0.00    -0.354 N 
ATOM     56  N   UNL     1      -1.145  -7.932  -0.861  1.00  0.00    -0.248 NA
ATOM     57  C   UNL     1      -2.118  -8.434  -2.922  1.00  0.00     0.031 C 
ATOM     58  C   UNL     1      -0.151 -10.987   2.225  1.00  0.00     0.029 A 
ATOM     59  C   UNL     1      -0.469 -10.052   1.252  1.00  0.00     0.049 A 
ATOM     60  H   UNL     1      -0.098  -7.975   1.236  1.00  0.00     0.167 HD
ATOM     61  C   UNL     1      -1.397  -9.296  -0.925  1.00  0.00     0.074 A 
ATOM     62  C   UNL     1      -2.033  -9.542  -2.202  1.00  0.00     0.031 C 
ATOM     63  C   UNL     1      -1.126 -10.262  -0.013  1.00  0.00     0.037 A 
BRANCH  50  64
ATOM     64  C   UNL     1       1.701  -8.223   5.092  1.00  0.00     0.064 A 
ATOM     65  C   UNL     1       1.095  -7.763   6.271  1.00  0.00     0.173 A 
ATOM     66  C   UNL     1       2.866  -8.995   5.211  1.00  0.00     0.173 A 
ATOM     67  F   UNL     1      -0.006  -6.998   6.210  1.00  0.00    -0.203 F 
ATOM     68  C   UNL     1       1.644  -8.048   7.518  1.00  0.00     0.198 A 
ATOM     69  C   UNL     1       3.395  -9.305   6.460  1.00  0.00     0.198 A 
ATOM     70  F   UNL     1       3.489  -9.453   4.115  1.00  0.00    -0.203 F 
ATOM     71  F   UNL     1       1.076  -7.556   8.627  1.00  0.00    -0.200 F 
ATOM     72  C   UNL     1       2.788  -8.826   7.612  1.00  0.00     0.200 A 
ATOM     73  F   UNL     1       4.497 -10.063   6.550  1.00  0.00    -0.200 F 
ATOM     74  F   UNL     1       3.312  -9.107   8.813  1.00  0.00    -0.200 F 
ENDBRANCH  50  64
BRANCH  51  75
ATOM     75  C   UNL     1      -2.171  -5.637  -3.786  1.00  0.00     0.064 A 
ATOM     76  C   UNL     1      -3.527  -5.845  -4.079  1.00  0.00     0.173 A 
ATOM     77  C   UNL     1      -1.355  -5.148  -4.818  1.00  0.00     0.173 A 
ATOM     78  F   UNL     1      -4.347  -6.336  -3.137  1.00  0.00    -0.203 F 
ATOM     79  C   UNL     1      -4.035  -5.617  -5.357  1.00  0.00     0.198 A 
ATOM     80  C   UNL     1      -1.872  -4.886  -6.087  1.00  0.00     0.198 A 
ATOM     81  F   UNL     1      -0.050  -4.932  -4.600  1.00  0.00    -0.203 F 
ATOM     82  F   UNL     1      -5.318  -5.898  -5.626  1.00  0.00    -0.200 F 
ATOM     83  C   UNL     1      -3.208  -5.136  -6.360  1.00  0.00     0.200 A 
ATOM     84  F   UNL     1      -1.070  -4.411  -7.050  1.00  0.00    -0.200 F 
ATOM     85  F   UNL     1      -3.693  -4.930  -7.592  1.00  0.00    -0.200 F 
ENDBRANCH  51  75
BRANCH  63  86
ATOM     86  C   UNL     1      -1.578 -11.658  -0.330  1.00  0.00     0.064 A 
ATOM     87  C   UNL     1      -0.964 -12.429  -1.327  1.00  0.00     0.173 A 
ATOM     88  C   UNL     1      -2.612 -12.248   0.415  1.00  0.00     0.173 A 
ATOM     89  F   UNL     1       0.021 -11.906  -2.074  1.00  0.00    -0.203 F 
ATOM     90  C   UNL     1      -1.387 -13.729  -1.587  1.00  0.00     0.198 A 
ATOM     91  C   UNL     1      -3.007 -13.560   0.176  1.00  0.00     0.198 A 
ATOM     92  F   UNL     1      -3.225 -11.557   1.388  1.00  0.00    -0.203 F 
ATOM     93  F   UNL     1      -0.822 -14.428  -2.581  1.00  0.00    -0.200 F 
ATOM     94  C   UNL     1      -2.402 -14.296  -0.830  1.00  0.00     0.200 A 
ATOM     95  F   UNL     1      -3.973 -14.113   0.923  1.00  0.00    -0.200 F 
ATOM     96  F   UNL     1      -2.799 -15.552  -1.075  1.00  0.00    -0.200 F 
ENDBRANCH  63  86
ENDBRANCH  37  38
ENDBRANCH  30  32
ENDBRANCH  29  30
ENDBRANCH  28  29
ENDBRANCH   1  28
TORSDOF 15
