REMARK SMILES CC(C)[C@@H](CC(=O)OC(C)(C)C)C(=O)OCCOC(=O)c1ccc(-c2c3nc(c(-c4c(F)c(F)c(F)c(F)c4F)c4ccc([nH]4)c(-c4c(F)c(F)c(F)c(F)c4F)c4nc(c(-c5c(F)c(F)c(F)c(F)c5F)c5ccc2[nH]5)C=C4)C=C3)cc1
REMARK SMILES IDX 16 1 15 2 13 3 14 4 4 5 2 6 1 7 3 8 5 9 6 10 7 11 8 12 9 13
REMARK SMILES IDX 10 14 11 15 12 16 17 17 18 18 19 19 20 20 21 21 22 22 83 23
REMARK SMILES IDX 23 24 82 25 24 26 25 27 26 28 76 29 27 30 81 31 75 32 77 33
REMARK SMILES IDX 28 34 80 35 74 36 73 37 29 39 61 40 41 41 60 42 42 43 45 44
REMARK SMILES IDX 59 45 78 46 43 47 44 48 58 50 79 51 46 52 30 53 31 54 39 55
REMARK SMILES IDX 32 56 33 57 37 58 40 59 34 60 35 61 38 62 36 63 62 64 63 65
REMARK SMILES IDX 71 66 64 67 65 68 69 69 72 70 66 71 67 72 70 73 68 74 47 75
REMARK SMILES IDX 48 76 56 77 49 78 50 79 54 80 57 81 51 82 52 83 55 84 53 85
REMARK H PARENT 77 38 45 49
REMARK Flexibility Score: inf
ROOT
ATOM      1  C   UNL     1      -1.589  -4.769   0.672  1.00  0.00     0.274 C 
ENDROOT
BRANCH   1   2
ATOM      2  O   UNL     1      -0.870  -3.566   0.331  1.00  0.00    -0.462 OA
BRANCH   2   3
ATOM      3  C   UNL     1      -1.609  -2.428   0.353  1.00  0.00     0.309 C 
ATOM      4  O   UNL     1      -2.796  -2.366   0.654  1.00  0.00    -0.252 OA
BRANCH   3   5
ATOM      5  C   UNL     1      -0.847  -1.198  -0.120  1.00  0.00     0.113 C 
BRANCH   5   6
ATOM      6  C   UNL     1       0.693  -1.204   0.099  1.00  0.00    -0.003 C 
ATOM      7  C   UNL     1       1.333   0.093  -0.418  1.00  0.00     0.008 C 
ATOM      8  C   UNL     1       1.078  -1.362   1.576  1.00  0.00     0.008 C 
ENDBRANCH   5   6
BRANCH   5   9
ATOM      9  C   UNL     1      -1.322  -0.933  -1.559  1.00  0.00     0.138 C 
BRANCH   9  10
ATOM     10  C   UNL     1      -1.065  -2.098  -2.484  1.00  0.00     0.307 C 
ATOM     11  O   UNL     1      -1.948  -2.777  -2.984  1.00  0.00    -0.252 OA
BRANCH  10  12
ATOM     12  O   UNL     1       0.269  -2.272  -2.643  1.00  0.00    -0.460 OA
BRANCH  12  13
ATOM     13  C   UNL     1       0.801  -3.399  -3.380  1.00  0.00     0.104 C 
ATOM     14  C   UNL     1       0.360  -4.735  -2.772  1.00  0.00     0.056 C 
ATOM     15  C   UNL     1       0.439  -3.292  -4.862  1.00  0.00     0.056 C 
ATOM     16  C   UNL     1       2.323  -3.272  -3.219  1.00  0.00     0.056 C 
ENDBRANCH  12  13
ENDBRANCH  10  12
ENDBRANCH   9  10
ENDBRANCH   5   9
ENDBRANCH   3   5
ENDBRANCH   2   3
ENDBRANCH   1   2
BRANCH   1  17
ATOM     17  C   UNL     1      -1.466  -5.091   2.161  1.00  0.00     0.275 C 
BRANCH  17  18
ATOM     18  O   UNL     1      -1.953  -3.987   2.943  1.00  0.00    -0.458 OA
BRANCH  18  19
ATOM     19  C   UNL     1      -1.124  -3.539   3.910  1.00  0.00     0.338 C 
ATOM     20  O   UNL     1      -0.059  -4.015   4.261  1.00  0.00    -0.246 OA
BRANCH  19  21
ATOM     21  C   UNL     1      -1.682  -2.317   4.511  1.00  0.00     0.060 A 
ATOM     22  C   UNL     1      -1.824  -1.164   3.738  1.00  0.00     0.016 A 
ATOM     23  C   UNL     1      -1.933  -2.279   5.882  1.00  0.00     0.016 A 
ATOM     24  C   UNL     1      -2.155   0.047   4.338  1.00  0.00     0.010 A 
ATOM     25  C   UNL     1      -2.329  -1.077   6.476  1.00  0.00     0.010 A 
ATOM     26  C   UNL     1      -2.408   0.103   5.715  1.00  0.00    -0.014 A 
BRANCH  26  27
ATOM     27  C   UNL     1      -2.697   1.408   6.358  1.00  0.00     0.031 A 
ATOM     28  C   UNL     1      -1.709   2.009   7.318  1.00  0.00     0.074 A 
ATOM     29  C   UNL     1      -3.832   2.066   6.057  1.00  0.00     0.049 A 
ATOM     30  N   UNL     1      -1.809   3.098   8.039  1.00  0.00    -0.248 NA
ATOM     31  C   UNL     1      -0.440   1.286   7.496  1.00  0.00     0.031 C 
ATOM     32  C   UNL     1      -4.851   1.603   5.115  1.00  0.00     0.029 A 
ATOM     33  N   UNL     1      -4.314   3.268   6.509  1.00  0.00    -0.354 N 
ATOM     34  C   UNL     1      -0.635   3.172   8.778  1.00  0.00     0.074 A 
ATOM     35  C   UNL     1       0.158   2.013   8.429  1.00  0.00     0.031 C 
ATOM     36  C   UNL     1      -5.829   2.520   5.043  1.00  0.00     0.029 A 
ATOM     37  C   UNL     1      -5.531   3.607   5.971  1.00  0.00     0.049 A 
ATOM     38  H   UNL     1      -3.834   3.834   7.156  1.00  0.00     0.167 HD
ATOM     39  C   UNL     1      -0.256   4.123   9.664  1.00  0.00     0.037 A 
ATOM     40  C   UNL     1      -6.327   4.664   6.216  1.00  0.00     0.037 A 
ATOM     41  C   UNL     1      -1.035   5.291   9.986  1.00  0.00     0.049 A 
ATOM     42  C   UNL     1      -5.888   5.698   7.215  1.00  0.00     0.074 A 
ATOM     43  C   UNL     1      -0.735   6.316  10.867  1.00  0.00     0.029 A 
ATOM     44  N   UNL     1      -2.268   5.594   9.428  1.00  0.00    -0.354 N 
ATOM     45  N   UNL     1      -4.787   5.747   7.924  1.00  0.00    -0.248 NA
ATOM     46  C   UNL     1      -6.805   6.822   7.448  1.00  0.00     0.031 C 
ATOM     47  C   UNL     1      -1.801   7.222  10.865  1.00  0.00     0.029 A 
ATOM     48  C   UNL     1      -2.746   6.785   9.952  1.00  0.00     0.049 A 
ATOM     49  H   UNL     1      -2.736   5.043   8.758  1.00  0.00     0.167 HD
ATOM     50  C   UNL     1      -4.869   6.912   8.675  1.00  0.00     0.074 A 
ATOM     51  C   UNL     1      -6.120   7.551   8.318  1.00  0.00     0.031 C 
ATOM     52  C   UNL     1      -3.991   7.406   9.581  1.00  0.00     0.037 A 
BRANCH  39  53
ATOM     53  C   UNL     1       1.052   3.927  10.372  1.00  0.00     0.064 A 
ATOM     54  C   UNL     1       2.281   4.102   9.719  1.00  0.00     0.173 A 
ATOM     55  C   UNL     1       1.075   3.590  11.734  1.00  0.00     0.173 A 
ATOM     56  F   UNL     1       2.313   4.409   8.413  1.00  0.00    -0.203 F 
ATOM     57  C   UNL     1       3.484   3.925  10.398  1.00  0.00     0.198 A 
ATOM     58  C   UNL     1       2.279   3.439  12.416  1.00  0.00     0.198 A 
ATOM     59  F   UNL     1      -0.073   3.414  12.406  1.00  0.00    -0.203 F 
ATOM     60  F   UNL     1       4.646   4.057   9.744  1.00  0.00    -0.200 F 
ATOM     61  C   UNL     1       3.482   3.601  11.747  1.00  0.00     0.200 A 
ATOM     62  F   UNL     1       2.275   3.135  13.722  1.00  0.00    -0.200 F 
ATOM     63  F   UNL     1       4.641   3.438  12.400  1.00  0.00    -0.200 F 
ENDBRANCH  39  53
BRANCH  40  64
ATOM     64  C   UNL     1      -7.623   4.792   5.503  1.00  0.00     0.064 A 
ATOM     65  C   UNL     1      -7.819   5.786   4.535  1.00  0.00     0.173 A 
ATOM     66  C   UNL     1      -8.690   3.921   5.771  1.00  0.00     0.173 A 
ATOM     67  F   UNL     1      -6.836   6.657   4.262  1.00  0.00    -0.203 F 
ATOM     68  C   UNL     1      -9.036   5.911   3.869  1.00  0.00     0.198 A 
ATOM     69  C   UNL     1      -9.897   4.029   5.085  1.00  0.00     0.198 A 
ATOM     70  F   UNL     1      -8.552   2.953   6.689  1.00  0.00    -0.203 F 
ATOM     71  F   UNL     1      -9.211   6.895   2.976  1.00  0.00    -0.200 F 
ATOM     72  C   UNL     1     -10.072   5.028   4.139  1.00  0.00     0.200 A 
ATOM     73  F   UNL     1     -10.890   3.167   5.341  1.00  0.00    -0.200 F 
ATOM     74  F   UNL     1     -11.240   5.145   3.494  1.00  0.00    -0.200 F 
ENDBRANCH  40  64
BRANCH  52  75
ATOM     75  C   UNL     1      -4.343   8.716  10.222  1.00  0.00     0.064 A 
ATOM     76  C   UNL     1      -5.357   8.813  11.186  1.00  0.00     0.173 A 
ATOM     77  C   UNL     1      -3.648   9.884   9.875  1.00  0.00     0.173 A 
ATOM     78  F   UNL     1      -6.059   7.725  11.539  1.00  0.00    -0.203 F 
ATOM     79  C   UNL     1      -5.685  10.040  11.756  1.00  0.00     0.198 A 
ATOM     80  C   UNL     1      -3.962  11.104  10.467  1.00  0.00     0.198 A 
ATOM     81  F   UNL     1      -2.667   9.842   8.963  1.00  0.00    -0.203 F 
ATOM     82  F   UNL     1      -6.693  10.119  12.636  1.00  0.00    -0.200 F 
ATOM     83  C   UNL     1      -4.985  11.183  11.400  1.00  0.00     0.200 A 
ATOM     84  F   UNL     1      -3.279  12.207  10.128  1.00  0.00    -0.200 F 
ATOM     85  F   UNL     1      -5.305  12.364  11.947  1.00  0.00    -0.200 F 
ENDBRANCH  52  75
ENDBRANCH  26  27
ENDBRANCH  19  21
ENDBRANCH  18  19
ENDBRANCH  17  18
ENDBRANCH   1  17
TORSDOF 16
