REMARK SMILES CC(C)CCn1nc(C(=O)OCCOC(=O)c2ccc(-c3c4nc(c(-c5c(F)c(F)c(F)c(F)c5F)c5ccc([nH]5)c(-c5c(F)c(F)c(F)c(F)c5F)c5nc(c(-c6c(F)c(F)c(F)c(F)c6F)c6ccc3[nH]6)C=C5)C=C4)cc2)c2c1CCN(C(=O)[C@@H]1CCc3nn(C)c(=O)n3C1)C2
REMARK SMILES IDX 12 1 11 2 9 3 10 4 8 5 6 6 7 7 81 8 80 9 82 10 98 11 83 12
REMARK SMILES IDX 84 13 5 14 4 15 2 16 1 17 3 18 85 19 86 20 87 21 88 22 97 23
REMARK SMILES IDX 89 24 96 25 90 26 94 27 91 28 92 29 95 30 93 31 13 32 14 33
REMARK SMILES IDX 15 34 16 35 17 36 18 37 79 38 19 39 78 40 20 41 21 42 22 43
REMARK SMILES IDX 72 44 23 45 77 46 71 47 73 48 24 49 76 50 70 51 69 52 25 54
REMARK SMILES IDX 57 55 37 56 56 57 38 58 41 59 55 60 74 61 39 62 40 63 54 65
REMARK SMILES IDX 75 66 42 67 26 68 27 69 35 70 28 71 29 72 33 73 36 74 30 75
REMARK SMILES IDX 31 76 34 77 32 78 58 79 59 80 67 81 60 82 61 83 65 84 68 85
REMARK SMILES IDX 62 86 63 87 66 88 64 89 43 90 44 91 52 92 45 93 46 94 50 95
REMARK SMILES IDX 53 96 47 97 48 98 51 99 49 100
REMARK H PARENT 73 53 41 64
REMARK Flexibility Score: inf
ROOT
ATOM      1  C   UNL     1       1.452  -7.461   4.186  1.00  0.00     0.275 C 
ENDROOT
BRANCH   1   2
ATOM      2  O   UNL     1       0.504  -6.585   3.562  1.00  0.00    -0.457 OA
BRANCH   2   3
ATOM      3  C   UNL     1       0.682  -5.231   3.660  1.00  0.00     0.359 C 
ATOM      4  O   UNL     1       1.427  -4.696   4.479  1.00  0.00    -0.244 OA
BRANCH   3   5
ATOM      5  C   UNL     1      -0.092  -4.529   2.620  1.00  0.00     0.175 A 
ATOM      6  N   UNL     1      -1.065  -2.978   1.505  1.00  0.00    -0.268 N 
ATOM      7  N   UNL     1      -0.223  -3.180   2.542  1.00  0.00    -0.165 NA
ATOM      8  C   UNL     1      -1.577  -4.149   1.043  1.00  0.00     0.046 A 
ATOM      9  C   UNL     1      -0.812  -5.161   1.568  1.00  0.00     0.028 A 
ATOM     10  C   UNL     1      -2.757  -4.383   0.192  1.00  0.00     0.078 C 
ATOM     11  C   UNL     1      -0.926  -6.603   1.164  1.00  0.00     0.159 C 
ATOM     12  C   UNL     1      -3.151  -5.852   0.454  1.00  0.00     0.126 C 
ATOM     13  N   UNL     1      -2.039  -6.772   0.204  1.00  0.00    -0.338 N 
BRANCH   6  14
ATOM     14  C   UNL     1      -1.372  -1.668   0.958  1.00  0.00     0.145 C 
BRANCH  14  15
ATOM     15  C   UNL     1      -0.814  -0.435   1.668  1.00  0.00     0.027 C 
BRANCH  15  16
ATOM     16  C   UNL     1       0.703  -0.204   1.523  1.00  0.00    -0.016 C 
ATOM     17  C   UNL     1       1.121   0.113   0.085  1.00  0.00     0.007 C 
ATOM     18  C   UNL     1       1.124   0.947   2.441  1.00  0.00     0.007 C 
ENDBRANCH  15  16
ENDBRANCH  14  15
ENDBRANCH   6  14
BRANCH  13  19
ATOM     19  C   UNL     1      -1.958  -7.825  -0.686  1.00  0.00     0.227 C 
ATOM     20  O   UNL     1      -0.964  -8.566  -0.657  1.00  0.00    -0.274 OA
BRANCH  19  21
ATOM     21  C   UNL     1      -3.018  -8.162  -1.763  1.00  0.00     0.099 C 
ATOM     22  C   UNL     1      -3.018  -7.286  -3.020  1.00  0.00     0.023 C 
ATOM     23  C   UNL     1      -4.427  -8.487  -1.284  1.00  0.00     0.142 C 
ATOM     24  C   UNL     1      -3.920  -6.062  -2.962  1.00  0.00     0.078 C 
ATOM     25  N   UNL     1      -5.332  -7.366  -1.391  1.00  0.00    -0.278 N 
ATOM     26  C   UNL     1      -5.114  -6.220  -2.068  1.00  0.00     0.133 A 
ATOM     27  C   UNL     1      -6.329  -7.094  -0.484  1.00  0.00     0.345 A 
ATOM     28  N   UNL     1      -5.882  -5.227  -1.721  1.00  0.00    -0.155 NA
ATOM     29  N   UNL     1      -6.661  -5.752  -0.708  1.00  0.00    -0.216 N 
ATOM     30  O   UNL     1      -6.706  -7.809   0.430  1.00  0.00    -0.246 OA
ATOM     31  C   UNL     1      -7.322  -4.917   0.260  1.00  0.00     0.179 C 
ENDBRANCH  19  21
ENDBRANCH  13  19
ENDBRANCH   3   5
ENDBRANCH   2   3
ENDBRANCH   1   2
BRANCH   1  32
ATOM     32  C   UNL     1       2.618  -7.716   3.245  1.00  0.00     0.275 C 
BRANCH  32  33
ATOM     33  O   UNL     1       3.421  -6.545   3.174  1.00  0.00    -0.458 OA
BRANCH  33  34
ATOM     34  C   UNL     1       3.194  -5.711   2.137  1.00  0.00     0.338 C 
ATOM     35  O   UNL     1       2.315  -5.795   1.299  1.00  0.00    -0.246 OA
BRANCH  34  36
ATOM     36  C   UNL     1       4.304  -4.758   2.076  1.00  0.00     0.060 A 
ATOM     37  C   UNL     1       4.278  -3.785   1.073  1.00  0.00     0.016 A 
ATOM     38  C   UNL     1       5.463  -5.045   2.811  1.00  0.00     0.016 A 
ATOM     39  C   UNL     1       5.478  -3.251   0.659  1.00  0.00     0.010 A 
ATOM     40  C   UNL     1       6.656  -4.540   2.380  1.00  0.00     0.010 A 
ATOM     41  C   UNL     1       6.653  -3.720   1.256  1.00  0.00    -0.014 A 
BRANCH  41  42
ATOM     42  C   UNL     1       7.927  -3.281   0.741  1.00  0.00     0.031 A 
ATOM     43  C   UNL     1       8.266  -1.905   1.163  1.00  0.00     0.074 A 
ATOM     44  C   UNL     1       8.752  -4.137   0.109  1.00  0.00     0.049 A 
ATOM     45  N   UNL     1       8.426  -0.863   0.420  1.00  0.00    -0.248 NA
ATOM     46  C   UNL     1       8.259  -1.618   2.609  1.00  0.00     0.031 C 
ATOM     47  C   UNL     1       8.603  -5.589  -0.048  1.00  0.00     0.029 A 
ATOM     48  N   UNL     1       9.970  -3.899  -0.439  1.00  0.00    -0.354 N 
ATOM     49  C   UNL     1       8.740   0.169   1.298  1.00  0.00     0.074 A 
ATOM     50  C   UNL     1       8.418  -0.296   2.618  1.00  0.00     0.031 C 
ATOM     51  C   UNL     1       9.783  -6.120  -0.443  1.00  0.00     0.029 A 
ATOM     52  C   UNL     1      10.719  -5.040  -0.694  1.00  0.00     0.049 A 
ATOM     53  H   UNL     1      10.296  -2.991  -0.639  1.00  0.00     0.167 HD
ATOM     54  C   UNL     1       9.519   1.207   0.895  1.00  0.00     0.037 A 
ATOM     55  C   UNL     1      12.041  -5.064  -0.999  1.00  0.00     0.037 A 
ATOM     56  C   UNL     1       9.528   1.317  -0.542  1.00  0.00     0.049 A 
ATOM     57  C   UNL     1      12.416  -3.695  -1.440  1.00  0.00     0.074 A 
ATOM     58  C   UNL     1       8.567   1.553  -1.504  1.00  0.00     0.029 A 
ATOM     59  N   UNL     1      10.605   0.790  -1.209  1.00  0.00    -0.354 N 
ATOM     60  N   UNL     1      11.977  -3.135  -2.534  1.00  0.00    -0.248 NA
ATOM     61  C   UNL     1      12.911  -2.776  -0.426  1.00  0.00     0.031 C 
ATOM     62  C   UNL     1       8.942   0.740  -2.615  1.00  0.00     0.029 A 
ATOM     63  C   UNL     1      10.139   0.097  -2.295  1.00  0.00     0.049 A 
ATOM     64  H   UNL     1      11.550   0.892  -0.951  1.00  0.00     0.167 HD
ATOM     65  C   UNL     1      11.743  -1.811  -2.187  1.00  0.00     0.074 A 
ATOM     66  C   UNL     1      12.417  -1.631  -0.904  1.00  0.00     0.031 C 
ATOM     67  C   UNL     1      10.786  -1.079  -2.831  1.00  0.00     0.037 A 
BRANCH  54  68
ATOM     68  C   UNL     1      10.588   1.826   1.764  1.00  0.00     0.064 A 
ATOM     69  C   UNL     1      11.271   2.961   1.288  1.00  0.00     0.173 A 
ATOM     70  C   UNL     1      11.176   1.187   2.880  1.00  0.00     0.173 A 
ATOM     71  F   UNL     1      10.816   3.634   0.221  1.00  0.00    -0.203 F 
ATOM     72  C   UNL     1      12.491   3.369   1.834  1.00  0.00     0.198 A 
ATOM     73  C   UNL     1      12.363   1.632   3.457  1.00  0.00     0.198 A 
ATOM     74  F   UNL     1      10.704   0.045   3.390  1.00  0.00    -0.203 F 
ATOM     75  F   UNL     1      13.171   4.372   1.262  1.00  0.00    -0.200 F 
ATOM     76  C   UNL     1      13.039   2.701   2.914  1.00  0.00     0.200 A 
ATOM     77  F   UNL     1      12.885   0.956   4.491  1.00  0.00    -0.200 F 
ATOM     78  F   UNL     1      14.238   3.050   3.396  1.00  0.00    -0.200 F 
ENDBRANCH  54  68
BRANCH  55  79
ATOM     79  C   UNL     1      13.050  -6.058  -0.560  1.00  0.00     0.064 A 
ATOM     80  C   UNL     1      14.297  -6.157  -1.198  1.00  0.00     0.173 A 
ATOM     81  C   UNL     1      12.921  -6.736   0.669  1.00  0.00     0.173 A 
ATOM     82  F   UNL     1      14.521  -5.497  -2.343  1.00  0.00    -0.203 F 
ATOM     83  C   UNL     1      15.356  -6.878  -0.632  1.00  0.00     0.198 A 
ATOM     84  C   UNL     1      13.975  -7.460   1.229  1.00  0.00     0.198 A 
ATOM     85  F   UNL     1      11.802  -6.629   1.399  1.00  0.00    -0.203 F 
ATOM     86  F   UNL     1      16.550  -6.902  -1.241  1.00  0.00    -0.200 F 
ATOM     87  C   UNL     1      15.196  -7.522   0.585  1.00  0.00     0.200 A 
ATOM     88  F   UNL     1      13.819  -8.042   2.427  1.00  0.00    -0.200 F 
ATOM     89  F   UNL     1      16.226  -8.162   1.155  1.00  0.00    -0.200 F 
ENDBRANCH  55  79
BRANCH  67  90
ATOM     90  C   UNL     1      10.205  -1.653  -4.095  1.00  0.00     0.064 A 
ATOM     91  C   UNL     1       9.445  -2.835  -4.150  1.00  0.00     0.173 A 
ATOM     92  C   UNL     1      10.306  -0.899  -5.270  1.00  0.00     0.173 A 
ATOM     93  F   UNL     1       9.219  -3.563  -3.050  1.00  0.00    -0.203 F 
ATOM     94  C   UNL     1       8.851  -3.259  -5.339  1.00  0.00     0.198 A 
ATOM     95  C   UNL     1       9.682  -1.304  -6.446  1.00  0.00     0.198 A 
ATOM     96  F   UNL     1      10.974   0.266  -5.264  1.00  0.00    -0.203 F 
ATOM     97  F   UNL     1       8.141  -4.397  -5.370  1.00  0.00    -0.200 F 
ATOM     98  C   UNL     1       8.964  -2.488  -6.484  1.00  0.00     0.200 A 
ATOM     99  F   UNL     1       9.752  -0.529  -7.537  1.00  0.00    -0.200 F 
ATOM    100  F   UNL     1       8.358  -2.871  -7.617  1.00  0.00    -0.200 F 
ENDBRANCH  67  90
ENDBRANCH  41  42
ENDBRANCH  34  36
ENDBRANCH  33  34
ENDBRANCH  32  33
ENDBRANCH   1  32
TORSDOF 16
