REMARK SMILES O=C(OCCOC(=O)[C@@H]1[C@H](C(=O)Nc2cccc(Cl)c2F)[C@@H]2C=C[C@H]1C2)c1ccc(-c2c3nc(c(-c4c(F)c(F)c(F)c(F)c4F)c4ccc([nH]4)c(-c4c(F)c(F)c(F)c(F)c4F)c4nc(c(-c5c(F)c(F)c(F)c(F)c5F)c5ccc2[nH]5)C=C4)C=C3)cc1
REMARK SMILES IDX 4 1 3 2 2 3 1 4 27 5 28 6 89 7 29 8 88 9 30 10 31 11 32 12
REMARK SMILES IDX 82 13 33 14 87 15 81 16 83 17 34 18 86 19 80 20 79 21 35 23
REMARK SMILES IDX 67 24 47 25 66 26 48 27 51 28 65 29 84 30 49 31 50 32 64 34
REMARK SMILES IDX 85 35 52 36 36 37 37 38 45 39 38 40 39 41 43 42 46 43 40 44
REMARK SMILES IDX 41 45 44 46 42 47 68 48 69 49 77 50 70 51 71 52 75 53 78 54
REMARK SMILES IDX 72 55 73 56 76 57 74 58 53 59 54 60 62 61 55 62 56 63 60 64
REMARK SMILES IDX 63 65 57 66 58 67 61 68 59 69 5 70 6 71 7 72 8 73 9 74 10 75
REMARK SMILES IDX 25 76 22 77 24 78 26 79 23 80 11 81 12 82 13 83 14 85 15 86
REMARK SMILES IDX 20 87 16 88 18 89 21 90 17 91 19 92
REMARK H PARENT 83 22 51 33 13 84
REMARK Flexibility Score: inf
ROOT
ATOM      1  C   UNL     1       2.885   1.113   1.524  1.00  0.00     0.275 C 
ENDROOT
BRANCH   1   2
ATOM      2  O   UNL     1       1.719   1.131   0.575  1.00  0.00    -0.458 OA
BRANCH   2   3
ATOM      3  C   UNL     1       1.564   1.234  -0.814  1.00  0.00     0.338 C 
ATOM      4  O   UNL     1       0.651   1.901  -1.290  1.00  0.00    -0.246 OA
BRANCH   3   5
ATOM      5  C   UNL     1       2.271   0.262  -1.740  1.00  0.00     0.060 A 
ATOM      6  C   UNL     1       3.225  -0.529  -0.934  1.00  0.00     0.016 A 
ATOM      7  C   UNL     1       1.796  -0.239  -3.313  1.00  0.00     0.016 A 
ATOM      8  C   UNL     1       3.697  -2.085  -1.377  1.00  0.00     0.010 A 
ATOM      9  C   UNL     1       2.207  -1.737  -4.113  1.00  0.00     0.010 A 
ATOM     10  C   UNL     1       3.213  -2.862  -3.232  1.00  0.00    -0.014 A 
BRANCH  10  11
ATOM     11  C   UNL     1       4.161  -4.056  -4.247  1.00  0.00     0.031 A 
ATOM     12  C   UNL     1       5.095  -3.526  -5.408  1.00  0.00     0.074 A 
ATOM     13  C   UNL     1       4.993  -5.131  -3.890  1.00  0.00     0.049 A 
ATOM     14  N   UNL     1       5.941  -4.263  -6.113  1.00  0.00    -0.248 NA
ATOM     15  C   UNL     1       5.264  -2.092  -5.686  1.00  0.00     0.031 C 
ATOM     16  C   UNL     1       5.806  -5.448  -2.671  1.00  0.00     0.029 A 
ATOM     17  N   UNL     1       4.818  -6.415  -4.392  1.00  0.00    -0.354 N 
ATOM     18  C   UNL     1       6.740  -3.407  -6.845  1.00  0.00     0.074 A 
ATOM     19  C   UNL     1       6.318  -2.071  -6.501  1.00  0.00     0.031 C 
ATOM     20  C   UNL     1       5.586  -6.723  -2.292  1.00  0.00     0.029 A 
ATOM     21  C   UNL     1       4.999  -7.395  -3.427  1.00  0.00     0.049 A 
ATOM     22  H   UNL     1       4.590  -6.608  -5.330  1.00  0.00     0.167 HD
ATOM     23  C   UNL     1       7.707  -3.743  -7.735  1.00  0.00     0.037 A 
ATOM     24  C   UNL     1       5.117  -8.727  -3.523  1.00  0.00     0.037 A 
ATOM     25  C   UNL     1       8.082  -5.111  -8.033  1.00  0.00     0.049 A 
ATOM     26  C   UNL     1       5.853  -9.137  -4.739  1.00  0.00     0.074 A 
ATOM     27  C   UNL     1       8.882  -5.577  -9.064  1.00  0.00     0.029 A 
ATOM     28  N   UNL     1       7.666  -6.234  -7.318  1.00  0.00    -0.354 N 
ATOM     29  N   UNL     1       6.445  -8.328  -5.581  1.00  0.00    -0.248 NA
ATOM     30  C   UNL     1       6.060 -10.559  -4.991  1.00  0.00     0.031 C 
ATOM     31  C   UNL     1       8.833  -6.974  -9.057  1.00  0.00     0.029 A 
ATOM     32  C   UNL     1       8.098  -7.391  -7.959  1.00  0.00     0.049 A 
ATOM     33  H   UNL     1       7.145  -6.211  -6.483  1.00  0.00     0.167 HD
ATOM     34  C   UNL     1       7.111  -9.132  -6.467  1.00  0.00     0.074 A 
ATOM     35  C   UNL     1       6.889 -10.500  -6.027  1.00  0.00     0.031 C 
ATOM     36  C   UNL     1       7.826  -8.749  -7.548  1.00  0.00     0.037 A 
BRANCH  23  37
ATOM     37  C   UNL     1       8.240  -2.658  -8.633  1.00  0.00     0.064 A 
ATOM     38  C   UNL     1       9.230  -1.736  -8.269  1.00  0.00     0.173 A 
ATOM     39  C   UNL     1       7.751  -2.602  -9.951  1.00  0.00     0.173 A 
ATOM     40  F   UNL     1       9.727  -1.728  -7.023  1.00  0.00    -0.203 F 
ATOM     41  C   UNL     1       9.706  -0.799  -9.193  1.00  0.00     0.198 A 
ATOM     42  C   UNL     1       8.244  -1.685 -10.873  1.00  0.00     0.198 A 
ATOM     43  F   UNL     1       6.803  -3.462 -10.352  1.00  0.00    -0.203 F 
ATOM     44  F   UNL     1      10.636   0.095  -8.823  1.00  0.00    -0.200 F 
ATOM     45  C   UNL     1       9.220  -0.780 -10.493  1.00  0.00     0.200 A 
ATOM     46  F   UNL     1       7.776  -1.684 -12.129  1.00  0.00    -0.200 F 
ATOM     47  F   UNL     1       9.685   0.112 -11.379  1.00  0.00    -0.200 F 
ENDBRANCH  23  37
BRANCH  24  48
ATOM     48  C   UNL     1       4.625  -9.633  -2.458  1.00  0.00     0.064 A 
ATOM     49  C   UNL     1       5.399 -10.617  -1.833  1.00  0.00     0.173 A 
ATOM     50  C   UNL     1       3.251  -9.608  -2.152  1.00  0.00     0.173 A 
ATOM     51  F   UNL     1       6.719 -10.678  -2.058  1.00  0.00    -0.203 F 
ATOM     52  C   UNL     1       4.811 -11.583  -1.010  1.00  0.00     0.198 A 
ATOM     53  C   UNL     1       2.667 -10.564  -1.323  1.00  0.00     0.198 A 
ATOM     54  F   UNL     1       2.455  -8.680  -2.705  1.00  0.00    -0.203 F 
ATOM     55  F   UNL     1       5.565 -12.559  -0.485  1.00  0.00    -0.200 F 
ATOM     56  C   UNL     1       3.445 -11.567  -0.771  1.00  0.00     0.200 A 
ATOM     57  F   UNL     1       1.346 -10.537  -1.099  1.00  0.00    -0.200 F 
ATOM     58  F   UNL     1       2.875 -12.528  -0.031  1.00  0.00    -0.200 F 
ENDBRANCH  24  48
BRANCH  36  59
ATOM     59  C   UNL     1       8.348  -9.864  -8.388  1.00  0.00     0.064 A 
ATOM     60  C   UNL     1       7.466 -10.691  -9.101  1.00  0.00     0.173 A 
ATOM     61  C   UNL     1       9.723 -10.101  -8.496  1.00  0.00     0.173 A 
ATOM     62  F   UNL     1       6.139 -10.509  -9.004  1.00  0.00    -0.203 F 
ATOM     63  C   UNL     1       7.945 -11.743  -9.867  1.00  0.00     0.198 A 
ATOM     64  C   UNL     1      10.200 -11.126  -9.303  1.00  0.00     0.198 A 
ATOM     65  F   UNL     1      10.598  -9.335  -7.828  1.00  0.00    -0.203 F 
ATOM     66  F   UNL     1       7.083 -12.565 -10.482  1.00  0.00    -0.200 F 
ATOM     67  C   UNL     1       9.311 -11.951  -9.978  1.00  0.00     0.200 A 
ATOM     68  F   UNL     1      11.520 -11.316  -9.426  1.00  0.00    -0.200 F 
ATOM     69  F   UNL     1       9.773 -12.958 -10.731  1.00  0.00    -0.200 F 
ENDBRANCH  36  59
ENDBRANCH  10  11
ENDBRANCH   3   5
ENDBRANCH   2   3
ENDBRANCH   1   2
BRANCH   1  70
ATOM     70  C   UNL     1       3.257  -0.212   2.310  1.00  0.00     0.274 C 
BRANCH  70  71
ATOM     71  O   UNL     1       3.175  -1.447   1.596  1.00  0.00    -0.462 OA
BRANCH  71  72
ATOM     72  C   UNL     1       1.968  -1.773   1.082  1.00  0.00     0.310 C 
ATOM     73  O   UNL     1       0.895  -1.326   1.456  1.00  0.00    -0.252 OA
BRANCH  72  74
ATOM     74  C   UNL     1       2.147  -2.712  -0.094  1.00  0.00     0.119 C 
ATOM     75  C   UNL     1       3.680  -3.735   0.044  1.00  0.00     0.100 C 
ATOM     76  C   UNL     1       2.062  -2.077  -1.958  1.00  0.00     0.027 C 
ATOM     77  C   UNL     1       4.031  -4.017  -1.590  1.00  0.00     0.025 C 
ATOM     78  C   UNL     1       3.924  -1.253  -2.891  1.00  0.00    -0.027 C 
ATOM     79  C   UNL     1       2.181  -3.986  -1.961  1.00  0.00     0.017 C 
ATOM     80  C   UNL     1       5.053  -2.555  -2.622  1.00  0.00    -0.027 C 
BRANCH  75  81
ATOM     81  C   UNL     1       5.136  -3.384   0.833  1.00  0.00     0.229 C 
ATOM     82  O   UNL     1       5.357  -4.102   1.828  1.00  0.00    -0.274 OA
ATOM     83  N   UNL     1       6.264  -2.588   0.477  1.00  0.00    -0.323 N 
ATOM     84  H   UNL     1       7.041  -2.879   1.007  1.00  0.00     0.170 HD
BRANCH  83  85
ATOM     85  C   UNL     1       6.669  -1.486  -0.404  1.00  0.00     0.078 A 
ATOM     86  C   UNL     1       7.669  -1.679  -1.374  1.00  0.00     0.029 A 
ATOM     87  C   UNL     1       6.163  -0.179  -0.363  1.00  0.00     0.165 A 
ATOM     88  C   UNL     1       7.882  -0.738  -2.424  1.00  0.00     0.004 A 
ATOM     89  C   UNL     1       6.320   0.744  -1.425  1.00  0.00     0.078 A 
ATOM     90  F   UNL     1       5.548   0.233   0.748  1.00  0.00    -0.203 F 
ATOM     91  C   UNL     1       7.144   0.441  -2.495  1.00  0.00     0.024 A 
ATOM     92  Cl  UNL     1       5.434   2.229  -1.465  1.00  0.00    -0.081 Cl
ENDBRANCH  83  85
ENDBRANCH  75  81
ENDBRANCH  72  74
ENDBRANCH  71  72
ENDBRANCH  70  71
ENDBRANCH   1  70
TORSDOF 13
