REMARK SMILES CC[C@@H]1CCc2c(sc(NC(=O)COCC(=O)OCCOC(=O)c3ccc(-c4c5nc(c(-c6c(F)c(F)c(F)c(F)c6F)c6ccc([nH]6)c(-c6c(F)c(F)c(F)c(F)c6F)c6nc(c(-c7c(F)c(F)c(F)c(F)c7F)c7ccc4[nH]7)C=C6)C=C5)cc3)c2C(N)=O)C1
REMARK SMILES IDX 18 1 16 2 17 3 15 4 14 5 13 6 11 7 10 8 12 10 9 11 3 12 4 13
REMARK SMILES IDX 91 14 5 15 7 16 6 17 8 18 87 19 2 20 1 21 88 22 89 23 90 24
REMARK SMILES IDX 19 27 20 28 21 29 22 30 23 31 24 32 25 33 86 34 26 35 85 36
REMARK SMILES IDX 27 37 28 38 29 39 79 40 30 41 84 42 78 43 80 44 31 45 83 46
REMARK SMILES IDX 77 47 76 48 32 50 64 51 44 52 63 53 45 54 48 55 62 56 81 57
REMARK SMILES IDX 46 58 47 59 61 61 82 62 49 63 33 64 34 65 42 66 35 67 36 68
REMARK SMILES IDX 40 69 43 70 37 71 38 72 41 73 39 74 65 75 66 76 74 77 67 78
REMARK SMILES IDX 68 79 72 80 75 81 69 82 70 83 73 84 71 85 50 86 51 87 59 88
REMARK SMILES IDX 52 89 53 90 57 91 60 92 54 93 55 94 58 95 56 96
REMARK H PARENT 10 9 89 25 89 26 80 49 48 60
REMARK Flexibility Score: inf
ROOT
ATOM      1  O   UNL     1       5.846   6.450   3.933  1.00  0.00    -0.460 OA
ENDROOT
BRANCH   1   2
ATOM      2  C   UNL     1       4.536   6.783   4.094  1.00  0.00     0.332 C 
ATOM      3  O   UNL     1       4.041   7.239   5.119  1.00  0.00    -0.250 OA
BRANCH   2   4
ATOM      4  C   UNL     1       3.735   6.564   2.816  1.00  0.00     0.283 C 
BRANCH   4   5
ATOM      5  O   UNL     1       4.532   6.431   1.655  1.00  0.00    -0.360 OA
BRANCH   5   6
ATOM      6  C   UNL     1       4.594   7.536   0.795  1.00  0.00     0.261 C 
BRANCH   6   7
ATOM      7  C   UNL     1       3.347   7.923   0.027  1.00  0.00     0.251 C 
ATOM      8  N   UNL     1       2.557   7.042  -0.622  1.00  0.00    -0.315 N 
ATOM      9  H   UNL     1       1.793   7.488  -1.054  1.00  0.00     0.170 HD
ATOM     10  O   UNL     1       3.031   9.119  -0.057  1.00  0.00    -0.272 OA
BRANCH   8  11
ATOM     11  C   UNL     1       2.542   5.685  -0.838  1.00  0.00     0.108 A 
ATOM     12  C   UNL     1       0.689   1.292  -1.842  1.00  0.00    -0.006 C 
ATOM     13  C   UNL     1       2.204   1.046  -2.024  1.00  0.00     0.009 C 
ATOM     14  C   UNL     1       0.350   2.741  -2.278  1.00  0.00     0.050 C 
ATOM     15  C   UNL     1       3.053   1.953  -1.123  1.00  0.00     0.038 C 
ATOM     16  C   UNL     1       1.345   3.708  -1.708  1.00  0.00     0.011 A 
ATOM     17  C   UNL     1       2.564   3.377  -1.163  1.00  0.00    -0.019 A 
ATOM     18  S   UNL     1       1.080   5.369  -1.702  1.00  0.00    -0.122 S 
ATOM     19  C   UNL     1       3.252   4.520  -0.589  1.00  0.00     0.077 A 
BRANCH  12  20
ATOM     20  C   UNL     1       0.183   1.024  -0.405  1.00  0.00     0.000 C 
ATOM     21  C   UNL     1       0.559  -0.349   0.133  1.00  0.00     0.004 C 
ENDBRANCH  12  20
BRANCH  19  22
ATOM     22  C   UNL     1       4.477   4.293   0.165  1.00  0.00     0.251 C 
ATOM     23  N   UNL     1       5.614   4.830  -0.361  1.00  0.00    -0.365 N 
ATOM     24  O   UNL     1       4.522   3.562   1.146  1.00  0.00    -0.269 OA
ATOM     25  H   UNL     1       5.562   5.416  -1.150  1.00  0.00     0.159 HD
ATOM     26  H   UNL     1       6.487   4.631   0.049  1.00  0.00     0.159 HD
ENDBRANCH  19  22
ENDBRANCH   8  11
ENDBRANCH   6   7
ENDBRANCH   5   6
ENDBRANCH   4   5
ENDBRANCH   2   4
ENDBRANCH   1   2
BRANCH   1  27
ATOM     27  C   UNL     1       6.737   6.816   5.000  1.00  0.00     0.274 C 
BRANCH  27  28
ATOM     28  C   UNL     1       7.546   8.040   4.577  1.00  0.00     0.275 C 
BRANCH  28  29
ATOM     29  O   UNL     1       6.642   9.119   4.266  1.00  0.00    -0.458 OA
BRANCH  29  30
ATOM     30  C   UNL     1       6.802   9.695   3.053  1.00  0.00     0.338 C 
ATOM     31  O   UNL     1       7.696   9.483   2.249  1.00  0.00    -0.246 OA
BRANCH  30  32
ATOM     32  C   UNL     1       5.675  10.608   2.757  1.00  0.00     0.060 A 
ATOM     33  C   UNL     1       4.367  10.258   3.099  1.00  0.00     0.016 A 
ATOM     34  C   UNL     1       5.903  11.740   1.974  1.00  0.00     0.016 A 
ATOM     35  C   UNL     1       3.293  10.978   2.577  1.00  0.00     0.010 A 
ATOM     36  C   UNL     1       4.827  12.536   1.565  1.00  0.00     0.010 A 
ATOM     37  C   UNL     1       3.504  12.157   1.846  1.00  0.00    -0.014 A 
BRANCH  37  38
ATOM     38  C   UNL     1       2.359  13.023   1.438  1.00  0.00     0.031 A 
ATOM     39  C   UNL     1       2.178  13.462   0.008  1.00  0.00     0.074 A 
ATOM     40  C   UNL     1       1.498  13.472   2.375  1.00  0.00     0.049 A 
ATOM     41  N   UNL     1       1.422  14.418  -0.476  1.00  0.00    -0.248 NA
ATOM     42  C   UNL     1       2.961  12.747  -1.011  1.00  0.00     0.031 C 
ATOM     43  C   UNL     1       1.523  13.112   3.794  1.00  0.00     0.029 A 
ATOM     44  N   UNL     1       0.439  14.343   2.278  1.00  0.00    -0.354 N 
ATOM     45  C   UNL     1       1.681  14.459  -1.841  1.00  0.00     0.074 A 
ATOM     46  C   UNL     1       2.664  13.429  -2.111  1.00  0.00     0.031 C 
ATOM     47  C   UNL     1       0.513  13.723   4.425  1.00  0.00     0.029 A 
ATOM     48  C   UNL     1      -0.159  14.608   3.486  1.00  0.00     0.049 A 
ATOM     49  H   UNL     1       0.138  14.737   1.427  1.00  0.00     0.167 HD
ATOM     50  C   UNL     1       1.148  15.285  -2.776  1.00  0.00     0.037 A 
ATOM     51  C   UNL     1      -1.097  15.510   3.829  1.00  0.00     0.037 A 
ATOM     52  C   UNL     1       0.123  16.265  -2.511  1.00  0.00     0.049 A 
ATOM     53  C   UNL     1      -1.640  16.439   2.787  1.00  0.00     0.074 A 
ATOM     54  C   UNL     1      -0.507  17.119  -3.403  1.00  0.00     0.029 A 
ATOM     55  N   UNL     1      -0.434  16.514  -1.266  1.00  0.00    -0.354 N 
ATOM     56  N   UNL     1      -1.347  16.510   1.512  1.00  0.00    -0.248 NA
ATOM     57  C   UNL     1      -2.627  17.428   3.236  1.00  0.00     0.031 C 
ATOM     58  C   UNL     1      -1.414  17.911  -2.690  1.00  0.00     0.029 A 
ATOM     59  C   UNL     1      -1.384  17.520  -1.362  1.00  0.00     0.049 A 
ATOM     60  H   UNL     1      -0.190  16.046  -0.435  1.00  0.00     0.167 HD
ATOM     61  C   UNL     1      -2.118  17.545   1.004  1.00  0.00     0.074 A 
ATOM     62  C   UNL     1      -2.908  18.058   2.104  1.00  0.00     0.031 C 
ATOM     63  C   UNL     1      -2.160  18.028  -0.261  1.00  0.00     0.037 A 
BRANCH  50  64
ATOM     64  C   UNL     1       1.675  15.195  -4.181  1.00  0.00     0.064 A 
ATOM     65  C   UNL     1       1.356  14.126  -5.029  1.00  0.00     0.173 A 
ATOM     66  C   UNL     1       2.449  16.242  -4.708  1.00  0.00     0.173 A 
ATOM     67  F   UNL     1       0.623  13.099  -4.575  1.00  0.00    -0.203 F 
ATOM     68  C   UNL     1       1.808  14.099  -6.348  1.00  0.00     0.198 A 
ATOM     69  C   UNL     1       2.876  16.224  -6.034  1.00  0.00     0.198 A 
ATOM     70  F   UNL     1       2.772  17.296  -3.944  1.00  0.00    -0.203 F 
ATOM     71  F   UNL     1       1.517  13.052  -7.132  1.00  0.00    -0.200 F 
ATOM     72  C   UNL     1       2.559  15.151  -6.851  1.00  0.00     0.200 A 
ATOM     73  F   UNL     1       3.587  17.250  -6.522  1.00  0.00    -0.200 F 
ATOM     74  F   UNL     1       2.979  15.129  -8.124  1.00  0.00    -0.200 F 
ENDBRANCH  50  64
BRANCH  51  75
ATOM     75  C   UNL     1      -1.532  15.604   5.246  1.00  0.00     0.064 A 
ATOM     76  C   UNL     1      -2.815  15.197   5.631  1.00  0.00     0.173 A 
ATOM     77  C   UNL     1      -0.663  16.068   6.246  1.00  0.00     0.173 A 
ATOM     78  F   UNL     1      -3.688  14.771   4.707  1.00  0.00    -0.203 F 
ATOM     79  C   UNL     1      -3.214  15.251   6.965  1.00  0.00     0.198 A 
ATOM     80  C   UNL     1      -1.051  16.090   7.582  1.00  0.00     0.198 A 
ATOM     81  F   UNL     1       0.578  16.466   5.926  1.00  0.00    -0.203 F 
ATOM     82  F   UNL     1      -4.457  14.887   7.305  1.00  0.00    -0.200 F 
ATOM     83  C   UNL     1      -2.328  15.687   7.940  1.00  0.00     0.200 A 
ATOM     84  F   UNL     1      -0.186  16.493   8.522  1.00  0.00    -0.200 F 
ATOM     85  F   UNL     1      -2.707  15.721   9.225  1.00  0.00    -0.200 F 
ENDBRANCH  51  75
BRANCH  63  86
ATOM     86  C   UNL     1      -3.114  19.155  -0.522  1.00  0.00     0.064 A 
ATOM     87  C   UNL     1      -2.857  20.454  -0.062  1.00  0.00     0.173 A 
ATOM     88  C   UNL     1      -4.295  18.933  -1.245  1.00  0.00     0.173 A 
ATOM     89  F   UNL     1      -1.750  20.711   0.653  1.00  0.00    -0.203 F 
ATOM     90  C   UNL     1      -3.762  21.487  -0.293  1.00  0.00     0.198 A 
ATOM     91  C   UNL     1      -5.185  19.974  -1.497  1.00  0.00     0.198 A 
ATOM     92  F   UNL     1      -4.586  17.708  -1.708  1.00  0.00    -0.203 F 
ATOM     93  F   UNL     1      -3.521  22.709   0.200  1.00  0.00    -0.200 F 
ATOM     94  C   UNL     1      -4.922  21.247  -1.014  1.00  0.00     0.200 A 
ATOM     95  F   UNL     1      -6.302  19.742  -2.200  1.00  0.00    -0.200 F 
ATOM     96  F   UNL     1      -5.793  22.241  -1.234  1.00  0.00    -0.200 F 
ENDBRANCH  63  86
ENDBRANCH  37  38
ENDBRANCH  30  32
ENDBRANCH  29  30
ENDBRANCH  28  29
ENDBRANCH  27  28
ENDBRANCH   1  27
TORSDOF 17
