REMARK SMILES C[C@@]12CC/C(=N\OCC(=O)N[C@@H](CO)C(=O)OCCOC(=O)c3ccc(-c4c5nc(c(-c6c(F)c(F)c(F)c(F)c6F)c6ccc([nH]6)c(-c6c(F)c(F)c(F)c(F)c6F)c6nc(c(-c7c(F)c(F)c(F)c(F)c7F)c7ccc4[nH]7)C=C6)C=C5)cc3)C=C1CC[C@H]1[C@H]2CC[C@]2(C)[C@H]1CC[C@@]2(C)O
REMARK SMILES IDX 17 1 15 2 16 3 12 4 11 5 9 6 10 7 8 9 7 10 6 11 1 12 2 13
REMARK SMILES IDX 3 14 87 15 91 16 4 17 86 18 88 19 90 20 92 21 5 22 89 23
REMARK SMILES IDX 96 24 93 25 94 26 97 27 99 28 95 29 98 30 100 31 101 32
REMARK SMILES IDX 13 34 14 35 18 37 19 38 20 39 21 40 22 41 23 42 24 43 85 44
REMARK SMILES IDX 25 45 84 46 26 47 27 48 28 49 78 50 29 51 83 52 77 53 79 54
REMARK SMILES IDX 30 55 82 56 76 57 75 58 31 60 63 61 43 62 62 63 44 64 47 65
REMARK SMILES IDX 61 66 80 67 45 68 46 69 60 71 81 72 48 73 32 74 33 75 41 76
REMARK SMILES IDX 34 77 35 78 39 79 42 80 36 81 37 82 40 83 38 84 64 85 65 86
REMARK SMILES IDX 73 87 66 88 67 89 71 90 74 91 68 92 69 93 72 94 70 95 49 96
REMARK SMILES IDX 50 97 58 98 51 99 52 100 56 101 59 102 53 103 54 104 57 105
REMARK SMILES IDX 55 106
REMARK H PARENT 11 8 101 33 14 36 79 59 47 70
REMARK Flexibility Score: inf
ROOT
ATOM      1  O   UNL     1       3.571   4.016  -0.792  1.00  0.00    -0.460 OA
ENDROOT
BRANCH   1   2
ATOM      2  C   UNL     1       4.226   2.822  -0.495  1.00  0.00     0.331 C 
ATOM      3  O   UNL     1       5.175   2.760   0.286  1.00  0.00    -0.250 OA
BRANCH   2   4
ATOM      4  C   UNL     1       3.469   1.508  -0.979  1.00  0.00     0.218 C 
BRANCH   4   5
ATOM      5  N   UNL     1       2.583   1.472  -2.175  1.00  0.00    -0.338 N 
ATOM      6  C   UNL     1       1.506   0.758  -2.659  1.00  0.00     0.261 C 
ATOM      7  O   UNL     1       1.396   0.894  -3.894  1.00  0.00    -0.271 OA
ATOM      8  H   UNL     1       2.846   2.172  -2.816  1.00  0.00     0.164 HD
BRANCH   6   9
ATOM      9  C   UNL     1       0.258  -0.005  -1.893  1.00  0.00     0.363 C 
BRANCH   9  10
ATOM     10  O   UNL     1      -0.267  -1.341  -1.659  1.00  0.00    -0.385 OA
BRANCH  10  11
ATOM     11  N   UNL     1       0.514  -2.237  -0.854  1.00  0.00    -0.091 NA
ATOM     12  C   UNL     1       1.520  -0.226   0.746  1.00  0.00     0.016 C 
ATOM     13  C   UNL     1       0.502  -0.532   1.865  1.00  0.00    -0.008 C 
ATOM     14  C   UNL     1      -1.014  -0.745   1.450  1.00  0.00     0.018 C 
ATOM     15  C   UNL     1       1.126  -1.809   2.356  1.00  0.00    -0.062 C 
ATOM     16  C   UNL     1       0.542   0.681   2.821  1.00  0.00     0.002 C 
ATOM     17  C   UNL     1      -1.345  -2.074   0.798  1.00  0.00     0.061 C 
ATOM     18  C   UNL     1       0.898  -2.890   1.544  1.00  0.00     0.027 C 
ATOM     19  C   UNL     1       2.250  -1.607   3.386  1.00  0.00     0.032 C 
ATOM     20  C   UNL     1       1.992   1.030   3.185  1.00  0.00    -0.003 C 
ATOM     21  C   UNL     1      -0.235   1.804   2.178  1.00  0.00     0.005 C 
ATOM     22  C   UNL     1      -0.006  -2.531   0.323  1.00  0.00     0.080 C 
ATOM     23  C   UNL     1       2.477  -0.164   4.034  1.00  0.00     0.008 C 
ATOM     24  C   UNL     1       2.253   2.484   3.621  1.00  0.00     0.001 C 
ATOM     25  C   UNL     1       0.001   3.120   2.844  1.00  0.00     0.010 C 
ATOM     26  C   UNL     1       1.455   3.581   2.837  1.00  0.00    -0.001 C 
ATOM     27  C   UNL     1       1.961   2.862   5.069  1.00  0.00     0.007 C 
ATOM     28  C   UNL     1       1.978   4.868   3.652  1.00  0.00     0.068 C 
ATOM     29  C   UNL     1       1.746   3.658   1.363  1.00  0.00     0.015 C 
ATOM     30  C   UNL     1       1.743   4.388   5.082  1.00  0.00     0.036 C 
ATOM     31  C   UNL     1       1.537   6.343   3.525  1.00  0.00     0.042 C 
BRANCH  28  32
ATOM     32  O   UNL     1       3.400   4.966   3.409  1.00  0.00    -0.390 OA
ATOM     33  H   UNL     1       3.799   4.083   3.464  1.00  0.00     0.211 HD
ENDBRANCH  28  32
ENDBRANCH  10  11
ENDBRANCH   9  10
ENDBRANCH   6   9
ENDBRANCH   4   5
BRANCH   4  34
ATOM     34  C   UNL     1       4.383   0.251  -0.902  1.00  0.00     0.193 C 
BRANCH  34  35
ATOM     35  O   UNL     1       5.526   0.291  -1.748  1.00  0.00    -0.394 OA
ATOM     36  H   UNL     1       5.242   0.330  -2.675  1.00  0.00     0.210 HD
ENDBRANCH  34  35
ENDBRANCH   4  34
ENDBRANCH   2   4
ENDBRANCH   1   2
BRANCH   1  37
ATOM     37  C   UNL     1       3.919   5.157   0.072  1.00  0.00     0.274 C 
BRANCH  37  38
ATOM     38  C   UNL     1       2.901   6.424   0.184  1.00  0.00     0.275 C 
BRANCH  38  39
ATOM     39  O   UNL     1       1.313   6.440   0.072  1.00  0.00    -0.458 OA
BRANCH  39  40
ATOM     40  C   UNL     1      -0.042   6.465   0.054  1.00  0.00     0.338 C 
ATOM     41  O   UNL     1      -0.536   6.559  -1.078  1.00  0.00    -0.246 OA
BRANCH  40  42
ATOM     42  C   UNL     1      -1.185   6.424   1.130  1.00  0.00     0.060 A 
ATOM     43  C   UNL     1      -1.186   5.744   2.320  1.00  0.00     0.016 A 
ATOM     44  C   UNL     1      -2.491   6.828   0.823  1.00  0.00     0.016 A 
ATOM     45  C   UNL     1      -2.330   5.117   2.926  1.00  0.00     0.010 A 
ATOM     46  C   UNL     1      -3.659   6.283   1.484  1.00  0.00     0.010 A 
ATOM     47  C   UNL     1      -3.594   5.218   2.406  1.00  0.00    -0.014 A 
BRANCH  47  48
ATOM     48  C   UNL     1      -4.751   4.229   2.706  1.00  0.00     0.031 A 
ATOM     49  C   UNL     1      -5.846   4.144   1.653  1.00  0.00     0.074 A 
ATOM     50  C   UNL     1      -4.898   3.280   3.683  1.00  0.00     0.049 A 
ATOM     51  N   UNL     1      -7.135   3.955   1.780  1.00  0.00    -0.248 NA
ATOM     52  C   UNL     1      -5.410   4.332   0.260  1.00  0.00     0.031 C 
ATOM     53  C   UNL     1      -3.908   2.794   4.648  1.00  0.00     0.029 A 
ATOM     54  N   UNL     1      -6.022   2.519   4.027  1.00  0.00    -0.354 N 
ATOM     55  C   UNL     1      -7.671   4.213   0.521  1.00  0.00     0.074 A 
ATOM     56  C   UNL     1      -6.565   4.514  -0.359  1.00  0.00     0.031 C 
ATOM     57  C   UNL     1      -4.455   1.876   5.465  1.00  0.00     0.029 A 
ATOM     58  C   UNL     1      -5.875   1.765   5.181  1.00  0.00     0.049 A 
ATOM     59  H   UNL     1      -6.850   2.519   3.493  1.00  0.00     0.167 HD
ATOM     60  C   UNL     1      -8.976   4.239   0.159  1.00  0.00     0.037 A 
ATOM     61  C   UNL     1      -6.768   1.129   5.979  1.00  0.00     0.037 A 
ATOM     62  C   UNL     1     -10.040   3.760   1.001  1.00  0.00     0.049 A 
ATOM     63  C   UNL     1      -8.239   1.224   5.645  1.00  0.00     0.074 A 
ATOM     64  C   UNL     1     -11.405   3.779   0.782  1.00  0.00     0.029 A 
ATOM     65  N   UNL     1      -9.836   3.107   2.207  1.00  0.00    -0.354 N 
ATOM     66  N   UNL     1      -8.813   1.757   4.594  1.00  0.00    -0.248 NA
ATOM     67  C   UNL     1      -9.191   0.675   6.626  1.00  0.00     0.031 C 
ATOM     68  C   UNL     1     -12.030   3.171   1.877  1.00  0.00     0.029 A 
ATOM     69  C   UNL     1     -11.049   2.722   2.748  1.00  0.00     0.049 A 
ATOM     70  H   UNL     1      -8.957   2.942   2.619  1.00  0.00     0.167 HD
ATOM     71  C   UNL     1     -10.181   1.591   4.776  1.00  0.00     0.074 A 
ATOM     72  C   UNL     1     -10.355   0.890   6.030  1.00  0.00     0.031 C 
ATOM     73  C   UNL     1     -11.202   1.996   3.982  1.00  0.00     0.037 A 
BRANCH  60  74
ATOM     74  C   UNL     1      -9.319   4.915  -1.139  1.00  0.00     0.064 A 
ATOM     75  C   UNL     1      -8.990   4.389  -2.395  1.00  0.00     0.173 A 
ATOM     76  C   UNL     1      -9.964   6.165  -1.106  1.00  0.00     0.173 A 
ATOM     77  F   UNL     1      -8.357   3.210  -2.489  1.00  0.00    -0.203 F 
ATOM     78  C   UNL     1      -9.244   5.109  -3.563  1.00  0.00     0.198 A 
ATOM     79  C   UNL     1     -10.252   6.862  -2.275  1.00  0.00     0.198 A 
ATOM     80  F   UNL     1     -10.306   6.718   0.068  1.00  0.00    -0.203 F 
ATOM     81  F   UNL     1      -8.844   4.623  -4.746  1.00  0.00    -0.200 F 
ATOM     82  C   UNL     1      -9.877   6.342  -3.502  1.00  0.00     0.200 A 
ATOM     83  F   UNL     1     -10.876   8.047  -2.210  1.00  0.00    -0.200 F 
ATOM     84  F   UNL     1     -10.112   7.035  -4.625  1.00  0.00    -0.200 F 
ENDBRANCH  60  74
BRANCH  61  85
ATOM     85  C   UNL     1      -6.347   0.456   7.258  1.00  0.00     0.064 A 
ATOM     86  C   UNL     1      -6.585  -0.911   7.491  1.00  0.00     0.173 A 
ATOM     87  C   UNL     1      -5.774   1.184   8.316  1.00  0.00     0.173 A 
ATOM     88  F   UNL     1      -7.177  -1.657   6.547  1.00  0.00    -0.203 F 
ATOM     89  C   UNL     1      -6.279  -1.510   8.718  1.00  0.00     0.198 A 
ATOM     90  C   UNL     1      -5.432   0.576   9.527  1.00  0.00     0.198 A 
ATOM     91  F   UNL     1      -5.546   2.498   8.180  1.00  0.00    -0.203 F 
ATOM     92  F   UNL     1      -6.578  -2.800   8.927  1.00  0.00    -0.200 F 
ATOM     93  C   UNL     1      -5.694  -0.768   9.731  1.00  0.00     0.200 A 
ATOM     94  F   UNL     1      -4.859   1.300  10.498  1.00  0.00    -0.200 F 
ATOM     95  F   UNL     1      -5.397  -1.341  10.906  1.00  0.00    -0.200 F 
ENDBRANCH  61  85
BRANCH  73  96
ATOM     96  C   UNL     1     -12.595   1.634   4.402  1.00  0.00     0.064 A 
ATOM     97  C   UNL     1     -13.232   2.266   5.479  1.00  0.00     0.173 A 
ATOM     98  C   UNL     1     -13.323   0.681   3.672  1.00  0.00     0.173 A 
ATOM     99  F   UNL     1     -12.572   3.171   6.218  1.00  0.00    -0.203 F 
ATOM    100  C   UNL     1     -14.543   1.944   5.822  1.00  0.00     0.198 A 
ATOM    101  C   UNL     1     -14.643   0.385   3.998  1.00  0.00     0.198 A 
ATOM    102  F   UNL     1     -12.758   0.052   2.631  1.00  0.00    -0.203 F 
ATOM    103  F   UNL     1     -15.119   2.529   6.880  1.00  0.00    -0.200 F 
ATOM    104  C   UNL     1     -15.250   1.012   5.075  1.00  0.00     0.200 A 
ATOM    105  F   UNL     1     -15.328  -0.504   3.266  1.00  0.00    -0.200 F 
ATOM    106  F   UNL     1     -16.516   0.715   5.397  1.00  0.00    -0.200 F 
ENDBRANCH  73  96
ENDBRANCH  47  48
ENDBRANCH  40  42
ENDBRANCH  39  40
ENDBRANCH  38  39
ENDBRANCH  37  38
ENDBRANCH   1  37
TORSDOF 18
