REMARK SMILES NC(=O)c1c(NC(=O)[C@H]2[C@@H](C(=O)OCCOC(=O)c3ccc(-c4c5nc(c(-c6c(F)c(F)c(F)c(F)c6F)c6ccc([nH]6)c(-c6c(F)c(F)c(F)c(F)c6F)c6nc(c(-c7c(F)c(F)c(F)c(F)c7F)c7ccc4[nH]7)C=C6)C=C5)cc3)[C@@H]3C=C[C@H]2C3)sc2c1CCCCCC2
REMARK SMILES IDX 13 1 11 2 12 3 10 4 9 5 85 6 82 7 84 8 86 9 83 10 7 11 6 12
REMARK SMILES IDX 8 14 5 15 4 16 89 17 87 18 88 19 2 20 1 21 3 24 90 25 91 26
REMARK SMILES IDX 92 27 95 29 94 30 93 31 14 33 15 34 16 35 17 36 18 37 19 38
REMARK SMILES IDX 20 39 81 40 21 41 80 42 22 43 23 44 24 45 74 46 25 47 79 48
REMARK SMILES IDX 73 49 75 50 26 51 78 52 72 53 71 54 27 56 59 57 39 58 58 59
REMARK SMILES IDX 40 60 43 61 57 62 76 63 41 64 42 65 56 67 77 68 44 69 28 70
REMARK SMILES IDX 29 71 37 72 30 73 31 74 35 75 38 76 32 77 33 78 36 79 34 80
REMARK SMILES IDX 60 81 61 82 69 83 62 84 63 85 67 86 70 87 64 88 65 89 68 90
REMARK SMILES IDX 66 91 45 92 46 93 54 94 47 95 48 96 52 97 55 98 49 99 50 100
REMARK SMILES IDX 53 101 51 102
REMARK H PARENT 6 13 1 22 1 23 75 55 43 66
REMARK Flexibility Score: 90.00
ROOT
ATOM      1  O   UNL     1      -0.447   1.871  -0.539  1.00  0.00    -0.462 OA
ENDROOT
BRANCH   1   2
ATOM      2  C   UNL     1       0.593   1.001  -0.408  1.00  0.00     0.310 C 
ATOM      3  O   UNL     1       1.118   0.419  -1.350  1.00  0.00    -0.252 OA
BRANCH   2   4
ATOM      4  C   UNL     1       1.090   0.911   1.033  1.00  0.00     0.119 C 
ATOM      5  C   UNL     1       1.222  -0.551   1.538  1.00  0.00     0.100 C 
ATOM      6  C   UNL     1       0.040  -0.692   2.533  1.00  0.00     0.025 C 
ATOM      7  C   UNL     1       0.088   1.495   2.058  1.00  0.00     0.027 C 
ATOM      8  C   UNL     1       0.540   0.024   3.781  1.00  0.00    -0.027 C 
ATOM      9  C   UNL     1      -0.959   0.373   2.087  1.00  0.00     0.017 C 
ATOM     10  C   UNL     1       0.634   1.327   3.465  1.00  0.00    -0.027 C 
BRANCH   5  11
ATOM     11  C   UNL     1       1.468  -1.600   0.494  1.00  0.00     0.229 C 
ATOM     12  N   UNL     1       2.701  -1.665  -0.115  1.00  0.00    -0.317 N 
ATOM     13  H   UNL     1       2.726  -2.280  -0.883  1.00  0.00     0.170 HD
ATOM     14  O   UNL     1       0.568  -2.361   0.135  1.00  0.00    -0.274 OA
BRANCH  12  15
ATOM     15  C   UNL     1       3.916  -1.039   0.133  1.00  0.00     0.108 A 
ATOM     16  C   UNL     1       4.588  -0.406   1.169  1.00  0.00     0.077 A 
ATOM     17  C   UNL     1       5.887   0.117   0.743  1.00  0.00    -0.019 A 
ATOM     18  S   UNL     1       4.889  -1.111  -1.273  1.00  0.00    -0.122 S 
ATOM     19  C   UNL     1       6.174  -0.212  -0.573  1.00  0.00     0.011 A 
BRANCH  16  20
ATOM     20  C   UNL     1       4.178  -0.278   2.560  1.00  0.00     0.251 C 
ATOM     21  N   UNL     1       4.036  -1.456   3.233  1.00  0.00    -0.365 N 
ATOM     22  H   UNL     1       3.761  -1.453   4.178  1.00  0.00     0.159 HD
ATOM     23  H   UNL     1       4.207  -2.310   2.773  1.00  0.00     0.159 HD
ATOM     24  O   UNL     1       4.007   0.797   3.119  1.00  0.00    -0.269 OA
ENDBRANCH  16  20
BRANCH  17  25
ATOM     25  C   UNL     1       6.815   0.839   1.692  1.00  0.00     0.037 C 
BRANCH  25  26
ATOM     26  C   UNL     1       7.910  -0.064   2.255  1.00  0.00     0.005 C 
BRANCH  26  27
ATOM     27  C   UNL     1       8.768  -0.796   1.224  1.00  0.00     0.000 CG0
ATOM     28  G   UNL     1       9.441   0.096   0.184  1.00  0.00     0.000 G0
ENDBRANCH  26  27
ENDBRANCH  25  26
ENDBRANCH  17  25
BRANCH  19  29
ATOM     29  C   UNL     1       7.394   0.024  -1.438  1.00  0.00     0.047 C 
BRANCH  29  30
ATOM     30  C   UNL     1       8.555   0.818  -0.839  1.00  0.00     0.006 C 
BRANCH  30  31
ATOM     31  C   UNL     1       9.441   0.096   0.184  1.00  0.00     0.000 CG0
ATOM     32  G   UNL     1       8.768  -0.796   1.224  1.00  0.00     0.000 G0
ENDBRANCH  30  31
ENDBRANCH  29  30
ENDBRANCH  19  29
ENDBRANCH  12  15
ENDBRANCH   5  11
ENDBRANCH   2   4
ENDBRANCH   1   2
BRANCH   1  33
ATOM     33  C   UNL     1      -0.853   2.176  -1.881  1.00  0.00     0.274 C 
BRANCH  33  34
ATOM     34  C   UNL     1      -0.061   3.351  -2.437  1.00  0.00     0.275 C 
BRANCH  34  35
ATOM     35  O   UNL     1       1.310   3.012  -2.650  1.00  0.00    -0.458 OA
BRANCH  35  36
ATOM     36  C   UNL     1       2.149   3.255  -1.614  1.00  0.00     0.338 C 
ATOM     37  O   UNL     1       1.846   3.564  -0.477  1.00  0.00    -0.246 OA
BRANCH  36  38
ATOM     38  C   UNL     1       3.530   3.292  -2.120  1.00  0.00     0.060 A 
ATOM     39  C   UNL     1       4.548   3.584  -1.206  1.00  0.00     0.016 A 
ATOM     40  C   UNL     1       3.754   3.320  -3.502  1.00  0.00     0.016 A 
ATOM     41  C   UNL     1       5.747   4.078  -1.684  1.00  0.00     0.010 A 
ATOM     42  C   UNL     1       4.929   3.852  -3.975  1.00  0.00     0.010 A 
ATOM     43  C   UNL     1       5.889   4.280  -3.060  1.00  0.00    -0.014 A 
BRANCH  43  44
ATOM     44  C   UNL     1       7.104   4.893  -3.554  1.00  0.00     0.031 A 
ATOM     45  C   UNL     1       8.218   3.939  -3.778  1.00  0.00     0.074 A 
ATOM     46  C   UNL     1       7.147   6.188  -3.921  1.00  0.00     0.049 A 
ATOM     47  N   UNL     1       9.382   3.933  -3.216  1.00  0.00    -0.248 NA
ATOM     48  C   UNL     1       7.969   2.774  -4.645  1.00  0.00     0.031 C 
ATOM     49  C   UNL     1       6.041   7.140  -4.050  1.00  0.00     0.029 A 
ATOM     50  N   UNL     1       8.213   6.904  -4.366  1.00  0.00    -0.354 N 
ATOM     51  C   UNL     1      10.072   2.861  -3.775  1.00  0.00     0.074 A 
ATOM     52  C   UNL     1       9.109   2.097  -4.519  1.00  0.00     0.031 C 
ATOM     53  C   UNL     1       6.462   8.218  -4.755  1.00  0.00     0.029 A 
ATOM     54  C   UNL     1       7.885   8.083  -5.019  1.00  0.00     0.049 A 
ATOM     55  H   UNL     1       9.143   6.609  -4.235  1.00  0.00     0.167 HD
ATOM     56  C   UNL     1      11.431   2.801  -3.750  1.00  0.00     0.037 A 
ATOM     57  C   UNL     1       8.723   8.813  -5.800  1.00  0.00     0.037 A 
ATOM     58  C   UNL     1      11.970   3.668  -2.734  1.00  0.00     0.049 A 
ATOM     59  C   UNL     1      10.115   8.403  -5.466  1.00  0.00     0.074 A 
ATOM     60  C   UNL     1      11.832   3.748  -1.360  1.00  0.00     0.029 A 
ATOM     61  N   UNL     1      12.491   4.879  -3.119  1.00  0.00    -0.354 N 
ATOM     62  N   UNL     1      10.691   8.665  -4.325  1.00  0.00    -0.248 NA
ATOM     63  C   UNL     1      10.676   7.281  -6.208  1.00  0.00     0.031 C 
ATOM     64  C   UNL     1      11.777   5.145  -1.077  1.00  0.00     0.029 A 
ATOM     65  C   UNL     1      11.953   5.824  -2.282  1.00  0.00     0.049 A 
ATOM     66  H   UNL     1      13.127   5.039  -3.853  1.00  0.00     0.167 HD
ATOM     67  C   UNL     1      11.382   7.505  -4.007  1.00  0.00     0.074 A 
ATOM     68  C   UNL     1      11.380   6.706  -5.230  1.00  0.00     0.031 C 
ATOM     69  C   UNL     1      11.637   7.162  -2.710  1.00  0.00     0.037 A 
BRANCH  56  70
ATOM     70  C   UNL     1      12.270   2.240  -4.873  1.00  0.00     0.064 A 
ATOM     71  C   UNL     1      13.668   2.173  -4.712  1.00  0.00     0.173 A 
ATOM     72  C   UNL     1      11.804   2.049  -6.194  1.00  0.00     0.173 A 
ATOM     73  F   UNL     1      14.227   2.347  -3.505  1.00  0.00    -0.203 F 
ATOM     74  C   UNL     1      14.531   2.024  -5.801  1.00  0.00     0.198 A 
ATOM     75  C   UNL     1      12.667   1.844  -7.269  1.00  0.00     0.198 A 
ATOM     76  F   UNL     1      10.514   2.163  -6.526  1.00  0.00    -0.203 F 
ATOM     77  F   UNL     1      15.855   2.103  -5.613  1.00  0.00    -0.200 F 
ATOM     78  C   UNL     1      14.030   1.868  -7.079  1.00  0.00     0.200 A 
ATOM     79  F   UNL     1      12.158   1.708  -8.502  1.00  0.00    -0.200 F 
ATOM     80  F   UNL     1      14.855   1.791  -8.131  1.00  0.00    -0.200 F 
ENDBRANCH  56  70
BRANCH  57  81
ATOM     81  C   UNL     1       8.396   9.532  -7.057  1.00  0.00     0.064 A 
ATOM     82  C   UNL     1       9.273  10.485  -7.603  1.00  0.00     0.173 A 
ATOM     83  C   UNL     1       7.349   9.098  -7.894  1.00  0.00     0.173 A 
ATOM     84  F   UNL     1      10.329  10.912  -6.895  1.00  0.00    -0.203 F 
ATOM     85  C   UNL     1       9.118  10.962  -8.910  1.00  0.00     0.198 A 
ATOM     86  C   UNL     1       7.193   9.578  -9.195  1.00  0.00     0.198 A 
ATOM     87  F   UNL     1       6.515   8.124  -7.504  1.00  0.00    -0.203 F 
ATOM     88  F   UNL     1      10.008  11.827  -9.417  1.00  0.00    -0.200 F 
ATOM     89  C   UNL     1       8.083  10.502  -9.708  1.00  0.00     0.200 A 
ATOM     90  F   UNL     1       6.212   9.092  -9.969  1.00  0.00    -0.200 F 
ATOM     91  F   UNL     1       7.969  10.912 -10.978  1.00  0.00    -0.200 F 
ENDBRANCH  57  81
BRANCH  69  92
ATOM     92  C   UNL     1      11.354   8.176  -1.642  1.00  0.00     0.064 A 
ATOM     93  C   UNL     1      10.076   8.698  -1.370  1.00  0.00     0.173 A 
ATOM     94  C   UNL     1      12.393   8.527  -0.771  1.00  0.00     0.173 A 
ATOM     95  F   UNL     1       9.011   8.325  -2.091  1.00  0.00    -0.203 F 
ATOM     96  C   UNL     1       9.866   9.574  -0.306  1.00  0.00     0.198 A 
ATOM     97  C   UNL     1      12.173   9.373   0.312  1.00  0.00     0.198 A 
ATOM     98  F   UNL     1      13.619   8.012  -0.947  1.00  0.00    -0.203 F 
ATOM     99  F   UNL     1       8.642  10.072  -0.076  1.00  0.00    -0.200 F 
ATOM    100  C   UNL     1      10.914   9.906   0.537  1.00  0.00     0.200 A 
ATOM    101  F   UNL     1      13.178   9.649   1.154  1.00  0.00    -0.200 F 
ATOM    102  F   UNL     1      10.706  10.719   1.582  1.00  0.00    -0.200 F 
ENDBRANCH  69  92
ENDBRANCH  43  44
ENDBRANCH  36  38
ENDBRANCH  35  36
ENDBRANCH  34  35
ENDBRANCH  33  34
ENDBRANCH   1  33
TORSDOF 14
