REMARK SMILES CCCC1CN(c2ccc(C(=O)NCC(=O)OCCOC(=O)c3ccc(-c4c5nc(c(-c6c(F)c(F)c(F)c(F)c6F)c6ccc([nH]6)c(-c6c(F)c(F)c(F)c(F)c6F)c6nc(c(-c7c(F)c(F)c(F)c(F)c7F)c7ccc4[nH]7)C=C6)C=C5)cc3)cc2)C1
REMARK SMILES IDX 17 1 15 2 16 3 14 4 13 5 11 6 12 7 10 9 7 10 8 11 87 12 9 13
REMARK SMILES IDX 86 14 6 15 4 16 5 17 88 18 3 19 2 20 1 21 18 22 19 23 20 24
REMARK SMILES IDX 21 25 22 26 23 27 24 28 85 29 25 30 84 31 26 32 27 33 28 34
REMARK SMILES IDX 78 35 29 36 83 37 77 38 79 39 30 40 82 41 76 42 75 43 31 45
REMARK SMILES IDX 63 46 43 47 62 48 44 49 47 50 61 51 80 52 45 53 46 54 60 56
REMARK SMILES IDX 81 57 48 58 32 59 33 60 41 61 34 62 35 63 39 64 42 65 36 66
REMARK SMILES IDX 37 67 40 68 38 69 64 70 65 71 73 72 66 73 67 74 71 75 74 76
REMARK SMILES IDX 68 77 69 78 72 79 70 80 49 81 50 82 58 83 51 84 52 85 56 86
REMARK SMILES IDX 59 87 53 88 54 89 57 90 55 91
REMARK H PARENT 13 8 79 44 47 55
REMARK Flexibility Score: inf
ROOT
ATOM      1  O   UNL     1      -2.774   5.779  -7.936  1.00  0.00    -0.461 OA
ENDROOT
BRANCH   1   2
ATOM      2  C   UNL     1      -1.774   6.458  -7.311  1.00  0.00     0.325 C 
ATOM      3  O   UNL     1      -0.592   6.416  -7.635  1.00  0.00    -0.250 OA
BRANCH   2   4
ATOM      4  C   UNL     1      -2.307   7.415  -6.242  1.00  0.00     0.239 C 
BRANCH   4   5
ATOM      5  N   UNL     1      -3.669   7.140  -5.831  1.00  0.00    -0.341 N 
ATOM      6  C   UNL     1      -4.157   6.519  -4.716  1.00  0.00     0.251 C 
ATOM      7  O   UNL     1      -5.376   6.461  -4.561  1.00  0.00    -0.269 OA
ATOM      8  H   UNL     1      -4.358   7.453  -6.460  1.00  0.00     0.164 HD
BRANCH   6   9
ATOM      9  C   UNL     1      -3.264   5.956  -3.671  1.00  0.00     0.039 A 
ATOM     10  C   UNL     1      -1.712   4.873  -1.583  1.00  0.00     0.037 A 
ATOM     11  C   UNL     1      -2.950   5.466  -1.316  1.00  0.00     0.027 A 
ATOM     12  C   UNL     1      -1.264   4.811  -2.905  1.00  0.00     0.027 A 
ATOM     13  C   UNL     1      -3.715   6.014  -2.347  1.00  0.00     0.016 A 
ATOM     14  C   UNL     1      -2.050   5.317  -3.945  1.00  0.00     0.016 A 
BRANCH  10  15
ATOM     15  N   UNL     1      -0.993   4.297  -0.520  1.00  0.00    -0.371 N 
ATOM     16  C   UNL     1       0.335   2.736  -0.154  1.00  0.00     0.028 C 
ATOM     17  C   UNL     1      -1.185   2.929  -0.118  1.00  0.00     0.122 C 
ATOM     18  C   UNL     1       0.429   4.255  -0.334  1.00  0.00     0.122 C 
BRANCH  16  19
ATOM     19  C   UNL     1       0.981   2.152   1.095  1.00  0.00     0.007 C 
BRANCH  19  20
ATOM     20  C   UNL     1       0.577   0.692   1.313  1.00  0.00    -0.003 C 
ATOM     21  C   UNL     1       1.090  -0.248   0.232  1.00  0.00     0.004 C 
ENDBRANCH  19  20
ENDBRANCH  16  19
ENDBRANCH  10  15
ENDBRANCH   6   9
ENDBRANCH   4   5
ENDBRANCH   2   4
ENDBRANCH   1   2
BRANCH   1  22
ATOM     22  C   UNL     1      -2.434   5.090  -9.152  1.00  0.00     0.274 C 
BRANCH  22  23
ATOM     23  C   UNL     1      -2.828   5.927 -10.374  1.00  0.00     0.275 C 
BRANCH  23  24
ATOM     24  O   UNL     1      -1.966   7.072 -10.539  1.00  0.00    -0.458 OA
BRANCH  24  25
ATOM     25  C   UNL     1      -2.375   8.197  -9.913  1.00  0.00     0.338 C 
ATOM     26  O   UNL     1      -3.387   8.353  -9.245  1.00  0.00    -0.246 OA
BRANCH  25  27
ATOM     27  C   UNL     1      -1.337   9.230 -10.012  1.00  0.00     0.060 A 
ATOM     28  C   UNL     1      -0.586   9.520  -8.872  1.00  0.00     0.016 A 
ATOM     29  C   UNL     1      -1.189   9.992 -11.171  1.00  0.00     0.016 A 
ATOM     30  C   UNL     1       0.285  10.599  -8.863  1.00  0.00     0.010 A 
ATOM     31  C   UNL     1      -0.282  11.057 -11.174  1.00  0.00     0.010 A 
ATOM     32  C   UNL     1       0.445  11.378 -10.014  1.00  0.00    -0.014 A 
BRANCH  32  33
ATOM     33  C   UNL     1       1.349  12.550  -9.966  1.00  0.00     0.031 A 
ATOM     34  C   UNL     1       0.780  13.937 -10.006  1.00  0.00     0.074 A 
ATOM     35  C   UNL     1       2.675  12.361  -9.831  1.00  0.00     0.049 A 
ATOM     36  N   UNL     1       1.405  15.085 -10.067  1.00  0.00    -0.248 NA
ATOM     37  C   UNL     1      -0.686  14.049  -9.973  1.00  0.00     0.031 C 
ATOM     38  C   UNL     1       3.334  11.059  -9.718  1.00  0.00     0.029 A 
ATOM     39  N   UNL     1       3.703  13.264  -9.752  1.00  0.00    -0.354 N 
ATOM     40  C   UNL     1       0.411  16.052 -10.118  1.00  0.00     0.074 A 
ATOM     41  C   UNL     1      -0.860  15.359 -10.081  1.00  0.00     0.031 C 
ATOM     42  C   UNL     1       4.653  11.248  -9.564  1.00  0.00     0.029 A 
ATOM     43  C   UNL     1       4.938  12.678  -9.630  1.00  0.00     0.049 A 
ATOM     44  H   UNL     1       3.568  14.239  -9.781  1.00  0.00     0.167 HD
ATOM     45  C   UNL     1       0.551  17.397 -10.193  1.00  0.00     0.037 A 
ATOM     46  C   UNL     1       6.164  13.232  -9.606  1.00  0.00     0.037 A 
ATOM     47  C   UNL     1       1.818  18.080 -10.193  1.00  0.00     0.049 A 
ATOM     48  C   UNL     1       6.293  14.724  -9.725  1.00  0.00     0.074 A 
ATOM     49  C   UNL     1       2.068  19.439 -10.264  1.00  0.00     0.029 A 
ATOM     50  N   UNL     1       3.051  17.450 -10.105  1.00  0.00    -0.354 N 
ATOM     51  N   UNL     1       5.350  15.629  -9.824  1.00  0.00    -0.248 NA
ATOM     52  C   UNL     1       7.656  15.271  -9.746  1.00  0.00     0.031 C 
ATOM     53  C   UNL     1       3.455  19.630 -10.247  1.00  0.00     0.029 A 
ATOM     54  C   UNL     1       4.067  18.392 -10.132  1.00  0.00     0.049 A 
ATOM     55  H   UNL     1       3.185  16.477 -10.034  1.00  0.00     0.167 HD
ATOM     56  C   UNL     1       6.001  16.850  -9.913  1.00  0.00     0.074 A 
ATOM     57  C   UNL     1       7.421  16.572  -9.834  1.00  0.00     0.031 C 
ATOM     58  C   UNL     1       5.472  18.089 -10.054  1.00  0.00     0.037 A 
BRANCH  45  59
ATOM     59  C   UNL     1      -0.697  18.216 -10.320  1.00  0.00     0.064 A 
ATOM     60  C   UNL     1      -1.549  18.440  -9.230  1.00  0.00     0.173 A 
ATOM     61  C   UNL     1      -1.029  18.807 -11.549  1.00  0.00     0.173 A 
ATOM     62  F   UNL     1      -1.283  17.882  -8.040  1.00  0.00    -0.203 F 
ATOM     63  C   UNL     1      -2.699  19.213  -9.369  1.00  0.00     0.198 A 
ATOM     64  C   UNL     1      -2.168  19.597 -11.679  1.00  0.00     0.198 A 
ATOM     65  F   UNL     1      -0.246  18.622 -12.622  1.00  0.00    -0.203 F 
ATOM     66  F   UNL     1      -3.520  19.385  -8.324  1.00  0.00    -0.200 F 
ATOM     67  C   UNL     1      -3.004  19.796 -10.591  1.00  0.00     0.200 A 
ATOM     68  F   UNL     1      -2.457  20.164 -12.859  1.00  0.00    -0.200 F 
ATOM     69  F   UNL     1      -4.110  20.542 -10.722  1.00  0.00    -0.200 F 
ENDBRANCH  45  59
BRANCH  46  70
ATOM     70  C   UNL     1       7.362  12.363  -9.497  1.00  0.00     0.064 A 
ATOM     71  C   UNL     1       8.137  12.345  -8.331  1.00  0.00     0.173 A 
ATOM     72  C   UNL     1       7.747  11.523 -10.553  1.00  0.00     0.173 A 
ATOM     73  F   UNL     1       7.821  13.148  -7.305  1.00  0.00    -0.203 F 
ATOM     74  C   UNL     1       9.256  11.522  -8.225  1.00  0.00     0.198 A 
ATOM     75  C   UNL     1       8.851  10.682 -10.437  1.00  0.00     0.198 A 
ATOM     76  F   UNL     1       7.037  11.505 -11.690  1.00  0.00    -0.203 F 
ATOM     77  F   UNL     1      10.000  11.546  -7.111  1.00  0.00    -0.200 F 
ATOM     78  C   UNL     1       9.608  10.685  -9.275  1.00  0.00     0.200 A 
ATOM     79  F   UNL     1       9.179   9.867 -11.448  1.00  0.00    -0.200 F 
ATOM     80  F   UNL     1      10.679   9.887  -9.169  1.00  0.00    -0.200 F 
ENDBRANCH  46  70
BRANCH  58  81
ATOM     81  C   UNL     1       6.436  19.234 -10.119  1.00  0.00     0.064 A 
ATOM     82  C   UNL     1       7.179  19.495 -11.279  1.00  0.00     0.173 A 
ATOM     83  C   UNL     1       6.593  20.096  -9.024  1.00  0.00     0.173 A 
ATOM     84  F   UNL     1       7.074  18.687 -12.344  1.00  0.00    -0.203 F 
ATOM     85  C   UNL     1       8.062  20.570 -11.332  1.00  0.00     0.198 A 
ATOM     86  C   UNL     1       7.461  21.181  -9.089  1.00  0.00     0.198 A 
ATOM     87  F   UNL     1       5.900  19.886  -7.895  1.00  0.00    -0.203 F 
ATOM     88  F   UNL     1       8.793  20.780 -12.436  1.00  0.00    -0.200 F 
ATOM     89  C   UNL     1       8.198  21.414 -10.240  1.00  0.00     0.200 A 
ATOM     90  F   UNL     1       7.587  22.001  -8.036  1.00  0.00    -0.200 F 
ATOM     91  F   UNL     1       9.047  22.450 -10.295  1.00  0.00    -0.200 F 
ENDBRANCH  58  81
ENDBRANCH  32  33
ENDBRANCH  25  27
ENDBRANCH  24  25
ENDBRANCH  23  24
ENDBRANCH  22  23
ENDBRANCH   1  22
TORSDOF 16
