REMARK SMILES CC1=C(C(=O)OCCOC(=O)c2ccc(-c3c4nc(c(-c5c(F)c(F)c(F)c(F)c5F)c5ccc([nH]5)c(-c5c(F)c(F)c(F)c(F)c5F)c5nc(c(-c6c(F)c(F)c(F)c(F)c6F)c6ccc3[nH]6)C=C5)C=C4)cc2)N2C(=O)[C@H](NC(=O)c3cc(C(F)(F)F)nn3C)[C@@H]2SC1
REMARK SMILES IDX 7 1 6 2 4 3 5 4 3 5 1 6 2 7 94 8 75 9 93 10 76 11 92 12
REMARK SMILES IDX 77 13 78 14 79 15 80 16 81 18 82 19 83 20 90 21 84 22 89 23
REMARK SMILES IDX 91 24 85 25 86 26 87 27 88 28 8 29 9 30 10 31 11 32 12 33
REMARK SMILES IDX 13 34 74 35 14 36 73 37 15 38 16 39 17 40 67 41 18 42 72 43
REMARK SMILES IDX 66 44 68 45 19 46 71 47 65 48 64 49 20 51 52 52 32 53 51 54
REMARK SMILES IDX 33 55 36 56 50 57 69 58 34 59 35 60 49 62 70 63 37 64 21 65
REMARK SMILES IDX 22 66 30 67 23 68 24 69 28 70 31 71 25 72 26 73 29 74 27 75
REMARK SMILES IDX 53 76 54 77 62 78 55 79 56 80 60 81 63 82 57 83 58 84 61 85
REMARK SMILES IDX 59 86 38 87 39 88 47 89 40 90 41 91 45 92 48 93 42 94 43 95
REMARK SMILES IDX 46 96 44 97
REMARK H PARENT 79 17 68 50 36 61
REMARK Flexibility Score: inf
ROOT
ATOM      1  C   UNL     1       2.176  -3.315  -1.262  1.00  0.00     0.275 C 
ENDROOT
BRANCH   1   2
ATOM      2  O   UNL     1       1.642  -2.385  -0.295  1.00  0.00    -0.457 OA
BRANCH   2   3
ATOM      3  C   UNL     1       0.519  -2.756   0.378  1.00  0.00     0.355 C 
ATOM      4  O   UNL     1      -0.034  -3.836   0.251  1.00  0.00    -0.244 OA
BRANCH   3   5
ATOM      5  C   UNL     1       0.106  -1.702   1.389  1.00  0.00     0.131 C 
ATOM      6  C   UNL     1       0.891   0.238  -0.042  1.00  0.00     0.043 C 
ATOM      7  C   UNL     1       0.274  -0.364   1.201  1.00  0.00    -0.032 C 
ATOM      8  C   UNL     1      -0.177   0.709   2.187  1.00  0.00     0.105 C 
ATOM      9  N   UNL     1      -0.459  -2.136   2.557  1.00  0.00    -0.289 N 
ATOM     10  S   UNL     1      -1.368   0.147   3.444  1.00  0.00    -0.129 SA
ATOM     11  C   UNL     1      -1.012  -3.245   3.097  1.00  0.00     0.253 C 
ATOM     12  C   UNL     1      -0.431  -1.349   3.774  1.00  0.00     0.181 C 
ATOM     13  O   UNL     1      -1.296  -4.343   2.690  1.00  0.00    -0.272 OA
ATOM     14  C   UNL     1      -1.121  -2.536   4.481  1.00  0.00     0.206 C 
BRANCH  14  15
ATOM     15  N   UNL     1      -2.489  -2.384   5.024  1.00  0.00    -0.336 N 
ATOM     16  C   UNL     1      -2.962  -2.832   6.237  1.00  0.00     0.270 C 
ATOM     17  H   UNL     1      -3.135  -1.909   4.453  1.00  0.00     0.164 HD
ATOM     18  O   UNL     1      -4.177  -2.949   6.378  1.00  0.00    -0.268 OA
BRANCH  16  19
ATOM     19  C   UNL     1      -2.022  -3.146   7.288  1.00  0.00     0.126 A 
ATOM     20  C   UNL     1      -0.884  -2.475   7.707  1.00  0.00     0.069 A 
ATOM     21  N   UNL     1      -2.157  -4.179   8.182  1.00  0.00    -0.262 N 
ATOM     22  C   UNL     1      -0.381  -3.188   8.829  1.00  0.00     0.167 A 
ATOM     23  N   UNL     1      -1.172  -4.240   9.100  1.00  0.00    -0.168 NA
ATOM     24  C   UNL     1      -3.186  -5.191   8.235  1.00  0.00     0.174 C 
BRANCH  22  25
ATOM     25  C   UNL     1       0.838  -2.847   9.647  1.00  0.00     0.435 C 
ATOM     26  F   UNL     1       0.536  -2.526  10.932  1.00  0.00    -0.164 F 
ATOM     27  F   UNL     1       1.752  -3.849   9.679  1.00  0.00    -0.164 F 
ATOM     28  F   UNL     1       1.486  -1.764   9.125  1.00  0.00    -0.164 F 
ENDBRANCH  22  25
ENDBRANCH  16  19
ENDBRANCH  14  15
ENDBRANCH   3   5
ENDBRANCH   2   3
ENDBRANCH   1   2
BRANCH   1  29
ATOM     29  C   UNL     1       3.580  -3.778  -0.862  1.00  0.00     0.275 C 
BRANCH  29  30
ATOM     30  O   UNL     1       3.539  -4.600   0.321  1.00  0.00    -0.458 OA
BRANCH  30  31
ATOM     31  C   UNL     1       3.704  -3.924   1.479  1.00  0.00     0.338 C 
ATOM     32  O   UNL     1       3.962  -2.737   1.615  1.00  0.00    -0.246 OA
BRANCH  31  33
ATOM     33  C   UNL     1       3.301  -4.763   2.619  1.00  0.00     0.060 A 
ATOM     34  C   UNL     1       2.231  -4.283   3.367  1.00  0.00     0.016 A 
ATOM     35  C   UNL     1       3.978  -5.914   3.023  1.00  0.00     0.016 A 
ATOM     36  C   UNL     1       1.825  -4.936   4.521  1.00  0.00     0.010 A 
ATOM     37  C   UNL     1       3.572  -6.570   4.199  1.00  0.00     0.010 A 
ATOM     38  C   UNL     1       2.499  -6.074   4.964  1.00  0.00    -0.014 A 
BRANCH  38  39
ATOM     39  C   UNL     1       2.129  -6.612   6.300  1.00  0.00     0.031 A 
ATOM     40  C   UNL     1       3.037  -6.357   7.471  1.00  0.00     0.074 A 
ATOM     41  C   UNL     1       0.929  -7.191   6.501  1.00  0.00     0.049 A 
ATOM     42  N   UNL     1       2.913  -6.729   8.720  1.00  0.00    -0.248 NA
ATOM     43  C   UNL     1       4.244  -5.562   7.198  1.00  0.00     0.031 C 
ATOM     44  C   UNL     1      -0.094  -7.394   5.476  1.00  0.00     0.029 A 
ATOM     45  N   UNL     1       0.360  -7.697   7.644  1.00  0.00    -0.354 N 
ATOM     46  C   UNL     1       4.028  -6.226   9.377  1.00  0.00     0.074 A 
ATOM     47  C   UNL     1       4.835  -5.551   8.383  1.00  0.00     0.031 C 
ATOM     48  C   UNL     1      -1.164  -7.984   6.036  1.00  0.00     0.029 A 
ATOM     49  C   UNL     1      -0.884  -8.243   7.447  1.00  0.00     0.049 A 
ATOM     50  H   UNL     1       0.804  -7.671   8.523  1.00  0.00     0.167 HD
ATOM     51  C   UNL     1       4.348  -6.314  10.691  1.00  0.00     0.037 A 
ATOM     52  C   UNL     1      -1.700  -8.889   8.304  1.00  0.00     0.037 A 
ATOM     53  C   UNL     1       3.534  -6.968  11.684  1.00  0.00     0.049 A 
ATOM     54  C   UNL     1      -1.276  -9.054   9.742  1.00  0.00     0.074 A 
ATOM     55  C   UNL     1       3.789  -7.138  13.034  1.00  0.00     0.029 A 
ATOM     56  N   UNL     1       2.301  -7.554  11.435  1.00  0.00    -0.354 N 
ATOM     57  N   UNL     1      -0.198  -8.618  10.347  1.00  0.00    -0.248 NA
ATOM     58  C   UNL     1      -2.192  -9.798  10.619  1.00  0.00     0.031 C 
ATOM     59  C   UNL     1       2.749  -7.893  13.585  1.00  0.00     0.029 A 
ATOM     60  C   UNL     1       1.805  -8.125  12.598  1.00  0.00     0.049 A 
ATOM     61  H   UNL     1       1.845  -7.563  10.563  1.00  0.00     0.167 HD
ATOM     62  C   UNL     1      -0.322  -9.001  11.677  1.00  0.00     0.074 A 
ATOM     63  C   UNL     1      -1.591  -9.687  11.794  1.00  0.00     0.031 C 
ATOM     64  C   UNL     1       0.539  -8.806  12.707  1.00  0.00     0.037 A 
BRANCH  51  65
ATOM     65  C   UNL     1       5.673  -5.748  11.117  1.00  0.00     0.064 A 
ATOM     66  C   UNL     1       5.930  -4.369  11.137  1.00  0.00     0.173 A 
ATOM     67  C   UNL     1       6.705  -6.612  11.519  1.00  0.00     0.173 A 
ATOM     68  F   UNL     1       4.988  -3.499  10.743  1.00  0.00    -0.203 F 
ATOM     69  C   UNL     1       7.180  -3.880  11.511  1.00  0.00     0.198 A 
ATOM     70  C   UNL     1       7.940  -6.117  11.927  1.00  0.00     0.198 A 
ATOM     71  F   UNL     1       6.514  -7.940  11.521  1.00  0.00    -0.203 F 
ATOM     72  F   UNL     1       7.425  -2.563  11.461  1.00  0.00    -0.200 F 
ATOM     73  C   UNL     1       8.181  -4.753  11.912  1.00  0.00     0.200 A 
ATOM     74  F   UNL     1       8.900  -6.963  12.326  1.00  0.00    -0.200 F 
ATOM     75  F   UNL     1       9.382  -4.280  12.272  1.00  0.00    -0.200 F 
ENDBRANCH  51  65
BRANCH  52  76
ATOM     76  C   UNL     1      -3.002  -9.439   7.830  1.00  0.00     0.064 A 
ATOM     77  C   UNL     1      -4.223  -8.958   8.327  1.00  0.00     0.173 A 
ATOM     78  C   UNL     1      -3.051 -10.485   6.897  1.00  0.00     0.173 A 
ATOM     79  F   UNL     1      -4.235  -7.976   9.240  1.00  0.00    -0.203 F 
ATOM     80  C   UNL     1      -5.436  -9.518   7.931  1.00  0.00     0.198 A 
ATOM     81  C   UNL     1      -4.267 -11.020   6.473  1.00  0.00     0.198 A 
ATOM     82  F   UNL     1      -1.916 -10.989   6.391  1.00  0.00    -0.203 F 
ATOM     83  F   UNL     1      -6.581  -9.077   8.469  1.00  0.00    -0.200 F 
ATOM     84  C   UNL     1      -5.457 -10.544   6.999  1.00  0.00     0.200 A 
ATOM     85  F   UNL     1      -4.282 -12.003   5.564  1.00  0.00    -0.200 F 
ATOM     86  F   UNL     1      -6.624 -11.082   6.620  1.00  0.00    -0.200 F 
ENDBRANCH  52  76
BRANCH  64  87
ATOM     87  C   UNL     1       0.122  -9.312  14.063  1.00  0.00     0.064 A 
ATOM     88  C   UNL     1       0.002 -10.683  14.340  1.00  0.00     0.173 A 
ATOM     89  C   UNL     1      -0.145  -8.411  15.106  1.00  0.00     0.173 A 
ATOM     90  F   UNL     1       0.237 -11.590  13.380  1.00  0.00    -0.203 F 
ATOM     91  C   UNL     1      -0.416 -11.129  15.592  1.00  0.00     0.198 A 
ATOM     92  C   UNL     1      -0.522  -8.862  16.369  1.00  0.00     0.198 A 
ATOM     93  F   UNL     1      -0.033  -7.089  14.906  1.00  0.00    -0.203 F 
ATOM     94  F   UNL     1      -0.592 -12.440  15.809  1.00  0.00    -0.200 F 
ATOM     95  C   UNL     1      -0.671 -10.219  16.606  1.00  0.00     0.200 A 
ATOM     96  F   UNL     1      -0.747  -7.982  17.354  1.00  0.00    -0.200 F 
ATOM     97  F   UNL     1      -1.072 -10.650  17.811  1.00  0.00    -0.200 F 
ENDBRANCH  64  87
ENDBRANCH  38  39
ENDBRANCH  31  33
ENDBRANCH  30  31
ENDBRANCH  29  30
ENDBRANCH   1  29
TORSDOF 14
