REMARK SMILES CNC(=O)[C@H]1CCCCN1C(=O)NCCOCC(=O)OCCOC(=O)c1ccc(-c2c3nc(c(-c4c(F)c(F)c(F)c(F)c4F)c4ccc([nH]4)c(-c4c(F)c(F)c(F)c(F)c4F)c4nc(c(-c5c(F)c(F)c(F)c(F)c5F)c5ccc2[nH]5)C=C4)C=C3)cc1
REMARK SMILES IDX 18 1 19 2 17 3 16 4 15 5 14 6 13 7 11 8 12 9 10 11 5 12 6 13
REMARK SMILES IDX 7 14 9 15 8 16 3 17 1 18 2 19 4 21 20 22 21 23 22 24 23 25
REMARK SMILES IDX 24 26 25 27 26 28 27 29 88 30 28 31 87 32 29 33 30 34 31 35
REMARK SMILES IDX 81 36 32 37 86 38 80 39 82 40 33 41 85 42 79 43 78 44 34 46
REMARK SMILES IDX 66 47 46 48 65 49 47 50 50 51 64 52 83 53 48 54 49 55 63 57
REMARK SMILES IDX 84 58 51 59 35 60 36 61 44 62 37 63 38 64 42 65 45 66 39 67
REMARK SMILES IDX 40 68 43 69 41 70 67 71 68 72 76 73 69 74 70 75 74 76 77 77
REMARK SMILES IDX 71 78 72 79 75 80 73 81 52 82 53 83 61 84 54 85 55 86 59 87
REMARK SMILES IDX 62 88 56 89 57 90 60 91 58 92
REMARK H PARENT 13 10 2 20 82 45 50 56
REMARK Flexibility Score: inf
ROOT
ATOM      1  C   UNL     1       2.887  -2.728   7.303  1.00  0.00     0.332 C 
ATOM      2  O   UNL     1       3.326  -3.693   6.683  1.00  0.00    -0.250 OA
ENDROOT
BRANCH   1   3
ATOM      3  C   UNL     1       3.489  -1.321   7.152  1.00  0.00     0.282 C 
BRANCH   3   4
ATOM      4  O   UNL     1       3.173  -0.247   8.016  1.00  0.00    -0.368 OA
BRANCH   4   5
ATOM      5  C   UNL     1       1.915   0.397   7.788  1.00  0.00     0.182 C 
BRANCH   5   6
ATOM      6  C   UNL     1       1.964   1.536   6.751  1.00  0.00     0.146 C 
BRANCH   6   7
ATOM      7  N   UNL     1       1.797   1.109   5.371  1.00  0.00    -0.336 N 
ATOM      8  C   UNL     1       0.815   0.922   4.490  1.00  0.00     0.318 C 
ATOM      9  O   UNL     1       1.165   0.221   3.543  1.00  0.00    -0.249 OA
ATOM     10  H   UNL     1       2.669   0.893   4.968  1.00  0.00     0.165 HD
BRANCH   8  11
ATOM     11  N   UNL     1      -0.424   1.466   4.504  1.00  0.00    -0.313 N 
ATOM     12  C   UNL     1      -1.409   0.981   3.483  1.00  0.00     0.176 C 
ATOM     13  C   UNL     1      -1.828   2.084   2.490  1.00  0.00     0.035 C 
ATOM     14  C   UNL     1      -1.981   3.475   3.093  1.00  0.00     0.004 C 
ATOM     15  C   UNL     1      -0.778   2.716   5.143  1.00  0.00     0.122 C 
ATOM     16  C   UNL     1      -0.866   3.800   4.075  1.00  0.00     0.022 C 
BRANCH  12  17
ATOM     17  C   UNL     1      -2.647   0.244   4.047  1.00  0.00     0.242 C 
ATOM     18  C   UNL     1      -3.191  -0.911   1.821  1.00  0.00     0.142 C 
ATOM     19  N   UNL     1      -3.375  -0.580   3.220  1.00  0.00    -0.357 N 
ATOM     20  H   UNL     1      -4.147  -1.016   3.649  1.00  0.00     0.163 HD
ATOM     21  O   UNL     1      -3.053   0.399   5.200  1.00  0.00    -0.273 OA
ENDBRANCH  12  17
ENDBRANCH   8  11
ENDBRANCH   6   7
ENDBRANCH   5   6
ENDBRANCH   4   5
ENDBRANCH   3   4
ENDBRANCH   1   3
BRANCH   1  22
ATOM     22  O   UNL     1       1.796  -2.765   8.112  1.00  0.00    -0.460 OA
BRANCH  22  23
ATOM     23  C   UNL     1       1.040  -3.994   8.099  1.00  0.00     0.274 C 
BRANCH  23  24
ATOM     24  C   UNL     1      -0.147  -3.932   7.124  1.00  0.00     0.275 C 
BRANCH  24  25
ATOM     25  O   UNL     1       0.260  -3.998   5.737  1.00  0.00    -0.458 OA
BRANCH  25  26
ATOM     26  C   UNL     1       0.567  -2.794   5.218  1.00  0.00     0.338 C 
ATOM     27  O   UNL     1       0.546  -1.729   5.830  1.00  0.00    -0.246 OA
BRANCH  26  28
ATOM     28  C   UNL     1       0.952  -2.808   3.803  1.00  0.00     0.060 A 
ATOM     29  C   UNL     1       2.272  -2.473   3.470  1.00  0.00     0.016 A 
ATOM     30  C   UNL     1      -0.068  -2.688   2.858  1.00  0.00     0.016 A 
ATOM     31  C   UNL     1       2.546  -1.870   2.237  1.00  0.00     0.010 A 
ATOM     32  C   UNL     1       0.216  -2.103   1.620  1.00  0.00     0.010 A 
ATOM     33  C   UNL     1       1.502  -1.604   1.335  1.00  0.00    -0.014 A 
BRANCH  33  34
ATOM     34  C   UNL     1       1.744  -0.953   0.025  1.00  0.00     0.031 A 
ATOM     35  C   UNL     1       1.448   0.492  -0.280  1.00  0.00     0.074 A 
ATOM     36  C   UNL     1       2.147  -1.766  -0.958  1.00  0.00     0.049 A 
ATOM     37  N   UNL     1       1.128   1.053  -1.424  1.00  0.00    -0.248 NA
ATOM     38  C   UNL     1       1.528   1.443   0.826  1.00  0.00     0.031 C 
ATOM     39  C   UNL     1       2.533  -3.162  -0.772  1.00  0.00     0.029 A 
ATOM     40  N   UNL     1       2.259  -1.545  -2.300  1.00  0.00    -0.354 N 
ATOM     41  C   UNL     1       0.838   2.387  -1.137  1.00  0.00     0.074 A 
ATOM     42  C   UNL     1       1.082   2.566   0.275  1.00  0.00     0.031 C 
ATOM     43  C   UNL     1       2.810  -3.692  -1.967  1.00  0.00     0.029 A 
ATOM     44  C   UNL     1       2.558  -2.685  -2.993  1.00  0.00     0.049 A 
ATOM     45  H   UNL     1       2.138  -0.663  -2.722  1.00  0.00     0.167 HD
ATOM     46  C   UNL     1       0.414   3.357  -1.988  1.00  0.00     0.037 A 
ATOM     47  C   UNL     1       2.581  -2.909  -4.315  1.00  0.00     0.037 A 
ATOM     48  C   UNL     1       0.441   3.208  -3.426  1.00  0.00     0.049 A 
ATOM     49  C   UNL     1       2.283  -1.783  -5.247  1.00  0.00     0.074 A 
ATOM     50  C   UNL     1       0.149   4.146  -4.403  1.00  0.00     0.029 A 
ATOM     51  N   UNL     1       0.860   2.063  -4.089  1.00  0.00    -0.354 N 
ATOM     52  N   UNL     1       1.830  -0.584  -4.971  1.00  0.00    -0.248 NA
ATOM     53  C   UNL     1       2.524  -2.031  -6.670  1.00  0.00     0.031 C 
ATOM     54  C   UNL     1       0.385   3.567  -5.655  1.00  0.00     0.029 A 
ATOM     55  C   UNL     1       0.865   2.283  -5.457  1.00  0.00     0.049 A 
ATOM     56  H   UNL     1       1.115   1.219  -3.652  1.00  0.00     0.167 HD
ATOM     57  C   UNL     1       1.745   0.076  -6.185  1.00  0.00     0.074 A 
ATOM     58  C   UNL     1       2.210  -0.855  -7.196  1.00  0.00     0.031 C 
ATOM     59  C   UNL     1       1.322   1.338  -6.441  1.00  0.00     0.037 A 
BRANCH  46  60
ATOM     60  C   UNL     1      -0.122   4.662  -1.446  1.00  0.00     0.064 A 
ATOM     61  C   UNL     1       0.678   5.633  -0.830  1.00  0.00     0.173 A 
ATOM     62  C   UNL     1      -1.469   5.000  -1.690  1.00  0.00     0.173 A 
ATOM     63  F   UNL     1       1.971   5.383  -0.575  1.00  0.00    -0.203 F 
ATOM     64  C   UNL     1       0.156   6.880  -0.475  1.00  0.00     0.198 A 
ATOM     65  C   UNL     1      -1.976   6.258  -1.370  1.00  0.00     0.198 A 
ATOM     66  F   UNL     1      -2.288   4.120  -2.288  1.00  0.00    -0.203 F 
ATOM     67  F   UNL     1       0.938   7.783   0.133  1.00  0.00    -0.200 F 
ATOM     68  C   UNL     1      -1.164   7.197  -0.760  1.00  0.00     0.200 A 
ATOM     69  F   UNL     1      -3.244   6.568  -1.677  1.00  0.00    -0.200 F 
ATOM     70  F   UNL     1      -1.648   8.410  -0.456  1.00  0.00    -0.200 F 
ENDBRANCH  46  60
BRANCH  47  71
ATOM     71  C   UNL     1       2.961  -4.262  -4.767  1.00  0.00     0.064 A 
ATOM     72  C   UNL     1       4.276  -4.519  -5.170  1.00  0.00     0.173 A 
ATOM     73  C   UNL     1       2.090  -5.349  -4.603  1.00  0.00     0.173 A 
ATOM     74  F   UNL     1       5.137  -3.502  -5.327  1.00  0.00    -0.203 F 
ATOM     75  C   UNL     1       4.715  -5.821  -5.375  1.00  0.00     0.198 A 
ATOM     76  C   UNL     1       2.538  -6.653  -4.786  1.00  0.00     0.198 A 
ATOM     77  F   UNL     1       0.833  -5.145  -4.178  1.00  0.00    -0.203 F 
ATOM     78  F   UNL     1       5.984  -6.046  -5.742  1.00  0.00    -0.200 F 
ATOM     79  C   UNL     1       3.852  -6.888  -5.167  1.00  0.00     0.200 A 
ATOM     80  F   UNL     1       1.714  -7.682  -4.548  1.00  0.00    -0.200 F 
ATOM     81  F   UNL     1       4.292  -8.144  -5.314  1.00  0.00    -0.200 F 
ENDBRANCH  47  71
BRANCH  59  82
ATOM     82  C   UNL     1       1.376   1.781  -7.870  1.00  0.00     0.064 A 
ATOM     83  C   UNL     1       0.453   1.311  -8.815  1.00  0.00     0.173 A 
ATOM     84  C   UNL     1       2.371   2.671  -8.299  1.00  0.00     0.173 A 
ATOM     85  F   UNL     1      -0.507   0.448  -8.449  1.00  0.00    -0.203 F 
ATOM     86  C   UNL     1       0.551   1.684 -10.151  1.00  0.00     0.198 A 
ATOM     87  C   UNL     1       2.451   3.061  -9.632  1.00  0.00     0.198 A 
ATOM     88  F   UNL     1       3.269   3.154  -7.428  1.00  0.00    -0.203 F 
ATOM     89  F   UNL     1      -0.302   1.175 -11.050  1.00  0.00    -0.200 F 
ATOM     90  C   UNL     1       1.549   2.557 -10.559  1.00  0.00     0.200 A 
ATOM     91  F   UNL     1       3.411   3.910 -10.024  1.00  0.00    -0.200 F 
ATOM     92  F   UNL     1       1.651   2.903 -11.849  1.00  0.00    -0.200 F 
ENDBRANCH  59  82
ENDBRANCH  33  34
ENDBRANCH  26  28
ENDBRANCH  25  26
ENDBRANCH  24  25
ENDBRANCH  23  24
ENDBRANCH  22  23
ENDBRANCH   1  22
TORSDOF 17
