REMARK SMILES CC(C)COc1cccc(N2C[C@@H](C(=O)OCCOC(=O)c3ccc(-c4c5nc(c(-c6c(F)c(F)c(F)c(F)c6F)c6ccc([nH]6)c(-c6c(F)c(F)c(F)c(F)c6F)c6nc(c(-c7c(F)c(F)c(F)c(F)c7F)c7ccc4[nH]7)C=C6)C=C5)cc3)CC2=O)c1
REMARK SMILES IDX 17 1 16 2 14 3 15 4 13 5 11 6 12 7 86 8 85 9 87 10 10 11
REMARK SMILES IDX 6 12 7 13 88 14 8 15 9 16 5 17 4 18 2 19 1 20 3 21 18 22
REMARK SMILES IDX 19 23 20 24 21 25 22 26 23 27 84 28 24 29 83 30 25 31 26 32
REMARK SMILES IDX 27 33 77 34 28 35 82 36 76 37 78 38 29 39 81 40 75 41 74 42
REMARK SMILES IDX 30 44 62 45 42 46 61 47 43 48 46 49 60 50 79 51 44 52 45 53
REMARK SMILES IDX 59 55 80 56 47 57 31 58 32 59 40 60 33 61 34 62 38 63 41 64
REMARK SMILES IDX 35 65 36 66 39 67 37 68 63 69 64 70 72 71 65 72 66 73 70 74
REMARK SMILES IDX 73 75 67 76 68 77 71 78 69 79 48 80 49 81 57 82 50 83 51 84
REMARK SMILES IDX 55 85 58 86 52 87 53 88 56 89 54 90
REMARK H PARENT 78 43 46 54
REMARK Flexibility Score: inf
ROOT
ATOM      1  C   UNL     1       5.790   4.337   2.281  1.00  0.00     0.274 C 
ENDROOT
BRANCH   1   2
ATOM      2  O   UNL     1       5.078   3.732   1.184  1.00  0.00    -0.462 OA
BRANCH   2   3
ATOM      3  C   UNL     1       4.084   4.459   0.621  1.00  0.00     0.311 C 
ATOM      4  O   UNL     1       3.662   5.526   1.050  1.00  0.00    -0.252 OA
BRANCH   3   5
ATOM      5  C   UNL     1       3.585   3.866  -0.669  1.00  0.00     0.128 C 
ATOM      6  N   UNL     1       1.785   2.712  -1.586  1.00  0.00    -0.311 N 
ATOM      7  C   UNL     1       2.079   3.753  -0.632  1.00  0.00     0.141 C 
ATOM      8  C   UNL     1       2.930   1.955  -1.878  1.00  0.00     0.227 C 
ATOM      9  C   UNL     1       4.056   2.471  -1.023  1.00  0.00     0.117 C 
ATOM     10  O   UNL     1       3.050   1.005  -2.636  1.00  0.00    -0.274 OA
BRANCH   6  11
ATOM     11  C   UNL     1       0.448   2.311  -1.830  1.00  0.00     0.047 A 
ATOM     12  C   UNL     1      -1.121   0.488  -1.781  1.00  0.00     0.121 A 
ATOM     13  C   UNL     1      -2.191   1.363  -1.651  1.00  0.00     0.046 A 
ATOM     14  C   UNL     1       0.166   0.960  -2.012  1.00  0.00     0.072 A 
ATOM     15  C   UNL     1      -1.942   2.734  -1.637  1.00  0.00     0.006 A 
ATOM     16  C   UNL     1      -0.624   3.202  -1.677  1.00  0.00     0.026 A 
BRANCH  12  17
ATOM     17  O   UNL     1      -1.294  -0.858  -1.597  1.00  0.00    -0.493 OA
BRANCH  17  18
ATOM     18  C   UNL     1      -1.075  -1.224  -0.211  1.00  0.00     0.232 C 
BRANCH  18  19
ATOM     19  C   UNL     1       0.422  -1.408   0.144  1.00  0.00     0.020 C 
ATOM     20  C   UNL     1       0.975  -0.227   0.957  1.00  0.00     0.011 C 
ATOM     21  C   UNL     1       0.648  -2.686   0.954  1.00  0.00     0.011 C 
ENDBRANCH  18  19
ENDBRANCH  17  18
ENDBRANCH  12  17
ENDBRANCH   6  11
ENDBRANCH   3   5
ENDBRANCH   2   3
ENDBRANCH   1   2
BRANCH   1  22
ATOM     22  C   UNL     1       7.196   4.743   1.836  1.00  0.00     0.275 C 
BRANCH  22  23
ATOM     23  O   UNL     1       7.150   5.796   0.852  1.00  0.00    -0.458 OA
BRANCH  23  24
ATOM     24  C   UNL     1       7.144   5.378  -0.432  1.00  0.00     0.338 C 
ATOM     25  O   UNL     1       7.180   4.226  -0.843  1.00  0.00    -0.246 OA
BRANCH  24  26
ATOM     26  C   UNL     1       6.954   6.519  -1.331  1.00  0.00     0.060 A 
ATOM     27  C   UNL     1       5.673   6.757  -1.826  1.00  0.00     0.016 A 
ATOM     28  C   UNL     1       8.038   7.261  -1.794  1.00  0.00     0.016 A 
ATOM     29  C   UNL     1       5.471   7.679  -2.842  1.00  0.00     0.010 A 
ATOM     30  C   UNL     1       7.824   8.245  -2.767  1.00  0.00     0.010 A 
ATOM     31  C   UNL     1       6.543   8.444  -3.313  1.00  0.00    -0.014 A 
BRANCH  31  32
ATOM     32  C   UNL     1       6.310   9.443  -4.384  1.00  0.00     0.031 A 
ATOM     33  C   UNL     1       6.925   9.251  -5.739  1.00  0.00     0.074 A 
ATOM     34  C   UNL     1       5.512  10.501  -4.145  1.00  0.00     0.049 A 
ATOM     35  N   UNL     1       6.962  10.076  -6.754  1.00  0.00    -0.248 NA
ATOM     36  C   UNL     1       7.586   7.960  -5.988  1.00  0.00     0.031 C 
ATOM     37  C   UNL     1       4.798  10.757  -2.892  1.00  0.00     0.029 A 
ATOM     38  N   UNL     1       5.162  11.556  -4.948  1.00  0.00    -0.354 N 
ATOM     39  C   UNL     1       7.676   9.421  -7.748  1.00  0.00     0.074 A 
ATOM     40  C   UNL     1       8.058   8.130  -7.216  1.00  0.00     0.031 C 
ATOM     41  C   UNL     1       4.082  11.884  -3.017  1.00  0.00     0.029 A 
ATOM     42  C   UNL     1       4.346  12.469  -4.326  1.00  0.00     0.049 A 
ATOM     43  H   UNL     1       5.467  11.651  -5.879  1.00  0.00     0.167 HD
ATOM     44  C   UNL     1       7.981   9.862  -8.991  1.00  0.00     0.037 A 
ATOM     45  C   UNL     1       3.896  13.665  -4.749  1.00  0.00     0.037 A 
ATOM     46  C   UNL     1       7.573  11.137  -9.522  1.00  0.00     0.049 A 
ATOM     47  C   UNL     1       4.312  14.160  -6.105  1.00  0.00     0.074 A 
ATOM     48  C   UNL     1       7.852  11.688 -10.761  1.00  0.00     0.029 A 
ATOM     49  N   UNL     1       6.785  12.055  -8.844  1.00  0.00    -0.354 N 
ATOM     50  N   UNL     1       5.045  13.565  -7.014  1.00  0.00    -0.248 NA
ATOM     51  C   UNL     1       3.855  15.504  -6.486  1.00  0.00     0.031 C 
ATOM     52  C   UNL     1       7.253  12.951 -10.822  1.00  0.00     0.029 A 
ATOM     53  C   UNL     1       6.574  13.172  -9.635  1.00  0.00     0.049 A 
ATOM     54  H   UNL     1       6.427  11.930  -7.935  1.00  0.00     0.167 HD
ATOM     55  C   UNL     1       5.129  14.453  -8.076  1.00  0.00     0.074 A 
ATOM     56  C   UNL     1       4.355  15.621  -7.707  1.00  0.00     0.031 C 
ATOM     57  C   UNL     1       5.795  14.319  -9.248  1.00  0.00     0.037 A 
BRANCH  44  58
ATOM     58  C   UNL     1       8.822   8.973  -9.856  1.00  0.00     0.064 A 
ATOM     59  C   UNL     1       8.290   7.835 -10.479  1.00  0.00     0.173 A 
ATOM     60  C   UNL     1      10.166   9.291 -10.101  1.00  0.00     0.173 A 
ATOM     61  F   UNL     1       7.015   7.482 -10.263  1.00  0.00    -0.203 F 
ATOM     62  C   UNL     1       9.079   7.039 -11.306  1.00  0.00     0.198 A 
ATOM     63  C   UNL     1      10.946   8.505 -10.945  1.00  0.00     0.198 A 
ATOM     64  F   UNL     1      10.720  10.371  -9.530  1.00  0.00    -0.203 F 
ATOM     65  F   UNL     1       8.561   5.938 -11.868  1.00  0.00    -0.200 F 
ATOM     66  C   UNL     1      10.403   7.378 -11.544  1.00  0.00     0.200 A 
ATOM     67  F   UNL     1      12.223   8.839 -11.180  1.00  0.00    -0.200 F 
ATOM     68  F   UNL     1      11.159   6.616 -12.347  1.00  0.00    -0.200 F 
ENDBRANCH  44  58
BRANCH  45  69
ATOM     69  C   UNL     1       3.044  14.495  -3.861  1.00  0.00     0.064 A 
ATOM     70  C   UNL     1       1.698  14.732  -4.168  1.00  0.00     0.173 A 
ATOM     71  C   UNL     1       3.561  15.077  -2.693  1.00  0.00     0.173 A 
ATOM     72  F   UNL     1       1.167  14.219  -5.287  1.00  0.00    -0.203 F 
ATOM     73  C   UNL     1       0.904  15.531  -3.348  1.00  0.00     0.198 A 
ATOM     74  C   UNL     1       2.759  15.851  -1.859  1.00  0.00     0.198 A 
ATOM     75  F   UNL     1       4.844  14.881  -2.356  1.00  0.00    -0.203 F 
ATOM     76  F   UNL     1      -0.368  15.777  -3.686  1.00  0.00    -0.200 F 
ATOM     77  C   UNL     1       1.433  16.084  -2.191  1.00  0.00     0.200 A 
ATOM     78  F   UNL     1       3.271  16.373  -0.736  1.00  0.00    -0.200 F 
ATOM     79  F   UNL     1       0.668  16.849  -1.401  1.00  0.00    -0.200 F 
ENDBRANCH  45  69
BRANCH  57  80
ATOM     80  C   UNL     1       5.688  15.453 -10.221  1.00  0.00     0.064 A 
ATOM     81  C   UNL     1       6.394  16.648 -10.028  1.00  0.00     0.173 A 
ATOM     82  C   UNL     1       4.892  15.331 -11.369  1.00  0.00     0.173 A 
ATOM     83  F   UNL     1       7.153  16.815  -8.934  1.00  0.00    -0.203 F 
ATOM     84  C   UNL     1       6.290  17.693 -10.942  1.00  0.00     0.198 A 
ATOM     85  C   UNL     1       4.808  16.369 -12.292  1.00  0.00     0.198 A 
ATOM     86  F   UNL     1       4.200  14.205 -11.597  1.00  0.00    -0.203 F 
ATOM     87  F   UNL     1       6.939  18.844 -10.718  1.00  0.00    -0.200 F 
ATOM     88  C   UNL     1       5.502  17.551 -12.075  1.00  0.00     0.200 A 
ATOM     89  F   UNL     1       4.052  16.229 -13.389  1.00  0.00    -0.200 F 
ATOM     90  F   UNL     1       5.404  18.558 -12.954  1.00  0.00    -0.200 F 
ENDBRANCH  57  80
ENDBRANCH  31  32
ENDBRANCH  24  26
ENDBRANCH  23  24
ENDBRANCH  22  23
ENDBRANCH   1  22
TORSDOF 15
