REMARK SMILES CCc1ccc(-c2cc(Cl)cc3c2O[C@H](C(F)(F)F)C(C(=O)OCCOC(=O)c2ccc(-c4c5nc(c(-c6c(F)c(F)c(F)c(F)c6F)c6ccc([nH]6)c(-c6c(F)c(F)c(F)c(F)c6F)c6nc(c(-c7c(F)c(F)c(F)c(F)c7F)c7ccc4[nH]7)C=C6)C=C5)cc2)=C3)cc1
REMARK SMILES IDX 24 1 23 2 21 3 22 4 20 5 7 6 8 7 13 8 9 9 12 10 14 11 10 12
REMARK SMILES IDX 11 13 92 14 15 15 6 16 3 17 4 18 94 19 5 20 93 21 2 22 1 23
REMARK SMILES IDX 16 24 17 25 18 26 19 27 25 28 26 29 27 30 28 31 29 32 30 33
REMARK SMILES IDX 91 34 31 35 90 36 32 37 33 38 34 39 84 40 35 41 89 42 83 43
REMARK SMILES IDX 85 44 36 45 88 46 82 47 81 48 37 50 69 51 49 52 68 53 50 54
REMARK SMILES IDX 53 55 67 56 86 57 51 58 52 59 66 61 87 62 54 63 38 64 39 65
REMARK SMILES IDX 47 66 40 67 41 68 45 69 48 70 42 71 43 72 46 73 44 74 70 75
REMARK SMILES IDX 71 76 79 77 72 78 73 79 77 80 80 81 74 82 75 83 78 84 76 85
REMARK SMILES IDX 55 86 56 87 64 88 57 89 58 90 62 91 65 92 59 93 60 94 63 95
REMARK SMILES IDX 61 96
REMARK H PARENT 85 49 53 60
REMARK Flexibility Score: inf
ROOT
ATOM      1  C   UNL     1       2.058   5.830  11.891  1.00  0.00     0.275 C 
ENDROOT
BRANCH   1   2
ATOM      2  O   UNL     1       1.141   5.936  10.770  1.00  0.00    -0.459 OA
BRANCH   2   3
ATOM      3  C   UNL     1       1.345   7.069  10.046  1.00  0.00     0.338 C 
ATOM      4  O   UNL     1       2.178   7.923  10.331  1.00  0.00    -0.246 OA
BRANCH   3   5
ATOM      5  C   UNL     1       0.532   7.169   8.806  1.00  0.00     0.087 C 
ATOM      6  C   UNL     1       0.973   4.513   5.752  1.00  0.00     0.026 A 
ATOM      7  C   UNL     1       2.287   4.063   6.042  1.00  0.00     0.033 A 
ATOM      8  C   UNL     1       0.597   5.640   6.500  1.00  0.00     0.135 A 
ATOM      9  C   UNL     1       3.191   4.776   6.843  1.00  0.00     0.042 A 
ATOM     10  C   UNL     1       1.603   6.487   7.037  1.00  0.00     0.019 A 
ATOM     11  O   UNL     1      -0.687   5.870   6.995  1.00  0.00    -0.475 OA
ATOM     12  Cl  UNL     1       4.638   4.139   7.505  1.00  0.00    -0.084 Cl
ATOM     13  C   UNL     1       2.901   6.059   7.212  1.00  0.00     0.032 A 
ATOM     14  C   UNL     1       1.208   7.701   7.774  1.00  0.00     0.027 C 
ATOM     15  C   UNL     1      -0.669   6.314   8.452  1.00  0.00     0.316 C 
BRANCH   6  16
ATOM     16  C   UNL     1       0.292   3.790   4.612  1.00  0.00    -0.015 A 
ATOM     17  C   UNL     1       0.059   1.918   2.391  1.00  0.00    -0.048 A 
ATOM     18  C   UNL     1      -0.399   1.611   3.681  1.00  0.00     0.004 A 
ATOM     19  C   UNL     1       0.506   3.224   2.192  1.00  0.00     0.004 A 
ATOM     20  C   UNL     1      -0.331   2.543   4.749  1.00  0.00     0.009 A 
ATOM     21  C   UNL     1       0.634   4.130   3.282  1.00  0.00     0.009 A 
BRANCH  17  22
ATOM     22  C   UNL     1      -0.005   0.839   1.319  1.00  0.00     0.032 C 
ATOM     23  C   UNL     1       0.764   1.031   0.011  1.00  0.00     0.009 C 
ENDBRANCH  17  22
ENDBRANCH   6  16
BRANCH  15  24
ATOM     24  C   UNL     1      -1.883   7.195   8.778  1.00  0.00     0.430 C 
ATOM     25  F   UNL     1      -1.943   8.282   7.970  1.00  0.00    -0.167 F 
ATOM     26  F   UNL     1      -3.050   6.529   8.662  1.00  0.00    -0.167 F 
ATOM     27  F   UNL     1      -1.816   7.659  10.054  1.00  0.00    -0.167 F 
ENDBRANCH  15  24
ENDBRANCH   3   5
ENDBRANCH   2   3
ENDBRANCH   1   2
BRANCH   1  28
ATOM     28  C   UNL     1       2.137   4.421  12.492  1.00  0.00     0.275 C 
BRANCH  28  29
ATOM     29  O   UNL     1       2.506   3.448  11.496  1.00  0.00    -0.458 OA
BRANCH  29  30
ATOM     30  C   UNL     1       1.448   2.817  10.927  1.00  0.00     0.338 C 
ATOM     31  O   UNL     1       0.279   2.960  11.230  1.00  0.00    -0.246 OA
BRANCH  30  32
ATOM     32  C   UNL     1       1.873   2.024   9.743  1.00  0.00     0.060 A 
ATOM     33  C   UNL     1       0.954   1.948   8.704  1.00  0.00     0.016 A 
ATOM     34  C   UNL     1       3.102   1.365   9.605  1.00  0.00     0.016 A 
ATOM     35  C   UNL     1       1.293   1.274   7.531  1.00  0.00     0.010 A 
ATOM     36  C   UNL     1       3.434   0.692   8.398  1.00  0.00     0.010 A 
ATOM     37  C   UNL     1       2.544   0.670   7.318  1.00  0.00    -0.014 A 
BRANCH  37  38
ATOM     38  C   UNL     1       2.796   0.057   5.956  1.00  0.00     0.031 A 
ATOM     39  C   UNL     1       1.892  -1.036   5.462  1.00  0.00     0.074 A 
ATOM     40  C   UNL     1       3.643   0.595   5.045  1.00  0.00     0.049 A 
ATOM     41  N   UNL     1       1.837  -1.583   4.273  1.00  0.00    -0.248 NA
ATOM     42  C   UNL     1       0.925  -1.584   6.424  1.00  0.00     0.031 C 
ATOM     43  C   UNL     1       4.553   1.685   5.320  1.00  0.00     0.029 A 
ATOM     44  N   UNL     1       3.818   0.389   3.689  1.00  0.00    -0.354 N 
ATOM     45  C   UNL     1       0.835  -2.532   4.343  1.00  0.00     0.074 A 
ATOM     46  C   UNL     1       0.283  -2.471   5.680  1.00  0.00     0.031 C 
ATOM     47  C   UNL     1       5.018   2.205   4.175  1.00  0.00     0.029 A 
ATOM     48  C   UNL     1       4.634   1.326   3.078  1.00  0.00     0.049 A 
ATOM     49  H   UNL     1       3.401  -0.358   3.202  1.00  0.00     0.167 HD
ATOM     50  C   UNL     1       0.433  -3.405   3.392  1.00  0.00     0.037 A 
ATOM     51  C   UNL     1       5.092   1.438   1.810  1.00  0.00     0.037 A 
ATOM     52  C   UNL     1       1.014  -3.535   2.084  1.00  0.00     0.049 A 
ATOM     53  C   UNL     1       4.777   0.327   0.841  1.00  0.00     0.074 A 
ATOM     54  C   UNL     1       0.698  -4.449   1.095  1.00  0.00     0.029 A 
ATOM     55  N   UNL     1       2.044  -2.752   1.588  1.00  0.00    -0.354 N 
ATOM     56  N   UNL     1       3.917  -0.652   0.962  1.00  0.00    -0.248 NA
ATOM     57  C   UNL     1       5.555   0.284  -0.409  1.00  0.00     0.031 C 
ATOM     58  C   UNL     1       1.567  -4.251   0.018  1.00  0.00     0.029 A 
ATOM     59  C   UNL     1       2.385  -3.174   0.311  1.00  0.00     0.049 A 
ATOM     60  H   UNL     1       2.470  -2.007   2.070  1.00  0.00     0.167 HD
ATOM     61  C   UNL     1       4.055  -1.426  -0.181  1.00  0.00     0.074 A 
ATOM     62  C   UNL     1       5.054  -0.787  -1.008  1.00  0.00     0.031 C 
ATOM     63  C   UNL     1       3.409  -2.572  -0.503  1.00  0.00     0.037 A 
BRANCH  50  64
ATOM     64  C   UNL     1      -0.649  -4.358   3.784  1.00  0.00     0.064 A 
ATOM     65  C   UNL     1      -1.985  -3.948   3.882  1.00  0.00     0.173 A 
ATOM     66  C   UNL     1      -0.336  -5.693   4.077  1.00  0.00     0.173 A 
ATOM     67  F   UNL     1      -2.319  -2.672   3.640  1.00  0.00    -0.203 F 
ATOM     68  C   UNL     1      -2.972  -4.843   4.281  1.00  0.00     0.198 A 
ATOM     69  C   UNL     1      -1.329  -6.589   4.453  1.00  0.00     0.198 A 
ATOM     70  F   UNL     1       0.933  -6.121   4.005  1.00  0.00    -0.203 F 
ATOM     71  F   UNL     1      -4.238  -4.424   4.418  1.00  0.00    -0.200 F 
ATOM     72  C   UNL     1      -2.644  -6.162   4.561  1.00  0.00     0.200 A 
ATOM     73  F   UNL     1      -1.011  -7.863   4.721  1.00  0.00    -0.200 F 
ATOM     74  F   UNL     1      -3.596  -7.022   4.950  1.00  0.00    -0.200 F 
ENDBRANCH  50  64
BRANCH  51  75
ATOM     75  C   UNL     1       6.021   2.541   1.391  1.00  0.00     0.064 A 
ATOM     76  C   UNL     1       5.733   3.362   0.286  1.00  0.00     0.173 A 
ATOM     77  C   UNL     1       7.261   2.740   2.020  1.00  0.00     0.173 A 
ATOM     78  F   UNL     1       4.593   3.190  -0.399  1.00  0.00    -0.203 F 
ATOM     79  C   UNL     1       6.645   4.319  -0.169  1.00  0.00     0.198 A 
ATOM     80  C   UNL     1       8.146   3.733   1.600  1.00  0.00     0.198 A 
ATOM     81  F   UNL     1       7.631   1.960   3.046  1.00  0.00    -0.203 F 
ATOM     82  F   UNL     1       6.375   5.029  -1.273  1.00  0.00    -0.200 F 
ATOM     83  C   UNL     1       7.845   4.513   0.497  1.00  0.00     0.200 A 
ATOM     84  F   UNL     1       9.300   3.917   2.256  1.00  0.00    -0.200 F 
ATOM     85  F   UNL     1       8.719   5.431   0.063  1.00  0.00    -0.200 F 
ENDBRANCH  51  75
BRANCH  63  86
ATOM     86  C   UNL     1       3.763  -3.229  -1.805  1.00  0.00     0.064 A 
ATOM     87  C   UNL     1       4.989  -3.887  -1.987  1.00  0.00     0.173 A 
ATOM     88  C   UNL     1       2.846  -3.247  -2.866  1.00  0.00     0.173 A 
ATOM     89  F   UNL     1       5.911  -3.878  -1.013  1.00  0.00    -0.203 F 
ATOM     90  C   UNL     1       5.285  -4.532  -3.185  1.00  0.00     0.198 A 
ATOM     91  C   UNL     1       3.132  -3.919  -4.051  1.00  0.00     0.198 A 
ATOM     92  F   UNL     1       1.661  -2.629  -2.745  1.00  0.00    -0.203 F 
ATOM     93  F   UNL     1       6.476  -5.123  -3.350  1.00  0.00    -0.200 F 
ATOM     94  C   UNL     1       4.351  -4.558  -4.211  1.00  0.00     0.200 A 
ATOM     95  F   UNL     1       2.223  -3.953  -5.036  1.00  0.00    -0.200 F 
ATOM     96  F   UNL     1       4.630  -5.195  -5.357  1.00  0.00    -0.200 F 
ENDBRANCH  63  86
ENDBRANCH  37  38
ENDBRANCH  30  32
ENDBRANCH  29  30
ENDBRANCH  28  29
ENDBRANCH   1  28
TORSDOF 14
