REMARK SMILES O=C(OCCOC(=O)c1cc(N2C(=O)[C@H]3[C@@H]4C=C[C@@H]([C@@H]5C[C@H]45)[C@@H]3C2=O)ccc1Cl)c1ccc(-c2c3nc(c(-c4c(F)c(F)c(F)c(F)c4F)c4ccc([nH]4)c(-c4c(F)c(F)c(F)c(F)c4F)c4nc(c(-c5c(F)c(F)c(F)c(F)c5F)c5ccc2[nH]5)C=C4)C=C3)cc1
REMARK SMILES IDX 4 1 3 2 2 3 1 4 30 5 31 6 92 7 32 8 91 9 33 10 34 11 35 12
REMARK SMILES IDX 85 13 36 14 90 15 84 16 86 17 37 18 89 19 83 20 82 21 38 23
REMARK SMILES IDX 70 24 50 25 69 26 51 27 54 28 68 29 87 30 52 31 53 32 67 34
REMARK SMILES IDX 88 35 55 36 39 37 40 38 48 39 41 40 42 41 46 42 49 43 43 44
REMARK SMILES IDX 44 45 47 46 45 47 71 48 72 49 80 50 73 51 74 52 78 53 81 54
REMARK SMILES IDX 75 55 76 56 79 57 77 58 56 59 57 60 65 61 58 62 59 63 63 64
REMARK SMILES IDX 66 65 60 66 61 67 64 68 62 69 5 70 6 71 7 72 8 73 9 74 10 75
REMARK SMILES IDX 28 76 11 77 27 78 29 79 26 80 12 81 13 82 24 83 14 84 15 85
REMARK SMILES IDX 23 86 25 87 16 88 19 89 17 90 22 91 18 92 20 93 21 94
REMARK H PARENT 86 22 54 33
REMARK Flexibility Score: inf
ROOT
ATOM      1  C   UNL     1       4.216  -0.418  -1.734  1.00  0.00     0.275 C 
ENDROOT
BRANCH   1   2
ATOM      2  O   UNL     1       3.144  -0.999  -0.976  1.00  0.00    -0.458 OA
BRANCH   2   3
ATOM      3  C   UNL     1       2.913  -0.995   0.355  1.00  0.00     0.338 C 
ATOM      4  O   UNL     1       1.946  -1.632   0.775  1.00  0.00    -0.246 OA
BRANCH   3   5
ATOM      5  C   UNL     1       3.685  -0.180   1.351  1.00  0.00     0.060 A 
ATOM      6  C   UNL     1       4.987   0.308   1.223  1.00  0.00     0.016 A 
ATOM      7  C   UNL     1       3.008   0.113   2.546  1.00  0.00     0.016 A 
ATOM      8  C   UNL     1       5.571   1.090   2.226  1.00  0.00     0.010 A 
ATOM      9  C   UNL     1       3.572   0.915   3.542  1.00  0.00     0.010 A 
ATOM     10  C   UNL     1       4.872   1.390   3.396  1.00  0.00    -0.014 A 
BRANCH  10  11
ATOM     11  C   UNL     1       5.571   2.052   4.518  1.00  0.00     0.031 A 
ATOM     12  C   UNL     1       6.041   1.207   5.664  1.00  0.00     0.074 A 
ATOM     13  C   UNL     1       5.843   3.369   4.472  1.00  0.00     0.049 A 
ATOM     14  N   UNL     1       6.808   1.532   6.671  1.00  0.00    -0.248 NA
ATOM     15  C   UNL     1       5.606  -0.200   5.666  1.00  0.00     0.031 C 
ATOM     16  C   UNL     1       5.452   4.265   3.388  1.00  0.00     0.029 A 
ATOM     17  N   UNL     1       6.524   4.178   5.344  1.00  0.00    -0.354 N 
ATOM     18  C   UNL     1       6.972   0.366   7.405  1.00  0.00     0.074 A 
ATOM     19  C   UNL     1       6.174  -0.658   6.769  1.00  0.00     0.031 C 
ATOM     20  C   UNL     1       5.900   5.503   3.653  1.00  0.00     0.029 A 
ATOM     21  C   UNL     1       6.614   5.484   4.926  1.00  0.00     0.049 A 
ATOM     22  H   UNL     1       6.912   3.854   6.189  1.00  0.00     0.167 HD
ATOM     23  C   UNL     1       7.745   0.162   8.496  1.00  0.00     0.037 A 
ATOM     24  C   UNL     1       7.226   6.535   5.503  1.00  0.00     0.037 A 
ATOM     25  C   UNL     1       8.508   1.199   9.134  1.00  0.00     0.049 A 
ATOM     26  C   UNL     1       8.009   6.301   6.768  1.00  0.00     0.074 A 
ATOM     27  C   UNL     1       9.321   1.115  10.248  1.00  0.00     0.029 A 
ATOM     28  N   UNL     1       8.531   2.523   8.715  1.00  0.00    -0.354 N 
ATOM     29  N   UNL     1       8.218   5.179   7.416  1.00  0.00    -0.248 NA
ATOM     30  C   UNL     1       8.663   7.470   7.368  1.00  0.00     0.031 C 
ATOM     31  C   UNL     1       9.794   2.401  10.535  1.00  0.00     0.029 A 
ATOM     32  C   UNL     1       9.321   3.275   9.567  1.00  0.00     0.049 A 
ATOM     33  H   UNL     1       8.055   2.875   7.928  1.00  0.00     0.167 HD
ATOM     34  C   UNL     1       9.061   5.496   8.472  1.00  0.00     0.074 A 
ATOM     35  C   UNL     1       9.329   6.918   8.373  1.00  0.00     0.031 C 
ATOM     36  C   UNL     1       9.575   4.688   9.432  1.00  0.00     0.037 A 
BRANCH  23  37
ATOM     37  C   UNL     1       7.760  -1.226   9.065  1.00  0.00     0.064 A 
ATOM     38  C   UNL     1       8.372  -2.292   8.386  1.00  0.00     0.173 A 
ATOM     39  C   UNL     1       7.119  -1.503  10.280  1.00  0.00     0.173 A 
ATOM     40  F   UNL     1       8.979  -2.083   7.207  1.00  0.00    -0.203 F 
ATOM     41  C   UNL     1       8.306  -3.591   8.884  1.00  0.00     0.198 A 
ATOM     42  C   UNL     1       7.079  -2.799  10.789  1.00  0.00     0.198 A 
ATOM     43  F   UNL     1       6.516  -0.522  10.966  1.00  0.00    -0.203 F 
ATOM     44  F   UNL     1       8.839  -4.603   8.185  1.00  0.00    -0.200 F 
ATOM     45  C   UNL     1       7.662  -3.843  10.085  1.00  0.00     0.200 A 
ATOM     46  F   UNL     1       6.460  -3.041  11.952  1.00  0.00    -0.200 F 
ATOM     47  F   UNL     1       7.588  -5.095  10.558  1.00  0.00    -0.200 F 
ENDBRANCH  23  37
BRANCH  24  48
ATOM     48  C   UNL     1       7.162   7.881   4.874  1.00  0.00     0.064 A 
ATOM     49  C   UNL     1       8.304   8.486   4.330  1.00  0.00     0.173 A 
ATOM     50  C   UNL     1       5.958   8.600   4.816  1.00  0.00     0.173 A 
ATOM     51  F   UNL     1       9.483   7.849   4.373  1.00  0.00    -0.203 F 
ATOM     52  C   UNL     1       8.251   9.765   3.776  1.00  0.00     0.198 A 
ATOM     53  C   UNL     1       5.900   9.868   4.240  1.00  0.00     0.198 A 
ATOM     54  F   UNL     1       4.833   8.067   5.317  1.00  0.00    -0.203 F 
ATOM     55  F   UNL     1       9.368  10.336   3.307  1.00  0.00    -0.200 F 
ATOM     56  C   UNL     1       7.048  10.453   3.729  1.00  0.00     0.200 A 
ATOM     57  F   UNL     1       4.733  10.524   4.186  1.00  0.00    -0.200 F 
ATOM     58  F   UNL     1       6.997  11.683   3.199  1.00  0.00    -0.200 F 
ENDBRANCH  24  48
BRANCH  36  59
ATOM     59  C   UNL     1      10.510   5.316  10.423  1.00  0.00     0.064 A 
ATOM     60  C   UNL     1      10.053   6.197  11.414  1.00  0.00     0.173 A 
ATOM     61  C   UNL     1      11.877   4.998  10.401  1.00  0.00     0.173 A 
ATOM     62  F   UNL     1       8.758   6.543  11.465  1.00  0.00    -0.203 F 
ATOM     63  C   UNL     1      10.937   6.759  12.331  1.00  0.00     0.198 A 
ATOM     64  C   UNL     1      12.751   5.536  11.340  1.00  0.00     0.198 A 
ATOM     65  F   UNL     1      12.361   4.155   9.477  1.00  0.00    -0.203 F 
ATOM     66  F   UNL     1      10.488   7.638  13.237  1.00  0.00    -0.200 F 
ATOM     67  C   UNL     1      12.282   6.422  12.298  1.00  0.00     0.200 A 
ATOM     68  F   UNL     1      14.047   5.197  11.317  1.00  0.00    -0.200 F 
ATOM     69  F   UNL     1      13.129   6.958  13.187  1.00  0.00    -0.200 F 
ENDBRANCH  36  59
ENDBRANCH  10  11
ENDBRANCH   3   5
ENDBRANCH   2   3
ENDBRANCH   1   2
BRANCH   1  70
ATOM     70  C   UNL     1       4.033   1.067  -2.048  1.00  0.00     0.275 C 
BRANCH  70  71
ATOM     71  O   UNL     1       3.549   1.821  -0.926  1.00  0.00    -0.458 OA
BRANCH  71  72
ATOM     72  C   UNL     1       2.220   2.097  -0.933  1.00  0.00     0.339 C 
ATOM     73  O   UNL     1       1.409   1.769  -1.781  1.00  0.00    -0.246 OA
BRANCH  72  74
ATOM     74  C   UNL     1       1.833   2.749   0.332  1.00  0.00     0.080 A 
ATOM     75  C   UNL     1       0.793   2.154   1.073  1.00  0.00     0.044 A 
ATOM     76  C   UNL     1       2.433   3.930   0.782  1.00  0.00     0.055 A 
ATOM     77  C   UNL     1       0.361   2.743   2.263  1.00  0.00     0.053 A 
ATOM     78  C   UNL     1       2.007   4.503   1.984  1.00  0.00     0.023 A 
ATOM     79  Cl  UNL     1       3.658   4.764  -0.106  1.00  0.00    -0.083 Cl
ATOM     80  C   UNL     1       0.974   3.917   2.717  1.00  0.00     0.028 A 
BRANCH  77  81
ATOM     81  N   UNL     1      -0.679   2.172   3.020  1.00  0.00    -0.250 N 
ATOM     82  C   UNL     1      -0.462   1.147   3.955  1.00  0.00     0.238 C 
ATOM     83  C   UNL     1      -1.857   2.887   3.321  1.00  0.00     0.238 C 
ATOM     84  O   UNL     1       0.562   0.603   4.319  1.00  0.00    -0.274 OA
ATOM     85  C   UNL     1      -1.808   0.932   4.545  1.00  0.00     0.100 C 
ATOM     86  C   UNL     1      -2.185   2.408   4.697  1.00  0.00     0.100 C 
ATOM     87  O   UNL     1      -2.365   3.824   2.734  1.00  0.00    -0.274 OA
ATOM     88  C   UNL     1      -2.232   0.148   5.794  1.00  0.00     0.028 C 
ATOM     89  C   UNL     1      -3.363   2.514   5.655  1.00  0.00     0.028 C 
ATOM     90  C   UNL     1      -3.763   0.112   5.567  1.00  0.00    -0.026 C 
ATOM     91  C   UNL     1      -2.061   0.885   7.130  1.00  0.00     0.001 C 
ATOM     92  C   UNL     1      -4.327   1.337   5.437  1.00  0.00    -0.026 C 
ATOM     93  C   UNL     1      -2.726   2.269   7.075  1.00  0.00     0.001 C 
ATOM     94  C   UNL     1      -1.242   2.108   7.412  1.00  0.00     0.009 C 
ENDBRANCH  77  81
ENDBRANCH  72  74
ENDBRANCH  71  72
ENDBRANCH  70  71
ENDBRANCH   1  70
TORSDOF 12
