REMARK SMILES COc1ccc(C(=O)N(C)CCC(=O)OCCOC(=O)c2ccc(-c3c4nc(c(-c5c(F)c(F)c(F)c(F)c5F)c5ccc([nH]5)c(-c5c(F)c(F)c(F)c(F)c5F)c5nc(c(-c6c(F)c(F)c(F)c(F)c6F)c6ccc3[nH]6)C=C5)C=C4)cc2)cc1O
REMARK SMILES IDX 15 1 13 2 14 3 12 4 11 5 9 6 10 7 7 8 8 9 6 10 3 11 4 12
REMARK SMILES IDX 85 13 5 14 84 15 2 16 1 17 86 18 16 20 17 21 18 22 19 23
REMARK SMILES IDX 20 24 21 25 22 26 83 27 23 28 82 29 24 30 25 31 26 32 76 33
REMARK SMILES IDX 27 34 81 35 75 36 77 37 28 38 80 39 74 40 73 41 29 43 61 44
REMARK SMILES IDX 41 45 60 46 42 47 45 48 59 49 78 50 43 51 44 52 58 54 79 55
REMARK SMILES IDX 46 56 30 57 31 58 39 59 32 60 33 61 37 62 40 63 34 64 35 65
REMARK SMILES IDX 38 66 36 67 62 68 63 69 71 70 64 71 65 72 69 73 72 74 66 75
REMARK SMILES IDX 67 76 70 77 68 78 47 79 48 80 56 81 49 82 50 83 54 84 57 85
REMARK SMILES IDX 51 86 52 87 55 88 53 89
REMARK H PARENT 86 19 77 42 45 53
REMARK Flexibility Score: inf
ROOT
ATOM      1  O   UNL     1      -1.763   1.829   7.039  1.00  0.00    -0.462 OA
ENDROOT
BRANCH   1   2
ATOM      2  C   UNL     1      -2.147   1.209   8.181  1.00  0.00     0.307 C 
ATOM      3  O   UNL     1      -2.126   1.705   9.301  1.00  0.00    -0.252 OA
BRANCH   2   4
ATOM      4  C   UNL     1      -2.582  -0.213   7.928  1.00  0.00     0.144 C 
BRANCH   4   5
ATOM      5  C   UNL     1      -3.755  -0.314   6.953  1.00  0.00     0.131 C 
BRANCH   5   6
ATOM      6  N   UNL     1      -3.314  -0.630   5.587  1.00  0.00    -0.341 N 
ATOM      7  C   UNL     1      -3.152  -2.036   5.268  1.00  0.00     0.147 C 
BRANCH   6   8
ATOM      8  C   UNL     1      -3.096   0.450   4.729  1.00  0.00     0.253 C 
ATOM      9  O   UNL     1      -3.704   1.508   4.916  1.00  0.00    -0.269 OA
BRANCH   8  10
ATOM     10  C   UNL     1      -2.062   0.466   3.640  1.00  0.00     0.043 A 
ATOM     11  C   UNL     1      -0.155   0.814   1.547  1.00  0.00     0.160 A 
ATOM     12  C   UNL     1      -0.726   1.915   2.183  1.00  0.00     0.051 A 
ATOM     13  C   UNL     1      -0.539  -0.455   1.981  1.00  0.00     0.158 A 
ATOM     14  C   UNL     1      -1.670   1.745   3.200  1.00  0.00     0.018 A 
ATOM     15  C   UNL     1      -1.448  -0.630   3.038  1.00  0.00     0.064 A 
BRANCH  11  16
ATOM     16  O   UNL     1       0.712   1.164   0.554  1.00  0.00    -0.493 OA
ATOM     17  C   UNL     1       1.520   0.170  -0.051  1.00  0.00     0.278 C 
ENDBRANCH  11  16
BRANCH  13  18
ATOM     18  O   UNL     1      -0.119  -1.614   1.389  1.00  0.00    -0.504 OA
ATOM     19  H   UNL     1       0.488  -1.583   0.676  1.00  0.00     0.293 HD
ENDBRANCH  13  18
ENDBRANCH   8  10
ENDBRANCH   6   8
ENDBRANCH   5   6
ENDBRANCH   4   5
ENDBRANCH   2   4
ENDBRANCH   1   2
BRANCH   1  20
ATOM     20  C   UNL     1      -1.509   3.245   7.119  1.00  0.00     0.274 C 
BRANCH  20  21
ATOM     21  C   UNL     1      -2.796   4.043   6.910  1.00  0.00     0.275 C 
BRANCH  21  22
ATOM     22  O   UNL     1      -3.650   3.852   8.049  1.00  0.00    -0.458 OA
BRANCH  22  23
ATOM     23  C   UNL     1      -4.953   3.630   7.794  1.00  0.00     0.338 C 
ATOM     24  O   UNL     1      -5.540   3.656   6.723  1.00  0.00    -0.246 OA
BRANCH  23  25
ATOM     25  C   UNL     1      -5.635   3.422   9.074  1.00  0.00     0.060 A 
ATOM     26  C   UNL     1      -5.505   2.213   9.764  1.00  0.00     0.016 A 
ATOM     27  C   UNL     1      -6.453   4.442   9.559  1.00  0.00     0.016 A 
ATOM     28  C   UNL     1      -6.218   2.015  10.946  1.00  0.00     0.010 A 
ATOM     29  C   UNL     1      -7.139   4.255  10.756  1.00  0.00     0.010 A 
ATOM     30  C   UNL     1      -7.041   3.035  11.447  1.00  0.00    -0.014 A 
BRANCH  30  31
ATOM     31  C   UNL     1      -7.838   2.835  12.678  1.00  0.00     0.031 A 
ATOM     32  C   UNL     1      -9.326   2.669  12.580  1.00  0.00     0.074 A 
ATOM     33  C   UNL     1      -7.231   2.855  13.878  1.00  0.00     0.049 A 
ATOM     34  N   UNL     1     -10.220   2.623  13.533  1.00  0.00    -0.248 NA
ATOM     35  C   UNL     1      -9.882   2.548  11.223  1.00  0.00     0.031 C 
ATOM     36  C   UNL     1      -5.791   2.994  14.091  1.00  0.00     0.029 A 
ATOM     37  N   UNL     1      -7.754   2.779  15.143  1.00  0.00    -0.354 N 
ATOM     38  C   UNL     1     -11.445   2.489  12.894  1.00  0.00     0.074 A 
ATOM     39  C   UNL     1     -11.183   2.477  11.470  1.00  0.00     0.031 C 
ATOM     40  C   UNL     1      -5.545   3.002  15.412  1.00  0.00     0.029 A 
ATOM     41  C   UNL     1      -6.812   2.913  16.132  1.00  0.00     0.049 A 
ATOM     42  H   UNL     1      -8.712   2.641  15.325  1.00  0.00     0.167 HD
ATOM     43  C   UNL     1     -12.675   2.384  13.450  1.00  0.00     0.037 A 
ATOM     44  C   UNL     1      -6.961   2.987  17.468  1.00  0.00     0.037 A 
ATOM     45  C   UNL     1     -12.927   2.387  14.867  1.00  0.00     0.049 A 
ATOM     46  C   UNL     1      -8.342   2.905  18.058  1.00  0.00     0.074 A 
ATOM     47  C   UNL     1     -14.134   2.264  15.532  1.00  0.00     0.029 A 
ATOM     48  N   UNL     1     -11.947   2.523  15.839  1.00  0.00    -0.354 N 
ATOM     49  N   UNL     1      -9.494   2.768  17.449  1.00  0.00    -0.248 NA
ATOM     50  C   UNL     1      -8.443   2.993  19.521  1.00  0.00     0.031 C 
ATOM     51  C   UNL     1     -13.889   2.361  16.906  1.00  0.00     0.029 A 
ATOM     52  C   UNL     1     -12.524   2.504  17.099  1.00  0.00     0.049 A 
ATOM     53  H   UNL     1     -10.983   2.620  15.661  1.00  0.00     0.167 HD
ATOM     54  C   UNL     1     -10.454   2.735  18.451  1.00  0.00     0.074 A 
ATOM     55  C   UNL     1      -9.747   2.852  19.710  1.00  0.00     0.031 C 
ATOM     56  C   UNL     1     -11.800   2.619  18.338  1.00  0.00     0.037 A 
BRANCH  43  57
ATOM     57  C   UNL     1     -13.847   2.277  12.520  1.00  0.00     0.064 A 
ATOM     58  C   UNL     1     -14.112   1.101  11.803  1.00  0.00     0.173 A 
ATOM     59  C   UNL     1     -14.733   3.354  12.369  1.00  0.00     0.173 A 
ATOM     60  F   UNL     1     -13.287   0.049  11.903  1.00  0.00    -0.203 F 
ATOM     61  C   UNL     1     -15.211   1.015  10.952  1.00  0.00     0.198 A 
ATOM     62  C   UNL     1     -15.845   3.256  11.536  1.00  0.00     0.198 A 
ATOM     63  F   UNL     1     -14.526   4.499  13.036  1.00  0.00    -0.203 F 
ATOM     64  F   UNL     1     -15.425  -0.105  10.247  1.00  0.00    -0.200 F 
ATOM     65  C   UNL     1     -16.079   2.089  10.824  1.00  0.00     0.200 A 
ATOM     66  F   UNL     1     -16.688   4.291  11.420  1.00  0.00    -0.200 F 
ATOM     67  F   UNL     1     -17.140   2.002  10.009  1.00  0.00    -0.200 F 
ENDBRANCH  43  57
BRANCH  44  68
ATOM     68  C   UNL     1      -5.767   3.156  18.334  1.00  0.00     0.064 A 
ATOM     69  C   UNL     1      -5.314   2.109  19.147  1.00  0.00     0.173 A 
ATOM     70  C   UNL     1      -5.051   4.362  18.360  1.00  0.00     0.173 A 
ATOM     71  F   UNL     1      -5.982   0.946  19.174  1.00  0.00    -0.203 F 
ATOM     72  C   UNL     1      -4.195   2.265  19.962  1.00  0.00     0.198 A 
ATOM     73  C   UNL     1      -3.918   4.508  19.156  1.00  0.00     0.198 A 
ATOM     74  F   UNL     1      -5.446   5.394  17.601  1.00  0.00    -0.203 F 
ATOM     75  F   UNL     1      -3.804   1.260  20.758  1.00  0.00    -0.200 F 
ATOM     76  C   UNL     1      -3.494   3.461  19.961  1.00  0.00     0.200 A 
ATOM     77  F   UNL     1      -3.237   5.662  19.145  1.00  0.00    -0.200 F 
ATOM     78  F   UNL     1      -2.414   3.608  20.740  1.00  0.00    -0.200 F 
ENDBRANCH  44  68
BRANCH  56  79
ATOM     79  C   UNL     1     -12.590   2.585  19.612  1.00  0.00     0.064 A 
ATOM     80  C   UNL     1     -12.810   3.745  20.368  1.00  0.00     0.173 A 
ATOM     81  C   UNL     1     -13.162   1.385  20.060  1.00  0.00     0.173 A 
ATOM     82  F   UNL     1     -12.270   4.912  19.987  1.00  0.00    -0.203 F 
ATOM     83  C   UNL     1     -13.560   3.700  21.540  1.00  0.00     0.198 A 
ATOM     84  C   UNL     1     -13.930   1.349  21.220  1.00  0.00     0.198 A 
ATOM     85  F   UNL     1     -12.982   0.250  19.368  1.00  0.00    -0.203 F 
ATOM     86  F   UNL     1     -13.725   4.812  22.270  1.00  0.00    -0.200 F 
ATOM     87  C   UNL     1     -14.123   2.505  21.962  1.00  0.00     0.200 A 
ATOM     88  F   UNL     1     -14.481   0.196  21.622  1.00  0.00    -0.200 F 
ATOM     89  F   UNL     1     -14.847   2.465  23.089  1.00  0.00    -0.200 F 
ENDBRANCH  56  79
ENDBRANCH  30  31
ENDBRANCH  23  25
ENDBRANCH  22  23
ENDBRANCH  21  22
ENDBRANCH  20  21
ENDBRANCH   1  20
TORSDOF 17
