REMARK SMILES Cc1nc(C(F)(F)F)c(C(=O)OCCOC(=O)c2ccc(-c3c4nc(c(-c5c(F)c(F)c(F)c(F)c5F)c5ccc([nH]5)c(-c5c(F)c(F)c(F)c(F)c5F)c5nc(c(-c6c(F)c(F)c(F)c(F)c6F)c6ccc3[nH]6)C=C5)C=C4)cc2)s1
REMARK SMILES IDX 14 1 13 2 12 3 10 4 11 5 9 6 1 7 2 8 3 9 81 10 4 11 5 12
REMARK SMILES IDX 6 13 7 14 8 15 15 16 16 17 17 18 18 19 19 20 80 21 20 22
REMARK SMILES IDX 79 23 21 24 22 25 23 26 73 27 24 28 78 29 72 30 74 31 25 32
REMARK SMILES IDX 77 33 71 34 70 35 26 37 58 38 38 39 57 40 39 41 42 42 56 43
REMARK SMILES IDX 75 44 40 45 41 46 55 48 76 49 43 50 27 51 28 52 36 53 29 54
REMARK SMILES IDX 30 55 34 56 37 57 31 58 32 59 35 60 33 61 59 62 60 63 68 64
REMARK SMILES IDX 61 65 62 66 66 67 69 68 63 69 64 70 67 71 65 72 44 73 45 74
REMARK SMILES IDX 53 75 46 76 47 77 51 78 54 79 48 80 49 81 52 82 50 83
REMARK H PARENT 74 36 42 47
REMARK Flexibility Score: inf
ROOT
ATOM      1  C   UNL     1       5.480   0.666  -1.112  1.00  0.00     0.275 C 
ENDROOT
BRANCH   1   2
ATOM      2  C   UNL     1       5.155  -0.097   0.177  1.00  0.00     0.275 C 
BRANCH   2   3
ATOM      3  O   UNL     1       3.812  -0.624   0.161  1.00  0.00    -0.458 OA
BRANCH   3   4
ATOM      4  C   UNL     1       2.887   0.019   0.929  1.00  0.00     0.350 C 
ATOM      5  O   UNL     1       3.134   0.981   1.638  1.00  0.00    -0.245 OA
BRANCH   4   6
ATOM      6  C   UNL     1       1.569  -0.538   0.695  1.00  0.00     0.145 A 
ATOM      7  C   UNL     1      -2.261  -0.404   0.093  1.00  0.00     0.079 C 
ATOM      8  C   UNL     1      -0.825  -0.726   0.319  1.00  0.00     0.091 A 
ATOM      9  N   UNL     1      -0.224  -1.815  -0.103  1.00  0.00    -0.236 NA
ATOM     10  S   UNL     1       0.180   0.367   1.167  1.00  0.00    -0.111 S 
ATOM     11  C   UNL     1       1.161  -1.742   0.135  1.00  0.00     0.170 A 
BRANCH  11  12
ATOM     12  C   UNL     1       2.049  -2.901  -0.214  1.00  0.00     0.435 C 
ATOM     13  F   UNL     1       2.740  -2.708  -1.365  1.00  0.00    -0.164 F 
ATOM     14  F   UNL     1       2.965  -3.138   0.765  1.00  0.00    -0.164 F 
ATOM     15  F   UNL     1       1.355  -4.061  -0.363  1.00  0.00    -0.164 F 
ENDBRANCH  11  12
ENDBRANCH   4   6
ENDBRANCH   3   4
ENDBRANCH   2   3
ENDBRANCH   1   2
BRANCH   1  16
ATOM     16  O   UNL     1       4.773   1.920  -1.187  1.00  0.00    -0.458 OA
BRANCH  16  17
ATOM     17  C   UNL     1       3.593   1.869  -1.847  1.00  0.00     0.338 C 
ATOM     18  O   UNL     1       3.085   0.894  -2.374  1.00  0.00    -0.246 OA
BRANCH  17  19
ATOM     19  C   UNL     1       2.873   3.141  -1.694  1.00  0.00     0.060 A 
ATOM     20  C   UNL     1       1.704   3.108  -0.937  1.00  0.00     0.016 A 
ATOM     21  C   UNL     1       3.248   4.310  -2.354  1.00  0.00     0.016 A 
ATOM     22  C   UNL     1       0.884   4.225  -0.846  1.00  0.00     0.010 A 
ATOM     23  C   UNL     1       2.434   5.447  -2.245  1.00  0.00     0.010 A 
ATOM     24  C   UNL     1       1.238   5.408  -1.502  1.00  0.00    -0.014 A 
BRANCH  24  25
ATOM     25  C   UNL     1       0.319   6.574  -1.435  1.00  0.00     0.031 A 
ATOM     26  C   UNL     1      -0.424   7.019  -2.662  1.00  0.00     0.074 A 
ATOM     27  C   UNL     1       0.108   7.196  -0.259  1.00  0.00     0.049 A 
ATOM     28  N   UNL     1      -1.207   8.055  -2.828  1.00  0.00    -0.248 NA
ATOM     29  C   UNL     1      -0.266   6.187  -3.865  1.00  0.00     0.031 C 
ATOM     30  C   UNL     1       0.720   6.819   1.016  1.00  0.00     0.029 A 
ATOM     31  N   UNL     1      -0.685   8.271   0.058  1.00  0.00    -0.354 N 
ATOM     32  C   UNL     1      -1.608   8.019  -4.158  1.00  0.00     0.074 A 
ATOM     33  C   UNL     1      -0.973   6.865  -4.759  1.00  0.00     0.031 C 
ATOM     34  C   UNL     1       0.271   7.640   1.978  1.00  0.00     0.029 A 
ATOM     35  C   UNL     1      -0.608   8.640   1.379  1.00  0.00     0.049 A 
ATOM     36  H   UNL     1      -1.254   8.734  -0.599  1.00  0.00     0.167 HD
ATOM     37  C   UNL     1      -2.432   8.872  -4.813  1.00  0.00     0.037 A 
ATOM     38  C   UNL     1      -1.154   9.687   2.027  1.00  0.00     0.037 A 
ATOM     39  C   UNL     1      -3.084  10.002  -4.201  1.00  0.00     0.049 A 
ATOM     40  C   UNL     1      -2.017  10.652   1.260  1.00  0.00     0.074 A 
ATOM     41  C   UNL     1      -3.945  10.919  -4.778  1.00  0.00     0.029 A 
ATOM     42  N   UNL     1      -2.949  10.366  -2.869  1.00  0.00    -0.354 N 
ATOM     43  N   UNL     1      -2.373  10.623  -0.001  1.00  0.00    -0.248 NA
ATOM     44  C   UNL     1      -2.548  11.802   2.006  1.00  0.00     0.031 C 
ATOM     45  C   UNL     1      -4.293  11.865  -3.808  1.00  0.00     0.029 A 
ATOM     46  C   UNL     1      -3.694  11.506  -2.612  1.00  0.00     0.049 A 
ATOM     47  H   UNL     1      -2.405   9.885  -2.204  1.00  0.00     0.167 HD
ATOM     48  C   UNL     1      -3.185  11.732  -0.195  1.00  0.00     0.074 A 
ATOM     49  C   UNL     1      -3.285  12.404   1.084  1.00  0.00     0.031 C 
ATOM     50  C   UNL     1      -3.792  12.156  -1.330  1.00  0.00     0.037 A 
BRANCH  37  51
ATOM     51  C   UNL     1      -2.651   8.641  -6.280  1.00  0.00     0.064 A 
ATOM     52  C   UNL     1      -3.419   7.569  -6.757  1.00  0.00     0.173 A 
ATOM     53  C   UNL     1      -2.117   9.534  -7.222  1.00  0.00     0.173 A 
ATOM     54  F   UNL     1      -3.942   6.679  -5.901  1.00  0.00    -0.203 F 
ATOM     55  C   UNL     1      -3.625   7.387  -8.123  1.00  0.00     0.198 A 
ATOM     56  C   UNL     1      -2.349   9.367  -8.585  1.00  0.00     0.198 A 
ATOM     57  F   UNL     1      -1.380  10.580  -6.819  1.00  0.00    -0.203 F 
ATOM     58  F   UNL     1      -4.326   6.331  -8.559  1.00  0.00    -0.200 F 
ATOM     59  C   UNL     1      -3.097   8.290  -9.035  1.00  0.00     0.200 A 
ATOM     60  F   UNL     1      -1.849  10.248  -9.462  1.00  0.00    -0.200 F 
ATOM     61  F   UNL     1      -3.303   8.118 -10.348  1.00  0.00    -0.200 F 
ENDBRANCH  37  51
BRANCH  38  62
ATOM     62  C   UNL     1      -0.873   9.897   3.472  1.00  0.00     0.064 A 
ATOM     63  C   UNL     1      -1.887   9.783   4.433  1.00  0.00     0.173 A 
ATOM     64  C   UNL     1       0.414  10.232   3.920  1.00  0.00     0.173 A 
ATOM     65  F   UNL     1      -3.139   9.491   4.053  1.00  0.00    -0.203 F 
ATOM     66  C   UNL     1      -1.628  10.013   5.783  1.00  0.00     0.198 A 
ATOM     67  C   UNL     1       0.679  10.429   5.273  1.00  0.00     0.198 A 
ATOM     68  F   UNL     1       1.420  10.357   3.041  1.00  0.00    -0.203 F 
ATOM     69  F   UNL     1      -2.626   9.947   6.674  1.00  0.00    -0.200 F 
ATOM     70  C   UNL     1      -0.344  10.328   6.202  1.00  0.00     0.200 A 
ATOM     71  F   UNL     1       1.924  10.720   5.674  1.00  0.00    -0.200 F 
ATOM     72  F   UNL     1      -0.095  10.545   7.501  1.00  0.00    -0.200 F 
ENDBRANCH  38  62
BRANCH  50  73
ATOM     73  C   UNL     1      -4.653  13.383  -1.232  1.00  0.00     0.064 A 
ATOM     74  C   UNL     1      -4.100  14.661  -1.066  1.00  0.00     0.173 A 
ATOM     75  C   UNL     1      -6.048  13.279  -1.341  1.00  0.00     0.173 A 
ATOM     76  F   UNL     1      -2.773  14.811  -0.939  1.00  0.00    -0.203 F 
ATOM     77  C   UNL     1      -4.915  15.787  -0.987  1.00  0.00     0.198 A 
ATOM     78  C   UNL     1      -6.857  14.410  -1.293  1.00  0.00     0.198 A 
ATOM     79  F   UNL     1      -6.626  12.080  -1.508  1.00  0.00    -0.203 F 
ATOM     80  F   UNL     1      -4.368  16.993  -0.778  1.00  0.00    -0.200 F 
ATOM     81  C   UNL     1      -6.290  15.662  -1.108  1.00  0.00     0.200 A 
ATOM     82  F   UNL     1      -8.185  14.289  -1.424  1.00  0.00    -0.200 F 
ATOM     83  F   UNL     1      -7.072  16.748  -1.038  1.00  0.00    -0.200 F 
ENDBRANCH  50  73
ENDBRANCH  24  25
ENDBRANCH  17  19
ENDBRANCH  16  17
ENDBRANCH   1  16
TORSDOF 12
