REMARK SMILES O=C(OCCOC(=O)[C@@]1([NH2+]C2CC2)CCC[C@@H](Sc2ncn[nH]2)C1)c1ccc(-c2c3nc(c(-c4c(F)c(F)c(F)c(F)c4F)c4ccc([nH]4)c(-c4c(F)c(F)c(F)c(F)c4F)c4nc(c(-c5c(F)c(F)c(F)c(F)c5F)c5ccc2[nH]5)C=C4)C=C3)cc1
REMARK SMILES IDX 4 1 3 2 2 3 1 4 25 5 26 6 87 7 27 8 86 9 28 10 29 11 30 12
REMARK SMILES IDX 80 13 31 14 85 15 79 16 81 17 32 18 84 19 78 20 77 21 33 23
REMARK SMILES IDX 65 24 45 25 64 26 46 27 49 28 63 29 82 30 47 31 48 32 62 34
REMARK SMILES IDX 83 35 50 36 34 37 35 38 43 39 36 40 37 41 41 42 44 43 38 44
REMARK SMILES IDX 39 45 42 46 40 47 66 48 67 49 75 50 68 51 69 52 73 53 76 54
REMARK SMILES IDX 70 55 71 56 74 57 72 58 51 59 52 60 60 61 53 62 54 63 58 64
REMARK SMILES IDX 61 65 55 66 56 67 59 68 57 69 5 70 6 71 7 72 8 73 9 74 14 75
REMARK SMILES IDX 24 76 15 77 17 78 16 79 10 80 11 83 12 84 13 85 18 86 19 87
REMARK SMILES IDX 20 88 23 89 21 90 22 91
REMARK H PARENT 81 22 49 33 10 81 10 82 23 92
REMARK Flexibility Score: inf
ROOT
ATOM      1  C   UNL     1       4.848  -0.093  -1.848  1.00  0.00     0.275 C 
ENDROOT
BRANCH   1   2
ATOM      2  O   UNL     1       4.626  -1.251  -1.019  1.00  0.00    -0.458 OA
BRANCH   2   3
ATOM      3  C   UNL     1       4.052  -1.174   0.195  1.00  0.00     0.338 C 
ATOM      4  O   UNL     1       3.031  -1.814   0.462  1.00  0.00    -0.246 OA
BRANCH   3   5
ATOM      5  C   UNL     1       4.746  -0.381   1.249  1.00  0.00     0.060 A 
ATOM      6  C   UNL     1       5.992   0.234   1.093  1.00  0.00     0.016 A 
ATOM      7  C   UNL     1       4.070  -0.215   2.461  1.00  0.00     0.016 A 
ATOM      8  C   UNL     1       6.497   1.089   2.082  1.00  0.00     0.010 A 
ATOM      9  C   UNL     1       4.543   0.679   3.420  1.00  0.00     0.010 A 
ATOM     10  C   UNL     1       5.763   1.345   3.245  1.00  0.00    -0.014 A 
BRANCH  10  11
ATOM     11  C   UNL     1       6.292   2.230   4.315  1.00  0.00     0.031 A 
ATOM     12  C   UNL     1       6.554   1.655   5.678  1.00  0.00     0.074 A 
ATOM     13  C   UNL     1       6.505   3.546   4.103  1.00  0.00     0.049 A 
ATOM     14  N   UNL     1       7.116   2.219   6.717  1.00  0.00    -0.248 NA
ATOM     15  C   UNL     1       6.105   0.273   5.921  1.00  0.00     0.031 C 
ATOM     16  C   UNL     1       6.222   4.266   2.863  1.00  0.00     0.029 A 
ATOM     17  N   UNL     1       6.991   4.521   4.942  1.00  0.00    -0.354 N 
ATOM     18  C   UNL     1       7.135   1.240   7.697  1.00  0.00     0.074 A 
ATOM     19  C   UNL     1       6.363   0.125   7.208  1.00  0.00     0.031 C 
ATOM     20  C   UNL     1       6.509   5.568   3.036  1.00  0.00     0.029 A 
ATOM     21  C   UNL     1       7.032   5.772   4.377  1.00  0.00     0.049 A 
ATOM     22  H   UNL     1       7.283   4.338   5.864  1.00  0.00     0.167 HD
ATOM     23  C   UNL     1       7.839   1.215   8.851  1.00  0.00     0.037 A 
ATOM     24  C   UNL     1       7.474   6.948   4.864  1.00  0.00     0.037 A 
ATOM     25  C   UNL     1       8.616   2.318   9.331  1.00  0.00     0.049 A 
ATOM     26  C   UNL     1       8.172   6.949   6.196  1.00  0.00     0.074 A 
ATOM     27  C   UNL     1       9.436   2.389  10.440  1.00  0.00     0.029 A 
ATOM     28  N   UNL     1       8.651   3.563   8.720  1.00  0.00    -0.354 N 
ATOM     29  N   UNL     1       8.365   5.954   7.027  1.00  0.00    -0.248 NA
ATOM     30  C   UNL     1       8.778   8.216   6.626  1.00  0.00     0.031 C 
ATOM     31  C   UNL     1       9.940   3.693  10.520  1.00  0.00     0.029 A 
ATOM     32  C   UNL     1       9.462   4.420   9.440  1.00  0.00     0.049 A 
ATOM     33  H   UNL     1       8.169   3.801   7.895  1.00  0.00     0.167 HD
ATOM     34  C   UNL     1       9.188   6.447   8.029  1.00  0.00     0.074 A 
ATOM     35  C   UNL     1       9.430   7.842   7.718  1.00  0.00     0.031 C 
ATOM     36  C   UNL     1       9.719   5.795   9.091  1.00  0.00     0.037 A 
BRANCH  23  37
ATOM     37  C   UNL     1       7.833  -0.088   9.593  1.00  0.00     0.064 A 
ATOM     38  C   UNL     1       8.443  -1.229   9.040  1.00  0.00     0.173 A 
ATOM     39  C   UNL     1       7.144  -0.232  10.803  1.00  0.00     0.173 A 
ATOM     40  F   UNL     1       9.093  -1.146   7.868  1.00  0.00    -0.203 F 
ATOM     41  C   UNL     1       8.304  -2.478   9.636  1.00  0.00     0.198 A 
ATOM     42  C   UNL     1       7.037  -1.479  11.415  1.00  0.00     0.198 A 
ATOM     43  F   UNL     1       6.544   0.824  11.370  1.00  0.00    -0.203 F 
ATOM     44  F   UNL     1       8.809  -3.565   9.037  1.00  0.00    -0.200 F 
ATOM     45  C   UNL     1       7.600  -2.602  10.823  1.00  0.00     0.200 A 
ATOM     46  F   UNL     1       6.359  -1.602  12.564  1.00  0.00    -0.200 F 
ATOM     47  F   UNL     1       7.443  -3.808  11.385  1.00  0.00    -0.200 F 
ENDBRANCH  23  37
BRANCH  24  48
ATOM     48  C   UNL     1       7.384   8.190   4.048  1.00  0.00     0.064 A 
ATOM     49  C   UNL     1       8.524   8.755   3.458  1.00  0.00     0.173 A 
ATOM     50  C   UNL     1       6.162   8.850   3.860  1.00  0.00     0.173 A 
ATOM     51  F   UNL     1       9.719   8.168   3.619  1.00  0.00    -0.203 F 
ATOM     52  C   UNL     1       8.454   9.953   2.747  1.00  0.00     0.198 A 
ATOM     53  C   UNL     1       6.088  10.036   3.129  1.00  0.00     0.198 A 
ATOM     54  F   UNL     1       5.035   8.348   4.387  1.00  0.00    -0.203 F 
ATOM     55  F   UNL     1       9.570  10.501   2.247  1.00  0.00    -0.200 F 
ATOM     56  C   UNL     1       7.235  10.594   2.584  1.00  0.00     0.200 A 
ATOM     57  F   UNL     1       4.904  10.637   2.948  1.00  0.00    -0.200 F 
ATOM     58  F   UNL     1       7.166  11.752   1.915  1.00  0.00    -0.200 F 
ENDBRANCH  24  48
BRANCH  36  59
ATOM     59  C   UNL     1      10.688   6.552   9.946  1.00  0.00     0.064 A 
ATOM     60  C   UNL     1      10.273   7.569  10.815  1.00  0.00     0.173 A 
ATOM     61  C   UNL     1      12.050   6.216   9.922  1.00  0.00     0.173 A 
ATOM     62  F   UNL     1       8.984   7.937  10.857  1.00  0.00    -0.203 F 
ATOM     63  C   UNL     1      11.193   8.239  11.616  1.00  0.00     0.198 A 
ATOM     64  C   UNL     1      12.961   6.865  10.747  1.00  0.00     0.198 A 
ATOM     65  F   UNL     1      12.494   5.246   9.108  1.00  0.00    -0.203 F 
ATOM     66  F   UNL     1      10.783   9.241  12.406  1.00  0.00    -0.200 F 
ATOM     67  C   UNL     1      12.533   7.881  11.589  1.00  0.00     0.200 A 
ATOM     68  F   UNL     1      14.252   6.508  10.730  1.00  0.00    -0.200 F 
ATOM     69  F   UNL     1      13.414   8.520  12.370  1.00  0.00    -0.200 F 
ENDBRANCH  36  59
ENDBRANCH  10  11
ENDBRANCH   3   5
ENDBRANCH   2   3
ENDBRANCH   1   2
BRANCH   1  70
ATOM     70  C   UNL     1       3.749   0.976  -1.915  1.00  0.00     0.274 C 
BRANCH  70  71
ATOM     71  O   UNL     1       3.363   1.552  -0.651  1.00  0.00    -0.457 OA
BRANCH  71  72
ATOM     72  C   UNL     1       2.045   1.949  -0.592  1.00  0.00     0.368 C 
ATOM     73  O   UNL     1       1.232   1.697  -1.478  1.00  0.00    -0.245 OA
BRANCH  72  74
ATOM     74  C   UNL     1       1.735   2.898   0.615  1.00  0.00     0.195 C 
ATOM     75  C   UNL     1       2.693   2.760   1.804  1.00  0.00     0.081 C 
ATOM     76  C   UNL     1       1.960   4.326   0.042  1.00  0.00     0.096 C 
ATOM     77  C   UNL     1       2.488   3.797   2.905  1.00  0.00     0.008 C 
ATOM     78  C   UNL     1       1.881   5.453   1.086  1.00  0.00     0.061 C 
ATOM     79  C   UNL     1       2.682   5.203   2.368  1.00  0.00     0.015 C 
BRANCH  74  80
ATOM     80  N   UNL     1       0.307   2.761   1.027  1.00  0.00    -0.330 N 
ATOM     81  H   UNL     1      -0.249   2.998   0.205  1.00  0.00     0.347 HD
ATOM     82  H   UNL     1       0.266   3.362   1.850  1.00  0.00     0.347 HD
BRANCH  80  83
ATOM     83  C   UNL     1      -0.249   1.492   1.549  1.00  0.00     0.183 C 
ATOM     84  C   UNL     1       0.523   0.225   1.808  1.00  0.00     0.071 C 
ATOM     85  C   UNL     1       0.107   1.101   2.954  1.00  0.00     0.071 C 
ENDBRANCH  80  83
ENDBRANCH  74  80
BRANCH  78  86
ATOM     86  S   UNL     1       2.299   7.088   0.369  1.00  0.00    -0.083 SA
BRANCH  86  87
ATOM     87  C   UNL     1       3.993   7.000   0.078  1.00  0.00     0.183 A 
ATOM     88  N   UNL     1       4.726   5.986  -0.308  1.00  0.00    -0.210 NA
ATOM     89  N   UNL     1       4.773   8.104   0.224  1.00  0.00    -0.254 N 
ATOM     90  C   UNL     1       5.974   6.538  -0.407  1.00  0.00     0.247 A 
ATOM     91  N   UNL     1       6.066   7.819  -0.029  1.00  0.00    -0.162 NA
ATOM     92  H   UNL     1       4.438   8.994   0.481  1.00  0.00     0.192 HD
ENDBRANCH  86  87
ENDBRANCH  78  86
ENDBRANCH  72  74
ENDBRANCH  71  72
ENDBRANCH  70  71
ENDBRANCH   1  70
TORSDOF 15
