REMARK SMILES O=C(OCCOC(=O)c1ccc2c(=O)n(CCC[NH+]3CCOCC3)c(=O)[nH]c2c1)c1ccc(-c2c3nc(c(-c4c(F)c(F)c(F)c(F)c4F)c4ccc([nH]4)c(-c4c(F)c(F)c(F)c(F)c4F)c4nc(c(-c5c(F)c(F)c(F)c(F)c5F)c5ccc2[nH]5)C=C4)C=C3)cc1
REMARK SMILES IDX 5 1 4 2 3 3 2 4 1 5 30 6 31 7 92 8 32 9 91 10 33 11 34 12
REMARK SMILES IDX 35 13 85 14 36 15 90 16 84 17 86 18 37 19 89 20 83 21 82 22
REMARK SMILES IDX 38 24 70 25 50 26 69 27 51 28 54 29 68 30 87 31 52 32 53 33
REMARK SMILES IDX 67 35 88 36 55 37 39 38 40 39 48 40 41 41 42 42 46 43 49 44
REMARK SMILES IDX 43 45 44 46 47 47 45 48 71 49 72 50 80 51 73 52 74 53 78 54
REMARK SMILES IDX 81 55 75 56 76 57 79 58 77 59 56 60 57 61 65 62 58 63 59 64
REMARK SMILES IDX 63 65 66 66 60 67 61 68 64 69 62 70 6 71 7 72 8 73 9 74
REMARK SMILES IDX 10 75 29 76 11 77 28 78 12 79 27 80 13 81 25 82 14 84 15 85
REMARK SMILES IDX 26 86 16 87 17 88 18 89 19 90 20 91 24 92 21 94 23 95 22 96
REMARK H PARENT 86 23 54 34 27 83 19 93
REMARK Flexibility Score: inf
ROOT
ATOM      1  C   UNL     1       3.925   1.566  -1.324  1.00  0.00     0.275 C 
ENDROOT
BRANCH   1   2
ATOM      2  C   UNL     1       4.256   0.072  -1.385  1.00  0.00     0.275 C 
BRANCH   2   3
ATOM      3  O   UNL     1       3.228  -0.795  -0.875  1.00  0.00    -0.458 OA
BRANCH   3   4
ATOM      4  C   UNL     1       3.061  -1.302   0.368  1.00  0.00     0.338 C 
ATOM      5  O   UNL     1       2.272  -2.231   0.531  1.00  0.00    -0.246 OA
BRANCH   4   6
ATOM      6  C   UNL     1       3.640  -0.673   1.596  1.00  0.00     0.060 A 
ATOM      7  C   UNL     1       2.847  -0.756   2.753  1.00  0.00     0.016 A 
ATOM      8  C   UNL     1       4.877  -0.035   1.701  1.00  0.00     0.016 A 
ATOM      9  C   UNL     1       3.216  -0.108   3.934  1.00  0.00     0.010 A 
ATOM     10  C   UNL     1       5.266   0.594   2.892  1.00  0.00     0.010 A 
ATOM     11  C   UNL     1       4.427   0.588   4.008  1.00  0.00    -0.014 A 
BRANCH  11  12
ATOM     12  C   UNL     1       4.877   1.147   5.302  1.00  0.00     0.031 A 
ATOM     13  C   UNL     1       4.979   2.621   5.546  1.00  0.00     0.074 A 
ATOM     14  C   UNL     1       5.224   0.273   6.264  1.00  0.00     0.049 A 
ATOM     15  N   UNL     1       5.181   3.254   6.675  1.00  0.00    -0.248 NA
ATOM     16  C   UNL     1       4.839   3.507   4.382  1.00  0.00     0.031 C 
ATOM     17  C   UNL     1       5.224  -1.183   6.104  1.00  0.00     0.029 A 
ATOM     18  N   UNL     1       5.648   0.470   7.551  1.00  0.00    -0.354 N 
ATOM     19  C   UNL     1       5.139   4.607   6.367  1.00  0.00     0.074 A 
ATOM     20  C   UNL     1       4.950   4.708   4.936  1.00  0.00     0.031 C 
ATOM     21  C   UNL     1       5.611  -1.749   7.254  1.00  0.00     0.029 A 
ATOM     22  C   UNL     1       5.920  -0.698   8.217  1.00  0.00     0.049 A 
ATOM     23  H   UNL     1       5.747   1.361   7.958  1.00  0.00     0.167 HD
ATOM     24  C   UNL     1       5.243   5.660   7.213  1.00  0.00     0.037 A 
ATOM     25  C   UNL     1       6.379  -0.903   9.464  1.00  0.00     0.037 A 
ATOM     26  C   UNL     1       5.526   5.527   8.620  1.00  0.00     0.049 A 
ATOM     27  C   UNL     1       6.604   0.283  10.352  1.00  0.00     0.074 A 
ATOM     28  C   UNL     1       5.575   6.511   9.592  1.00  0.00     0.029 A 
ATOM     29  N   UNL     1       5.873   4.334   9.243  1.00  0.00    -0.354 N 
ATOM     30  N   UNL     1       6.373   1.550  10.102  1.00  0.00    -0.248 NA
ATOM     31  C   UNL     1       7.149   0.019  11.687  1.00  0.00     0.031 C 
ATOM     32  C   UNL     1       6.047   5.930  10.775  1.00  0.00     0.029 A 
ATOM     33  C   UNL     1       6.226   4.572  10.561  1.00  0.00     0.049 A 
ATOM     34  H   UNL     1       5.869   3.450   8.810  1.00  0.00     0.167 HD
ATOM     35  C   UNL     1       6.742   2.238  11.247  1.00  0.00     0.074 A 
ATOM     36  C   UNL     1       7.194   1.242  12.201  1.00  0.00     0.031 C 
ATOM     37  C   UNL     1       6.709   3.572  11.483  1.00  0.00     0.037 A 
BRANCH  24  38
ATOM     38  C   UNL     1       5.055   7.045   6.655  1.00  0.00     0.064 A 
ATOM     39  C   UNL     1       3.797   7.486   6.218  1.00  0.00     0.173 A 
ATOM     40  C   UNL     1       6.107   7.972   6.641  1.00  0.00     0.173 A 
ATOM     41  F   UNL     1       2.762   6.636   6.185  1.00  0.00    -0.203 F 
ATOM     42  C   UNL     1       3.595   8.799   5.798  1.00  0.00     0.198 A 
ATOM     43  C   UNL     1       5.901   9.289   6.231  1.00  0.00     0.198 A 
ATOM     44  F   UNL     1       7.335   7.606   7.040  1.00  0.00    -0.203 F 
ATOM     45  F   UNL     1       2.383   9.187   5.377  1.00  0.00    -0.200 F 
ATOM     46  C   UNL     1       4.646   9.702   5.813  1.00  0.00     0.200 A 
ATOM     47  F   UNL     1       6.919  10.161   6.248  1.00  0.00    -0.200 F 
ATOM     48  F   UNL     1       4.450  10.968   5.419  1.00  0.00    -0.200 F 
ENDBRANCH  24  38
BRANCH  25  49
ATOM     49  C   UNL     1       6.623  -2.296   9.909  1.00  0.00     0.064 A 
ATOM     50  C   UNL     1       5.760  -2.924  10.815  1.00  0.00     0.173 A 
ATOM     51  C   UNL     1       7.650  -3.067   9.339  1.00  0.00     0.173 A 
ATOM     52  F   UNL     1       4.772  -2.225  11.392  1.00  0.00    -0.203 F 
ATOM     53  C   UNL     1       5.903  -4.276  11.121  1.00  0.00     0.198 A 
ATOM     54  C   UNL     1       7.776  -4.423   9.626  1.00  0.00     0.198 A 
ATOM     55  F   UNL     1       8.493  -2.512   8.456  1.00  0.00    -0.203 F 
ATOM     56  F   UNL     1       5.064  -4.856  11.990  1.00  0.00    -0.200 F 
ATOM     57  C   UNL     1       6.900  -5.027  10.515  1.00  0.00     0.200 A 
ATOM     58  F   UNL     1       8.724  -5.149   9.018  1.00  0.00    -0.200 F 
ATOM     59  F   UNL     1       7.011  -6.336  10.780  1.00  0.00    -0.200 F 
ENDBRANCH  25  49
BRANCH  37  60
ATOM     60  C   UNL     1       7.210   4.045  12.816  1.00  0.00     0.064 A 
ATOM     61  C   UNL     1       8.580   4.056  13.112  1.00  0.00     0.173 A 
ATOM     62  C   UNL     1       6.324   4.561  13.773  1.00  0.00     0.173 A 
ATOM     63  F   UNL     1       9.464   3.555  12.235  1.00  0.00    -0.203 F 
ATOM     64  C   UNL     1       9.046   4.563  14.321  1.00  0.00     0.198 A 
ATOM     65  C   UNL     1       6.795   5.094  14.969  1.00  0.00     0.198 A 
ATOM     66  F   UNL     1       5.003   4.575  13.533  1.00  0.00    -0.203 F 
ATOM     67  F   UNL     1      10.357   4.537  14.596  1.00  0.00    -0.200 F 
ATOM     68  C   UNL     1       8.154   5.092  15.243  1.00  0.00     0.200 A 
ATOM     69  F   UNL     1       5.934   5.618  15.851  1.00  0.00    -0.200 F 
ATOM     70  F   UNL     1       8.606   5.600  16.398  1.00  0.00    -0.200 F 
ENDBRANCH  37  60
ENDBRANCH  11  12
ENDBRANCH   4   6
ENDBRANCH   3   4
ENDBRANCH   2   3
ENDBRANCH   1   2
BRANCH   1  71
ATOM     71  O   UNL     1       3.345   1.979  -0.079  1.00  0.00    -0.458 OA
BRANCH  71  72
ATOM     72  C   UNL     1       1.987   1.990  -0.061  1.00  0.00     0.338 C 
ATOM     73  O   UNL     1       1.232   1.693  -0.970  1.00  0.00    -0.246 OA
BRANCH  72  74
ATOM     74  C   UNL     1       1.527   2.304   1.302  1.00  0.00     0.062 A 
ATOM     75  C   UNL     1       1.966   3.461   1.955  1.00  0.00     0.016 A 
ATOM     76  C   UNL     1       0.672   1.393   1.941  1.00  0.00     0.042 A 
ATOM     77  C   UNL     1       1.530   3.715   3.254  1.00  0.00     0.017 A 
ATOM     78  C   UNL     1       0.335   1.605   3.275  1.00  0.00     0.056 A 
ATOM     79  C   UNL     1       0.724   2.774   3.905  1.00  0.00     0.064 A 
ATOM     80  N   UNL     1      -0.312   0.622   4.021  1.00  0.00    -0.307 N 
ATOM     81  C   UNL     1       0.243   3.006   5.268  1.00  0.00     0.264 A 
ATOM     82  C   UNL     1      -0.511   0.700   5.377  1.00  0.00     0.328 A 
ATOM     83  H   UNL     1      -0.644  -0.175   3.548  1.00  0.00     0.171 HD
ATOM     84  O   UNL     1       0.196   4.170   5.644  1.00  0.00    -0.268 OA
ATOM     85  N   UNL     1      -0.176   1.899   5.992  1.00  0.00    -0.260 N 
ATOM     86  O   UNL     1      -0.979  -0.279   5.958  1.00  0.00    -0.248 OA
BRANCH  85  87
ATOM     87  C   UNL     1      -0.511   2.082   7.411  1.00  0.00     0.137 C 
BRANCH  87  88
ATOM     88  C   UNL     1       0.698   2.213   8.364  1.00  0.00     0.083 C 
BRANCH  88  89
ATOM     89  C   UNL     1       1.293   3.631   8.502  1.00  0.00     0.264 C 
BRANCH  89  90
ATOM     90  N   UNL     1       0.241   4.589   8.845  1.00  0.00    -0.331 N 
ATOM     91  C   UNL     1       0.338   5.881   8.146  1.00  0.00     0.291 C 
ATOM     92  C   UNL     1       0.019   4.783  10.285  1.00  0.00     0.291 C 
ATOM     93  H   UNL     1      -0.593   4.121   8.489  1.00  0.00     0.348 HD
ATOM     94  C   UNL     1       1.134   6.975   8.864  1.00  0.00     0.221 C 
ATOM     95  C   UNL     1       0.864   5.901  10.920  1.00  0.00     0.221 C 
ATOM     96  O   UNL     1       0.703   7.139  10.217  1.00  0.00    -0.370 OA
ENDBRANCH  89  90
ENDBRANCH  88  89
ENDBRANCH  87  88
ENDBRANCH  85  87
ENDBRANCH  72  74
ENDBRANCH  71  72
ENDBRANCH   1  71
TORSDOF 15
