REMARK SMILES O=C(OCCOC(=O)c1cccc(NC(=O)c2cc3ccccc3[nH]2)c1)c1ccc(-c2c3nc(c(-c4c(F)c(F)c(F)c(F)c4F)c4ccc([nH]4)c(-c4c(F)c(F)c(F)c(F)c4F)c4nc(c(-c5c(F)c(F)c(F)c(F)c5F)c5ccc2[nH]5)C=C4)C=C3)cc1
REMARK SMILES IDX 4 1 3 2 2 3 1 4 27 5 28 6 89 7 29 8 88 9 30 10 31 11 32 12
REMARK SMILES IDX 82 13 33 14 87 15 81 16 83 17 34 18 86 19 80 20 79 21 35 23
REMARK SMILES IDX 67 24 47 25 66 26 48 27 51 28 65 29 84 30 49 31 50 32 64 34
REMARK SMILES IDX 85 35 52 36 36 37 37 38 45 39 38 40 39 41 43 42 46 43 40 44
REMARK SMILES IDX 41 45 44 46 42 47 68 48 69 49 77 50 70 51 71 52 75 53 78 54
REMARK SMILES IDX 72 55 73 56 76 57 74 58 53 59 54 60 62 61 55 62 56 63 60 64
REMARK SMILES IDX 63 65 57 66 58 67 61 68 59 69 5 70 6 71 7 72 8 73 9 74 10 75
REMARK SMILES IDX 26 76 11 77 13 78 12 79 14 80 15 81 16 83 17 84 18 85 25 86
REMARK SMILES IDX 19 87 24 88 20 90 23 91 21 92 22 93
REMARK H PARENT 83 22 51 33 14 82 25 89
REMARK Flexibility Score: inf
ROOT
ATOM      1  C   UNL     1       4.050   1.594  -0.640  1.00  0.00     0.275 C 
ENDROOT
BRANCH   1   2
ATOM      2  O   UNL     1       2.978   0.716  -1.033  1.00  0.00    -0.458 OA
BRANCH   2   3
ATOM      3  C   UNL     1       2.819  -0.618  -0.871  1.00  0.00     0.338 C 
ATOM      4  O   UNL     1       1.868  -1.172  -1.422  1.00  0.00    -0.246 OA
BRANCH   3   5
ATOM      5  C   UNL     1       3.660  -1.456   0.041  1.00  0.00     0.060 A 
ATOM      6  C   UNL     1       4.999  -1.225   0.354  1.00  0.00     0.016 A 
ATOM      7  C   UNL     1       3.039  -2.590   0.605  1.00  0.00     0.016 A 
ATOM      8  C   UNL     1       5.679  -2.051   1.250  1.00  0.00     0.010 A 
ATOM      9  C   UNL     1       3.714  -3.420   1.508  1.00  0.00     0.010 A 
ATOM     10  C   UNL     1       5.045  -3.151   1.834  1.00  0.00    -0.014 A 
BRANCH  10  11
ATOM     11  C   UNL     1       5.840  -4.052   2.696  1.00  0.00     0.031 A 
ATOM     12  C   UNL     1       6.384  -5.322   2.120  1.00  0.00     0.074 A 
ATOM     13  C   UNL     1       6.171  -3.676   3.945  1.00  0.00     0.049 A 
ATOM     14  N   UNL     1       7.211  -6.181   2.656  1.00  0.00    -0.248 NA
ATOM     15  C   UNL     1       5.978  -5.650   0.744  1.00  0.00     0.031 C 
ATOM     16  C   UNL     1       5.762  -2.426   4.581  1.00  0.00     0.029 A 
ATOM     17  N   UNL     1       6.926  -4.304   4.900  1.00  0.00    -0.354 N 
ATOM     18  C   UNL     1       7.480  -7.109   1.663  1.00  0.00     0.074 A 
ATOM     19  C   UNL     1       6.665  -6.760   0.519  1.00  0.00     0.031 C 
ATOM     20  C   UNL     1       6.223  -2.404   5.843  1.00  0.00     0.029 A 
ATOM     21  C   UNL     1       6.963  -3.632   6.097  1.00  0.00     0.049 A 
ATOM     22  H   UNL     1       7.396  -5.154   4.744  1.00  0.00     0.167 HD
ATOM     23  C   UNL     1       8.363  -8.134   1.691  1.00  0.00     0.037 A 
ATOM     24  C   UNL     1       7.525  -3.978   7.269  1.00  0.00     0.037 A 
ATOM     25  C   UNL     1       9.131  -8.506   2.849  1.00  0.00     0.049 A 
ATOM     26  C   UNL     1       8.373  -5.210   7.325  1.00  0.00     0.074 A 
ATOM     27  C   UNL     1      10.024  -9.551   2.997  1.00  0.00     0.029 A 
ATOM     28  N   UNL     1       9.078  -7.849   4.072  1.00  0.00    -0.354 N 
ATOM     29  N   UNL     1       8.641  -6.070   6.374  1.00  0.00    -0.248 NA
ATOM     30  C   UNL     1       9.039  -5.488   8.603  1.00  0.00     0.031 C 
ATOM     31  C   UNL     1      10.479  -9.554   4.321  1.00  0.00     0.029 A 
ATOM     32  C   UNL     1       9.905  -8.482   4.986  1.00  0.00     0.049 A 
ATOM     33  H   UNL     1       8.533  -7.051   4.261  1.00  0.00     0.167 HD
ATOM     34  C   UNL     1       9.523  -6.982   6.928  1.00  0.00     0.074 A 
ATOM     35  C   UNL     1       9.754  -6.561   8.296  1.00  0.00     0.031 C 
ATOM     36  C   UNL     1      10.100  -8.063   6.351  1.00  0.00     0.037 A 
BRANCH  23  37
ATOM     37  C   UNL     1       8.535  -8.913   0.423  1.00  0.00     0.064 A 
ATOM     38  C   UNL     1       9.203  -8.362  -0.682  1.00  0.00     0.173 A 
ATOM     39  C   UNL     1       8.034 -10.216   0.307  1.00  0.00     0.173 A 
ATOM     40  F   UNL     1       9.681  -7.109  -0.627  1.00  0.00    -0.203 F 
ATOM     41  C   UNL     1       9.344  -9.081  -1.865  1.00  0.00     0.198 A 
ATOM     42  C   UNL     1       8.197 -10.941  -0.871  1.00  0.00     0.198 A 
ATOM     43  F   UNL     1       7.384 -10.785   1.333  1.00  0.00    -0.203 F 
ATOM     44  F   UNL     1       9.946  -8.519  -2.923  1.00  0.00    -0.200 F 
ATOM     45  C   UNL     1       8.846 -10.372  -1.957  1.00  0.00     0.200 A 
ATOM     46  F   UNL     1       7.718 -12.190  -0.958  1.00  0.00    -0.200 F 
ATOM     47  F   UNL     1       8.980 -11.064  -3.097  1.00  0.00    -0.200 F 
ENDBRANCH  23  37
BRANCH  24  48
ATOM     48  C   UNL     1       7.296  -3.164   8.485  1.00  0.00     0.064 A 
ATOM     49  C   UNL     1       8.245  -2.246   8.947  1.00  0.00     0.173 A 
ATOM     50  C   UNL     1       6.123  -3.335   9.236  1.00  0.00     0.173 A 
ATOM     51  F   UNL     1       9.407  -2.097   8.295  1.00  0.00    -0.203 F 
ATOM     52  C   UNL     1       8.024  -1.516  10.114  1.00  0.00     0.198 A 
ATOM     53  C   UNL     1       5.888  -2.581  10.383  1.00  0.00     0.198 A 
ATOM     54  F   UNL     1       5.230  -4.266   8.869  1.00  0.00    -0.203 F 
ATOM     55  F   UNL     1       8.968  -0.679  10.567  1.00  0.00    -0.200 F 
ATOM     56  C   UNL     1       6.841  -1.673  10.822  1.00  0.00     0.200 A 
ATOM     57  F   UNL     1       4.758  -2.749  11.083  1.00  0.00    -0.200 F 
ATOM     58  F   UNL     1       6.634  -0.970  11.944  1.00  0.00    -0.200 F 
ENDBRANCH  24  48
BRANCH  36  59
ATOM     59  C   UNL     1      11.044  -8.852   7.206  1.00  0.00     0.064 A 
ATOM     60  C   UNL     1      10.583  -9.646   8.266  1.00  0.00     0.173 A 
ATOM     61  C   UNL     1      12.425  -8.804   6.966  1.00  0.00     0.173 A 
ATOM     62  F   UNL     1       9.273  -9.703   8.547  1.00  0.00    -0.203 F 
ATOM     63  C   UNL     1      11.476 -10.336   9.079  1.00  0.00     0.198 A 
ATOM     64  C   UNL     1      13.312  -9.522   7.761  1.00  0.00     0.198 A 
ATOM     65  F   UNL     1      12.913  -8.059   5.963  1.00  0.00    -0.203 F 
ATOM     66  F   UNL     1      11.021 -11.038  10.126  1.00  0.00    -0.200 F 
ATOM     67  C   UNL     1      12.838 -10.278   8.823  1.00  0.00     0.200 A 
ATOM     68  F   UNL     1      14.627  -9.472   7.507  1.00  0.00    -0.200 F 
ATOM     69  F   UNL     1      13.697 -10.941   9.609  1.00  0.00    -0.200 F 
ENDBRANCH  36  59
ENDBRANCH  10  11
ENDBRANCH   3   5
ENDBRANCH   2   3
ENDBRANCH   1   2
BRANCH   1  70
ATOM     70  C   UNL     1       3.993   2.097   0.806  1.00  0.00     0.275 C 
BRANCH  70  71
ATOM     71  O   UNL     1       3.494   1.121   1.728  1.00  0.00    -0.458 OA
BRANCH  71  72
ATOM     72  C   UNL     1       2.142   1.152   1.905  1.00  0.00     0.338 C 
ATOM     73  O   UNL     1       1.359   1.937   1.421  1.00  0.00    -0.246 OA
BRANCH  72  74
ATOM     74  C   UNL     1       1.745  -0.011   2.726  1.00  0.00     0.062 A 
ATOM     75  C   UNL     1       0.675  -0.809   2.327  1.00  0.00     0.016 A 
ATOM     76  C   UNL     1       2.435  -0.311   3.896  1.00  0.00     0.041 A 
ATOM     77  C   UNL     1       0.323  -1.923   3.096  1.00  0.00     0.003 A 
ATOM     78  C   UNL     1       2.054  -1.401   4.692  1.00  0.00     0.042 A 
ATOM     79  C   UNL     1       1.004  -2.217   4.286  1.00  0.00     0.026 A 
BRANCH  78  80
ATOM     80  N   UNL     1       2.831  -1.577   5.829  1.00  0.00    -0.321 N 
ATOM     81  C   UNL     1       2.796  -2.315   6.966  1.00  0.00     0.272 C 
ATOM     82  H   UNL     1       3.632  -1.005   5.802  1.00  0.00     0.170 HD
ATOM     83  O   UNL     1       3.773  -2.153   7.705  1.00  0.00    -0.267 OA
BRANCH  81  84
ATOM     84  C   UNL     1       1.655  -3.053   7.430  1.00  0.00     0.105 A 
ATOM     85  C   UNL     1       1.469  -4.431   7.481  1.00  0.00     0.042 A 
ATOM     86  N   UNL     1       0.925  -2.557   8.496  1.00  0.00    -0.351 N 
ATOM     87  C   UNL     1       1.238  -4.718   8.870  1.00  0.00     0.000 A 
ATOM     88  C   UNL     1       1.014  -3.497   9.503  1.00  0.00     0.046 A 
ATOM     89  H   UNL     1       0.439  -1.702   8.530  1.00  0.00     0.167 HD
ATOM     90  C   UNL     1       1.377  -5.870   9.669  1.00  0.00     0.010 A 
ATOM     91  C   UNL     1       1.009  -3.334  10.890  1.00  0.00     0.026 A 
ATOM     92  C   UNL     1       1.419  -5.721  11.063  1.00  0.00     0.001 A 
ATOM     93  C   UNL     1       1.263  -4.470  11.659  1.00  0.00     0.002 A 
ENDBRANCH  81  84
ENDBRANCH  78  80
ENDBRANCH  72  74
ENDBRANCH  71  72
ENDBRANCH  70  71
ENDBRANCH   1  70
TORSDOF 13
