REMARK SMILES Nc1ccc(S[C@@H](C(=O)OCCOC(=O)c2ccc(-c3c4nc(c(-c5c(F)c(F)c(F)c(F)c5F)c5ccc([nH]5)c(-c5c(F)c(F)c(F)c(F)c5F)c5nc(c(-c6c(F)c(F)c(F)c(F)c6F)c6ccc3[nH]6)C=C5)C=C4)cc2)C2CC2)cc1F
REMARK SMILES IDX 11 1 10 2 8 3 9 4 7 5 6 6 5 7 2 8 3 9 83 10 4 11 82 12 84 13
REMARK SMILES IDX 1 14 79 17 80 18 81 19 12 20 13 21 14 22 15 23 16 24 17 25
REMARK SMILES IDX 78 26 18 27 77 28 19 29 20 30 21 31 71 32 22 33 76 34 70 35
REMARK SMILES IDX 72 36 23 37 75 38 69 39 68 40 24 42 56 43 36 44 55 45 37 46
REMARK SMILES IDX 40 47 54 48 73 49 38 50 39 51 53 53 74 54 41 55 25 56 26 57
REMARK SMILES IDX 34 58 27 59 28 60 32 61 35 62 29 63 30 64 33 65 31 66 57 67
REMARK SMILES IDX 58 68 66 69 59 70 60 71 64 72 67 73 61 74 62 75 65 76 63 77
REMARK SMILES IDX 42 78 43 79 51 80 44 81 45 82 49 83 52 84 46 85 47 86 50 87
REMARK SMILES IDX 48 88
REMARK H PARENT 1 15 1 16 72 41 40 52
REMARK Flexibility Score: inf
ROOT
ATOM      1  C   UNL     1       4.728   0.055  -3.394  1.00  0.00     0.274 C 
ENDROOT
BRANCH   1   2
ATOM      2  O   UNL     1       4.307  -0.732  -2.256  1.00  0.00    -0.461 OA
BRANCH   2   3
ATOM      3  C   UNL     1       4.999  -0.555  -1.092  1.00  0.00     0.319 C 
ATOM      4  O   UNL     1       5.908   0.262  -0.978  1.00  0.00    -0.251 OA
BRANCH   3   5
ATOM      5  C   UNL     1       4.654  -1.590  -0.026  1.00  0.00     0.164 C 
BRANCH   5   6
ATOM      6  S   UNL     1       3.044  -2.456  -0.221  1.00  0.00    -0.110 SA
BRANCH   6   7
ATOM      7  C   UNL     1       1.718  -1.273  -0.078  1.00  0.00     0.011 A 
ATOM      8  C   UNL     1      -0.575   0.407   0.102  1.00  0.00     0.068 A 
ATOM      9  C   UNL     1       0.712   0.937   0.159  1.00  0.00     0.030 A 
ATOM     10  C   UNL     1      -0.695  -0.980  -0.003  1.00  0.00     0.147 A 
ATOM     11  C   UNL     1       1.842   0.109   0.040  1.00  0.00     0.017 A 
ATOM     12  C   UNL     1       0.423  -1.808  -0.102  1.00  0.00     0.056 A 
ATOM     13  F   UNL     1      -1.917  -1.537  -0.029  1.00  0.00    -0.205 F 
BRANCH   8  14
ATOM     14  N   UNL     1      -1.688   1.220   0.286  1.00  0.00    -0.396 N 
ATOM     15  H   UNL     1      -1.578   2.196   0.358  1.00  0.00     0.156 HD
ATOM     16  H   UNL     1      -2.585   0.820   0.345  1.00  0.00     0.156 HD
ENDBRANCH   8  14
ENDBRANCH   6   7
ENDBRANCH   5   6
BRANCH   5  17
ATOM     17  C   UNL     1       4.952  -1.352   1.442  1.00  0.00     0.014 C 
ATOM     18  C   UNL     1       5.919  -0.302   1.956  1.00  0.00     0.006 C 
ATOM     19  C   UNL     1       4.459  -0.202   2.290  1.00  0.00     0.006 C 
ENDBRANCH   5  17
ENDBRANCH   3   5
ENDBRANCH   2   3
ENDBRANCH   1   2
BRANCH   1  20
ATOM     20  C   UNL     1       3.852   1.296  -3.558  1.00  0.00     0.275 C 
BRANCH  20  21
ATOM     21  O   UNL     1       4.044   2.138  -2.413  1.00  0.00    -0.458 OA
BRANCH  21  22
ATOM     22  C   UNL     1       3.036   2.988  -2.114  1.00  0.00     0.338 C 
ATOM     23  O   UNL     1       2.051   3.214  -2.795  1.00  0.00    -0.246 OA
BRANCH  22  24
ATOM     24  C   UNL     1       3.257   3.559  -0.757  1.00  0.00     0.060 A 
ATOM     25  C   UNL     1       4.213   3.023   0.110  1.00  0.00     0.016 A 
ATOM     26  C   UNL     1       2.426   4.585  -0.298  1.00  0.00     0.016 A 
ATOM     27  C   UNL     1       4.290   3.447   1.435  1.00  0.00     0.010 A 
ATOM     28  C   UNL     1       2.566   5.071   1.010  1.00  0.00     0.010 A 
ATOM     29  C   UNL     1       3.491   4.497   1.899  1.00  0.00    -0.014 A 
BRANCH  29  30
ATOM     30  C   UNL     1       3.625   4.993   3.299  1.00  0.00     0.031 A 
ATOM     31  C   UNL     1       2.429   5.038   4.212  1.00  0.00     0.074 A 
ATOM     32  C   UNL     1       4.818   5.410   3.769  1.00  0.00     0.049 A 
ATOM     33  N   UNL     1       2.280   5.669   5.350  1.00  0.00    -0.248 NA
ATOM     34  C   UNL     1       1.242   4.283   3.784  1.00  0.00     0.031 C 
ATOM     35  C   UNL     1       6.084   5.371   3.035  1.00  0.00     0.029 A 
ATOM     36  N   UNL     1       5.161   5.950   4.986  1.00  0.00    -0.354 N 
ATOM     37  C   UNL     1       0.965   5.449   5.736  1.00  0.00     0.074 A 
ATOM     38  C   UNL     1       0.362   4.609   4.723  1.00  0.00     0.031 C 
ATOM     39  C   UNL     1       7.068   5.821   3.827  1.00  0.00     0.029 A 
ATOM     40  C   UNL     1       6.489   6.285   5.082  1.00  0.00     0.049 A 
ATOM     41  H   UNL     1       4.516   6.083   5.718  1.00  0.00     0.167 HD
ATOM     42  C   UNL     1       0.320   5.919   6.832  1.00  0.00     0.037 A 
ATOM     43  C   UNL     1       7.164   6.947   6.041  1.00  0.00     0.037 A 
ATOM     44  C   UNL     1       0.940   6.692   7.878  1.00  0.00     0.049 A 
ATOM     45  C   UNL     1       6.424   7.482   7.232  1.00  0.00     0.074 A 
ATOM     46  C   UNL     1       0.367   7.199   9.033  1.00  0.00     0.029 A 
ATOM     47  N   UNL     1       2.280   7.046   7.911  1.00  0.00    -0.354 N 
ATOM     48  N   UNL     1       5.155   7.369   7.535  1.00  0.00    -0.248 NA
ATOM     49  C   UNL     1       7.205   8.269   8.197  1.00  0.00     0.031 C 
ATOM     50  C   UNL     1       1.354   7.882   9.752  1.00  0.00     0.029 A 
ATOM     51  C   UNL     1       2.549   7.771   9.062  1.00  0.00     0.049 A 
ATOM     52  H   UNL     1       2.942   6.818   7.219  1.00  0.00     0.167 HD
ATOM     53  C   UNL     1       4.982   8.073   8.718  1.00  0.00     0.074 A 
ATOM     54  C   UNL     1       6.283   8.585   9.095  1.00  0.00     0.031 C 
ATOM     55  C   UNL     1       3.844   8.285   9.421  1.00  0.00     0.037 A 
BRANCH  42  56
ATOM     56  C   UNL     1      -1.150   5.647   6.947  1.00  0.00     0.064 A 
ATOM     57  C   UNL     1      -1.649   4.389   7.309  1.00  0.00     0.173 A 
ATOM     58  C   UNL     1      -2.070   6.690   6.751  1.00  0.00     0.173 A 
ATOM     59  F   UNL     1      -0.810   3.359   7.494  1.00  0.00    -0.203 F 
ATOM     60  C   UNL     1      -3.018   4.181   7.461  1.00  0.00     0.198 A 
ATOM     61  C   UNL     1      -3.435   6.484   6.927  1.00  0.00     0.198 A 
ATOM     62  F   UNL     1      -1.641   7.914   6.408  1.00  0.00    -0.203 F 
ATOM     63  F   UNL     1      -3.477   2.963   7.781  1.00  0.00    -0.200 F 
ATOM     64  C   UNL     1      -3.908   5.230   7.278  1.00  0.00     0.200 A 
ATOM     65  F   UNL     1      -4.292   7.502   6.762  1.00  0.00    -0.200 F 
ATOM     66  F   UNL     1      -5.224   5.030   7.439  1.00  0.00    -0.200 F 
ENDBRANCH  42  56
BRANCH  43  67
ATOM     67  C   UNL     1       8.618   7.200   5.875  1.00  0.00     0.064 A 
ATOM     68  C   UNL     1       9.558   6.555   6.688  1.00  0.00     0.173 A 
ATOM     69  C   UNL     1       9.096   8.081   4.892  1.00  0.00     0.173 A 
ATOM     70  F   UNL     1       9.147   5.728   7.660  1.00  0.00    -0.203 F 
ATOM     71  C   UNL     1      10.923   6.781   6.525  1.00  0.00     0.198 A 
ATOM     72  C   UNL     1      10.461   8.282   4.710  1.00  0.00     0.198 A 
ATOM     73  F   UNL     1       8.235   8.726   4.092  1.00  0.00    -0.203 F 
ATOM     74  F   UNL     1      11.802   6.177   7.337  1.00  0.00    -0.200 F 
ATOM     75  C   UNL     1      11.374   7.636   5.530  1.00  0.00     0.200 A 
ATOM     76  F   UNL     1      10.892   9.098   3.738  1.00  0.00    -0.200 F 
ATOM     77  F   UNL     1      12.687   7.842   5.364  1.00  0.00    -0.200 F 
ENDBRANCH  43  67
BRANCH  55  78
ATOM     78  C   UNL     1       3.961   9.100  10.673  1.00  0.00     0.064 A 
ATOM     79  C   UNL     1       4.130  10.492  10.625  1.00  0.00     0.173 A 
ATOM     80  C   UNL     1       3.891   8.488  11.933  1.00  0.00     0.173 A 
ATOM     81  F   UNL     1       4.222  11.119   9.443  1.00  0.00    -0.203 F 
ATOM     82  C   UNL     1       4.249  11.238  11.794  1.00  0.00     0.198 A 
ATOM     83  C   UNL     1       3.987   9.240  13.100  1.00  0.00     0.198 A 
ATOM     84  F   UNL     1       3.728   7.160  12.031  1.00  0.00    -0.203 F 
ATOM     85  F   UNL     1       4.455  12.560  11.724  1.00  0.00    -0.200 F 
ATOM     86  C   UNL     1       4.173  10.613  13.030  1.00  0.00     0.200 A 
ATOM     87  F   UNL     1       3.908   8.636  14.294  1.00  0.00    -0.200 F 
ATOM     88  F   UNL     1       4.290  11.332  14.154  1.00  0.00    -0.200 F 
ENDBRANCH  55  78
ENDBRANCH  29  30
ENDBRANCH  22  24
ENDBRANCH  21  22
ENDBRANCH  20  21
ENDBRANCH   1  20
TORSDOF 15
