REMARK SMILES C/C(=N\NC(N)=O)c1nnn(-c2ccc(C(=O)OCCOC(=O)c3ccc(-c4c5nc(c(-c6c(F)c(F)c(F)c(F)c6F)c6ccc([nH]6)c(-c6c(F)c(F)c(F)c(F)c6F)c6nc(c(-c7c(F)c(F)c(F)c(F)c7F)c7ccc4[nH]7)C=C6)C=C5)cc3)cc2)c1C
REMARK SMILES IDX 19 1 18 2 16 3 17 4 15 5 12 6 13 7 88 8 14 9 87 10 11 11
REMARK SMILES IDX 8 12 9 13 89 14 10 15 90 16 2 17 1 18 3 19 4 20 5 21 6 23
REMARK SMILES IDX 7 24 20 27 21 28 22 29 23 30 24 31 25 32 86 33 26 34 85 35
REMARK SMILES IDX 27 36 28 37 29 38 79 39 30 40 84 41 78 42 80 43 31 44 83 45
REMARK SMILES IDX 77 46 76 47 32 49 64 50 44 51 63 52 45 53 48 54 62 55 81 56
REMARK SMILES IDX 46 57 47 58 61 60 82 61 49 62 33 63 34 64 42 65 35 66 36 67
REMARK SMILES IDX 40 68 43 69 37 70 38 71 41 72 39 73 65 74 66 75 74 76 67 77
REMARK SMILES IDX 68 78 72 79 75 80 69 81 70 82 73 83 71 84 50 85 51 86 59 87
REMARK SMILES IDX 52 88 53 89 57 90 60 91 54 92 55 93 58 94 56 95
REMARK H PARENT 4 22 6 25 6 26 80 48 48 59
REMARK Flexibility Score: inf
ROOT
ATOM      1  C   UNL     1       9.335  -1.950  -6.822  1.00  0.00     0.275 C 
ENDROOT
BRANCH   1   2
ATOM      2  O   UNL     1       8.090  -2.029  -6.112  1.00  0.00    -0.458 OA
BRANCH   2   3
ATOM      3  C   UNL     1       7.132  -1.143  -6.481  1.00  0.00     0.338 C 
ATOM      4  O   UNL     1       7.274  -0.195  -7.241  1.00  0.00    -0.246 OA
BRANCH   3   5
ATOM      5  C   UNL     1       5.828  -1.518  -5.880  1.00  0.00     0.060 A 
ATOM      6  C   UNL     1       3.405  -1.932  -4.594  1.00  0.00     0.067 A 
ATOM      7  C   UNL     1       3.425  -1.166  -5.763  1.00  0.00     0.029 A 
ATOM      8  C   UNL     1       4.548  -2.607  -4.152  1.00  0.00     0.029 A 
ATOM      9  C   UNL     1       4.652  -0.942  -6.391  1.00  0.00     0.018 A 
ATOM     10  C   UNL     1       5.760  -2.405  -4.800  1.00  0.00     0.018 A 
BRANCH   6  11
ATOM     11  N   UNL     1       2.292  -1.856  -3.736  1.00  0.00    -0.217 N 
ATOM     12  C   UNL     1       0.980  -1.432  -2.053  1.00  0.00     0.132 A 
ATOM     13  N   UNL     1       0.213  -1.789  -3.132  1.00  0.00    -0.128 NA
ATOM     14  C   UNL     1       2.312  -1.432  -2.417  1.00  0.00     0.071 A 
ATOM     15  N   UNL     1       1.019  -1.953  -4.175  1.00  0.00    -0.061 NA
ATOM     16  C   UNL     1       3.517  -0.940  -1.704  1.00  0.00     0.069 C 
BRANCH  12  17
ATOM     17  C   UNL     1       0.421  -0.949  -0.803  1.00  0.00     0.087 C 
ATOM     18  C   UNL     1       0.529   0.535  -0.554  1.00  0.00     0.071 C 
ATOM     19  N   UNL     1      -0.127  -1.855  -0.048  1.00  0.00    -0.174 NA
BRANCH  19  20
ATOM     20  N   UNL     1      -0.624  -1.563   1.191  1.00  0.00    -0.229 N 
ATOM     21  C   UNL     1       0.002  -0.819   2.168  1.00  0.00     0.332 C 
ATOM     22  H   UNL     1      -1.516  -1.920   1.407  1.00  0.00     0.195 HD
ATOM     23  N   UNL     1      -0.739  -0.732   3.309  1.00  0.00    -0.350 N 
ATOM     24  O   UNL     1       1.087  -0.258   2.096  1.00  0.00    -0.247 OA
ATOM     25  H   UNL     1      -1.612  -1.184   3.365  1.00  0.00     0.161 HD
ATOM     26  H   UNL     1      -0.402  -0.217   4.077  1.00  0.00     0.161 HD
ENDBRANCH  19  20
ENDBRANCH  12  17
ENDBRANCH   6  11
ENDBRANCH   3   5
ENDBRANCH   2   3
ENDBRANCH   1   2
BRANCH   1  27
ATOM     27  C   UNL     1       9.306  -2.816  -8.073  1.00  0.00     0.275 C 
BRANCH  27  28
ATOM     28  O   UNL     1       8.450  -2.269  -9.075  1.00  0.00    -0.458 OA
BRANCH  28  29
ATOM     29  C   UNL     1       7.187  -2.749  -9.068  1.00  0.00     0.338 C 
ATOM     30  O   UNL     1       6.630  -3.376  -8.183  1.00  0.00    -0.246 OA
BRANCH  29  31
ATOM     31  C   UNL     1       6.612  -2.604 -10.405  1.00  0.00     0.060 A 
ATOM     32  C   UNL     1       5.234  -2.792 -10.548  1.00  0.00     0.016 A 
ATOM     33  C   UNL     1       7.475  -2.567 -11.509  1.00  0.00     0.016 A 
ATOM     34  C   UNL     1       4.736  -3.082 -11.801  1.00  0.00     0.010 A 
ATOM     35  C   UNL     1       6.980  -2.869 -12.754  1.00  0.00     0.010 A 
ATOM     36  C   UNL     1       5.627  -3.183 -12.876  1.00  0.00    -0.014 A 
BRANCH  36  37
ATOM     37  C   UNL     1       5.093  -3.514 -14.182  1.00  0.00     0.031 A 
ATOM     38  C   UNL     1       4.294  -2.421 -14.790  1.00  0.00     0.074 A 
ATOM     39  C   UNL     1       5.445  -4.643 -14.828  1.00  0.00     0.049 A 
ATOM     40  N   UNL     1       3.083  -2.467 -15.234  1.00  0.00    -0.248 NA
ATOM     41  C   UNL     1       4.885  -1.070 -14.798  1.00  0.00     0.031 C 
ATOM     42  C   UNL     1       6.461  -5.624 -14.439  1.00  0.00     0.029 A 
ATOM     43  N   UNL     1       5.045  -5.087 -16.050  1.00  0.00    -0.354 N 
ATOM     44  C   UNL     1       2.811  -1.193 -15.728  1.00  0.00     0.074 A 
ATOM     45  C   UNL     1       3.890  -0.344 -15.302  1.00  0.00     0.031 C 
ATOM     46  C   UNL     1       6.758  -6.402 -15.505  1.00  0.00     0.029 A 
ATOM     47  C   UNL     1       5.875  -6.050 -16.605  1.00  0.00     0.049 A 
ATOM     48  H   UNL     1       4.236  -4.753 -16.501  1.00  0.00     0.167 HD
ATOM     49  C   UNL     1       1.832  -0.991 -16.649  1.00  0.00     0.037 A 
ATOM     50  C   UNL     1       5.885  -6.451 -17.901  1.00  0.00     0.037 A 
ATOM     51  C   UNL     1       0.863  -2.055 -16.618  1.00  0.00     0.049 A 
ATOM     52  C   UNL     1       4.605  -6.014 -18.515  1.00  0.00     0.074 A 
ATOM     53  C   UNL     1       0.013  -2.554 -15.650  1.00  0.00     0.029 A 
ATOM     54  N   UNL     1       0.920  -3.019 -17.593  1.00  0.00    -0.354 N 
ATOM     55  N   UNL     1       3.441  -6.523 -18.223  1.00  0.00    -0.248 NA
ATOM     56  C   UNL     1       4.572  -4.698 -19.138  1.00  0.00     0.031 C 
ATOM     57  C   UNL     1       0.002  -3.964 -15.857  1.00  0.00     0.029 A 
ATOM     58  C   UNL     1       0.797  -4.234 -16.971  1.00  0.00     0.049 A 
ATOM     59  H   UNL     1       1.028  -2.866 -18.560  1.00  0.00     0.167 HD
ATOM     60  C   UNL     1       2.577  -5.438 -18.214  1.00  0.00     0.074 A 
ATOM     61  C   UNL     1       3.307  -4.360 -18.875  1.00  0.00     0.031 C 
ATOM     62  C   UNL     1       1.468  -5.430 -17.418  1.00  0.00     0.037 A 
BRANCH  49  63
ATOM     63  C   UNL     1       1.968  -0.042 -17.815  1.00  0.00     0.064 A 
ATOM     64  C   UNL     1       0.868   0.144 -18.674  1.00  0.00     0.173 A 
ATOM     65  C   UNL     1       3.205   0.441 -18.300  1.00  0.00     0.173 A 
ATOM     66  F   UNL     1      -0.354  -0.284 -18.322  1.00  0.00    -0.203 F 
ATOM     67  C   UNL     1       1.014   0.678 -19.957  1.00  0.00     0.198 A 
ATOM     68  C   UNL     1       3.337   1.023 -19.559  1.00  0.00     0.198 A 
ATOM     69  F   UNL     1       4.354   0.271 -17.637  1.00  0.00    -0.203 F 
ATOM     70  F   UNL     1      -0.036   0.704 -20.788  1.00  0.00    -0.200 F 
ATOM     71  C   UNL     1       2.250   1.108 -20.401  1.00  0.00     0.200 A 
ATOM     72  F   UNL     1       4.548   1.419 -19.977  1.00  0.00    -0.200 F 
ATOM     73  F   UNL     1       2.407   1.554 -21.654  1.00  0.00    -0.200 F 
ENDBRANCH  49  63
BRANCH  50  74
ATOM     74  C   UNL     1       7.038  -6.893 -18.722  1.00  0.00     0.064 A 
ATOM     75  C   UNL     1       6.841  -7.559 -19.943  1.00  0.00     0.173 A 
ATOM     76  C   UNL     1       8.345  -6.433 -18.465  1.00  0.00     0.173 A 
ATOM     77  F   UNL     1       5.619  -7.989 -20.287  1.00  0.00    -0.203 F 
ATOM     78  C   UNL     1       7.882  -7.729 -20.863  1.00  0.00     0.198 A 
ATOM     79  C   UNL     1       9.384  -6.613 -19.379  1.00  0.00     0.198 A 
ATOM     80  F   UNL     1       8.621  -5.713 -17.369  1.00  0.00    -0.203 F 
ATOM     81  F   UNL     1       7.639  -8.310 -22.047  1.00  0.00    -0.200 F 
ATOM     82  C   UNL     1       9.150  -7.247 -20.584  1.00  0.00     0.200 A 
ATOM     83  F   UNL     1      10.598  -6.111 -19.111  1.00  0.00    -0.200 F 
ATOM     84  F   UNL     1      10.132  -7.355 -21.490  1.00  0.00    -0.200 F 
ENDBRANCH  50  74
BRANCH  62  85
ATOM     85  C   UNL     1       1.060  -6.721 -16.769  1.00  0.00     0.064 A 
ATOM     86  C   UNL     1       1.855  -7.429 -15.851  1.00  0.00     0.173 A 
ATOM     87  C   UNL     1      -0.246  -7.183 -16.980  1.00  0.00     0.173 A 
ATOM     88  F   UNL     1       3.075  -6.994 -15.513  1.00  0.00    -0.203 F 
ATOM     89  C   UNL     1       1.379  -8.575 -15.217  1.00  0.00     0.198 A 
ATOM     90  C   UNL     1      -0.733  -8.304 -16.315  1.00  0.00     0.198 A 
ATOM     91  F   UNL     1      -1.071  -6.515 -17.802  1.00  0.00    -0.203 F 
ATOM     92  F   UNL     1       2.164  -9.245 -14.359  1.00  0.00    -0.200 F 
ATOM     93  C   UNL     1       0.083  -9.007 -15.444  1.00  0.00     0.200 A 
ATOM     94  F   UNL     1      -2.004  -8.687 -16.499  1.00  0.00    -0.200 F 
ATOM     95  F   UNL     1      -0.389 -10.086 -14.804  1.00  0.00    -0.200 F 
ENDBRANCH  62  85
ENDBRANCH  36  37
ENDBRANCH  29  31
ENDBRANCH  28  29
ENDBRANCH  27  28
ENDBRANCH   1  27
TORSDOF 14
