REMARK SMILES CCC[C@@]1(C(=O)N[C@@](C)(C(=O)OCCOC(=O)c2ccc(-c3c4nc(c(-c5c(F)c(F)c(F)c(F)c5F)c5ccc([nH]5)c(-c5c(F)c(F)c(F)c(F)c5F)c5nc(c(-c6c(F)c(F)c(F)c(F)c6F)c6ccc3[nH]6)C=C5)C=C4)cc2)C(F)(F)F)CC[NH2+]C1
REMARK SMILES IDX 13 1 12 2 10 3 11 4 8 5 9 6 7 7 5 8 6 9 4 11 85 12 88 13
REMARK SMILES IDX 86 14 87 15 3 18 2 19 1 20 81 21 82 22 83 23 84 24 14 25
REMARK SMILES IDX 15 26 16 27 17 28 18 29 19 30 80 31 20 32 79 33 21 34 22 35
REMARK SMILES IDX 23 36 73 37 24 38 78 39 72 40 74 41 25 42 77 43 71 44 70 45
REMARK SMILES IDX 26 47 58 48 38 49 57 50 39 51 42 52 56 53 75 54 40 55 41 56
REMARK SMILES IDX 55 58 76 59 43 60 27 61 28 62 36 63 29 64 30 65 34 66 37 67
REMARK SMILES IDX 31 68 32 69 35 70 33 71 59 72 60 73 68 74 61 75 62 76 66 77
REMARK SMILES IDX 69 78 63 79 64 80 67 81 65 82 44 83 45 84 53 85 46 86 47 87
REMARK SMILES IDX 51 88 54 89 48 90 49 91 52 92 50 93
REMARK H PARENT 7 10 87 16 87 17 74 46 42 57
REMARK Flexibility Score: inf
ROOT
ATOM      1  C   UNL     1       1.090   0.774  -3.220  1.00  0.00     0.274 C 
ENDROOT
BRANCH   1   2
ATOM      2  O   UNL     1       1.492   0.208  -1.955  1.00  0.00    -0.460 OA
BRANCH   2   3
ATOM      3  C   UNL     1       2.326   0.957  -1.171  1.00  0.00     0.341 C 
ATOM      4  O   UNL     1       2.860   1.993  -1.540  1.00  0.00    -0.249 OA
BRANCH   3   5
ATOM      5  C   UNL     1       2.576   0.273   0.185  1.00  0.00     0.231 C 
ATOM      6  C   UNL     1       3.995  -0.312   0.131  1.00  0.00     0.058 C 
BRANCH   5   7
ATOM      7  N   UNL     1       1.585  -0.874   0.316  1.00  0.00    -0.332 N 
ATOM      8  C   UNL     1       1.318  -1.782   1.290  1.00  0.00     0.233 C 
ATOM      9  O   UNL     1       1.500  -2.962   0.966  1.00  0.00    -0.274 OA
ATOM     10  H   UNL     1       1.013  -0.980  -0.477  1.00  0.00     0.164 HD
BRANCH   8  11
ATOM     11  C   UNL     1       0.672  -1.447   2.651  1.00  0.00     0.103 C 
ATOM     12  C   UNL     1      -0.635  -2.320   2.750  1.00  0.00     0.084 C 
ATOM     13  C   UNL     1       0.070  -0.036   2.755  1.00  0.00     0.277 C 
ATOM     14  C   UNL     1      -1.775  -1.381   2.431  1.00  0.00     0.261 C 
ATOM     15  N   UNL     1      -1.352  -0.162   3.115  1.00  0.00    -0.345 N 
ATOM     16  H   UNL     1      -1.465  -0.254   4.125  1.00  0.00     0.346 HD
ATOM     17  H   UNL     1      -1.902   0.654   2.847  1.00  0.00     0.346 HD
BRANCH  11  18
ATOM     18  C   UNL     1       1.560  -1.866   3.861  1.00  0.00     0.023 C 
BRANCH  18  19
ATOM     19  C   UNL     1       3.088  -1.847   3.729  1.00  0.00    -0.002 C 
ATOM     20  C   UNL     1       3.778  -0.604   4.272  1.00  0.00     0.004 C 
ENDBRANCH  18  19
ENDBRANCH  11  18
ENDBRANCH   8  11
ENDBRANCH   5   7
BRANCH   5  21
ATOM     21  C   UNL     1       2.539   1.424   1.195  1.00  0.00     0.422 C 
ATOM     22  F   UNL     1       1.419   2.167   1.108  1.00  0.00    -0.168 F 
ATOM     23  F   UNL     1       2.590   0.955   2.458  1.00  0.00    -0.168 F 
ATOM     24  F   UNL     1       3.587   2.269   1.068  1.00  0.00    -0.168 F 
ENDBRANCH   5  21
ENDBRANCH   3   5
ENDBRANCH   2   3
ENDBRANCH   1   2
BRANCH   1  25
ATOM     25  C   UNL     1      -0.431   0.688  -3.322  1.00  0.00     0.275 C 
BRANCH  25  26
ATOM     26  O   UNL     1      -0.994   1.466  -2.249  1.00  0.00    -0.458 OA
BRANCH  26  27
ATOM     27  C   UNL     1      -2.066   0.925  -1.620  1.00  0.00     0.338 C 
ATOM     28  O   UNL     1      -2.658  -0.092  -1.933  1.00  0.00    -0.246 OA
BRANCH  27  29
ATOM     29  C   UNL     1      -2.419   1.739  -0.432  1.00  0.00     0.060 A 
ATOM     30  C   UNL     1      -1.430   2.375   0.312  1.00  0.00     0.016 A 
ATOM     31  C   UNL     1      -3.738   1.770   0.019  1.00  0.00     0.016 A 
ATOM     32  C   UNL     1      -1.732   2.926   1.562  1.00  0.00     0.010 A 
ATOM     33  C   UNL     1      -4.055   2.427   1.218  1.00  0.00     0.010 A 
ATOM     34  C   UNL     1      -3.050   2.968   2.042  1.00  0.00    -0.014 A 
BRANCH  34  35
ATOM     35  C   UNL     1      -3.378   3.493   3.410  1.00  0.00     0.031 A 
ATOM     36  C   UNL     1      -4.219   2.670   4.363  1.00  0.00     0.074 A 
ATOM     37  C   UNL     1      -2.928   4.689   3.847  1.00  0.00     0.049 A 
ATOM     38  N   UNL     1      -4.835   3.035   5.463  1.00  0.00    -0.248 NA
ATOM     39  C   UNL     1      -4.403   1.250   4.029  1.00  0.00     0.031 C 
ATOM     40  C   UNL     1      -2.046   5.594   3.110  1.00  0.00     0.029 A 
ATOM     41  N   UNL     1      -3.150   5.349   5.036  1.00  0.00    -0.354 N 
ATOM     42  C   UNL     1      -5.533   1.915   5.902  1.00  0.00     0.074 A 
ATOM     43  C   UNL     1      -5.253   0.850   4.964  1.00  0.00     0.031 C 
ATOM     44  C   UNL     1      -1.755   6.653   3.879  1.00  0.00     0.029 A 
ATOM     45  C   UNL     1      -2.523   6.569   5.117  1.00  0.00     0.049 A 
ATOM     46  H   UNL     1      -3.706   4.981   5.761  1.00  0.00     0.167 HD
ATOM     47  C   UNL     1      -6.342   1.786   6.981  1.00  0.00     0.037 A 
ATOM     48  C   UNL     1      -2.597   7.547   6.042  1.00  0.00     0.037 A 
ATOM     49  C   UNL     1      -6.571   2.812   7.965  1.00  0.00     0.049 A 
ATOM     50  C   UNL     1      -3.533   7.405   7.209  1.00  0.00     0.074 A 
ATOM     51  C   UNL     1      -7.384   2.769   9.086  1.00  0.00     0.029 A 
ATOM     52  N   UNL     1      -5.960   4.055   7.964  1.00  0.00    -0.354 N 
ATOM     53  N   UNL     1      -4.297   6.394   7.538  1.00  0.00    -0.248 NA
ATOM     54  C   UNL     1      -3.650   8.563   8.108  1.00  0.00     0.031 C 
ATOM     55  C   UNL     1      -7.282   3.996   9.752  1.00  0.00     0.029 A 
ATOM     56  C   UNL     1      -6.380   4.788   9.062  1.00  0.00     0.049 A 
ATOM     57  H   UNL     1      -5.322   4.370   7.283  1.00  0.00     0.167 HD
ATOM     58  C   UNL     1      -4.990   6.795   8.671  1.00  0.00     0.074 A 
ATOM     59  C   UNL     1      -4.536   8.130   8.994  1.00  0.00     0.031 C 
ATOM     60  C   UNL     1      -5.932   6.119   9.372  1.00  0.00     0.037 A 
BRANCH  47  61
ATOM     61  C   UNL     1      -7.082   0.492   7.149  1.00  0.00     0.064 A 
ATOM     62  C   UNL     1      -6.454  -0.666   7.624  1.00  0.00     0.173 A 
ATOM     63  C   UNL     1      -8.461   0.437   6.892  1.00  0.00     0.173 A 
ATOM     64  F   UNL     1      -5.135  -0.667   7.871  1.00  0.00    -0.203 F 
ATOM     65  C   UNL     1      -7.179  -1.839   7.827  1.00  0.00     0.198 A 
ATOM     66  C   UNL     1      -9.186  -0.729   7.118  1.00  0.00     0.198 A 
ATOM     67  F   UNL     1      -9.109   1.522   6.443  1.00  0.00    -0.203 F 
ATOM     68  F   UNL     1      -6.555  -2.944   8.257  1.00  0.00    -0.200 F 
ATOM     69  C   UNL     1      -8.544  -1.867   7.583  1.00  0.00     0.200 A 
ATOM     70  F   UNL     1     -10.508  -0.750   6.893  1.00  0.00    -0.200 F 
ATOM     71  F   UNL     1      -9.242  -2.992   7.793  1.00  0.00    -0.200 F 
ENDBRANCH  47  61
BRANCH  48  72
ATOM     72  C   UNL     1      -1.809   8.794   5.858  1.00  0.00     0.064 A 
ATOM     73  C   UNL     1      -0.735   9.099   6.705  1.00  0.00     0.173 A 
ATOM     74  C   UNL     1      -2.111   9.700   4.830  1.00  0.00     0.173 A 
ATOM     75  F   UNL     1      -0.433   8.283   7.725  1.00  0.00    -0.203 F 
ATOM     76  C   UNL     1       0.011  10.262   6.525  1.00  0.00     0.198 A 
ATOM     77  C   UNL     1      -1.345  10.845   4.633  1.00  0.00     0.198 A 
ATOM     78  F   UNL     1      -3.137   9.459   4.002  1.00  0.00    -0.203 F 
ATOM     79  F   UNL     1       1.013  10.550   7.368  1.00  0.00    -0.200 F 
ATOM     80  C   UNL     1      -0.286  11.128   5.483  1.00  0.00     0.200 A 
ATOM     81  F   UNL     1      -1.629  11.672   3.618  1.00  0.00    -0.200 F 
ATOM     82  F   UNL     1       0.442  12.238   5.301  1.00  0.00    -0.200 F 
ENDBRANCH  48  72
BRANCH  60  83
ATOM     83  C   UNL     1      -6.529   6.808  10.560  1.00  0.00     0.064 A 
ATOM     84  C   UNL     1      -7.485   7.822  10.408  1.00  0.00     0.173 A 
ATOM     85  C   UNL     1      -6.161   6.436  11.861  1.00  0.00     0.173 A 
ATOM     86  F   UNL     1      -7.855   8.222   9.182  1.00  0.00    -0.203 F 
ATOM     87  C   UNL     1      -8.037   8.455  11.518  1.00  0.00     0.198 A 
ATOM     88  C   UNL     1      -6.730   7.058  12.970  1.00  0.00     0.198 A 
ATOM     89  F   UNL     1      -5.253   5.469  12.057  1.00  0.00    -0.203 F 
ATOM     90  F   UNL     1      -8.921   9.448  11.351  1.00  0.00    -0.200 F 
ATOM     91  C   UNL     1      -7.663   8.070  12.797  1.00  0.00     0.200 A 
ATOM     92  F   UNL     1      -6.372   6.682  14.205  1.00  0.00    -0.200 F 
ATOM     93  F   UNL     1      -8.195   8.681  13.865  1.00  0.00    -0.200 F 
ENDBRANCH  60  83
ENDBRANCH  34  35
ENDBRANCH  27  29
ENDBRANCH  26  27
ENDBRANCH  25  26
ENDBRANCH   1  25
TORSDOF 16
