REMARK SMILES CCc1cccc(-c2ccc([C@@H](C)C(=O)OCCOC(=O)c3ccc(-c4c5nc(c(-c6c(F)c(F)c(F)c(F)c6F)c6ccc([nH]6)c(-c6c(F)c(F)c(F)c(F)c6F)c6nc(c(-c7c(F)c(F)c(F)c(F)c7F)c7ccc4[nH]7)C=C6)C=C5)cc3)cc2)c1
REMARK SMILES IDX 17 1 16 2 14 3 15 4 12 5 13 6 11 7 8 8 9 9 86 10 10 11 85 12
REMARK SMILES IDX 7 13 3 14 4 15 87 16 5 17 6 18 2 19 1 20 18 21 19 22 20 23
REMARK SMILES IDX 21 24 22 25 23 26 84 27 24 28 83 29 25 30 26 31 27 32 77 33
REMARK SMILES IDX 28 34 82 35 76 36 78 37 29 38 81 39 75 40 74 41 30 43 62 44
REMARK SMILES IDX 42 45 61 46 43 47 46 48 60 49 79 50 44 51 45 52 59 54 80 55
REMARK SMILES IDX 47 56 31 57 32 58 40 59 33 60 34 61 38 62 41 63 35 64 36 65
REMARK SMILES IDX 39 66 37 67 63 68 64 69 72 70 65 71 66 72 70 73 73 74 67 75
REMARK SMILES IDX 68 76 71 77 69 78 48 79 49 80 57 81 50 82 51 83 55 84 58 85
REMARK SMILES IDX 52 86 53 87 56 88 54 89
REMARK H PARENT 78 42 46 53
REMARK Flexibility Score: inf
ROOT
ATOM      1  C   UNL     1       5.656   2.711   8.307  1.00  0.00     0.274 C 
ENDROOT
BRANCH   1   2
ATOM      2  O   UNL     1       4.507   1.843   8.300  1.00  0.00    -0.462 OA
BRANCH   2   3
ATOM      3  C   UNL     1       3.425   2.253   9.009  1.00  0.00     0.313 C 
ATOM      4  O   UNL     1       3.395   3.265   9.704  1.00  0.00    -0.252 OA
BRANCH   3   5
ATOM      5  C   UNL     1       2.235   1.307   8.914  1.00  0.00     0.126 C 
ATOM      6  C   UNL     1       2.222   0.366  10.118  1.00  0.00     0.025 C 
BRANCH   5   7
ATOM      7  C   UNL     1       2.072   0.566   7.596  1.00  0.00    -0.034 A 
ATOM      8  C   UNL     1       1.646  -0.881   5.181  1.00  0.00    -0.018 A 
ATOM      9  C   UNL     1       2.733  -1.168   6.022  1.00  0.00     0.009 A 
ATOM     10  C   UNL     1       0.799   0.172   5.551  1.00  0.00     0.009 A 
ATOM     11  C   UNL     1       2.940  -0.462   7.212  1.00  0.00     0.005 A 
ATOM     12  C   UNL     1       1.006   0.883   6.739  1.00  0.00     0.005 A 
BRANCH   8  13
ATOM     13  C   UNL     1       1.375  -1.703   3.986  1.00  0.00    -0.018 A 
ATOM     14  C   UNL     1       0.821  -1.917   1.601  1.00  0.00    -0.048 A 
ATOM     15  C   UNL     1       0.796  -3.312   1.751  1.00  0.00     0.004 A 
ATOM     16  C   UNL     1       1.103  -1.126   2.729  1.00  0.00     0.012 A 
ATOM     17  C   UNL     1       1.064  -3.902   2.983  1.00  0.00     0.001 A 
ATOM     18  C   UNL     1       1.350  -3.103   4.087  1.00  0.00     0.009 A 
BRANCH  14  19
ATOM     19  C   UNL     1       0.475  -1.343   0.245  1.00  0.00     0.032 C 
ATOM     20  C   UNL     1       0.981   0.062  -0.051  1.00  0.00     0.009 C 
ENDBRANCH  14  19
ENDBRANCH   8  13
ENDBRANCH   5   7
ENDBRANCH   3   5
ENDBRANCH   2   3
ENDBRANCH   1   2
BRANCH   1  21
ATOM     21  C   UNL     1       5.706   3.573   7.044  1.00  0.00     0.275 C 
BRANCH  21  22
ATOM     22  O   UNL     1       4.657   4.558   7.047  1.00  0.00    -0.458 OA
BRANCH  22  23
ATOM     23  C   UNL     1       3.563   4.239   6.319  1.00  0.00     0.338 C 
ATOM     24  O   UNL     1       3.389   3.257   5.622  1.00  0.00    -0.246 OA
BRANCH  23  25
ATOM     25  C   UNL     1       2.510   5.233   6.565  1.00  0.00     0.060 A 
ATOM     26  C   UNL     1       1.383   4.837   7.288  1.00  0.00     0.016 A 
ATOM     27  C   UNL     1       2.591   6.513   6.016  1.00  0.00     0.016 A 
ATOM     28  C   UNL     1       0.319   5.717   7.460  1.00  0.00     0.010 A 
ATOM     29  C   UNL     1       1.525   7.400   6.194  1.00  0.00     0.010 A 
ATOM     30  C   UNL     1       0.378   7.002   6.905  1.00  0.00    -0.014 A 
BRANCH  30  31
ATOM     31  C   UNL     1      -0.784   7.912   7.030  1.00  0.00     0.031 A 
ATOM     32  C   UNL     1      -1.675   8.149   5.847  1.00  0.00     0.074 A 
ATOM     33  C   UNL     1      -1.044   8.510   8.207  1.00  0.00     0.049 A 
ATOM     34  N   UNL     1      -2.685   8.972   5.722  1.00  0.00    -0.248 NA
ATOM     35  C   UNL     1      -1.392   7.355   4.641  1.00  0.00     0.031 C 
ATOM     36  C   UNL     1      -0.274   8.321   9.436  1.00  0.00     0.029 A 
ATOM     37  N   UNL     1      -2.025   9.402   8.557  1.00  0.00    -0.354 N 
ATOM     38  C   UNL     1      -3.144   8.811   4.422  1.00  0.00     0.074 A 
ATOM     39  C   UNL     1      -2.298   7.820   3.792  1.00  0.00     0.031 C 
ATOM     40  C   UNL     1      -0.810   9.079  10.407  1.00  0.00     0.029 A 
ATOM     41  C   UNL     1      -1.931   9.837   9.856  1.00  0.00     0.049 A 
ATOM     42  H   UNL     1      -2.729   9.702   7.937  1.00  0.00     0.167 HD
ATOM     43  C   UNL     1      -4.181   9.435   3.813  1.00  0.00     0.037 A 
ATOM     44  C   UNL     1      -2.651  10.763  10.516  1.00  0.00     0.037 A 
ATOM     45  C   UNL     1      -5.031  10.407   4.449  1.00  0.00     0.049 A 
ATOM     46  C   UNL     1      -3.767  11.475   9.800  1.00  0.00     0.074 A 
ATOM     47  C   UNL     1      -6.115  11.085   3.918  1.00  0.00     0.029 A 
ATOM     48  N   UNL     1      -4.894  10.836   5.761  1.00  0.00    -0.354 N 
ATOM     49  N   UNL     1      -4.191  11.322   8.570  1.00  0.00    -0.248 NA
ATOM     50  C   UNL     1      -4.502  12.493  10.565  1.00  0.00     0.031 C 
ATOM     51  C   UNL     1      -6.612  11.951   4.899  1.00  0.00     0.029 A 
ATOM     52  C   UNL     1      -5.863  11.782   6.052  1.00  0.00     0.049 A 
ATOM     53  H   UNL     1      -4.210  10.515   6.391  1.00  0.00     0.167 HD
ATOM     54  C   UNL     1      -5.250  12.206   8.418  1.00  0.00     0.074 A 
ATOM     55  C   UNL     1      -5.415  12.884   9.687  1.00  0.00     0.031 C 
ATOM     56  C   UNL     1      -6.015  12.439   7.324  1.00  0.00     0.037 A 
BRANCH  43  57
ATOM     57  C   UNL     1      -4.439   9.105   2.374  1.00  0.00     0.064 A 
ATOM     58  C   UNL     1      -5.033   7.894   1.992  1.00  0.00     0.173 A 
ATOM     59  C   UNL     1      -4.131  10.035   1.370  1.00  0.00     0.173 A 
ATOM     60  F   UNL     1      -5.333   6.968   2.916  1.00  0.00    -0.203 F 
ATOM     61  C   UNL     1      -5.294   7.618   0.652  1.00  0.00     0.198 A 
ATOM     62  C   UNL     1      -4.414   9.765   0.034  1.00  0.00     0.198 A 
ATOM     63  F   UNL     1      -3.565  11.209   1.685  1.00  0.00    -0.203 F 
ATOM     64  F   UNL     1      -5.832   6.441   0.305  1.00  0.00    -0.200 F 
ATOM     65  C   UNL     1      -4.991   8.556  -0.324  1.00  0.00     0.200 A 
ATOM     66  F   UNL     1      -4.129  10.675  -0.908  1.00  0.00    -0.200 F 
ATOM     67  F   UNL     1      -5.251   8.292  -1.612  1.00  0.00    -0.200 F 
ENDBRANCH  43  57
BRANCH  44  68
ATOM     68  C   UNL     1      -2.324  11.088  11.927  1.00  0.00     0.064 A 
ATOM     69  C   UNL     1      -3.190  10.734  12.970  1.00  0.00     0.173 A 
ATOM     70  C   UNL     1      -1.144  11.770  12.259  1.00  0.00     0.173 A 
ATOM     71  F   UNL     1      -4.343  10.105  12.697  1.00  0.00    -0.203 F 
ATOM     72  C   UNL     1      -2.895  11.062  14.291  1.00  0.00     0.198 A 
ATOM     73  C   UNL     1      -0.838  12.074  13.584  1.00  0.00     0.198 A 
ATOM     74  F   UNL     1      -0.284  12.134  11.297  1.00  0.00    -0.203 F 
ATOM     75  F   UNL     1      -3.761  10.749  15.265  1.00  0.00    -0.200 F 
ATOM     76  C   UNL     1      -1.717  11.726  14.598  1.00  0.00     0.200 A 
ATOM     77  F   UNL     1       0.306  12.708  13.876  1.00  0.00    -0.200 F 
ATOM     78  F   UNL     1      -1.433  12.040  15.869  1.00  0.00    -0.200 F 
ENDBRANCH  44  68
BRANCH  56  79
ATOM     79  C   UNL     1      -7.118  13.445   7.462  1.00  0.00     0.064 A 
ATOM     80  C   UNL     1      -6.854  14.821   7.496  1.00  0.00     0.173 A 
ATOM     81  C   UNL     1      -8.456  13.028   7.521  1.00  0.00     0.173 A 
ATOM     82  F   UNL     1      -5.589  15.266   7.458  1.00  0.00    -0.203 F 
ATOM     83  C   UNL     1      -7.890  15.745   7.605  1.00  0.00     0.198 A 
ATOM     84  C   UNL     1      -9.491  13.955   7.607  1.00  0.00     0.198 A 
ATOM     85  F   UNL     1      -8.759  11.722   7.487  1.00  0.00    -0.203 F 
ATOM     86  F   UNL     1      -7.613  17.054   7.676  1.00  0.00    -0.200 F 
ATOM     87  C   UNL     1      -9.207  15.311   7.654  1.00  0.00     0.200 A 
ATOM     88  F   UNL     1     -10.763  13.535   7.645  1.00  0.00    -0.200 F 
ATOM     89  F   UNL     1     -10.203  16.202   7.754  1.00  0.00    -0.200 F 
ENDBRANCH  56  79
ENDBRANCH  30  31
ENDBRANCH  23  25
ENDBRANCH  22  23
ENDBRANCH  21  22
ENDBRANCH   1  21
TORSDOF 14
