REMARK SMILES [NH3+][C@]1(C(=O)OCCOC(=O)c2ccc(-c3c4nc(c(-c5c(F)c(F)c(F)c(F)c5F)c5ccc([nH]5)c(-c5c(F)c(F)c(F)c(F)c5F)c5nc(c(-c6c(F)c(F)c(F)c(F)c6F)c6ccc3[nH]6)C=C5)C=C4)cc2)CC[C@@H]([N@@H+](CC2CC2)C2CC2)C1
REMARK SMILES IDX 6 1 5 2 3 3 4 4 2 5 74 6 85 7 75 8 76 9 1 10 77 14 78 16
REMARK SMILES IDX 79 17 80 18 81 19 82 20 83 21 84 22 7 23 8 24 9 25 10 26
REMARK SMILES IDX 11 27 12 28 73 29 13 30 72 31 14 32 15 33 16 34 66 35 17 36
REMARK SMILES IDX 71 37 65 38 67 39 18 40 70 41 64 42 63 43 19 45 51 46 31 47
REMARK SMILES IDX 50 48 32 49 35 50 49 51 68 52 33 53 34 54 48 56 69 57 36 58
REMARK SMILES IDX 20 59 21 60 29 61 22 62 23 63 27 64 30 65 24 66 25 67 28 68
REMARK SMILES IDX 26 69 52 70 53 71 61 72 54 73 55 74 59 75 62 76 56 77 57 78
REMARK SMILES IDX 60 79 58 80 37 81 38 82 46 83 39 84 40 85 44 86 47 87 41 88
REMARK SMILES IDX 42 89 45 90 43 91
REMARK H PARENT 1 11 1 12 1 13 77 15 67 44 35 55
REMARK Flexibility Score: inf
ROOT
ATOM      1  C   UNL     1       2.894   0.095   1.433  1.00  0.00     0.274 C 
ENDROOT
BRANCH   1   2
ATOM      2  O   UNL     1       2.377   0.559   0.168  1.00  0.00    -0.457 OA
BRANCH   2   3
ATOM      3  C   UNL     1       1.506  -0.293  -0.447  1.00  0.00     0.368 C 
ATOM      4  O   UNL     1       1.163  -1.379   0.007  1.00  0.00    -0.245 OA
BRANCH   3   5
ATOM      5  C   UNL     1       1.100   0.215  -1.848  1.00  0.00     0.198 C 
ATOM      6  C   UNL     1      -0.083  -0.618  -2.344  1.00  0.00     0.087 C 
ATOM      7  C   UNL     1       0.530   1.646  -1.865  1.00  0.00     0.145 C 
ATOM      8  C   UNL     1      -0.710   0.219  -3.435  1.00  0.00     0.072 C 
ATOM      9  C   UNL     1      -0.556   1.684  -2.982  1.00  0.00     0.191 C 
BRANCH   5  10
ATOM     10  N   UNL     1       2.243   0.096  -2.781  1.00  0.00    -0.343 N 
ATOM     11  H   UNL     1       1.966   0.434  -3.703  1.00  0.00     0.345 HD
ATOM     12  H   UNL     1       2.527  -0.881  -2.849  1.00  0.00     0.345 HD
ATOM     13  H   UNL     1       3.024   0.654  -2.436  1.00  0.00     0.345 HD
ENDBRANCH   5  10
BRANCH   9  14
ATOM     14  N   UNL     1      -1.806   2.454  -2.850  1.00  0.00    -0.330 N 
ATOM     15  H   UNL     1      -1.187   3.259  -2.755  1.00  0.00     0.348 HD
BRANCH  14  16
ATOM     16  C   UNL     1      -2.711   2.377  -4.011  1.00  0.00     0.266 C 
BRANCH  16  17
ATOM     17  C   UNL     1      -4.053   1.716  -3.775  1.00  0.00     0.044 C 
ATOM     18  C   UNL     1      -4.351   0.361  -4.379  1.00  0.00     0.010 C 
ATOM     19  C   UNL     1      -4.292   0.508  -2.887  1.00  0.00     0.010 C 
ENDBRANCH  16  17
ENDBRANCH  14  16
BRANCH  14  20
ATOM     20  C   UNL     1      -2.472   2.874  -1.619  1.00  0.00     0.184 C 
ATOM     21  C   UNL     1      -2.373   2.066  -0.376  1.00  0.00     0.071 C 
ATOM     22  C   UNL     1      -1.812   3.459  -0.408  1.00  0.00     0.071 C 
ENDBRANCH  14  20
ENDBRANCH   9  14
ENDBRANCH   3   5
ENDBRANCH   2   3
ENDBRANCH   1   2
BRANCH   1  23
ATOM     23  C   UNL     1       2.099   0.679   2.599  1.00  0.00     0.275 C 
BRANCH  23  24
ATOM     24  O   UNL     1       0.733   0.235   2.530  1.00  0.00    -0.458 OA
BRANCH  24  25
ATOM     25  C   UNL     1      -0.189   1.113   2.987  1.00  0.00     0.338 C 
ATOM     26  O   UNL     1       0.046   2.204   3.496  1.00  0.00    -0.246 OA
BRANCH  25  27
ATOM     27  C   UNL     1      -1.570   0.617   2.759  1.00  0.00     0.060 A 
ATOM     28  C   UNL     1      -1.859  -0.341   1.786  1.00  0.00     0.016 A 
ATOM     29  C   UNL     1      -2.625   1.229   3.445  1.00  0.00     0.016 A 
ATOM     30  C   UNL     1      -3.190  -0.566   1.407  1.00  0.00     0.010 A 
ATOM     31  C   UNL     1      -3.957   0.921   3.130  1.00  0.00     0.010 A 
ATOM     32  C   UNL     1      -4.267   0.068   2.058  1.00  0.00    -0.014 A 
BRANCH  32  33
ATOM     33  C   UNL     1      -5.685  -0.085   1.582  1.00  0.00     0.031 A 
ATOM     34  C   UNL     1      -6.566   1.126   1.325  1.00  0.00     0.074 A 
ATOM     35  C   UNL     1      -6.211  -1.303   1.333  1.00  0.00     0.049 A 
ATOM     36  N   UNL     1      -7.863   1.184   1.123  1.00  0.00    -0.248 NA
ATOM     37  C   UNL     1      -5.912   2.444   1.290  1.00  0.00     0.031 C 
ATOM     38  C   UNL     1      -5.505  -2.577   1.458  1.00  0.00     0.029 A 
ATOM     39  N   UNL     1      -7.470  -1.667   0.910  1.00  0.00    -0.354 N 
ATOM     40  C   UNL     1      -8.178   2.534   1.000  1.00  0.00     0.074 A 
ATOM     41  C   UNL     1      -6.938   3.266   1.123  1.00  0.00     0.031 C 
ATOM     42  C   UNL     1      -6.310  -3.570   1.056  1.00  0.00     0.029 A 
ATOM     43  C   UNL     1      -7.633  -3.024   0.775  1.00  0.00     0.049 A 
ATOM     44  H   UNL     1      -8.184  -1.017   0.722  1.00  0.00     0.167 HD
ATOM     45  C   UNL     1      -9.389   3.116   0.818  1.00  0.00     0.037 A 
ATOM     46  C   UNL     1      -8.727  -3.770   0.525  1.00  0.00     0.037 A 
ATOM     47  C   UNL     1     -10.629   2.404   0.635  1.00  0.00     0.049 A 
ATOM     48  C   UNL     1     -10.067  -3.111   0.385  1.00  0.00     0.074 A 
ATOM     49  C   UNL     1     -11.902   2.920   0.449  1.00  0.00     0.029 A 
ATOM     50  N   UNL     1     -10.749   1.026   0.593  1.00  0.00    -0.354 N 
ATOM     51  N   UNL     1     -10.369  -1.838   0.407  1.00  0.00    -0.248 NA
ATOM     52  C   UNL     1     -11.227  -4.002   0.231  1.00  0.00     0.031 C 
ATOM     53  C   UNL     1     -12.797   1.852   0.322  1.00  0.00     0.029 A 
ATOM     54  C   UNL     1     -12.075   0.673   0.390  1.00  0.00     0.049 A 
ATOM     55  H   UNL     1     -10.004   0.390   0.691  1.00  0.00     0.167 HD
ATOM     56  C   UNL     1     -11.749  -1.773   0.279  1.00  0.00     0.074 A 
ATOM     57  C   UNL     1     -12.225  -3.133   0.150  1.00  0.00     0.031 C 
ATOM     58  C   UNL     1     -12.549  -0.679   0.281  1.00  0.00     0.037 A 
BRANCH  45  59
ATOM     59  C   UNL     1      -9.463   4.617   0.845  1.00  0.00     0.064 A 
ATOM     60  C   UNL     1      -9.061   5.401  -0.244  1.00  0.00     0.173 A 
ATOM     61  C   UNL     1     -10.040   5.268   1.948  1.00  0.00     0.173 A 
ATOM     62  F   UNL     1      -8.495   4.828  -1.317  1.00  0.00    -0.203 F 
ATOM     63  C   UNL     1      -9.230   6.785  -0.229  1.00  0.00     0.198 A 
ATOM     64  C   UNL     1     -10.228   6.647   1.950  1.00  0.00     0.198 A 
ATOM     65  F   UNL     1     -10.448   4.560   3.012  1.00  0.00    -0.203 F 
ATOM     66  F   UNL     1      -8.822   7.519  -1.273  1.00  0.00    -0.200 F 
ATOM     67  C   UNL     1      -9.823   7.404   0.862  1.00  0.00     0.200 A 
ATOM     68  F   UNL     1     -10.815   7.241   2.999  1.00  0.00    -0.200 F 
ATOM     69  F   UNL     1     -10.004   8.732   0.865  1.00  0.00    -0.200 F 
ENDBRANCH  45  59
BRANCH  46  70
ATOM     70  C   UNL     1      -8.602  -5.250   0.480  1.00  0.00     0.064 A 
ATOM     71  C   UNL     1      -8.756  -5.952  -0.722  1.00  0.00     0.173 A 
ATOM     72  C   UNL     1      -8.297  -5.985   1.635  1.00  0.00     0.173 A 
ATOM     73  F   UNL     1      -9.084  -5.295  -1.844  1.00  0.00    -0.203 F 
ATOM     74  C   UNL     1      -8.598  -7.335  -0.768  1.00  0.00     0.198 A 
ATOM     75  C   UNL     1      -8.105  -7.362   1.582  1.00  0.00     0.198 A 
ATOM     76  F   UNL     1      -8.150  -5.357   2.812  1.00  0.00    -0.203 F 
ATOM     77  F   UNL     1      -8.777  -7.990  -1.923  1.00  0.00    -0.200 F 
ATOM     78  C   UNL     1      -8.258  -8.037   0.381  1.00  0.00     0.200 A 
ATOM     79  F   UNL     1      -7.761  -8.032   2.690  1.00  0.00    -0.200 F 
ATOM     80  F   UNL     1      -8.082  -9.364   0.330  1.00  0.00    -0.200 F 
ENDBRANCH  46  70
BRANCH  58  81
ATOM     81  C   UNL     1     -14.022  -0.911   0.132  1.00  0.00     0.064 A 
ATOM     82  C   UNL     1     -14.791  -1.416   1.190  1.00  0.00     0.173 A 
ATOM     83  C   UNL     1     -14.671  -0.622  -1.077  1.00  0.00     0.173 A 
ATOM     84  F   UNL     1     -14.211  -1.723   2.360  1.00  0.00    -0.203 F 
ATOM     85  C   UNL     1     -16.155  -1.651   1.033  1.00  0.00     0.198 A 
ATOM     86  C   UNL     1     -16.039  -0.838  -1.223  1.00  0.00     0.198 A 
ATOM     87  F   UNL     1     -13.979  -0.133  -2.116  1.00  0.00    -0.203 F 
ATOM     88  F   UNL     1     -16.862  -2.180   2.041  1.00  0.00    -0.200 F 
ATOM     89  C   UNL     1     -16.777  -1.359  -0.172  1.00  0.00     0.200 A 
ATOM     90  F   UNL     1     -16.640  -0.550  -2.385  1.00  0.00    -0.200 F 
ATOM     91  F   UNL     1     -18.088  -1.593  -0.323  1.00  0.00    -0.200 F 
ENDBRANCH  58  81
ENDBRANCH  32  33
ENDBRANCH  25  27
ENDBRANCH  24  25
ENDBRANCH  23  24
ENDBRANCH   1  23
TORSDOF 16
