REMARK SMILES Cc1ccc(C)c([C@@H](C)[C@](C)(O)C(=O)OCCOC(=O)c2ccc(-c3c4nc(c(-c5c(F)c(F)c(F)c(F)c5F)c5ccc([nH]5)c(-c5c(F)c(F)c(F)c(F)c5F)c5nc(c(-c6c(F)c(F)c(F)c(F)c6F)c6ccc3[nH]6)C=C5)C=C4)cc2)c1
REMARK SMILES IDX 16 1 15 2 13 3 14 4 10 5 11 6 8 7 9 8 7 9 1 10 2 11 3 12
REMARK SMILES IDX 84 13 4 14 5 15 6 16 12 17 17 19 18 20 19 21 20 22 21 23
REMARK SMILES IDX 22 24 83 25 23 26 82 27 24 28 25 29 26 30 76 31 27 32 81 33
REMARK SMILES IDX 75 34 77 35 28 36 80 37 74 38 73 39 29 41 61 42 41 43 60 44
REMARK SMILES IDX 42 45 45 46 59 47 78 48 43 49 44 50 58 52 79 53 46 54 30 55
REMARK SMILES IDX 31 56 39 57 32 58 33 59 37 60 40 61 34 62 35 63 38 64 36 65
REMARK SMILES IDX 62 66 63 67 71 68 64 69 65 70 69 71 72 72 66 73 67 74 70 75
REMARK SMILES IDX 68 76 47 77 48 78 56 79 49 80 50 81 54 82 57 83 51 84 52 85
REMARK SMILES IDX 55 86 53 87
REMARK H PARENT 12 18 77 40 45 51
REMARK Flexibility Score: inf
ROOT
ATOM      1  C   UNL     1      -4.717  -0.423  -0.071  1.00  0.00     0.274 C 
ENDROOT
BRANCH   1   2
ATOM      2  O   UNL     1      -3.934   0.789  -0.037  1.00  0.00    -0.460 OA
BRANCH   2   3
ATOM      3  C   UNL     1      -2.585   0.574   0.092  1.00  0.00     0.338 C 
ATOM      4  O   UNL     1      -2.070  -0.488  -0.247  1.00  0.00    -0.249 OA
BRANCH   3   5
ATOM      5  C   UNL     1      -1.756   1.834   0.599  1.00  0.00     0.165 C 
ATOM      6  C   UNL     1      -0.670   2.054  -0.498  1.00  0.00     0.055 C 
BRANCH   5   7
ATOM      7  C   UNL     1      -1.208   1.774   2.152  1.00  0.00     0.059 C 
ATOM      8  C   UNL     1       0.332   1.883   2.265  1.00  0.00     0.016 C 
BRANCH   7   9
ATOM      9  C   UNL     1      -1.801   0.736   3.207  1.00  0.00    -0.039 A 
ATOM     10  C   UNL     1      -4.312   0.117   6.995  1.00  0.00     0.044 C 
ATOM     11  C   UNL     1      -3.283  -0.058   5.938  1.00  0.00    -0.051 A 
ATOM     12  C   UNL     1      -2.572  -1.697   5.779  1.00  0.00     0.004 A 
ATOM     13  C   UNL     1      -2.883   1.191   4.676  1.00  0.00     0.007 A 
ATOM     14  C   UNL     1      -1.557  -2.134   4.315  1.00  0.00     0.004 A 
ATOM     15  C   UNL     1      -1.194  -0.930   3.060  1.00  0.00    -0.048 A 
ATOM     16  C   UNL     1      -0.370  -1.384   1.888  1.00  0.00     0.044 C 
ENDBRANCH   7   9
ENDBRANCH   5   7
BRANCH   5  17
ATOM     17  O   UNL     1      -2.507   3.071   0.560  1.00  0.00    -0.378 OA
ATOM     18  H   UNL     1      -2.876   3.197  -0.328  1.00  0.00     0.212 HD
ENDBRANCH   5  17
ENDBRANCH   3   5
ENDBRANCH   2   3
ENDBRANCH   1   2
BRANCH   1  19
ATOM     19  C   UNL     1      -6.246  -0.287  -0.262  1.00  0.00     0.275 C 
BRANCH  19  20
ATOM     20  O   UNL     1      -6.738   1.009  -0.643  1.00  0.00    -0.458 OA
BRANCH  20  21
ATOM     21  C   UNL     1      -6.563   2.124   0.114  1.00  0.00     0.338 C 
ATOM     22  O   UNL     1      -6.449   3.225  -0.412  1.00  0.00    -0.246 OA
BRANCH  21  23
ATOM     23  C   UNL     1      -6.267   1.926   1.562  1.00  0.00     0.060 A 
ATOM     24  C   UNL     1      -5.115   2.522   1.938  1.00  0.00     0.016 A 
ATOM     25  C   UNL     1      -6.744   0.914   2.395  1.00  0.00     0.016 A 
ATOM     26  C   UNL     1      -4.247   1.718   2.662  1.00  0.00     0.010 A 
ATOM     27  C   UNL     1      -5.847   0.182   3.236  1.00  0.00     0.010 A 
ATOM     28  C   UNL     1      -4.457   0.387   3.183  1.00  0.00    -0.014 A 
BRANCH  28  29
ATOM     29  C   UNL     1      -3.229  -0.761   3.924  1.00  0.00     0.031 A 
ATOM     30  C   UNL     1      -1.447  -0.154   5.031  1.00  0.00     0.074 A 
ATOM     31  C   UNL     1      -4.016  -2.067   3.824  1.00  0.00     0.049 A 
ATOM     32  N   UNL     1      -0.474  -0.815   5.773  1.00  0.00    -0.248 NA
ATOM     33  C   UNL     1      -0.828   1.393   5.522  1.00  0.00     0.031 C 
ATOM     34  C   UNL     1      -5.107  -2.520   2.908  1.00  0.00     0.029 A 
ATOM     35  N   UNL     1      -4.036  -3.273   4.607  1.00  0.00    -0.354 N 
ATOM     36  C   UNL     1      -0.236  -0.147   6.991  1.00  0.00     0.074 A 
ATOM     37  C   UNL     1      -0.384   1.236   6.763  1.00  0.00     0.031 C 
ATOM     38  C   UNL     1      -5.808  -3.583   3.377  1.00  0.00     0.029 A 
ATOM     39  C   UNL     1      -5.195  -4.054   4.584  1.00  0.00     0.049 A 
ATOM     40  H   UNL     1      -3.256  -3.541   5.144  1.00  0.00     0.167 HD
ATOM     41  C   UNL     1      -0.112  -0.846   8.156  1.00  0.00     0.037 A 
ATOM     42  C   UNL     1      -5.611  -4.994   5.488  1.00  0.00     0.037 A 
ATOM     43  C   UNL     1       0.364  -2.178   7.896  1.00  0.00     0.049 A 
ATOM     44  C   UNL     1      -4.504  -5.239   6.442  1.00  0.00     0.074 A 
ATOM     45  C   UNL     1       1.459  -2.616   7.184  1.00  0.00     0.029 A 
ATOM     46  N   UNL     1      -0.448  -3.266   8.088  1.00  0.00    -0.354 N 
ATOM     47  N   UNL     1      -3.386  -5.836   6.160  1.00  0.00    -0.248 NA
ATOM     48  C   UNL     1      -4.532  -4.529   7.710  1.00  0.00     0.031 C 
ATOM     49  C   UNL     1       1.062  -3.841   6.603  1.00  0.00     0.029 A 
ATOM     50  C   UNL     1      -0.194  -4.192   7.100  1.00  0.00     0.049 A 
ATOM     51  H   UNL     1      -1.106  -3.368   8.813  1.00  0.00     0.167 HD
ATOM     52  C   UNL     1      -2.453  -5.245   6.992  1.00  0.00     0.074 A 
ATOM     53  C   UNL     1      -3.230  -4.534   7.998  1.00  0.00     0.031 C 
ATOM     54  C   UNL     1      -1.145  -5.175   6.619  1.00  0.00     0.037 A 
BRANCH  41  55
ATOM     55  C   UNL     1      -0.602  -0.419   9.520  1.00  0.00     0.064 A 
ATOM     56  C   UNL     1      -0.030  -0.983  10.674  1.00  0.00     0.173 A 
ATOM     57  C   UNL     1      -1.818   0.264   9.719  1.00  0.00     0.173 A 
ATOM     58  F   UNL     1       1.147  -1.620  10.598  1.00  0.00    -0.203 F 
ATOM     59  C   UNL     1      -0.678  -0.958  11.915  1.00  0.00     0.198 A 
ATOM     60  C   UNL     1      -2.486   0.258  10.951  1.00  0.00     0.198 A 
ATOM     61  F   UNL     1      -2.409   0.918   8.715  1.00  0.00    -0.203 F 
ATOM     62  F   UNL     1      -0.116  -1.557  12.973  1.00  0.00    -0.200 F 
ATOM     63  C   UNL     1      -1.925  -0.372  12.044  1.00  0.00     0.200 A 
ATOM     64  F   UNL     1      -3.702   0.817  11.057  1.00  0.00    -0.200 F 
ATOM     65  F   UNL     1      -2.587  -0.431  13.208  1.00  0.00    -0.200 F 
ENDBRANCH  41  55
BRANCH  42  66
ATOM     66  C   UNL     1      -6.971  -5.533   5.830  1.00  0.00     0.064 A 
ATOM     67  C   UNL     1      -7.141  -6.701   6.615  1.00  0.00     0.173 A 
ATOM     68  C   UNL     1      -8.123  -4.748   5.663  1.00  0.00     0.173 A 
ATOM     69  F   UNL     1      -6.096  -7.500   6.880  1.00  0.00    -0.203 F 
ATOM     70  C   UNL     1      -8.369  -7.032   7.213  1.00  0.00     0.198 A 
ATOM     71  C   UNL     1      -9.347  -5.080   6.258  1.00  0.00     0.198 A 
ATOM     72  F   UNL     1      -8.061  -3.585   5.002  1.00  0.00    -0.203 F 
ATOM     73  F   UNL     1      -8.467  -8.111   8.005  1.00  0.00    -0.200 F 
ATOM     74  C   UNL     1      -9.469  -6.212   7.043  1.00  0.00     0.200 A 
ATOM     75  F   UNL     1     -10.394  -4.253   6.120  1.00  0.00    -0.200 F 
ATOM     76  F   UNL     1     -10.625  -6.483   7.666  1.00  0.00    -0.200 F 
ENDBRANCH  42  66
BRANCH  54  77
ATOM     77  C   UNL     1      -0.702  -6.065   5.475  1.00  0.00     0.064 A 
ATOM     78  C   UNL     1      -1.252  -6.045   4.179  1.00  0.00     0.173 A 
ATOM     79  C   UNL     1       0.417  -6.889   5.673  1.00  0.00     0.173 A 
ATOM     80  F   UNL     1      -2.262  -5.221   3.867  1.00  0.00    -0.203 F 
ATOM     81  C   UNL     1      -0.731  -6.832   3.152  1.00  0.00     0.198 A 
ATOM     82  C   UNL     1       0.967  -7.635   4.633  1.00  0.00     0.198 A 
ATOM     83  F   UNL     1       1.019  -6.929   6.872  1.00  0.00    -0.203 F 
ATOM     84  F   UNL     1      -1.291  -6.803   1.933  1.00  0.00    -0.200 F 
ATOM     85  C   UNL     1       0.386  -7.617   3.377  1.00  0.00     0.200 A 
ATOM     86  F   UNL     1       2.081  -8.349   4.846  1.00  0.00    -0.200 F 
ATOM     87  F   UNL     1       0.917  -8.338   2.380  1.00  0.00    -0.200 F 
ENDBRANCH  54  77
ENDBRANCH  28  29
ENDBRANCH  21  23
ENDBRANCH  20  21
ENDBRANCH  19  20
ENDBRANCH   1  19
TORSDOF 14
