REMARK SMILES Cc1ccc(C(=O)OCCOC(=O)c2ccc(-c3c4nc(c(-c5c(F)c(F)c(F)c(F)c5F)c5ccc([nH]5)c(-c5c(F)c(F)c(F)c(F)c5F)c5nc(c(-c6c(F)c(F)c(F)c(F)c6F)c6ccc3[nH]6)C=C5)C=C4)cc2)c(Oc2cccc(F)c2C(N)=O)c1
REMARK SMILES IDX 9 1 8 2 6 3 7 4 5 5 1 6 2 7 3 8 89 9 4 10 77 11 78 12 79 13
REMARK SMILES IDX 80 14 85 15 81 16 83 17 82 18 84 19 86 20 87 21 88 22 10 25
REMARK SMILES IDX 11 26 12 27 13 28 14 29 15 30 76 31 16 32 75 33 17 34 18 35
REMARK SMILES IDX 19 36 69 37 20 38 74 39 68 40 70 41 21 42 73 43 67 44 66 45
REMARK SMILES IDX 22 47 54 48 34 49 53 50 35 51 38 52 52 53 71 54 36 55 37 56
REMARK SMILES IDX 51 58 72 59 39 60 23 61 24 62 32 63 25 64 26 65 30 66 33 67
REMARK SMILES IDX 27 68 28 69 31 70 29 71 55 72 56 73 64 74 57 75 58 76 62 77
REMARK SMILES IDX 65 78 59 79 60 80 63 81 61 82 40 83 41 84 49 85 42 86 43 87
REMARK SMILES IDX 47 88 50 89 44 90 45 91 48 92 46 93
REMARK H PARENT 87 23 87 24 70 46 38 57
REMARK Flexibility Score: inf
ROOT
ATOM      1  C   UNL     1      -4.460   1.561  -2.369  1.00  0.00     0.275 C 
ENDROOT
BRANCH   1   2
ATOM      2  O   UNL     1      -3.166   0.963  -2.173  1.00  0.00    -0.458 OA
BRANCH   2   3
ATOM      3  C   UNL     1      -2.614   1.371  -0.987  1.00  0.00     0.342 C 
ATOM      4  O   UNL     1      -3.175   2.105  -0.206  1.00  0.00    -0.246 OA
BRANCH   3   5
ATOM      5  C   UNL     1      -1.202   0.934  -0.788  1.00  0.00     0.102 A 
ATOM      6  C   UNL     1       2.933  -0.058  -0.026  1.00  0.00     0.044 C 
ATOM      7  C   UNL     1       1.495   0.281  -0.295  1.00  0.00    -0.047 A 
ATOM      8  C   UNL     1       0.643  -0.625  -0.948  1.00  0.00     0.004 A 
ATOM      9  C   UNL     1       0.980   1.503   0.143  1.00  0.00     0.051 A 
ATOM     10  C   UNL     1      -0.696  -0.294  -1.214  1.00  0.00     0.020 A 
ATOM     11  C   UNL     1      -0.351   1.829  -0.118  1.00  0.00     0.142 A 
BRANCH  11  12
ATOM     12  O   UNL     1      -0.882   2.999   0.355  1.00  0.00    -0.455 OA
BRANCH  12  13
ATOM     13  C   UNL     1      -0.379   4.212  -0.039  1.00  0.00     0.143 A 
ATOM     14  C   UNL     1      -0.625   5.210   0.919  1.00  0.00     0.048 A 
ATOM     15  C   UNL     1       0.268   4.548  -1.234  1.00  0.00     0.117 A 
ATOM     16  C   UNL     1      -0.168   6.510   0.733  1.00  0.00     0.007 A 
ATOM     17  C   UNL     1       0.747   5.850  -1.397  1.00  0.00     0.139 A 
ATOM     18  C   UNL     1       0.540   6.824  -0.421  1.00  0.00     0.040 A 
ATOM     19  F   UNL     1       1.383   6.214  -2.520  1.00  0.00    -0.206 F 
BRANCH  15  20
ATOM     20  C   UNL     1       0.455   3.636  -2.377  1.00  0.00     0.255 C 
ATOM     21  N   UNL     1      -0.681   3.123  -2.940  1.00  0.00    -0.365 N 
ATOM     22  O   UNL     1       1.565   3.371  -2.814  1.00  0.00    -0.269 OA
ATOM     23  H   UNL     1      -1.562   3.353  -2.567  1.00  0.00     0.159 HD
ATOM     24  H   UNL     1      -0.617   2.524  -3.719  1.00  0.00     0.159 HD
ENDBRANCH  15  20
ENDBRANCH  12  13
ENDBRANCH  11  12
ENDBRANCH   3   5
ENDBRANCH   2   3
ENDBRANCH   1   2
BRANCH   1  25
ATOM     25  C   UNL     1      -5.442   0.753  -3.226  1.00  0.00     0.275 C 
BRANCH  25  26
ATOM     26  O   UNL     1      -5.520  -0.695  -3.151  1.00  0.00    -0.458 OA
BRANCH  26  27
ATOM     27  C   UNL     1      -4.822  -1.503  -2.326  1.00  0.00     0.338 C 
ATOM     28  O   UNL     1      -4.254  -2.514  -2.714  1.00  0.00    -0.246 OA
BRANCH  27  29
ATOM     29  C   UNL     1      -4.831  -1.141  -0.900  1.00  0.00     0.060 A 
ATOM     30  C   UNL     1      -3.736  -1.520  -0.102  1.00  0.00     0.016 A 
ATOM     31  C   UNL     1      -5.855  -0.345  -0.394  1.00  0.00     0.016 A 
ATOM     32  C   UNL     1      -3.610  -1.019   1.186  1.00  0.00     0.010 A 
ATOM     33  C   UNL     1      -5.684   0.234   0.839  1.00  0.00     0.010 A 
ATOM     34  C   UNL     1      -4.588  -0.138   1.639  1.00  0.00    -0.014 A 
BRANCH  34  35
ATOM     35  C   UNL     1      -4.793   0.149   3.046  1.00  0.00     0.031 A 
ATOM     36  C   UNL     1      -4.153   1.271   3.746  1.00  0.00     0.074 A 
ATOM     37  C   UNL     1      -5.793  -0.617   3.531  1.00  0.00     0.049 A 
ATOM     38  N   UNL     1      -4.131   1.395   5.027  1.00  0.00    -0.248 NA
ATOM     39  C   UNL     1      -3.441   2.349   3.072  1.00  0.00     0.031 C 
ATOM     40  C   UNL     1      -6.622  -0.483   4.710  1.00  0.00     0.029 A 
ATOM     41  N   UNL     1      -6.174  -1.860   2.985  1.00  0.00    -0.354 N 
ATOM     42  C   UNL     1      -3.733   2.687   5.317  1.00  0.00     0.074 A 
ATOM     43  C   UNL     1      -3.189   3.190   4.082  1.00  0.00     0.031 C 
ATOM     44  C   UNL     1      -7.164  -1.689   4.980  1.00  0.00     0.029 A 
ATOM     45  C   UNL     1      -6.547  -2.652   4.070  1.00  0.00     0.049 A 
ATOM     46  H   UNL     1      -6.176  -2.116   2.034  1.00  0.00     0.167 HD
ATOM     47  C   UNL     1      -4.104   3.220   6.519  1.00  0.00     0.037 A 
ATOM     48  C   UNL     1      -5.703  -3.663   4.438  1.00  0.00     0.037 A 
ATOM     49  C   UNL     1      -4.761   2.187   7.321  1.00  0.00     0.049 A 
ATOM     50  C   UNL     1      -5.157  -3.408   5.819  1.00  0.00     0.074 A 
ATOM     51  C   UNL     1      -6.101   1.867   7.474  1.00  0.00     0.029 A 
ATOM     52  N   UNL     1      -4.036   1.073   7.734  1.00  0.00    -0.354 N 
ATOM     53  N   UNL     1      -4.862  -2.223   6.285  1.00  0.00    -0.248 NA
ATOM     54  C   UNL     1      -4.997  -4.471   6.802  1.00  0.00     0.031 C 
ATOM     55  C   UNL     1      -6.178   0.512   7.883  1.00  0.00     0.029 A 
ATOM     56  C   UNL     1      -4.889   0.017   7.995  1.00  0.00     0.049 A 
ATOM     57  H   UNL     1      -3.056   1.042   7.827  1.00  0.00     0.167 HD
ATOM     58  C   UNL     1      -4.584  -2.336   7.621  1.00  0.00     0.074 A 
ATOM     59  C   UNL     1      -4.645  -3.764   7.888  1.00  0.00     0.031 C 
ATOM     60  C   UNL     1      -4.377  -1.265   8.442  1.00  0.00     0.037 A 
BRANCH  47  61
ATOM     61  C   UNL     1      -4.220   4.705   6.823  1.00  0.00     0.064 A 
ATOM     62  C   UNL     1      -5.171   5.166   7.766  1.00  0.00     0.173 A 
ATOM     63  C   UNL     1      -3.493   5.729   6.188  1.00  0.00     0.173 A 
ATOM     64  F   UNL     1      -5.869   4.317   8.531  1.00  0.00    -0.203 F 
ATOM     65  C   UNL     1      -5.452   6.521   7.964  1.00  0.00     0.198 A 
ATOM     66  C   UNL     1      -3.792   7.088   6.366  1.00  0.00     0.198 A 
ATOM     67  F   UNL     1      -2.438   5.460   5.411  1.00  0.00    -0.203 F 
ATOM     68  F   UNL     1      -6.389   6.884   8.852  1.00  0.00    -0.200 F 
ATOM     69  C   UNL     1      -4.782   7.484   7.242  1.00  0.00     0.200 A 
ATOM     70  F   UNL     1      -3.108   8.015   5.677  1.00  0.00    -0.200 F 
ATOM     71  F   UNL     1      -5.070   8.782   7.408  1.00  0.00    -0.200 F 
ENDBRANCH  47  61
BRANCH  48  72
ATOM     72  C   UNL     1      -4.939  -4.290   3.306  1.00  0.00     0.064 A 
ATOM     73  C   UNL     1      -5.651  -4.760   2.176  1.00  0.00     0.173 A 
ATOM     74  C   UNL     1      -3.547  -4.210   3.178  1.00  0.00     0.173 A 
ATOM     75  F   UNL     1      -6.989  -4.869   2.224  1.00  0.00    -0.203 F 
ATOM     76  C   UNL     1      -5.018  -5.038   0.964  1.00  0.00     0.198 A 
ATOM     77  C   UNL     1      -2.911  -4.510   1.964  1.00  0.00     0.198 A 
ATOM     78  F   UNL     1      -2.792  -3.777   4.197  1.00  0.00    -0.203 F 
ATOM     79  F   UNL     1      -5.746  -5.384  -0.108  1.00  0.00    -0.200 F 
ATOM     80  C   UNL     1      -3.647  -4.900   0.855  1.00  0.00     0.200 A 
ATOM     81  F   UNL     1      -1.584  -4.351   1.847  1.00  0.00    -0.200 F 
ATOM     82  F   UNL     1      -3.038  -5.102  -0.323  1.00  0.00    -0.200 F 
ENDBRANCH  48  72
BRANCH  60  83
ATOM     83  C   UNL     1      -3.773  -1.345   9.816  1.00  0.00     0.064 A 
ATOM     84  C   UNL     1      -2.831  -2.319  10.178  1.00  0.00     0.173 A 
ATOM     85  C   UNL     1      -3.993  -0.314  10.761  1.00  0.00     0.173 A 
ATOM     86  F   UNL     1      -2.451  -3.276   9.320  1.00  0.00    -0.203 F 
ATOM     87  C   UNL     1      -2.201  -2.302  11.422  1.00  0.00     0.198 A 
ATOM     88  C   UNL     1      -3.310  -0.263  11.971  1.00  0.00     0.198 A 
ATOM     89  F   UNL     1      -4.848   0.691  10.523  1.00  0.00    -0.203 F 
ATOM     90  F   UNL     1      -1.344  -3.281  11.741  1.00  0.00    -0.200 F 
ATOM     91  C   UNL     1      -2.427  -1.267  12.310  1.00  0.00     0.200 A 
ATOM     92  F   UNL     1      -3.493   0.780  12.793  1.00  0.00    -0.200 F 
ATOM     93  F   UNL     1      -1.778  -1.225  13.479  1.00  0.00    -0.200 F 
ENDBRANCH  60  83
ENDBRANCH  34  35
ENDBRANCH  27  29
ENDBRANCH  26  27
ENDBRANCH  25  26
ENDBRANCH   1  25
TORSDOF 14
