REMARK SMILES O=C(OCCOC(=O)c1ccc(-c2c3nc(c(-c4c(F)c(F)c(F)c(F)c4F)c4ccc([nH]4)c(-c4c(F)c(F)c(F)c(F)c4F)c4nc(c(-c5c(F)c(F)c(F)c(F)c5F)c5ccc2[nH]5)C=C4)C=C3)cc1)C1=Cc2c(ccc(Cl)c2Sc2ccccc2)O[C@H]1C(F)(F)F
REMARK SMILES IDX 4 1 3 2 2 3 1 4 72 5 73 6 89 7 74 8 88 9 75 10 80 11 76 12
REMARK SMILES IDX 78 13 77 14 79 15 90 16 91 17 92 18 93 19 81 20 82 21 83 22
REMARK SMILES IDX 87 23 84 24 86 25 85 26 5 27 6 28 7 29 8 30 9 31 10 32 71 33
REMARK SMILES IDX 11 34 70 35 12 36 13 37 14 38 64 39 15 40 69 41 63 42 65 43
REMARK SMILES IDX 16 44 68 45 62 46 61 47 17 49 49 50 29 51 48 52 30 53 33 54
REMARK SMILES IDX 47 55 66 56 31 57 32 58 46 60 67 61 34 62 18 63 19 64 27 65
REMARK SMILES IDX 20 66 21 67 25 68 28 69 22 70 23 71 26 72 24 73 50 74 51 75
REMARK SMILES IDX 59 76 52 77 53 78 57 79 60 80 54 81 55 82 58 83 56 84 35 85
REMARK SMILES IDX 36 86 44 87 37 88 38 89 42 90 45 91 39 92 40 93 43 94 41 95
REMARK H PARENT 65 48 33 59
REMARK Flexibility Score: inf
ROOT
ATOM      1  C   UNL     1       2.441  -0.082   0.510  1.00  0.00     0.275 C 
ENDROOT
BRANCH   1   2
ATOM      2  O   UNL     1       2.559   1.342   0.527  1.00  0.00    -0.459 OA
BRANCH   2   3
ATOM      3  C   UNL     1       3.654   2.038   0.203  1.00  0.00     0.338 C 
ATOM      4  O   UNL     1       3.692   3.244   0.427  1.00  0.00    -0.246 OA
BRANCH   3   5
ATOM      5  C   UNL     1       4.795   1.379  -0.471  1.00  0.00     0.087 C 
ATOM      6  C   UNL     1       5.016   0.071  -0.737  1.00  0.00     0.028 C 
ATOM      7  C   UNL     1       6.046   2.191  -0.386  1.00  0.00     0.316 C 
ATOM      8  C   UNL     1       5.581  -0.648   0.415  1.00  0.00     0.033 A 
ATOM      9  O   UNL     1       7.121   1.331   0.141  1.00  0.00    -0.475 OA
ATOM     10  C   UNL     1       6.731   0.149   0.804  1.00  0.00     0.129 A 
ATOM     11  C   UNL     1       5.225  -1.931   1.030  1.00  0.00     0.042 A 
ATOM     12  C   UNL     1       7.584  -0.301   1.780  1.00  0.00     0.049 A 
ATOM     13  C   UNL     1       6.179  -2.320   2.022  1.00  0.00     0.055 A 
ATOM     14  C   UNL     1       7.308  -1.528   2.373  1.00  0.00     0.025 A 
ATOM     15  Cl  UNL     1       6.124  -3.839   2.881  1.00  0.00    -0.083 Cl
BRANCH   7  16
ATOM     16  C   UNL     1       6.283   2.822  -1.778  1.00  0.00     0.430 C 
ATOM     17  F   UNL     1       6.432   1.881  -2.743  1.00  0.00    -0.167 F 
ATOM     18  F   UNL     1       5.229   3.593  -2.157  1.00  0.00    -0.167 F 
ATOM     19  F   UNL     1       7.377   3.612  -1.810  1.00  0.00    -0.167 F 
ENDBRANCH   7  16
BRANCH  11  20
ATOM     20  S   UNL     1       3.968  -3.360   0.692  1.00  0.00    -0.088 SA
BRANCH  20  21
ATOM     21  C   UNL     1       2.236  -3.303   0.097  1.00  0.00     0.012 A 
ATOM     22  C   UNL     1       1.111  -2.796   0.795  1.00  0.00     0.015 A 
ATOM     23  C   UNL     1       1.973  -3.744  -1.232  1.00  0.00     0.015 A 
ATOM     24  C   UNL     1      -0.106  -2.481   0.111  1.00  0.00     0.001 A 
ATOM     25  C   UNL     1       0.759  -3.440  -1.907  1.00  0.00     0.001 A 
ATOM     26  C   UNL     1      -0.258  -2.753  -1.251  1.00  0.00     0.000 A 
ENDBRANCH  20  21
ENDBRANCH  11  20
ENDBRANCH   3   5
ENDBRANCH   2   3
ENDBRANCH   1   2
BRANCH   1  27
ATOM     27  C   UNL     1       2.628  -0.742  -0.859  1.00  0.00     0.275 C 
BRANCH  27  28
ATOM     28  O   UNL     1       2.629   0.139  -1.919  1.00  0.00    -0.458 OA
BRANCH  28  29
ATOM     29  C   UNL     1       1.361   0.460  -2.111  1.00  0.00     0.338 C 
ATOM     30  O   UNL     1       0.372   0.294  -1.395  1.00  0.00    -0.246 OA
BRANCH  29  31
ATOM     31  C   UNL     1       1.354   1.092  -3.363  1.00  0.00     0.060 A 
ATOM     32  C   UNL     1       0.359   2.049  -3.410  1.00  0.00     0.016 A 
ATOM     33  C   UNL     1       2.271   0.758  -4.383  1.00  0.00     0.016 A 
ATOM     34  C   UNL     1       0.216   2.689  -4.576  1.00  0.00     0.010 A 
ATOM     35  C   UNL     1       2.194   1.481  -5.525  1.00  0.00     0.010 A 
ATOM     36  C   UNL     1       1.165   2.421  -5.575  1.00  0.00    -0.014 A 
BRANCH  36  37
ATOM     37  C   UNL     1       1.048   3.266  -6.715  1.00  0.00     0.031 A 
ATOM     38  C   UNL     1       0.356   2.677  -7.867  1.00  0.00     0.074 A 
ATOM     39  C   UNL     1       1.456   4.516  -6.469  1.00  0.00     0.049 A 
ATOM     40  N   UNL     1       0.042   3.258  -8.975  1.00  0.00    -0.248 NA
ATOM     41  C   UNL     1      -0.025   1.250  -7.786  1.00  0.00     0.031 C 
ATOM     42  C   UNL     1       2.107   4.974  -5.223  1.00  0.00     0.029 A 
ATOM     43  N   UNL     1       1.324   5.635  -7.206  1.00  0.00    -0.354 N 
ATOM     44  C   UNL     1      -0.529   2.267  -9.746  1.00  0.00     0.074 A 
ATOM     45  C   UNL     1      -0.523   1.039  -8.993  1.00  0.00     0.031 C 
ATOM     46  C   UNL     1       2.270   6.301  -5.277  1.00  0.00     0.029 A 
ATOM     47  C   UNL     1       1.821   6.747  -6.582  1.00  0.00     0.049 A 
ATOM     48  H   UNL     1       0.913   5.652  -8.100  1.00  0.00     0.167 HD
ATOM     49  C   UNL     1      -0.988   2.440 -10.997  1.00  0.00     0.037 A 
ATOM     50  C   UNL     1       1.922   7.980  -7.088  1.00  0.00     0.037 A 
ATOM     51  C   UNL     1      -0.940   3.736 -11.616  1.00  0.00     0.049 A 
ATOM     52  C   UNL     1       1.377   8.124  -8.479  1.00  0.00     0.074 A 
ATOM     53  C   UNL     1      -1.374   4.118 -12.863  1.00  0.00     0.029 A 
ATOM     54  N   UNL     1      -0.411   4.873 -10.996  1.00  0.00    -0.354 N 
ATOM     55  N   UNL     1       0.815   7.204  -9.237  1.00  0.00    -0.248 NA
ATOM     56  C   UNL     1       1.481   9.440  -9.095  1.00  0.00     0.031 C 
ATOM     57  C   UNL     1      -1.058   5.473 -13.017  1.00  0.00     0.029 A 
ATOM     58  C   UNL     1      -0.480   5.956 -11.846  1.00  0.00     0.049 A 
ATOM     59  H   UNL     1      -0.042   4.897 -10.084  1.00  0.00     0.167 HD
ATOM     60  C   UNL     1       0.503   7.819 -10.429  1.00  0.00     0.074 A 
ATOM     61  C   UNL     1       0.903   9.212 -10.267  1.00  0.00     0.031 C 
ATOM     62  C   UNL     1      -0.039   7.305 -11.563  1.00  0.00     0.037 A 
BRANCH  49  63
ATOM     63  C   UNL     1      -1.469   1.234 -11.732  1.00  0.00     0.064 A 
ATOM     64  C   UNL     1      -2.636   0.545 -11.367  1.00  0.00     0.173 A 
ATOM     65  C   UNL     1      -0.723   0.734 -12.808  1.00  0.00     0.173 A 
ATOM     66  F   UNL     1      -3.356   0.947 -10.308  1.00  0.00    -0.203 F 
ATOM     67  C   UNL     1      -3.040  -0.595 -12.057  1.00  0.00     0.198 A 
ATOM     68  C   UNL     1      -1.143  -0.390 -13.512  1.00  0.00     0.198 A 
ATOM     69  F   UNL     1       0.425   1.327 -13.168  1.00  0.00    -0.203 F 
ATOM     70  F   UNL     1      -4.135  -1.262 -11.664  1.00  0.00    -0.200 F 
ATOM     71  C   UNL     1      -2.301  -1.054 -13.137  1.00  0.00     0.200 A 
ATOM     72  F   UNL     1      -0.421  -0.837 -14.549  1.00  0.00    -0.200 F 
ATOM     73  F   UNL     1      -2.697  -2.144 -13.808  1.00  0.00    -0.200 F 
ENDBRANCH  49  63
BRANCH  50  74
ATOM     74  C   UNL     1       2.589   9.052  -6.316  1.00  0.00     0.064 A 
ATOM     75  C   UNL     1       1.895  10.194  -5.905  1.00  0.00     0.173 A 
ATOM     76  C   UNL     1       3.935   8.934  -5.925  1.00  0.00     0.173 A 
ATOM     77  F   UNL     1       0.604  10.348  -6.235  1.00  0.00    -0.203 F 
ATOM     78  C   UNL     1       2.527  11.192  -5.164  1.00  0.00     0.198 A 
ATOM     79  C   UNL     1       4.556   9.913  -5.155  1.00  0.00     0.198 A 
ATOM     80  F   UNL     1       4.644   7.847  -6.266  1.00  0.00    -0.203 F 
ATOM     81  F   UNL     1       1.851  12.297  -4.823  1.00  0.00    -0.200 F 
ATOM     82  C   UNL     1       3.855  11.050  -4.787  1.00  0.00     0.200 A 
ATOM     83  F   UNL     1       5.829   9.753  -4.769  1.00  0.00    -0.200 F 
ATOM     84  F   UNL     1       4.460  12.010  -4.075  1.00  0.00    -0.200 F 
ENDBRANCH  50  74
BRANCH  62  85
ATOM     85  C   UNL     1      -0.210   8.282 -12.674  1.00  0.00     0.064 A 
ATOM     86  C   UNL     1       0.892   8.734 -13.412  1.00  0.00     0.173 A 
ATOM     87  C   UNL     1      -1.492   8.716 -13.032  1.00  0.00     0.173 A 
ATOM     88  F   UNL     1       2.134   8.351 -13.078  1.00  0.00    -0.203 F 
ATOM     89  C   UNL     1       0.714   9.615 -14.467  1.00  0.00     0.198 A 
ATOM     90  C   UNL     1      -1.668   9.565 -14.114  1.00  0.00     0.198 A 
ATOM     91  F   UNL     1      -2.566   8.292 -12.350  1.00  0.00    -0.203 F 
ATOM     92  F   UNL     1       1.779  10.082 -15.132  1.00  0.00    -0.200 F 
ATOM     93  C   UNL     1      -0.566  10.019 -14.824  1.00  0.00     0.200 A 
ATOM     94  F   UNL     1      -2.903   9.938 -14.473  1.00  0.00    -0.200 F 
ATOM     95  F   UNL     1      -0.736  10.856 -15.856  1.00  0.00    -0.200 F 
ENDBRANCH  62  85
ENDBRANCH  36  37
ENDBRANCH  29  31
ENDBRANCH  28  29
ENDBRANCH  27  28
ENDBRANCH   1  27
TORSDOF 14
