REMARK SMILES CCC[C@@H]1SC[C@H](C(=O)OCCOC(=O)c2ccc(-c3c4nc(c(-c5c(F)c(F)c(F)c(F)c5F)c5ccc([nH]5)c(-c5c(F)c(F)c(F)c(F)c5F)c5nc(c(-c6c(F)c(F)c(F)c(F)c6F)c6ccc3[nH]6)C=C5)C=C4)cc2)N1C(=O)C[NH+]1CCC([NH3+])CC1
REMARK SMILES IDX 11 1 10 2 8 3 9 4 7 5 4 6 5 7 79 8 6 9 3 10 2 11 1 12 80 13
REMARK SMILES IDX 81 14 82 15 83 16 84 17 89 18 85 20 88 21 86 22 87 23 12 27
REMARK SMILES IDX 13 28 14 29 15 30 16 31 17 32 78 33 18 34 77 35 19 36 20 37
REMARK SMILES IDX 21 38 71 39 22 40 76 41 70 42 72 43 23 44 75 45 69 46 68 47
REMARK SMILES IDX 24 49 56 50 36 51 55 52 37 53 40 54 54 55 73 56 38 57 39 58
REMARK SMILES IDX 53 60 74 61 41 62 25 63 26 64 34 65 27 66 28 67 32 68 35 69
REMARK SMILES IDX 29 70 30 71 33 72 31 73 57 74 58 75 66 76 59 77 60 78 64 79
REMARK SMILES IDX 67 80 61 81 62 82 65 83 63 84 42 85 43 86 51 87 44 88 45 89
REMARK SMILES IDX 49 90 52 91 46 92 47 93 50 94 48 95
REMARK H PARENT 83 19 87 24 87 25 87 26 72 48 40 59
REMARK Flexibility Score: inf
ROOT
ATOM      1  C   UNL     1      -0.144   7.206   0.230  1.00  0.00     0.274 C 
ENDROOT
BRANCH   1   2
ATOM      2  O   UNL     1       0.586   6.147   0.884  1.00  0.00    -0.461 OA
BRANCH   2   3
ATOM      3  C   UNL     1      -0.128   5.122   1.443  1.00  0.00     0.329 C 
ATOM      4  O   UNL     1      -1.346   5.085   1.557  1.00  0.00    -0.250 OA
BRANCH   3   5
ATOM      5  C   UNL     1       0.853   4.042   1.942  1.00  0.00     0.206 C 
ATOM      6  C   UNL     1       0.694   1.777   2.924  1.00  0.00     0.144 C 
ATOM      7  S   UNL     1       0.806   2.930   4.357  1.00  0.00    -0.134 SA
ATOM      8  N   UNL     1       0.360   2.651   1.797  1.00  0.00    -0.311 N 
ATOM      9  C   UNL     1       1.274   4.352   3.365  1.00  0.00     0.109 C 
BRANCH   6  10
ATOM     10  C   UNL     1      -0.253   0.635   3.352  1.00  0.00     0.036 C 
BRANCH  10  11
ATOM     11  C   UNL     1       0.098  -0.812   2.946  1.00  0.00    -0.000 C 
ATOM     12  C   UNL     1       1.573  -1.190   2.932  1.00  0.00     0.004 C 
ENDBRANCH  10  11
ENDBRANCH   6  10
BRANCH   8  13
ATOM     13  C   UNL     1       0.179   2.281   0.480  1.00  0.00     0.279 C 
ATOM     14  O   UNL     1       0.396   3.110  -0.413  1.00  0.00    -0.268 OA
BRANCH  13  15
ATOM     15  C   UNL     1      -0.231   0.879   0.066  1.00  0.00     0.363 C 
BRANCH  15  16
ATOM     16  N   UNL     1       0.905  -0.053  -0.010  1.00  0.00    -0.327 N 
ATOM     17  C   UNL     1       0.555  -1.261  -0.783  1.00  0.00     0.268 C 
ATOM     18  C   UNL     1       2.180   0.528  -0.454  1.00  0.00     0.268 C 
ATOM     19  H   UNL     1       1.083  -0.316   0.959  1.00  0.00     0.348 HD
ATOM     20  C   UNL     1       0.692  -1.117  -2.306  1.00  0.00     0.126 C 
ATOM     21  C   UNL     1       2.270   0.769  -1.953  1.00  0.00     0.126 C 
ATOM     22  C   UNL     1       2.074  -0.565  -2.662  1.00  0.00     0.192 C 
BRANCH  22  23
ATOM     23  N   UNL     1       2.256  -0.385  -4.097  1.00  0.00    -0.355 N 
ATOM     24  H   UNL     1       1.576   0.292  -4.443  1.00  0.00     0.344 HD
ATOM     25  H   UNL     1       2.118  -1.277  -4.571  1.00  0.00     0.344 HD
ATOM     26  H   UNL     1       3.199  -0.044  -4.280  1.00  0.00     0.344 HD
ENDBRANCH  22  23
ENDBRANCH  15  16
ENDBRANCH  13  15
ENDBRANCH   8  13
ENDBRANCH   3   5
ENDBRANCH   2   3
ENDBRANCH   1   2
BRANCH   1  27
ATOM     27  C   UNL     1       0.258   7.258  -1.247  1.00  0.00     0.275 C 
BRANCH  27  28
ATOM     28  O   UNL     1      -0.347   6.144  -1.927  1.00  0.00    -0.458 OA
BRANCH  28  29
ATOM     29  C   UNL     1       0.242   5.734  -3.076  1.00  0.00     0.338 C 
ATOM     30  O   UNL     1       1.189   6.276  -3.638  1.00  0.00    -0.246 OA
BRANCH  29  31
ATOM     31  C   UNL     1      -0.422   4.503  -3.582  1.00  0.00     0.060 A 
ATOM     32  C   UNL     1      -1.138   3.689  -2.720  1.00  0.00     0.016 A 
ATOM     33  C   UNL     1      -0.288   4.092  -4.910  1.00  0.00     0.016 A 
ATOM     34  C   UNL     1      -1.546   2.418  -3.130  1.00  0.00     0.010 A 
ATOM     35  C   UNL     1      -0.865   2.876  -5.352  1.00  0.00     0.010 A 
ATOM     36  C   UNL     1      -1.447   1.964  -4.458  1.00  0.00    -0.014 A 
BRANCH  36  37
ATOM     37  C   UNL     1      -1.916   0.557  -4.807  1.00  0.00     0.031 A 
ATOM     38  C   UNL     1      -1.092  -0.405  -5.661  1.00  0.00     0.074 A 
ATOM     39  C   UNL     1      -3.033   0.039  -4.233  1.00  0.00     0.049 A 
ATOM     40  N   UNL     1      -1.268  -1.700  -5.842  1.00  0.00    -0.248 NA
ATOM     41  C   UNL     1       0.085   0.112  -6.373  1.00  0.00     0.031 C 
ATOM     42  C   UNL     1      -3.973   0.772  -3.382  1.00  0.00     0.029 A 
ATOM     43  N   UNL     1      -3.549  -1.244  -4.230  1.00  0.00    -0.354 N 
ATOM     44  C   UNL     1      -0.196  -2.142  -6.610  1.00  0.00     0.074 A 
ATOM     45  C   UNL     1       0.596  -0.979  -6.925  1.00  0.00     0.031 C 
ATOM     46  C   UNL     1      -4.848  -0.081  -2.837  1.00  0.00     0.029 A 
ATOM     47  C   UNL     1      -4.668  -1.395  -3.440  1.00  0.00     0.049 A 
ATOM     48  H   UNL     1      -3.153  -1.983  -4.746  1.00  0.00     0.167 HD
ATOM     49  C   UNL     1       0.134  -3.395  -7.008  1.00  0.00     0.037 A 
ATOM     50  C   UNL     1      -5.521  -2.426  -3.263  1.00  0.00     0.037 A 
ATOM     51  C   UNL     1      -0.690  -4.562  -6.863  1.00  0.00     0.049 A 
ATOM     52  C   UNL     1      -5.320  -3.697  -4.035  1.00  0.00     0.074 A 
ATOM     53  C   UNL     1      -0.448  -5.853  -7.305  1.00  0.00     0.029 A 
ATOM     54  N   UNL     1      -1.950  -4.566  -6.297  1.00  0.00    -0.354 N 
ATOM     55  N   UNL     1      -4.269  -4.101  -4.701  1.00  0.00    -0.248 NA
ATOM     56  C   UNL     1      -6.458  -4.629  -4.087  1.00  0.00     0.031 C 
ATOM     57  C   UNL     1      -1.606  -6.613  -7.097  1.00  0.00     0.029 A 
ATOM     58  C   UNL     1      -2.543  -5.806  -6.477  1.00  0.00     0.049 A 
ATOM     59  H   UNL     1      -2.364  -3.802  -5.835  1.00  0.00     0.167 HD
ATOM     60  C   UNL     1      -4.627  -5.316  -5.271  1.00  0.00     0.074 A 
ATOM     61  C   UNL     1      -5.974  -5.610  -4.836  1.00  0.00     0.031 C 
ATOM     62  C   UNL     1      -3.898  -6.099  -6.100  1.00  0.00     0.037 A 
BRANCH  49  63
ATOM     63  C   UNL     1       1.454  -3.579  -7.692  1.00  0.00     0.064 A 
ATOM     64  C   UNL     1       2.624  -3.783  -6.946  1.00  0.00     0.173 A 
ATOM     65  C   UNL     1       1.538  -3.634  -9.089  1.00  0.00     0.173 A 
ATOM     66  F   UNL     1       2.586  -3.736  -5.606  1.00  0.00    -0.203 F 
ATOM     67  C   UNL     1       3.836  -4.043  -7.581  1.00  0.00     0.198 A 
ATOM     68  C   UNL     1       2.750  -3.896  -9.719  1.00  0.00     0.198 A 
ATOM     69  F   UNL     1       0.441  -3.446  -9.837  1.00  0.00    -0.203 F 
ATOM     70  F   UNL     1       4.944  -4.242  -6.854  1.00  0.00    -0.200 F 
ATOM     71  C   UNL     1       3.897  -4.103  -8.966  1.00  0.00     0.200 A 
ATOM     72  F   UNL     1       2.808  -3.957 -11.057  1.00  0.00    -0.200 F 
ATOM     73  F   UNL     1       5.062  -4.362  -9.576  1.00  0.00    -0.200 F 
ENDBRANCH  49  63
BRANCH  50  74
ATOM     74  C   UNL     1      -6.752  -2.246  -2.438  1.00  0.00     0.064 A 
ATOM     75  C   UNL     1      -7.009  -3.040  -1.312  1.00  0.00     0.173 A 
ATOM     76  C   UNL     1      -7.722  -1.294  -2.795  1.00  0.00     0.173 A 
ATOM     77  F   UNL     1      -6.145  -4.002  -0.957  1.00  0.00    -0.203 F 
ATOM     78  C   UNL     1      -8.181  -2.877  -0.572  1.00  0.00     0.198 A 
ATOM     79  C   UNL     1      -8.867  -1.101  -2.029  1.00  0.00     0.198 A 
ATOM     80  F   UNL     1      -7.549  -0.534  -3.887  1.00  0.00    -0.203 F 
ATOM     81  F   UNL     1      -8.429  -3.681   0.471  1.00  0.00    -0.200 F 
ATOM     82  C   UNL     1      -9.100  -1.898  -0.921  1.00  0.00     0.200 A 
ATOM     83  F   UNL     1      -9.741  -0.144  -2.369  1.00  0.00    -0.200 F 
ATOM     84  F   UNL     1     -10.217  -1.732  -0.201  1.00  0.00    -0.200 F 
ENDBRANCH  50  74
BRANCH  62  85
ATOM     85  C   UNL     1      -4.554  -7.329  -6.651  1.00  0.00     0.064 A 
ATOM     86  C   UNL     1      -5.564  -7.231  -7.620  1.00  0.00     0.173 A 
ATOM     87  C   UNL     1      -4.164  -8.610  -6.239  1.00  0.00     0.173 A 
ATOM     88  F   UNL     1      -5.986  -6.027  -8.035  1.00  0.00    -0.203 F 
ATOM     89  C   UNL     1      -6.174  -8.370  -8.140  1.00  0.00     0.198 A 
ATOM     90  C   UNL     1      -4.756  -9.749  -6.780  1.00  0.00     0.198 A 
ATOM     91  F   UNL     1      -3.202  -8.761  -5.316  1.00  0.00    -0.203 F 
ATOM     92  F   UNL     1      -7.167  -8.248  -9.031  1.00  0.00    -0.200 F 
ATOM     93  C   UNL     1      -5.765  -9.627  -7.724  1.00  0.00     0.200 A 
ATOM     94  F   UNL     1      -4.353 -10.964  -6.385  1.00  0.00    -0.200 F 
ATOM     95  F   UNL     1      -6.349 -10.723  -8.228  1.00  0.00    -0.200 F 
ENDBRANCH  62  85
ENDBRANCH  36  37
ENDBRANCH  29  31
ENDBRANCH  28  29
ENDBRANCH  27  28
ENDBRANCH   1  27
TORSDOF 17
