REMARK SMILES C[C@H](NC(=O)N(CC(=O)OCCOC(=O)c1ccc(-c2c3nc(c(-c4c(F)c(F)c(F)c(F)c4F)c4ccc([nH]4)c(-c4c(F)c(F)c(F)c(F)c4F)c4nc(c(-c5c(F)c(F)c(F)c(F)c5F)c5ccc2[nH]5)C=C4)C=C3)cc1)CC(F)(F)F)[C@@H]1CCCO1
REMARK SMILES IDX 11 1 10 2 8 3 9 4 7 5 6 6 4 7 3 8 5 10 2 11 1 12 84 13 85 14
REMARK SMILES IDX 88 15 86 16 87 17 79 18 80 19 81 20 82 21 83 22 12 23 13 24
REMARK SMILES IDX 14 25 15 26 16 27 17 28 78 29 18 30 77 31 19 32 20 33 21 34
REMARK SMILES IDX 71 35 22 36 76 37 70 38 72 39 23 40 75 41 69 42 68 43 24 45
REMARK SMILES IDX 56 46 36 47 55 48 37 49 40 50 54 51 73 52 38 53 39 54 53 56
REMARK SMILES IDX 74 57 41 58 25 59 26 60 34 61 27 62 28 63 32 64 35 65 29 66
REMARK SMILES IDX 30 67 33 68 31 69 57 70 58 71 66 72 59 73 60 74 64 75 67 76
REMARK SMILES IDX 61 77 62 78 65 79 63 80 42 81 43 82 51 83 44 84 45 85 49 86
REMARK SMILES IDX 52 87 46 88 47 89 50 90 48 91
REMARK H PARENT 3 9 72 44 40 55
REMARK Flexibility Score: inf
ROOT
ATOM      1  C   UNL     1       1.383  -4.915  -1.960  1.00  0.00     0.274 C 
ENDROOT
BRANCH   1   2
ATOM      2  O   UNL     1       1.832  -3.648  -1.445  1.00  0.00    -0.461 OA
BRANCH   2   3
ATOM      3  C   UNL     1       1.849  -3.520  -0.097  1.00  0.00     0.325 C 
ATOM      4  O   UNL     1       1.383  -4.340   0.689  1.00  0.00    -0.250 OA
BRANCH   3   5
ATOM      5  C   UNL     1       2.710  -2.345   0.366  1.00  0.00     0.244 C 
BRANCH   5   6
ATOM      6  N   UNL     1       2.800  -1.205  -0.530  1.00  0.00    -0.305 N 
BRANCH   6   7
ATOM      7  C   UNL     1       1.843  -0.253  -0.708  1.00  0.00     0.318 C 
ATOM      8  N   UNL     1       0.674  -0.249  -0.049  1.00  0.00    -0.333 N 
ATOM      9  H   UNL     1       0.049   0.390  -0.462  1.00  0.00     0.165 HD
ATOM     10  O   UNL     1       2.014   0.670  -1.507  1.00  0.00    -0.249 OA
BRANCH   8  11
ATOM     11  C   UNL     1       0.045  -0.913   1.104  1.00  0.00     0.109 C 
ATOM     12  C   UNL     1       0.395  -0.139   2.376  1.00  0.00     0.034 C 
BRANCH  11  13
ATOM     13  C   UNL     1      -1.483  -0.994   0.910  1.00  0.00     0.140 C 
ATOM     14  C   UNL     1      -1.902  -2.008  -0.148  1.00  0.00     0.036 C 
ATOM     15  O   UNL     1      -2.012   0.282   0.490  1.00  0.00    -0.376 OA
ATOM     16  C   UNL     1      -3.201  -1.422  -0.639  1.00  0.00     0.031 C 
ATOM     17  C   UNL     1      -2.893   0.059  -0.622  1.00  0.00     0.160 C 
ENDBRANCH  11  13
ENDBRANCH   8  11
ENDBRANCH   6   7
BRANCH   6  18
ATOM     18  C   UNL     1       4.066  -1.047  -1.292  1.00  0.00     0.237 C 
BRANCH  18  19
ATOM     19  C   UNL     1       4.042  -1.304  -2.807  1.00  0.00     0.406 C 
ATOM     20  F   UNL     1       3.431  -0.330  -3.509  1.00  0.00    -0.169 F 
ATOM     21  F   UNL     1       5.320  -1.371  -3.268  1.00  0.00    -0.169 F 
ATOM     22  F   UNL     1       3.452  -2.476  -3.125  1.00  0.00    -0.169 F 
ENDBRANCH  18  19
ENDBRANCH   6  18
ENDBRANCH   5   6
ENDBRANCH   3   5
ENDBRANCH   2   3
ENDBRANCH   1   2
BRANCH   1  23
ATOM     23  C   UNL     1       2.576  -5.828  -2.252  1.00  0.00     0.275 C 
BRANCH  23  24
ATOM     24  O   UNL     1       3.287  -6.162  -1.042  1.00  0.00    -0.458 OA
BRANCH  24  25
ATOM     25  C   UNL     1       4.455  -5.510  -0.849  1.00  0.00     0.338 C 
ATOM     26  O   UNL     1       4.975  -4.670  -1.565  1.00  0.00    -0.246 OA
BRANCH  25  27
ATOM     27  C   UNL     1       5.026  -5.875   0.455  1.00  0.00     0.060 A 
ATOM     28  C   UNL     1       4.493  -5.296   1.607  1.00  0.00     0.016 A 
ATOM     29  C   UNL     1       6.181  -6.652   0.528  1.00  0.00     0.016 A 
ATOM     30  C   UNL     1       5.146  -5.431   2.824  1.00  0.00     0.010 A 
ATOM     31  C   UNL     1       6.792  -6.859   1.770  1.00  0.00     0.010 A 
ATOM     32  C   UNL     1       6.291  -6.231   2.924  1.00  0.00    -0.014 A 
BRANCH  32  33
ATOM     33  C   UNL     1       6.950  -6.392   4.243  1.00  0.00     0.031 A 
ATOM     34  C   UNL     1       8.339  -5.872   4.470  1.00  0.00     0.074 A 
ATOM     35  C   UNL     1       6.275  -6.969   5.256  1.00  0.00     0.049 A 
ATOM     36  N   UNL     1       9.118  -6.026   5.511  1.00  0.00    -0.248 NA
ATOM     37  C   UNL     1       8.935  -5.075   3.386  1.00  0.00     0.031 C 
ATOM     38  C   UNL     1       4.899  -7.465   5.181  1.00  0.00     0.029 A 
ATOM     39  N   UNL     1       6.646  -7.215   6.553  1.00  0.00    -0.354 N 
ATOM     40  C   UNL     1      10.312  -5.397   5.186  1.00  0.00     0.074 A 
ATOM     41  C   UNL     1      10.152  -4.841   3.859  1.00  0.00     0.031 C 
ATOM     42  C   UNL     1       4.526  -7.910   6.390  1.00  0.00     0.029 A 
ATOM     43  C   UNL     1       5.659  -7.805   7.302  1.00  0.00     0.049 A 
ATOM     44  H   UNL     1       7.535  -6.991   6.912  1.00  0.00     0.167 HD
ATOM     45  C   UNL     1      11.439  -5.301   5.929  1.00  0.00     0.037 A 
ATOM     46  C   UNL     1       5.673  -8.245   8.573  1.00  0.00     0.037 A 
ATOM     47  C   UNL     1      11.576  -5.804   7.270  1.00  0.00     0.049 A 
ATOM     48  C   UNL     1       6.944  -8.155   9.364  1.00  0.00     0.074 A 
ATOM     49  C   UNL     1      12.671  -5.730   8.115  1.00  0.00     0.029 A 
ATOM     50  N   UNL     1      10.576  -6.463   7.968  1.00  0.00    -0.354 N 
ATOM     51  N   UNL     1       8.092  -7.625   9.021  1.00  0.00    -0.248 NA
ATOM     52  C   UNL     1       6.933  -8.761  10.703  1.00  0.00     0.031 C 
ATOM     53  C   UNL     1      12.338  -6.365   9.318  1.00  0.00     0.029 A 
ATOM     54  C   UNL     1      11.032  -6.816   9.228  1.00  0.00     0.049 A 
ATOM     55  H   UNL     1       9.675  -6.652   7.620  1.00  0.00     0.167 HD
ATOM     56  C   UNL     1       8.946  -7.848  10.090  1.00  0.00     0.074 A 
ATOM     57  C   UNL     1       8.176  -8.536  11.107  1.00  0.00     0.031 C 
ATOM     58  C   UNL     1      10.255  -7.522  10.212  1.00  0.00     0.037 A 
BRANCH  45  59
ATOM     59  C   UNL     1      12.632  -4.661   5.289  1.00  0.00     0.064 A 
ATOM     60  C   UNL     1      12.755  -3.270   5.181  1.00  0.00     0.173 A 
ATOM     61  C   UNL     1      13.679  -5.459   4.803  1.00  0.00     0.173 A 
ATOM     62  F   UNL     1      11.771  -2.469   5.616  1.00  0.00    -0.203 F 
ATOM     63  C   UNL     1      13.882  -2.699   4.595  1.00  0.00     0.198 A 
ATOM     64  C   UNL     1      14.810  -4.884   4.233  1.00  0.00     0.198 A 
ATOM     65  F   UNL     1      13.603  -6.796   4.884  1.00  0.00    -0.203 F 
ATOM     66  F   UNL     1      13.970  -1.367   4.474  1.00  0.00    -0.200 F 
ATOM     67  C   UNL     1      14.910  -3.505   4.126  1.00  0.00     0.200 A 
ATOM     68  F   UNL     1      15.802  -5.664   3.782  1.00  0.00    -0.200 F 
ATOM     69  F   UNL     1      15.994  -2.952   3.564  1.00  0.00    -0.200 F 
ENDBRANCH  45  59
BRANCH  46  70
ATOM     70  C   UNL     1       4.450  -8.852   9.150  1.00  0.00     0.064 A 
ATOM     71  C   UNL     1       3.679  -8.155  10.088  1.00  0.00     0.173 A 
ATOM     72  C   UNL     1       4.008 -10.119   8.744  1.00  0.00     0.173 A 
ATOM     73  F   UNL     1       4.077  -6.949  10.518  1.00  0.00    -0.203 F 
ATOM     74  C   UNL     1       2.503  -8.702  10.596  1.00  0.00     0.198 A 
ATOM     75  C   UNL     1       2.822 -10.656   9.238  1.00  0.00     0.198 A 
ATOM     76  F   UNL     1       4.715 -10.822   7.847  1.00  0.00    -0.203 F 
ATOM     77  F   UNL     1       1.788  -8.024  11.503  1.00  0.00    -0.200 F 
ATOM     78  C   UNL     1       2.071  -9.948  10.164  1.00  0.00     0.200 A 
ATOM     79  F   UNL     1       2.402 -11.854   8.809  1.00  0.00    -0.200 F 
ATOM     80  F   UNL     1       0.931 -10.466  10.641  1.00  0.00    -0.200 F 
ENDBRANCH  46  70
BRANCH  58  81
ATOM     81  C   UNL     1      10.934  -7.931  11.479  1.00  0.00     0.064 A 
ATOM     82  C   UNL     1      11.377  -9.248  11.665  1.00  0.00     0.173 A 
ATOM     83  C   UNL     1      11.164  -7.002  12.503  1.00  0.00     0.173 A 
ATOM     84  F   UNL     1      11.161 -10.173  10.718  1.00  0.00    -0.203 F 
ATOM     85  C   UNL     1      12.017  -9.625  12.842  1.00  0.00     0.198 A 
ATOM     86  C   UNL     1      11.816  -7.379  13.673  1.00  0.00     0.198 A 
ATOM     87  F   UNL     1      10.754  -5.732  12.367  1.00  0.00    -0.203 F 
ATOM     88  F   UNL     1      12.406 -10.895  13.015  1.00  0.00    -0.200 F 
ATOM     89  C   UNL     1      12.239  -8.690  13.843  1.00  0.00     0.200 A 
ATOM     90  F   UNL     1      12.030  -6.476  14.639  1.00  0.00    -0.200 F 
ATOM     91  F   UNL     1      12.852  -9.054  14.977  1.00  0.00    -0.200 F 
ENDBRANCH  58  81
ENDBRANCH  32  33
ENDBRANCH  25  27
ENDBRANCH  24  25
ENDBRANCH  23  24
ENDBRANCH   1  23
TORSDOF 17
