REMARK SMILES O=C(Cc1ccc(F)c(F)c1)NC1(C(=O)OCCOC(=O)c2ccc(-c3c4nc(c(-c5c(F)c(F)c(F)c(F)c5F)c5ccc([nH]5)c(-c5c(F)c(F)c(F)c(F)c5F)c5nc(c(-c6c(F)c(F)c(F)c(F)c6F)c6ccc3[nH]6)C=C5)C=C4)cc2)CCCC1
REMARK SMILES IDX 17 1 16 2 14 3 15 4 13 5 85 6 88 7 86 8 87 9 12 10 1 11 2 12
REMARK SMILES IDX 3 14 4 15 5 16 11 17 6 18 9 19 7 20 10 21 8 22 18 23 19 24
REMARK SMILES IDX 20 25 21 26 22 27 23 28 84 29 24 30 83 31 25 32 26 33 27 34
REMARK SMILES IDX 77 35 28 36 82 37 76 38 78 39 29 40 81 41 75 42 74 43 30 45
REMARK SMILES IDX 62 46 42 47 61 48 43 49 46 50 60 51 79 52 44 53 45 54 59 56
REMARK SMILES IDX 80 57 47 58 31 59 32 60 40 61 33 62 34 63 38 64 41 65 35 66
REMARK SMILES IDX 36 67 39 68 37 69 63 70 64 71 72 72 65 73 66 74 70 75 73 76
REMARK SMILES IDX 67 77 68 78 71 79 69 80 48 81 49 82 57 83 50 84 51 85 55 86
REMARK SMILES IDX 58 87 52 88 53 89 56 90 54 91
REMARK H PARENT 12 13 78 44 46 55
REMARK Flexibility Score: inf
ROOT
ATOM      1  C   UNL     1      -1.393  -2.129  -1.921  1.00  0.00     0.274 C 
ENDROOT
BRANCH   1   2
ATOM      2  O   UNL     1       0.015  -2.418  -2.059  1.00  0.00    -0.460 OA
BRANCH   2   3
ATOM      3  C   UNL     1       0.866  -1.347  -2.070  1.00  0.00     0.331 C 
ATOM      4  O   UNL     1       0.479  -0.197  -1.917  1.00  0.00    -0.249 OA
BRANCH   3   5
ATOM      5  C   UNL     1       2.350  -1.768  -2.389  1.00  0.00     0.138 C 
ATOM      6  C   UNL     1       2.640  -1.534  -3.876  1.00  0.00     0.040 C 
ATOM      7  C   UNL     1       2.545  -3.300  -2.245  1.00  0.00     0.040 C 
ATOM      8  C   UNL     1       2.070  -2.760  -4.580  1.00  0.00     0.003 C 
ATOM      9  C   UNL     1       2.228  -3.918  -3.602  1.00  0.00     0.003 C 
BRANCH   5  10
ATOM     10  N   UNL     1       3.394  -1.142  -1.542  1.00  0.00    -0.340 N 
ATOM     11  O   UNL     1       2.841   1.077  -1.679  1.00  0.00    -0.275 OA
ATOM     12  C   UNL     1       3.562   0.186  -1.247  1.00  0.00     0.225 C 
ATOM     13  H   UNL     1       4.048  -1.758  -1.140  1.00  0.00     0.164 HD
BRANCH  12  14
ATOM     14  C   UNL     1       4.797   0.514  -0.412  1.00  0.00     0.135 C 
BRANCH  14  15
ATOM     15  C   UNL     1       5.089  -0.246   0.878  1.00  0.00    -0.036 A 
ATOM     16  C   UNL     1       4.596  -1.521   1.206  1.00  0.00     0.007 A 
ATOM     17  C   UNL     1       5.969   0.364   1.797  1.00  0.00     0.046 A 
ATOM     18  C   UNL     1       4.986  -2.173   2.382  1.00  0.00     0.043 A 
ATOM     19  C   UNL     1       6.345  -0.286   2.973  1.00  0.00     0.159 A 
ATOM     20  C   UNL     1       5.866  -1.554   3.256  1.00  0.00     0.158 A 
ATOM     21  F   UNL     1       7.185   0.323   3.820  1.00  0.00    -0.204 F 
ATOM     22  F   UNL     1       6.235  -2.194   4.373  1.00  0.00    -0.204 F 
ENDBRANCH  14  15
ENDBRANCH  12  14
ENDBRANCH   5  10
ENDBRANCH   3   5
ENDBRANCH   2   3
ENDBRANCH   1   2
BRANCH   1  23
ATOM     23  C   UNL     1      -1.885  -2.452  -0.512  1.00  0.00     0.275 C 
BRANCH  23  24
ATOM     24  O   UNL     1      -1.315  -1.521   0.423  1.00  0.00    -0.458 OA
BRANCH  24  25
ATOM     25  C   UNL     1      -0.540  -2.055   1.388  1.00  0.00     0.338 C 
ATOM     26  O   UNL     1      -0.318  -3.236   1.609  1.00  0.00    -0.246 OA
BRANCH  25  27
ATOM     27  C   UNL     1       0.119  -0.978   2.138  1.00  0.00     0.060 A 
ATOM     28  C   UNL     1       1.163  -0.297   1.522  1.00  0.00     0.016 A 
ATOM     29  C   UNL     1      -0.162  -0.765   3.488  1.00  0.00     0.016 A 
ATOM     30  C   UNL     1       1.994   0.519   2.281  1.00  0.00     0.010 A 
ATOM     31  C   UNL     1       0.651   0.100   4.236  1.00  0.00     0.010 A 
ATOM     32  C   UNL     1       1.784   0.695   3.655  1.00  0.00    -0.014 A 
BRANCH  32  33
ATOM     33  C   UNL     1       2.842   1.361   4.474  1.00  0.00     0.031 A 
ATOM     34  C   UNL     1       3.568   0.577   5.543  1.00  0.00     0.074 A 
ATOM     35  C   UNL     1       3.277   2.604   4.180  1.00  0.00     0.049 A 
ATOM     36  N   UNL     1       4.471   0.984   6.402  1.00  0.00    -0.248 NA
ATOM     37  C   UNL     1       3.252  -0.857   5.649  1.00  0.00     0.031 C 
ATOM     38  C   UNL     1       2.768   3.447   3.099  1.00  0.00     0.029 A 
ATOM     39  N   UNL     1       4.285   3.357   4.738  1.00  0.00    -0.354 N 
ATOM     40  C   UNL     1       4.810  -0.133   7.157  1.00  0.00     0.074 A 
ATOM     41  C   UNL     1       4.009  -1.233   6.670  1.00  0.00     0.031 C 
ATOM     42  C   UNL     1       3.507   4.565   3.027  1.00  0.00     0.029 A 
ATOM     43  C   UNL     1       4.482   4.566   4.115  1.00  0.00     0.049 A 
ATOM     44  H   UNL     1       4.814   3.058   5.513  1.00  0.00     0.167 HD
ATOM     45  C   UNL     1       5.710  -0.239   8.162  1.00  0.00     0.037 A 
ATOM     46  C   UNL     1       5.327   5.577   4.401  1.00  0.00     0.037 A 
ATOM     47  C   UNL     1       6.544   0.831   8.636  1.00  0.00     0.049 A 
ATOM     48  C   UNL     1       6.220   5.482   5.608  1.00  0.00     0.074 A 
ATOM     49  C   UNL     1       7.430   0.828   9.700  1.00  0.00     0.029 A 
ATOM     50  N   UNL     1       6.616   2.086   8.057  1.00  0.00    -0.354 N 
ATOM     51  N   UNL     1       6.435   4.462   6.400  1.00  0.00    -0.248 NA
ATOM     52  C   UNL     1       6.956   6.699   5.987  1.00  0.00     0.031 C 
ATOM     53  C   UNL     1       8.016   2.094   9.784  1.00  0.00     0.029 A 
ATOM     54  C   UNL     1       7.514   2.875   8.757  1.00  0.00     0.049 A 
ATOM     55  H   UNL     1       6.105   2.374   7.266  1.00  0.00     0.167 HD
ATOM     56  C   UNL     1       7.321   4.912   7.369  1.00  0.00     0.074 A 
ATOM     57  C   UNL     1       7.631   6.289   7.052  1.00  0.00     0.031 C 
ATOM     58  C   UNL     1       7.817   4.244   8.437  1.00  0.00     0.037 A 
BRANCH  45  59
ATOM     59  C   UNL     1       5.821  -1.560   8.859  1.00  0.00     0.064 A 
ATOM     60  C   UNL     1       5.240  -1.739  10.123  1.00  0.00     0.173 A 
ATOM     61  C   UNL     1       6.558  -2.620   8.313  1.00  0.00     0.173 A 
ATOM     62  F   UNL     1       4.533  -0.749  10.688  1.00  0.00    -0.203 F 
ATOM     63  C   UNL     1       5.404  -2.930  10.823  1.00  0.00     0.198 A 
ATOM     64  C   UNL     1       6.703  -3.818   9.008  1.00  0.00     0.198 A 
ATOM     65  F   UNL     1       7.127  -2.497   7.106  1.00  0.00    -0.203 F 
ATOM     66  F   UNL     1       4.863  -3.071  12.041  1.00  0.00    -0.200 F 
ATOM     67  C   UNL     1       6.134  -3.969  10.264  1.00  0.00     0.200 A 
ATOM     68  F   UNL     1       7.395  -4.829   8.463  1.00  0.00    -0.200 F 
ATOM     69  F   UNL     1       6.287  -5.118  10.938  1.00  0.00    -0.200 F 
ENDBRANCH  45  59
BRANCH  46  70
ATOM     70  C   UNL     1       5.335   6.802   3.559  1.00  0.00     0.064 A 
ATOM     71  C   UNL     1       4.237   7.675   3.526  1.00  0.00     0.173 A 
ATOM     72  C   UNL     1       6.455   7.133   2.783  1.00  0.00     0.173 A 
ATOM     73  F   UNL     1       3.148   7.412   4.263  1.00  0.00    -0.203 F 
ATOM     74  C   UNL     1       4.248   8.817   2.730  1.00  0.00     0.198 A 
ATOM     75  C   UNL     1       6.476   8.292   2.009  1.00  0.00     0.198 A 
ATOM     76  F   UNL     1       7.542   6.348   2.807  1.00  0.00    -0.203 F 
ATOM     77  F   UNL     1       3.174   9.617   2.697  1.00  0.00    -0.200 F 
ATOM     78  C   UNL     1       5.369   9.128   1.977  1.00  0.00     0.200 A 
ATOM     79  F   UNL     1       7.573   8.606   1.308  1.00  0.00    -0.200 F 
ATOM     80  F   UNL     1       5.388  10.239   1.228  1.00  0.00    -0.200 F 
ENDBRANCH  46  70
BRANCH  58  81
ATOM     81  C   UNL     1       8.734   4.983   9.363  1.00  0.00     0.064 A 
ATOM     82  C   UNL     1      10.108   4.701   9.391  1.00  0.00     0.173 A 
ATOM     83  C   UNL     1       8.230   5.904  10.292  1.00  0.00     0.173 A 
ATOM     84  F   UNL     1      10.635   3.821   8.527  1.00  0.00    -0.203 F 
ATOM     85  C   UNL     1      10.941   5.304  10.329  1.00  0.00     0.198 A 
ATOM     86  C   UNL     1       9.070   6.520  11.215  1.00  0.00     0.198 A 
ATOM     87  F   UNL     1       6.925   6.214  10.295  1.00  0.00    -0.203 F 
ATOM     88  F   UNL     1      12.246   4.997  10.360  1.00  0.00    -0.200 F 
ATOM     89  C   UNL     1      10.422   6.212  11.240  1.00  0.00     0.200 A 
ATOM     90  F   UNL     1       8.570   7.410  12.084  1.00  0.00    -0.200 F 
ATOM     91  F   UNL     1      11.225   6.790  12.143  1.00  0.00    -0.200 F 
ENDBRANCH  58  81
ENDBRANCH  32  33
ENDBRANCH  25  27
ENDBRANCH  24  25
ENDBRANCH  23  24
ENDBRANCH   1  23
TORSDOF 14
