REMARK SMILES C[C@@H]1CCCC[C@H]1NC(=O)C[N@@H+]1CCO[C@H](CC(=O)OCCOC(=O)c2ccc(-c3c4nc(c(-c5c(F)c(F)c(F)c(F)c5F)c5ccc([nH]5)c(-c5c(F)c(F)c(F)c(F)c5F)c5nc(c(-c6c(F)c(F)c(F)c(F)c6F)c6ccc3[nH]6)C=C5)C=C4)cc2)C1
REMARK SMILES IDX 21 1 20 2 18 3 19 4 17 5 16 6 12 7 13 8 89 9 14 11 15 12
REMARK SMILES IDX 11 13 9 14 8 15 10 17 7 18 1 19 2 20 3 21 4 22 6 23 5 24
REMARK SMILES IDX 22 25 23 26 24 27 25 28 26 29 27 30 88 31 28 32 87 33 29 34
REMARK SMILES IDX 30 35 31 36 81 37 32 38 86 39 80 40 82 41 33 42 85 43 79 44
REMARK SMILES IDX 78 45 34 47 66 48 46 49 65 50 47 51 50 52 64 53 83 54 48 55
REMARK SMILES IDX 49 56 63 58 84 59 51 60 35 61 36 62 44 63 37 64 38 65 42 66
REMARK SMILES IDX 45 67 39 68 40 69 43 70 41 71 67 72 68 73 76 74 69 75 70 76
REMARK SMILES IDX 74 77 77 78 71 79 72 80 75 81 73 82 52 83 53 84 61 85 54 86
REMARK SMILES IDX 55 87 59 88 62 89 56 90 57 91 60 92 58 93
REMARK H PARENT 12 10 8 16 82 46 50 57
REMARK Flexibility Score: inf
ROOT
ATOM      1  C   UNL     1      -0.223  -2.883  -3.513  1.00  0.00     0.274 C 
ENDROOT
BRANCH   1   2
ATOM      2  O   UNL     1       0.948  -3.473  -2.893  1.00  0.00    -0.462 OA
BRANCH   2   3
ATOM      3  C   UNL     1       1.645  -4.372  -3.625  1.00  0.00     0.308 C 
ATOM      4  O   UNL     1       1.327  -4.719  -4.760  1.00  0.00    -0.252 OA
BRANCH   3   5
ATOM      5  C   UNL     1       2.755  -5.081  -2.870  1.00  0.00     0.160 C 
BRANCH   5   6
ATOM      6  C   UNL     1       3.924  -4.324  -2.216  1.00  0.00     0.184 C 
ATOM      7  N   UNL     1       3.501  -3.251   0.059  1.00  0.00    -0.323 N 
ATOM      8  C   UNL     1       4.312  -2.106  -0.370  1.00  0.00     0.291 C 
ATOM      9  C   UNL     1       3.949  -4.435  -0.672  1.00  0.00     0.295 C 
ATOM     10  H   UNL     1       3.670  -3.352   1.060  1.00  0.00     0.348 HD
ATOM     11  C   UNL     1       4.701  -2.060  -1.871  1.00  0.00     0.222 C 
ATOM     12  O   UNL     1       4.023  -2.999  -2.719  1.00  0.00    -0.366 OA
BRANCH   7  13
ATOM     13  C   UNL     1       2.034  -3.088   0.047  1.00  0.00     0.363 C 
BRANCH  13  14
ATOM     14  C   UNL     1       1.453  -1.871  -0.672  1.00  0.00     0.275 C 
ATOM     15  N   UNL     1       0.168  -1.502  -0.376  1.00  0.00    -0.348 N 
ATOM     16  H   UNL     1      -0.527  -1.555  -1.071  1.00  0.00     0.163 HD
ATOM     17  O   UNL     1       2.013  -1.190  -1.521  1.00  0.00    -0.268 OA
BRANCH  15  18
ATOM     18  C   UNL     1      -0.180  -1.033   0.956  1.00  0.00     0.085 C 
ATOM     19  C   UNL     1       0.738   0.551   2.727  1.00  0.00     0.010 C 
ATOM     20  C   UNL     1       0.623   0.264   1.234  1.00  0.00     0.008 C 
ATOM     21  C   UNL     1       0.068   1.463   0.443  1.00  0.00     0.005 C 
ATOM     22  C   UNL     1      -1.444   1.627   0.571  1.00  0.00     0.000 C 
ATOM     23  C   UNL     1      -1.697  -0.836   1.052  1.00  0.00     0.025 C 
ATOM     24  C   UNL     1      -2.191   0.346   0.218  1.00  0.00     0.002 C 
ENDBRANCH  15  18
ENDBRANCH  13  14
ENDBRANCH   7  13
ENDBRANCH   5   6
ENDBRANCH   3   5
ENDBRANCH   2   3
ENDBRANCH   1   2
BRANCH   1  25
ATOM     25  C   UNL     1       0.046  -1.506  -4.123  1.00  0.00     0.275 C 
BRANCH  25  26
ATOM     26  O   UNL     1       0.929  -1.661  -5.237  1.00  0.00    -0.458 OA
BRANCH  26  27
ATOM     27  C   UNL     1       2.206  -1.284  -5.009  1.00  0.00     0.338 C 
ATOM     28  O   UNL     1       2.671  -0.634  -4.098  1.00  0.00    -0.246 OA
BRANCH  27  29
ATOM     29  C   UNL     1       2.997  -1.703  -6.153  1.00  0.00     0.060 A 
ATOM     30  C   UNL     1       3.600  -2.962  -6.175  1.00  0.00     0.016 A 
ATOM     31  C   UNL     1       3.143  -0.791  -7.194  1.00  0.00     0.016 A 
ATOM     32  C   UNL     1       4.320  -3.347  -7.290  1.00  0.00     0.010 A 
ATOM     33  C   UNL     1       3.856  -1.175  -8.313  1.00  0.00     0.010 A 
ATOM     34  C   UNL     1       4.414  -2.462  -8.368  1.00  0.00    -0.014 A 
BRANCH  34  35
ATOM     35  C   UNL     1       5.031  -2.905  -9.620  1.00  0.00     0.031 A 
ATOM     36  C   UNL     1       6.376  -2.389  -9.986  1.00  0.00     0.074 A 
ATOM     37  C   UNL     1       4.298  -3.704 -10.412  1.00  0.00     0.049 A 
ATOM     38  N   UNL     1       7.019  -2.503 -11.114  1.00  0.00    -0.248 NA
ATOM     39  C   UNL     1       7.089  -1.624  -8.950  1.00  0.00     0.031 C 
ATOM     40  C   UNL     1       2.976  -4.242 -10.069  1.00  0.00     0.029 A 
ATOM     41  N   UNL     1       4.539  -4.185 -11.666  1.00  0.00    -0.354 N 
ATOM     42  C   UNL     1       8.206  -1.810 -10.935  1.00  0.00     0.074 A 
ATOM     43  C   UNL     1       8.187  -1.258  -9.598  1.00  0.00     0.031 C 
ATOM     44  C   UNL     1       2.522  -4.978 -11.094  1.00  0.00     0.029 A 
ATOM     45  C   UNL     1       3.491  -4.909 -12.178  1.00  0.00     0.049 A 
ATOM     46  H   UNL     1       5.379  -4.029 -12.154  1.00  0.00     0.167 HD
ATOM     47  C   UNL     1       9.208  -1.658 -11.829  1.00  0.00     0.037 A 
ATOM     48  C   UNL     1       3.332  -5.420 -13.410  1.00  0.00     0.037 A 
ATOM     49  C   UNL     1       9.157  -2.217 -13.155  1.00  0.00     0.049 A 
ATOM     50  C   UNL     1       4.445  -5.197 -14.394  1.00  0.00     0.074 A 
ATOM     51  C   UNL     1      10.092  -2.138 -14.169  1.00  0.00     0.029 A 
ATOM     52  N   UNL     1       8.089  -2.963 -13.648  1.00  0.00    -0.354 N 
ATOM     53  N   UNL     1       5.574  -4.546 -14.229  1.00  0.00    -0.248 NA
ATOM     54  C   UNL     1       4.268  -5.769 -15.731  1.00  0.00     0.031 C 
ATOM     55  C   UNL     1       9.570  -2.797 -15.289  1.00  0.00     0.029 A 
ATOM     56  C   UNL     1       8.335  -3.338 -14.957  1.00  0.00     0.049 A 
ATOM     57  H   UNL     1       7.278  -3.190 -13.140  1.00  0.00     0.167 HD
ATOM     58  C   UNL     1       6.255  -4.649 -15.429  1.00  0.00     0.074 A 
ATOM     59  C   UNL     1       5.415  -5.444 -16.308  1.00  0.00     0.031 C 
ATOM     60  C   UNL     1       7.461  -4.137 -15.783  1.00  0.00     0.037 A 
BRANCH  47  61
ATOM     61  C   UNL     1      10.392  -0.837 -11.409  1.00  0.00     0.064 A 
ATOM     62  C   UNL     1      11.281  -1.276 -10.415  1.00  0.00     0.173 A 
ATOM     63  C   UNL     1      10.637   0.413 -11.997  1.00  0.00     0.173 A 
ATOM     64  F   UNL     1      11.084  -2.454  -9.805  1.00  0.00    -0.203 F 
ATOM     65  C   UNL     1      12.349  -0.481 -10.004  1.00  0.00     0.198 A 
ATOM     66  C   UNL     1      11.723   1.192 -11.605  1.00  0.00     0.198 A 
ATOM     67  F   UNL     1       9.818   0.885 -12.949  1.00  0.00    -0.203 F 
ATOM     68  F   UNL     1      13.150  -0.897  -9.013  1.00  0.00    -0.200 F 
ATOM     69  C   UNL     1      12.573   0.749 -10.603  1.00  0.00     0.200 A 
ATOM     70  F   UNL     1      11.941   2.378 -12.190  1.00  0.00    -0.200 F 
ATOM     71  F   UNL     1      13.600   1.513 -10.206  1.00  0.00    -0.200 F 
ENDBRANCH  47  61
BRANCH  48  72
ATOM     72  C   UNL     1       2.098  -6.170 -13.757  1.00  0.00     0.064 A 
ATOM     73  C   UNL     1       2.143  -7.545 -14.020  1.00  0.00     0.173 A 
ATOM     74  C   UNL     1       0.844  -5.540 -13.809  1.00  0.00     0.173 A 
ATOM     75  F   UNL     1       3.316  -8.194 -13.992  1.00  0.00    -0.203 F 
ATOM     76  C   UNL     1       0.988  -8.257 -14.342  1.00  0.00     0.198 A 
ATOM     77  C   UNL     1      -0.314  -6.258 -14.100  1.00  0.00     0.198 A 
ATOM     78  F   UNL     1       0.739  -4.227 -13.554  1.00  0.00    -0.203 F 
ATOM     79  F   UNL     1       1.068  -9.563 -14.631  1.00  0.00    -0.200 F 
ATOM     80  C   UNL     1      -0.240  -7.614 -14.376  1.00  0.00     0.200 A 
ATOM     81  F   UNL     1      -1.502  -5.636 -14.112  1.00  0.00    -0.200 F 
ATOM     82  F   UNL     1      -1.350  -8.301 -14.680  1.00  0.00    -0.200 F 
ENDBRANCH  48  72
BRANCH  60  83
ATOM     83  C   UNL     1       7.941  -4.463 -17.164  1.00  0.00     0.064 A 
ATOM     84  C   UNL     1       7.365  -3.877 -18.300  1.00  0.00     0.173 A 
ATOM     85  C   UNL     1       9.016  -5.346 -17.344  1.00  0.00     0.173 A 
ATOM     86  F   UNL     1       6.322  -3.042 -18.175  1.00  0.00    -0.203 F 
ATOM     87  C   UNL     1       7.833  -4.185 -19.572  1.00  0.00     0.198 A 
ATOM     88  C   UNL     1       9.503  -5.623 -18.615  1.00  0.00     0.198 A 
ATOM     89  F   UNL     1       9.600  -5.926 -16.285  1.00  0.00    -0.203 F 
ATOM     90  F   UNL     1       7.236  -3.656 -20.649  1.00  0.00    -0.200 F 
ATOM     91  C   UNL     1       8.907  -5.050 -19.728  1.00  0.00     0.200 A 
ATOM     92  F   UNL     1      10.550  -6.447 -18.764  1.00  0.00    -0.200 F 
ATOM     93  F   UNL     1       9.363  -5.337 -20.955  1.00  0.00    -0.200 F 
ENDBRANCH  60  83
ENDBRANCH  34  35
ENDBRANCH  27  29
ENDBRANCH  26  27
ENDBRANCH  25  26
ENDBRANCH   1  25
TORSDOF 15
