REMARK SMILES C/C=C/C=C/C(=O)N[C@@](C)(C(=O)OCCOC(=O)c1ccc(-c2c3nc(c(-c4c(F)c(F)c(F)c(F)c4F)c4ccc([nH]4)c(-c4c(F)c(F)c(F)c(F)c4F)c4nc(c(-c5c(F)c(F)c(F)c(F)c5F)c5ccc2[nH]5)C=C4)C=C3)cc1)C(F)(F)F
REMARK SMILES IDX 14 1 13 2 11 3 12 4 9 5 10 6 8 7 6 8 7 9 5 11 4 12 3 13 1 14
REMARK SMILES IDX 2 15 82 16 83 17 84 18 85 19 15 20 16 21 17 22 18 23 19 24
REMARK SMILES IDX 20 25 81 26 21 27 80 28 22 29 23 30 24 31 74 32 25 33 79 34
REMARK SMILES IDX 73 35 75 36 26 37 78 38 72 39 71 40 27 42 59 43 39 44 58 45
REMARK SMILES IDX 40 46 43 47 57 48 76 49 41 50 42 51 56 53 77 54 44 55 28 56
REMARK SMILES IDX 29 57 37 58 30 59 31 60 35 61 38 62 32 63 33 64 36 65 34 66
REMARK SMILES IDX 60 67 61 68 69 69 62 70 63 71 67 72 70 73 64 74 65 75 68 76
REMARK SMILES IDX 66 77 45 78 46 79 54 80 47 81 48 82 52 83 55 84 49 85 50 86
REMARK SMILES IDX 53 87 51 88
REMARK H PARENT 8 10 75 41 43 52
REMARK Flexibility Score: inf
ROOT
ATOM      1  C   UNL     1      -2.923  -5.410   5.393  1.00  0.00     0.274 C 
ENDROOT
BRANCH   1   2
ATOM      2  O   UNL     1      -2.250  -4.147   5.590  1.00  0.00    -0.460 OA
BRANCH   2   3
ATOM      3  C   UNL     1      -1.052  -4.004   4.944  1.00  0.00     0.341 C 
ATOM      4  O   UNL     1      -0.598  -4.842   4.175  1.00  0.00    -0.249 OA
BRANCH   3   5
ATOM      5  C   UNL     1      -0.265  -2.800   5.468  1.00  0.00     0.231 C 
ATOM      6  C   UNL     1       0.426  -3.289   6.764  1.00  0.00     0.058 C 
BRANCH   5   7
ATOM      7  N   UNL     1      -1.153  -1.665   5.907  1.00  0.00    -0.329 N 
ATOM      8  C   UNL     1      -1.767  -0.608   5.329  1.00  0.00     0.245 C 
ATOM      9  O   UNL     1      -2.584   0.024   5.997  1.00  0.00    -0.270 OA
ATOM     10  H   UNL     1      -1.336  -1.704   6.874  1.00  0.00     0.165 HD
BRANCH   8  11
ATOM     11  C   UNL     1      -1.549  -0.211   3.933  1.00  0.00     0.071 C 
ATOM     12  C   UNL     1      -0.396   0.316   3.500  1.00  0.00     0.005 C 
BRANCH  12  13
ATOM     13  C   UNL     1      -0.222   0.783   2.143  1.00  0.00    -0.004 C 
ATOM     14  C   UNL     1       1.107   0.976   0.028  1.00  0.00     0.035 C 
ATOM     15  C   UNL     1       0.893   0.535   1.440  1.00  0.00    -0.030 C 
ENDBRANCH  12  13
ENDBRANCH   8  11
ENDBRANCH   5   7
BRANCH   5  16
ATOM     16  C   UNL     1       0.852  -2.525   4.449  1.00  0.00     0.422 C 
ATOM     17  F   UNL     1       0.392  -2.295   3.204  1.00  0.00    -0.168 F 
ATOM     18  F   UNL     1       1.588  -1.448   4.822  1.00  0.00    -0.168 F 
ATOM     19  F   UNL     1       1.731  -3.553   4.358  1.00  0.00    -0.168 F 
ENDBRANCH   5  16
ENDBRANCH   3   5
ENDBRANCH   2   3
ENDBRANCH   1   2
BRANCH   1  20
ATOM     20  C   UNL     1      -4.133  -5.266   4.478  1.00  0.00     0.275 C 
BRANCH  20  21
ATOM     21  O   UNL     1      -3.733  -4.709   3.216  1.00  0.00    -0.458 OA
BRANCH  21  22
ATOM     22  C   UNL     1      -4.153  -3.446   2.992  1.00  0.00     0.338 C 
ATOM     23  O   UNL     1      -4.853  -2.748   3.710  1.00  0.00    -0.246 OA
BRANCH  22  24
ATOM     24  C   UNL     1      -3.624  -2.969   1.711  1.00  0.00     0.060 A 
ATOM     25  C   UNL     1      -2.253  -2.769   1.565  1.00  0.00     0.016 A 
ATOM     26  C   UNL     1      -4.506  -2.580   0.706  1.00  0.00     0.016 A 
ATOM     27  C   UNL     1      -1.765  -2.101   0.444  1.00  0.00     0.010 A 
ATOM     28  C   UNL     1      -4.004  -1.989  -0.456  1.00  0.00     0.010 A 
ATOM     29  C   UNL     1      -2.631  -1.708  -0.585  1.00  0.00    -0.014 A 
BRANCH  29  30
ATOM     30  C   UNL     1      -2.136  -0.961  -1.774  1.00  0.00     0.031 A 
ATOM     31  C   UNL     1      -2.715   0.389  -2.102  1.00  0.00     0.074 A 
ATOM     32  C   UNL     1      -1.184  -1.477  -2.576  1.00  0.00     0.049 A 
ATOM     33  N   UNL     1      -2.652   1.073  -3.217  1.00  0.00    -0.248 NA
ATOM     34  C   UNL     1      -3.479   1.053  -1.034  1.00  0.00     0.031 C 
ATOM     35  C   UNL     1      -0.469  -2.732  -2.350  1.00  0.00     0.029 A 
ATOM     36  N   UNL     1      -0.656  -1.001  -3.753  1.00  0.00    -0.354 N 
ATOM     37  C   UNL     1      -3.431   2.204  -3.012  1.00  0.00     0.074 A 
ATOM     38  C   UNL     1      -3.937   2.130  -1.658  1.00  0.00     0.031 C 
ATOM     39  C   UNL     1       0.425  -2.912  -3.334  1.00  0.00     0.029 A 
ATOM     40  C   UNL     1       0.275  -1.841  -4.313  1.00  0.00     0.049 A 
ATOM     41  H   UNL     1      -0.920  -0.142  -4.155  1.00  0.00     0.167 HD
ATOM     42  C   UNL     1      -3.708   3.203  -3.884  1.00  0.00     0.037 A 
ATOM     43  C   UNL     1       0.897  -1.789  -5.507  1.00  0.00     0.037 A 
ATOM     44  C   UNL     1      -3.148   3.307  -5.206  1.00  0.00     0.049 A 
ATOM     45  C   UNL     1       0.554  -0.688  -6.471  1.00  0.00     0.074 A 
ATOM     46  C   UNL     1      -3.370   4.278  -6.167  1.00  0.00     0.029 A 
ATOM     47  N   UNL     1      -2.229   2.417  -5.743  1.00  0.00    -0.354 N 
ATOM     48  N   UNL     1      -0.270   0.319  -6.317  1.00  0.00    -0.248 NA
ATOM     49  C   UNL     1       1.202  -0.738  -7.790  1.00  0.00     0.031 C 
ATOM     50  C   UNL     1      -2.603   3.965  -7.294  1.00  0.00     0.029 A 
ATOM     51  C   UNL     1      -1.877   2.817  -7.022  1.00  0.00     0.049 A 
ATOM     52  H   UNL     1      -1.880   1.620  -5.284  1.00  0.00     0.167 HD
ATOM     53  C   UNL     1      -0.237   1.024  -7.512  1.00  0.00     0.074 A 
ATOM     54  C   UNL     1       0.703   0.342  -8.377  1.00  0.00     0.031 C 
ATOM     55  C   UNL     1      -0.934   2.131  -7.865  1.00  0.00     0.037 A 
BRANCH  42  56
ATOM     56  C   UNL     1      -4.696   4.247  -3.457  1.00  0.00     0.064 A 
ATOM     57  C   UNL     1      -4.367   5.250  -2.536  1.00  0.00     0.173 A 
ATOM     58  C   UNL     1      -5.982   4.266  -4.020  1.00  0.00     0.173 A 
ATOM     59  F   UNL     1      -3.156   5.266  -1.960  1.00  0.00    -0.203 F 
ATOM     60  C   UNL     1      -5.296   6.226  -2.181  1.00  0.00     0.198 A 
ATOM     61  C   UNL     1      -6.899   5.257  -3.682  1.00  0.00     0.198 A 
ATOM     62  F   UNL     1      -6.344   3.330  -4.911  1.00  0.00    -0.203 F 
ATOM     63  F   UNL     1      -4.973   7.157  -1.273  1.00  0.00    -0.200 F 
ATOM     64  C   UNL     1      -6.558   6.233  -2.760  1.00  0.00     0.200 A 
ATOM     65  F   UNL     1      -8.113   5.268  -4.251  1.00  0.00    -0.200 F 
ATOM     66  F   UNL     1      -7.446   7.179  -2.424  1.00  0.00    -0.200 F 
ENDBRANCH  42  56
BRANCH  43  67
ATOM     67  C   UNL     1       1.870  -2.848  -5.877  1.00  0.00     0.064 A 
ATOM     68  C   UNL     1       3.238  -2.562  -5.975  1.00  0.00     0.173 A 
ATOM     69  C   UNL     1       1.458  -4.166  -6.124  1.00  0.00     0.173 A 
ATOM     70  F   UNL     1       3.676  -1.310  -5.777  1.00  0.00    -0.203 F 
ATOM     71  C   UNL     1       4.157  -3.554  -6.309  1.00  0.00     0.198 A 
ATOM     72  C   UNL     1       2.381  -5.163  -6.429  1.00  0.00     0.198 A 
ATOM     73  F   UNL     1       0.159  -4.489  -6.048  1.00  0.00    -0.203 F 
ATOM     74  F   UNL     1       5.456  -3.248  -6.430  1.00  0.00    -0.200 F 
ATOM     75  C   UNL     1       3.729  -4.856  -6.526  1.00  0.00     0.200 A 
ATOM     76  F   UNL     1       1.964  -6.421  -6.625  1.00  0.00    -0.200 F 
ATOM     77  F   UNL     1       4.615  -5.812  -6.834  1.00  0.00    -0.200 F 
ENDBRANCH  43  67
BRANCH  55  78
ATOM     78  C   UNL     1      -0.686   2.690  -9.232  1.00  0.00     0.064 A 
ATOM     79  C   UNL     1      -1.235   2.093 -10.376  1.00  0.00     0.173 A 
ATOM     80  C   UNL     1       0.068   3.861  -9.395  1.00  0.00     0.173 A 
ATOM     81  F   UNL     1      -1.950   0.963 -10.270  1.00  0.00    -0.203 F 
ATOM     82  C   UNL     1      -1.025   2.642 -11.638  1.00  0.00     0.198 A 
ATOM     83  C   UNL     1       0.259   4.418 -10.656  1.00  0.00     0.198 A 
ATOM     84  F   UNL     1       0.610   4.470  -8.329  1.00  0.00    -0.203 F 
ATOM     85  F   UNL     1      -1.531   2.039 -12.722  1.00  0.00    -0.200 F 
ATOM     86  C   UNL     1      -0.284   3.807 -11.776  1.00  0.00     0.200 A 
ATOM     87  F   UNL     1       0.969   5.548 -10.787  1.00  0.00    -0.200 F 
ATOM     88  F   UNL     1      -0.087   4.337 -12.991  1.00  0.00    -0.200 F 
ENDBRANCH  55  78
ENDBRANCH  29  30
ENDBRANCH  22  24
ENDBRANCH  21  22
ENDBRANCH  20  21
ENDBRANCH   1  20
TORSDOF 15
