REMARK SMILES C=CCN1C(=O)/C(=C/c2ccc(-c3ccc(Cl)c(C(=O)OCCOC(=O)c4ccc(-c5c6nc(c(-c7c(F)c(F)c(F)c(F)c7F)c7ccc([nH]7)c(-c7c(F)c(F)c(F)c(F)c7F)c7nc(c(-c8c(F)c(F)c(F)c(F)c8F)c8ccc5[nH]8)C=C7)C=C6)cc4)c3)o2)C(=O)NC1=S
REMARK SMILES IDX 22 1 21 2 19 3 20 4 18 5 13 6 14 7 90 8 15 9 16 10 17 11
REMARK SMILES IDX 12 12 9 13 10 14 91 15 11 16 8 17 4 18 5 19 95 20 6 21 7 22
REMARK SMILES IDX 94 23 96 24 92 25 93 27 3 28 2 29 1 30 23 31 24 32 25 33
REMARK SMILES IDX 26 34 27 35 28 36 89 37 29 38 88 39 30 40 31 41 32 42 82 43
REMARK SMILES IDX 33 44 87 45 81 46 83 47 34 48 86 49 80 50 79 51 35 53 67 54
REMARK SMILES IDX 47 55 66 56 48 57 51 58 65 59 84 60 49 61 50 62 64 64 85 65
REMARK SMILES IDX 52 66 36 67 37 68 45 69 38 70 39 71 43 72 46 73 40 74 41 75
REMARK SMILES IDX 44 76 42 77 68 78 69 79 77 80 70 81 71 82 75 83 78 84 72 85
REMARK SMILES IDX 73 86 76 87 74 88 53 89 54 90 62 91 55 92 56 93 60 94 63 95
REMARK SMILES IDX 57 96 58 97 61 98 59 99
REMARK H PARENT 94 26 83 52 51 63
REMARK Flexibility Score: inf
ROOT
ATOM      1  C   UNL     1      -5.712  -9.273  -3.587  1.00  0.00     0.275 C 
ENDROOT
BRANCH   1   2
ATOM      2  O   UNL     1      -6.604  -8.497  -2.759  1.00  0.00    -0.458 OA
BRANCH   2   3
ATOM      3  C   UNL     1      -6.279  -8.361  -1.451  1.00  0.00     0.339 C 
ATOM      4  O   UNL     1      -5.262  -8.772  -0.912  1.00  0.00    -0.246 OA
BRANCH   3   5
ATOM      5  C   UNL     1      -7.254  -7.495  -0.743  1.00  0.00     0.079 A 
ATOM      6  C   UNL     1      -7.558  -5.644   0.843  1.00  0.00     0.018 A 
ATOM      7  C   UNL     1      -8.940  -5.749   0.659  1.00  0.00     0.013 A 
ATOM      8  C   UNL     1      -6.733  -6.548   0.167  1.00  0.00     0.029 A 
ATOM      9  C   UNL     1      -9.476  -6.726  -0.192  1.00  0.00     0.022 A 
ATOM     10  C   UNL     1      -8.638  -7.600  -0.896  1.00  0.00     0.055 A 
ATOM     11  Cl  UNL     1      -9.401  -8.832  -1.837  1.00  0.00    -0.083 Cl
BRANCH   6  12
ATOM     12  C   UNL     1      -6.999  -4.694   1.798  1.00  0.00     0.134 A 
ATOM     13  C   UNL     1      -5.737  -2.953   2.403  1.00  0.00     0.128 A 
ATOM     14  C   UNL     1      -6.368  -3.454   3.538  1.00  0.00     0.051 A 
ATOM     15  O   UNL     1      -6.141  -3.733   1.329  1.00  0.00    -0.457 OA
ATOM     16  C   UNL     1      -7.170  -4.548   3.154  1.00  0.00     0.051 A 
BRANCH  13  17
ATOM     17  C   UNL     1      -4.913  -1.788   2.331  1.00  0.00     0.066 C 
ATOM     18  N   UNL     1      -1.731  -0.285   3.307  1.00  0.00    -0.281 N 
ATOM     19  C   UNL     1      -3.119  -0.295   3.082  1.00  0.00     0.266 C 
ATOM     20  C   UNL     1      -1.457  -1.096   4.373  1.00  0.00     0.183 C 
ATOM     21  O   UNL     1      -3.792   0.729   3.010  1.00  0.00    -0.268 OA
ATOM     22  C   UNL     1      -3.707  -1.679   2.925  1.00  0.00     0.109 C 
ATOM     23  N   UNL     1      -1.862  -2.402   4.263  1.00  0.00    -0.298 N 
ATOM     24  S   UNL     1      -1.042  -0.544   5.905  1.00  0.00    -0.040 S 
ATOM     25  C   UNL     1      -2.923  -2.813   3.495  1.00  0.00     0.263 C 
ATOM     26  H   UNL     1      -1.363  -3.085   4.766  1.00  0.00     0.172 HD
ATOM     27  O   UNL     1      -3.206  -3.997   3.373  1.00  0.00    -0.269 OA
BRANCH  18  28
ATOM     28  C   UNL     1      -1.093  -0.361   1.955  1.00  0.00     0.155 C 
BRANCH  28  29
ATOM     29  C   UNL     1       0.273   0.182   1.255  1.00  0.00    -0.013 C 
ATOM     30  C   UNL     1       0.850   0.107   0.028  1.00  0.00     0.006 C 
ENDBRANCH  28  29
ENDBRANCH  18  28
ENDBRANCH  13  17
ENDBRANCH   6  12
ENDBRANCH   3   5
ENDBRANCH   2   3
ENDBRANCH   1   2
BRANCH   1  31
ATOM     31  C   UNL     1      -5.103  -8.407  -4.689  1.00  0.00     0.275 C 
BRANCH  31  32
ATOM     32  O   UNL     1      -4.212  -7.434  -4.117  1.00  0.00    -0.458 OA
BRANCH  32  33
ATOM     33  C   UNL     1      -4.753  -6.209  -3.942  1.00  0.00     0.338 C 
ATOM     34  O   UNL     1      -5.851  -5.811  -4.284  1.00  0.00    -0.246 OA
BRANCH  33  35
ATOM     35  C   UNL     1      -3.831  -5.396  -3.146  1.00  0.00     0.060 A 
ATOM     36  C   UNL     1      -3.955  -5.447  -1.761  1.00  0.00     0.016 A 
ATOM     37  C   UNL     1      -2.958  -4.499  -3.746  1.00  0.00     0.016 A 
ATOM     38  C   UNL     1      -3.285  -4.533  -0.957  1.00  0.00     0.010 A 
ATOM     39  C   UNL     1      -2.204  -3.650  -2.935  1.00  0.00     0.010 A 
ATOM     40  C   UNL     1      -2.388  -3.633  -1.539  1.00  0.00    -0.014 A 
BRANCH  40  41
ATOM     41  C   UNL     1      -1.638  -2.646  -0.718  1.00  0.00     0.031 A 
ATOM     42  C   UNL     1      -2.067  -1.126  -1.013  1.00  0.00     0.074 A 
ATOM     43  C   UNL     1      -0.745  -3.163   0.221  1.00  0.00     0.049 A 
ATOM     44  N   UNL     1      -1.743  -0.089  -0.308  1.00  0.00    -0.248 NA
ATOM     45  C   UNL     1      -2.967  -0.656  -2.081  1.00  0.00     0.031 C 
ATOM     46  C   UNL     1      -0.612  -4.571   0.662  1.00  0.00     0.029 A 
ATOM     47  N   UNL     1       0.196  -2.593   1.076  1.00  0.00    -0.354 N 
ATOM     48  C   UNL     1      -2.278   1.110  -0.699  1.00  0.00     0.074 A 
ATOM     49  C   UNL     1      -3.059   0.675  -1.859  1.00  0.00     0.031 C 
ATOM     50  C   UNL     1       0.191  -4.661   1.754  1.00  0.00     0.029 A 
ATOM     51  C   UNL     1       0.711  -3.339   2.115  1.00  0.00     0.049 A 
ATOM     52  H   UNL     1       0.491  -1.663   0.940  1.00  0.00     0.167 HD
ATOM     53  C   UNL     1      -2.067   2.372  -0.143  1.00  0.00     0.037 A 
ATOM     54  C   UNL     1       1.483  -2.985   3.198  1.00  0.00     0.037 A 
ATOM     55  C   UNL     1      -1.093   2.828   0.962  1.00  0.00     0.049 A 
ATOM     56  C   UNL     1       1.769  -1.517   3.687  1.00  0.00     0.074 A 
ATOM     57  C   UNL     1      -0.240   3.936   0.973  1.00  0.00     0.029 A 
ATOM     58  N   UNL     1      -0.922   2.391   2.325  1.00  0.00    -0.354 N 
ATOM     59  N   UNL     1       1.087  -0.441   3.419  1.00  0.00    -0.248 NA
ATOM     60  C   UNL     1       2.808  -1.200   4.679  1.00  0.00     0.031 C 
ATOM     61  C   UNL     1       0.669   3.846   2.069  1.00  0.00     0.029 A 
ATOM     62  C   UNL     1       0.383   2.705   2.814  1.00  0.00     0.049 A 
ATOM     63  H   UNL     1      -1.617   1.934   2.852  1.00  0.00     0.167 HD
ATOM     64  C   UNL     1       1.575   0.693   4.061  1.00  0.00     0.074 A 
ATOM     65  C   UNL     1       2.608   0.109   4.921  1.00  0.00     0.031 C 
ATOM     66  C   UNL     1       1.237   2.038   3.888  1.00  0.00     0.037 A 
BRANCH  53  67
ATOM     67  C   UNL     1      -2.656   3.464  -0.990  1.00  0.00     0.064 A 
ATOM     68  C   UNL     1      -4.011   3.811  -0.939  1.00  0.00     0.173 A 
ATOM     69  C   UNL     1      -1.838   4.156  -1.901  1.00  0.00     0.173 A 
ATOM     70  F   UNL     1      -4.850   3.144  -0.133  1.00  0.00    -0.203 F 
ATOM     71  C   UNL     1      -4.520   4.821  -1.757  1.00  0.00     0.198 A 
ATOM     72  C   UNL     1      -2.340   5.185  -2.688  1.00  0.00     0.198 A 
ATOM     73  F   UNL     1      -0.543   3.827  -2.032  1.00  0.00    -0.203 F 
ATOM     74  F   UNL     1      -5.828   5.113  -1.727  1.00  0.00    -0.200 F 
ATOM     75  C   UNL     1      -3.682   5.516  -2.619  1.00  0.00     0.200 A 
ATOM     76  F   UNL     1      -1.524   5.848  -3.520  1.00  0.00    -0.200 F 
ATOM     77  F   UNL     1      -4.172   6.490  -3.399  1.00  0.00    -0.200 F 
ENDBRANCH  53  67
BRANCH  54  78
ATOM     78  C   UNL     1       2.031  -4.082   4.053  1.00  0.00     0.064 A 
ATOM     79  C   UNL     1       1.694  -4.188   5.409  1.00  0.00     0.173 A 
ATOM     80  C   UNL     1       2.936  -5.024   3.540  1.00  0.00     0.173 A 
ATOM     81  F   UNL     1       0.827  -3.324   5.952  1.00  0.00    -0.203 F 
ATOM     82  C   UNL     1       2.253  -5.174   6.222  1.00  0.00     0.198 A 
ATOM     83  C   UNL     1       3.469  -6.032   4.344  1.00  0.00     0.198 A 
ATOM     84  F   UNL     1       3.305  -4.968   2.252  1.00  0.00    -0.203 F 
ATOM     85  F   UNL     1       1.944  -5.218   7.525  1.00  0.00    -0.200 F 
ATOM     86  C   UNL     1       3.136  -6.099   5.688  1.00  0.00     0.200 A 
ATOM     87  F   UNL     1       4.310  -6.932   3.818  1.00  0.00    -0.200 F 
ATOM     88  F   UNL     1       3.668  -7.050   6.467  1.00  0.00    -0.200 F 
ENDBRANCH  54  78
BRANCH  66  89
ATOM     89  C   UNL     1       2.066   2.999   4.697  1.00  0.00     0.064 A 
ATOM     90  C   UNL     1       3.453   3.128   4.508  1.00  0.00     0.173 A 
ATOM     91  C   UNL     1       1.448   3.867   5.606  1.00  0.00     0.173 A 
ATOM     92  F   UNL     1       4.091   2.357   3.614  1.00  0.00    -0.203 F 
ATOM     93  C   UNL     1       4.200   4.037   5.251  1.00  0.00     0.198 A 
ATOM     94  C   UNL     1       2.195   4.797   6.328  1.00  0.00     0.198 A 
ATOM     95  F   UNL     1       0.120   3.821   5.788  1.00  0.00    -0.203 F 
ATOM     96  F   UNL     1       5.530   4.100   5.090  1.00  0.00    -0.200 F 
ATOM     97  C   UNL     1       3.571   4.871   6.161  1.00  0.00     0.200 A 
ATOM     98  F   UNL     1       1.583   5.625   7.185  1.00  0.00    -0.200 F 
ATOM     99  F   UNL     1       4.289   5.750   6.873  1.00  0.00    -0.200 F 
ENDBRANCH  66  89
ENDBRANCH  40  41
ENDBRANCH  33  35
ENDBRANCH  32  33
ENDBRANCH  31  32
ENDBRANCH   1  31
TORSDOF 15
