REMARK SMILES CN(CC(=O)NCC(=O)OCCOC(=O)c1ccc(-c2c3nc(c(-c4c(F)c(F)c(F)c(F)c4F)c4ccc([nH]4)c(-c4c(F)c(F)c(F)c(F)c4F)c4nc(c(-c5c(F)c(F)c(F)c(F)c5F)c5ccc2[nH]5)C=C4)C=C3)cc1)c1ncccn1
REMARK SMILES IDX 11 1 10 2 8 3 9 4 7 5 6 6 4 7 5 8 3 10 2 11 1 12 79 13 80 14
REMARK SMILES IDX 84 15 81 16 83 17 82 18 12 19 13 20 14 21 15 22 16 23 17 24
REMARK SMILES IDX 78 25 18 26 77 27 19 28 20 29 21 30 71 31 22 32 76 33 70 34
REMARK SMILES IDX 72 35 23 36 75 37 69 38 68 39 24 41 56 42 36 43 55 44 37 45
REMARK SMILES IDX 40 46 54 47 73 48 38 49 39 50 53 52 74 53 41 54 25 55 26 56
REMARK SMILES IDX 34 57 27 58 28 59 32 60 35 61 29 62 30 63 33 64 31 65 57 66
REMARK SMILES IDX 58 67 66 68 59 69 60 70 64 71 67 72 61 73 62 74 65 75 63 76
REMARK SMILES IDX 42 77 43 78 51 79 44 80 45 81 49 82 52 83 46 84 47 85 50 86
REMARK SMILES IDX 48 87
REMARK H PARENT 6 9 72 40 40 51
REMARK Flexibility Score: inf
ROOT
ATOM      1  C   UNL     1      -1.198   3.417   1.637  1.00  0.00     0.274 C 
ENDROOT
BRANCH   1   2
ATOM      2  O   UNL     1      -1.389   2.437   0.602  1.00  0.00    -0.461 OA
BRANCH   2   3
ATOM      3  C   UNL     1      -1.292   1.133   0.963  1.00  0.00     0.325 C 
ATOM      4  O   UNL     1      -1.005   0.733   2.087  1.00  0.00    -0.250 OA
BRANCH   3   5
ATOM      5  C   UNL     1      -1.665   0.170  -0.162  1.00  0.00     0.238 C 
BRANCH   5   6
ATOM      6  N   UNL     1      -2.054   0.739  -1.435  1.00  0.00    -0.344 N 
ATOM      7  C   UNL     1      -1.322   0.750  -2.591  1.00  0.00     0.240 C 
ATOM      8  O   UNL     1      -1.874   1.099  -3.637  1.00  0.00    -0.273 OA
ATOM      9  H   UNL     1      -2.941   1.164  -1.474  1.00  0.00     0.164 HD
BRANCH   7  10
ATOM     10  C   UNL     1       0.120   0.216  -2.567  1.00  0.00     0.219 C 
BRANCH  10  11
ATOM     11  N   UNL     1       0.959   0.843  -1.539  1.00  0.00    -0.335 N 
ATOM     12  C   UNL     1       1.885   0.043  -0.767  1.00  0.00     0.147 C 
BRANCH  11  13
ATOM     13  C   UNL     1       1.243   2.188  -1.690  1.00  0.00     0.225 A 
ATOM     14  N   UNL     1       0.443   2.929  -2.468  1.00  0.00    -0.221 NA
ATOM     15  N   UNL     1       2.305   2.710  -1.055  1.00  0.00    -0.221 NA
ATOM     16  C   UNL     1       0.713   4.237  -2.606  1.00  0.00     0.117 A 
ATOM     17  C   UNL     1       2.561   4.020  -1.241  1.00  0.00     0.117 A 
ATOM     18  C   UNL     1       1.784   4.846  -2.012  1.00  0.00     0.040 A 
ENDBRANCH  11  13
ENDBRANCH  10  11
ENDBRANCH   7  10
ENDBRANCH   5   6
ENDBRANCH   3   5
ENDBRANCH   2   3
ENDBRANCH   1   2
BRANCH   1  19
ATOM     19  C   UNL     1      -2.512   4.144   1.932  1.00  0.00     0.275 C 
BRANCH  19  20
ATOM     20  O   UNL     1      -3.484   3.263   2.531  1.00  0.00    -0.458 OA
BRANCH  20  21
ATOM     21  C   UNL     1      -4.267   2.603   1.648  1.00  0.00     0.338 C 
ATOM     22  O   UNL     1      -4.261   2.684   0.432  1.00  0.00    -0.246 OA
BRANCH  21  23
ATOM     23  C   UNL     1      -5.088   1.607   2.349  1.00  0.00     0.060 A 
ATOM     24  C   UNL     1      -4.786   0.263   2.130  1.00  0.00     0.016 A 
ATOM     25  C   UNL     1      -6.225   1.971   3.068  1.00  0.00     0.016 A 
ATOM     26  C   UNL     1      -5.649  -0.730   2.568  1.00  0.00     0.010 A 
ATOM     27  C   UNL     1      -7.078   0.968   3.543  1.00  0.00     0.010 A 
ATOM     28  C   UNL     1      -6.811  -0.387   3.267  1.00  0.00    -0.014 A 
BRANCH  28  29
ATOM     29  C   UNL     1      -7.775  -1.453   3.628  1.00  0.00     0.031 A 
ATOM     30  C   UNL     1      -9.095  -1.535   2.917  1.00  0.00     0.074 A 
ATOM     31  C   UNL     1      -7.436  -2.385   4.537  1.00  0.00     0.049 A 
ATOM     32  N   UNL     1     -10.112  -2.326   3.147  1.00  0.00    -0.248 NA
ATOM     33  C   UNL     1      -9.299  -0.604   1.796  1.00  0.00     0.031 C 
ATOM     34  C   UNL     1      -6.152  -2.455   5.237  1.00  0.00     0.029 A 
ATOM     35  N   UNL     1      -8.138  -3.461   5.018  1.00  0.00    -0.354 N 
ATOM     36  C   UNL     1     -11.088  -1.963   2.229  1.00  0.00     0.074 A 
ATOM     37  C   UNL     1     -10.544  -0.881   1.436  1.00  0.00     0.031 C 
ATOM     38  C   UNL     1      -6.151  -3.529   6.043  1.00  0.00     0.029 A 
ATOM     39  C   UNL     1      -7.452  -4.186   5.961  1.00  0.00     0.049 A 
ATOM     40  H   UNL     1      -9.046  -3.692   4.715  1.00  0.00     0.167 HD
ATOM     41  C   UNL     1     -12.325  -2.488   2.065  1.00  0.00     0.037 A 
ATOM     42  C   UNL     1      -7.843  -5.242   6.697  1.00  0.00     0.037 A 
ATOM     43  C   UNL     1     -12.846  -3.588   2.833  1.00  0.00     0.049 A 
ATOM     44  C   UNL     1      -9.235  -5.782   6.522  1.00  0.00     0.074 A 
ATOM     45  C   UNL     1     -14.097  -4.176   2.764  1.00  0.00     0.029 A 
ATOM     46  N   UNL     1     -12.131  -4.279   3.800  1.00  0.00    -0.354 N 
ATOM     47  N   UNL     1     -10.175  -5.389   5.698  1.00  0.00    -0.248 NA
ATOM     48  C   UNL     1      -9.624  -6.903   7.388  1.00  0.00     0.031 C 
ATOM     49  C   UNL     1     -14.146  -5.210   3.706  1.00  0.00     0.029 A 
ATOM     50  C   UNL     1     -12.915  -5.286   4.338  1.00  0.00     0.049 A 
ATOM     51  H   UNL     1     -11.204  -4.081   4.066  1.00  0.00     0.167 HD
ATOM     52  C   UNL     1     -11.261  -6.219   5.935  1.00  0.00     0.074 A 
ATOM     53  C   UNL     1     -10.857  -7.151   6.969  1.00  0.00     0.031 C 
ATOM     54  C   UNL     1     -12.485  -6.208   5.355  1.00  0.00     0.037 A 
BRANCH  41  55
ATOM     55  C   UNL     1     -13.214  -1.856   1.038  1.00  0.00     0.064 A 
ATOM     56  C   UNL     1     -13.030  -2.077  -0.334  1.00  0.00     0.173 A 
ATOM     57  C   UNL     1     -14.287  -1.044   1.436  1.00  0.00     0.173 A 
ATOM     58  F   UNL     1     -12.008  -2.832  -0.764  1.00  0.00    -0.203 F 
ATOM     59  C   UNL     1     -13.878  -1.494  -1.272  1.00  0.00     0.198 A 
ATOM     60  C   UNL     1     -15.146  -0.481   0.497  1.00  0.00     0.198 A 
ATOM     61  F   UNL     1     -14.505  -0.804   2.738  1.00  0.00    -0.203 F 
ATOM     62  F   UNL     1     -13.664  -1.690  -2.580  1.00  0.00    -0.200 F 
ATOM     63  C   UNL     1     -14.939  -0.703  -0.856  1.00  0.00     0.200 A 
ATOM     64  F   UNL     1     -16.174   0.278   0.902  1.00  0.00    -0.200 F 
ATOM     65  F   UNL     1     -15.758  -0.147  -1.759  1.00  0.00    -0.200 F 
ENDBRANCH  41  55
BRANCH  42  66
ATOM     66  C   UNL     1      -6.911  -5.840   7.687  1.00  0.00     0.064 A 
ATOM     67  C   UNL     1      -6.368  -7.115   7.488  1.00  0.00     0.173 A 
ATOM     68  C   UNL     1      -6.550  -5.149   8.853  1.00  0.00     0.173 A 
ATOM     69  F   UNL     1      -6.704  -7.824   6.401  1.00  0.00    -0.203 F 
ATOM     70  C   UNL     1      -5.505  -7.683   8.424  1.00  0.00     0.198 A 
ATOM     71  C   UNL     1      -5.668  -5.706   9.775  1.00  0.00     0.198 A 
ATOM     72  F   UNL     1      -7.046  -3.925   9.090  1.00  0.00    -0.203 F 
ATOM     73  F   UNL     1      -5.030  -8.920   8.230  1.00  0.00    -0.200 F 
ATOM     74  C   UNL     1      -5.151  -6.975   9.563  1.00  0.00     0.200 A 
ATOM     75  F   UNL     1      -5.320  -5.014  10.869  1.00  0.00    -0.200 F 
ATOM     76  F   UNL     1      -4.319  -7.520  10.461  1.00  0.00    -0.200 F 
ENDBRANCH  42  66
BRANCH  54  77
ATOM     77  C   UNL     1     -13.460  -7.254   5.803  1.00  0.00     0.064 A 
ATOM     78  C   UNL     1     -14.126  -7.154   7.032  1.00  0.00     0.173 A 
ATOM     79  C   UNL     1     -13.753  -8.350   4.978  1.00  0.00     0.173 A 
ATOM     80  F   UNL     1     -13.864  -6.131   7.860  1.00  0.00    -0.203 F 
ATOM     81  C   UNL     1     -15.039  -8.126   7.429  1.00  0.00     0.198 A 
ATOM     82  C   UNL     1     -14.682  -9.308   5.369  1.00  0.00     0.198 A 
ATOM     83  F   UNL     1     -13.142  -8.485   3.792  1.00  0.00    -0.203 F 
ATOM     84  F   UNL     1     -15.638  -8.032   8.624  1.00  0.00    -0.200 F 
ATOM     85  C   UNL     1     -15.320  -9.199   6.595  1.00  0.00     0.200 A 
ATOM     86  F   UNL     1     -14.958 -10.341   4.560  1.00  0.00    -0.200 F 
ATOM     87  F   UNL     1     -16.202 -10.133   6.979  1.00  0.00    -0.200 F 
ENDBRANCH  54  77
ENDBRANCH  28  29
ENDBRANCH  21  23
ENDBRANCH  20  21
ENDBRANCH  19  20
ENDBRANCH   1  19
TORSDOF 15
