REMARK SMILES O=C(Cc1ccn(C(F)F)c(=O)c1)OCCOC(=O)c1ccc(-c2c3nc(c(-c4c(F)c(F)c(F)c(F)c4F)c4ccc([nH]4)c(-c4c(F)c(F)c(F)c(F)c4F)c4nc(c(-c5c(F)c(F)c(F)c(F)c5F)c5ccc2[nH]5)C=C4)C=C3)cc1
REMARK SMILES IDX 15 1 14 2 2 3 1 4 3 5 4 6 5 7 13 8 6 9 11 10 7 11 12 12 8 13
REMARK SMILES IDX 9 14 10 15 16 16 17 17 18 18 19 19 20 20 21 21 82 22 22 23
REMARK SMILES IDX 81 24 23 25 24 26 25 27 75 28 26 29 80 30 74 31 76 32 27 33
REMARK SMILES IDX 79 34 73 35 72 36 28 38 60 39 40 40 59 41 41 42 44 43 58 44
REMARK SMILES IDX 77 45 42 46 43 47 57 49 78 50 45 51 29 52 30 53 38 54 31 55
REMARK SMILES IDX 32 56 36 57 39 58 33 59 34 60 37 61 35 62 61 63 62 64 70 65
REMARK SMILES IDX 63 66 64 67 68 68 71 69 65 70 66 71 69 72 67 73 46 74 47 75
REMARK SMILES IDX 55 76 48 77 49 78 53 79 56 80 50 81 51 82 54 83 52 84
REMARK H PARENT 76 37 44 48
REMARK Flexibility Score: inf
ROOT
ATOM      1  C   UNL     1       4.263  -0.615   0.831  1.00  0.00     0.274 C 
ENDROOT
BRANCH   1   2
ATOM      2  O   UNL     1       2.919  -0.098   0.940  1.00  0.00    -0.462 OA
BRANCH   2   3
ATOM      3  C   UNL     1       2.440   0.940   0.213  1.00  0.00     0.310 C 
ATOM      4  O   UNL     1       1.527   1.640   0.646  1.00  0.00    -0.252 OA
BRANCH   3   5
ATOM      5  C   UNL     1       2.994   1.164  -1.181  1.00  0.00     0.158 C 
BRANCH   5   6
ATOM      6  C   UNL     1       4.031   2.238  -1.306  1.00  0.00    -0.030 A 
ATOM      7  C   UNL     1       3.643   3.617  -1.101  1.00  0.00     0.023 A 
ATOM      8  C   UNL     1       5.287   1.958  -1.693  1.00  0.00     0.076 A 
ATOM      9  C   UNL     1       4.526   4.601  -1.316  1.00  0.00     0.095 A 
ATOM     10  C   UNL     1       6.291   3.035  -1.894  1.00  0.00     0.255 A 
ATOM     11  N   UNL     1       5.823   4.325  -1.715  1.00  0.00    -0.258 N 
ATOM     12  O   UNL     1       7.430   2.713  -2.213  1.00  0.00    -0.269 OA
BRANCH  11  13
ATOM     13  C   UNL     1       6.758   5.389  -1.964  1.00  0.00     0.451 C 
ATOM     14  F   UNL     1       7.825   5.303  -1.133  1.00  0.00    -0.185 F 
ATOM     15  F   UNL     1       7.214   5.340  -3.240  1.00  0.00    -0.185 F 
ENDBRANCH  11  13
ENDBRANCH   5   6
ENDBRANCH   3   5
ENDBRANCH   2   3
ENDBRANCH   1   2
BRANCH   1  16
ATOM     16  C   UNL     1       4.282  -2.047   0.292  1.00  0.00     0.275 C 
BRANCH  16  17
ATOM     17  O   UNL     1       3.972  -2.053  -1.113  1.00  0.00    -0.458 OA
BRANCH  17  18
ATOM     18  C   UNL     1       2.691  -2.354  -1.440  1.00  0.00     0.338 C 
ATOM     19  O   UNL     1       1.816  -2.741  -0.686  1.00  0.00    -0.246 OA
BRANCH  18  20
ATOM     20  C   UNL     1       2.438  -1.910  -2.833  1.00  0.00     0.060 A 
ATOM     21  C   UNL     1       3.425  -1.972  -3.824  1.00  0.00     0.016 A 
ATOM     22  C   UNL     1       1.193  -1.335  -3.119  1.00  0.00     0.016 A 
ATOM     23  C   UNL     1       3.159  -1.468  -5.101  1.00  0.00     0.010 A 
ATOM     24  C   UNL     1       0.931  -0.827  -4.393  1.00  0.00     0.010 A 
ATOM     25  C   UNL     1       1.908  -0.900  -5.396  1.00  0.00    -0.014 A 
BRANCH  25  26
ATOM     26  C   UNL     1       1.567  -0.522  -6.788  1.00  0.00     0.031 A 
ATOM     27  C   UNL     1       1.647   0.894  -7.271  1.00  0.00     0.074 A 
ATOM     28  C   UNL     1       1.156  -1.495  -7.622  1.00  0.00     0.049 A 
ATOM     29  N   UNL     1       1.393   1.370  -8.465  1.00  0.00    -0.248 NA
ATOM     30  C   UNL     1       2.066   1.908  -6.294  1.00  0.00     0.031 C 
ATOM     31  C   UNL     1       1.036  -2.908  -7.264  1.00  0.00     0.029 A 
ATOM     32  N   UNL     1       0.764  -1.446  -8.935  1.00  0.00    -0.354 N 
ATOM     33  C   UNL     1       1.647   2.732  -8.395  1.00  0.00     0.074 A 
ATOM     34  C   UNL     1       2.035   3.015  -7.027  1.00  0.00     0.031 C 
ATOM     35  C   UNL     1       0.609  -3.595  -8.334  1.00  0.00     0.029 A 
ATOM     36  C   UNL     1       0.403  -2.668  -9.443  1.00  0.00     0.049 A 
ATOM     37  H   UNL     1       0.744  -0.614  -9.462  1.00  0.00     0.167 HD
ATOM     38  C   UNL     1       1.578   3.652  -9.388  1.00  0.00     0.037 A 
ATOM     39  C   UNL     1      -0.047  -3.006 -10.665  1.00  0.00     0.037 A 
ATOM     40  C   UNL     1       1.169   3.372 -10.742  1.00  0.00     0.049 A 
ATOM     41  C   UNL     1      -0.190  -1.949 -11.722  1.00  0.00     0.074 A 
ATOM     42  C   UNL     1       1.088   4.244 -11.816  1.00  0.00     0.029 A 
ATOM     43  N   UNL     1       0.761   2.132 -11.209  1.00  0.00    -0.354 N 
ATOM     44  N   UNL     1       0.095  -0.672 -11.656  1.00  0.00    -0.248 NA
ATOM     45  C   UNL     1      -0.714  -2.383 -13.024  1.00  0.00     0.031 C 
ATOM     46  C   UNL     1       0.590   3.542 -12.919  1.00  0.00     0.029 A 
ATOM     47  C   UNL     1       0.405   2.222 -12.547  1.00  0.00     0.049 A 
ATOM     48  H   UNL     1       0.729   1.308 -10.670  1.00  0.00     0.167 HD
ATOM     49  C   UNL     1      -0.189  -0.154 -12.912  1.00  0.00     0.074 A 
ATOM     50  C   UNL     1      -0.659  -1.258 -13.723  1.00  0.00     0.031 C 
ATOM     51  C   UNL     1      -0.067   1.122 -13.349  1.00  0.00     0.037 A 
BRANCH  38  52
ATOM     52  C   UNL     1       1.968   5.065  -9.065  1.00  0.00     0.064 A 
ATOM     53  C   UNL     1       3.313   5.425  -8.905  1.00  0.00     0.173 A 
ATOM     54  C   UNL     1       1.004   6.083  -9.024  1.00  0.00     0.173 A 
ATOM     55  F   UNL     1       4.271   4.487  -8.931  1.00  0.00    -0.203 F 
ATOM     56  C   UNL     1       3.680   6.755  -8.712  1.00  0.00     0.198 A 
ATOM     57  C   UNL     1       1.376   7.414  -8.853  1.00  0.00     0.198 A 
ATOM     58  F   UNL     1      -0.296   5.791  -9.182  1.00  0.00    -0.203 F 
ATOM     59  F   UNL     1       4.971   7.076  -8.546  1.00  0.00    -0.200 F 
ATOM     60  C   UNL     1       2.713   7.749  -8.697  1.00  0.00     0.200 A 
ATOM     61  F   UNL     1       0.442   8.376  -8.852  1.00  0.00    -0.200 F 
ATOM     62  F   UNL     1       3.069   9.030  -8.532  1.00  0.00    -0.200 F 
ENDBRANCH  38  52
BRANCH  39  63
ATOM     63  C   UNL     1      -0.361  -4.425 -10.959  1.00  0.00     0.064 A 
ATOM     64  C   UNL     1       0.471  -5.183 -11.793  1.00  0.00     0.173 A 
ATOM     65  C   UNL     1      -1.480  -5.056 -10.396  1.00  0.00     0.173 A 
ATOM     66  F   UNL     1       1.540  -4.613 -12.367  1.00  0.00    -0.203 F 
ATOM     67  C   UNL     1       0.191  -6.520 -12.060  1.00  0.00     0.198 A 
ATOM     68  C   UNL     1      -1.745  -6.399 -10.645  1.00  0.00     0.198 A 
ATOM     69  F   UNL     1      -2.302  -4.370  -9.589  1.00  0.00    -0.203 F 
ATOM     70  F   UNL     1       0.985  -7.216 -12.885  1.00  0.00    -0.200 F 
ATOM     71  C   UNL     1      -0.912  -7.129 -11.480  1.00  0.00     0.200 A 
ATOM     72  F   UNL     1      -2.804  -6.988 -10.074  1.00  0.00    -0.200 F 
ATOM     73  F   UNL     1      -1.175  -8.419 -11.730  1.00  0.00    -0.200 F 
ENDBRANCH  39  63
BRANCH  51  74
ATOM     74  C   UNL     1      -0.428   1.396 -14.780  1.00  0.00     0.064 A 
ATOM     75  C   UNL     1      -1.762   1.404 -15.211  1.00  0.00     0.173 A 
ATOM     76  C   UNL     1       0.569   1.688 -15.723  1.00  0.00     0.173 A 
ATOM     77  F   UNL     1      -2.751   1.115 -14.351  1.00  0.00    -0.203 F 
ATOM     78  C   UNL     1      -2.084   1.673 -16.539  1.00  0.00     0.198 A 
ATOM     79  C   UNL     1       0.242   1.983 -17.044  1.00  0.00     0.198 A 
ATOM     80  F   UNL     1       1.861   1.698 -15.361  1.00  0.00    -0.203 F 
ATOM     81  F   UNL     1      -3.363   1.633 -16.938  1.00  0.00    -0.200 F 
ATOM     82  C   UNL     1      -1.083   1.969 -17.452  1.00  0.00     0.200 A 
ATOM     83  F   UNL     1       1.210   2.279 -17.923  1.00  0.00    -0.200 F 
ATOM     84  F   UNL     1      -1.395   2.232 -18.729  1.00  0.00    -0.200 F 
ENDBRANCH  51  74
ENDBRANCH  25  26
ENDBRANCH  18  20
ENDBRANCH  17  18
ENDBRANCH  16  17
ENDBRANCH   1  16
TORSDOF 13
