REMARK SMILES NS(=O)(=O)c1ccc(-n2nc(C(=O)NCCCC(=O)OCCOC(=O)c3ccc(-c4c5nc(c(-c6c(F)c(F)c(F)c(F)c6F)c6ccc([nH]6)c(-c6c(F)c(F)c(F)c(F)c6F)c6nc(c(-c7c(F)c(F)c(F)c(F)c7F)c7ccc4[nH]7)C=C6)C=C5)cc3)cc2-c2ccccc2)cc1
REMARK SMILES IDX 18 1 19 2 17 3 16 4 15 5 14 6 12 7 13 8 11 10 9 11 10 12
REMARK SMILES IDX 90 13 89 14 8 15 5 16 6 17 98 18 7 19 97 20 2 21 3 22 4 23
REMARK SMILES IDX 1 24 91 27 92 28 96 29 93 30 95 31 94 32 20 33 21 34 22 35
REMARK SMILES IDX 23 36 24 37 25 38 26 39 27 40 88 41 28 42 87 43 29 44 30 45
REMARK SMILES IDX 31 46 81 47 32 48 86 49 80 50 82 51 33 52 85 53 79 54 78 55
REMARK SMILES IDX 34 57 66 58 46 59 65 60 47 61 50 62 64 63 83 64 48 65 49 66
REMARK SMILES IDX 63 68 84 69 51 70 35 71 36 72 44 73 37 74 38 75 42 76 45 77
REMARK SMILES IDX 39 78 40 79 43 80 41 81 67 82 68 83 76 84 69 85 70 86 74 87
REMARK SMILES IDX 77 88 71 89 72 90 75 91 73 92 52 93 53 94 61 95 54 96 55 97
REMARK SMILES IDX 59 98 62 99 56 100 57 101 60 102 58 103
REMARK H PARENT 14 9 1 25 1 26 82 56 50 67
REMARK Flexibility Score: inf
ROOT
ATOM      1  C   UNL     1       4.566  -4.647 -13.383  1.00  0.00     0.305 C 
ATOM      2  O   UNL     1       4.594  -4.814 -14.596  1.00  0.00    -0.252 OA
ENDROOT
BRANCH   1   3
ATOM      3  C   UNL     1       4.478  -3.282 -12.740  1.00  0.00     0.124 C 
BRANCH   3   4
ATOM      4  C   UNL     1       3.330  -3.045 -11.762  1.00  0.00     0.033 C 
BRANCH   4   5
ATOM      5  C   UNL     1       3.299  -3.895 -10.494  1.00  0.00     0.117 C 
BRANCH   5   6
ATOM      6  N   UNL     1       4.452  -3.666  -9.644  1.00  0.00    -0.351 N 
ATOM      7  C   UNL     1       4.544  -3.329  -8.311  1.00  0.00     0.271 C 
ATOM      8  O   UNL     1       5.666  -3.030  -7.896  1.00  0.00    -0.267 OA
ATOM      9  H   UNL     1       5.320  -3.769 -10.098  1.00  0.00     0.163 HD
BRANCH   7  10
ATOM     10  C   UNL     1       3.356  -3.362  -7.431  1.00  0.00     0.151 A 
ATOM     11  N   UNL     1       2.169  -3.020  -5.680  1.00  0.00    -0.232 N 
ATOM     12  N   UNL     1       3.293  -2.610  -6.311  1.00  0.00    -0.162 NA
ATOM     13  C   UNL     1       1.353  -3.768  -6.514  1.00  0.00     0.075 A 
ATOM     14  C   UNL     1       2.174  -4.139  -7.557  1.00  0.00     0.065 A 
BRANCH  11  15
ATOM     15  C   UNL     1       1.916  -2.690  -4.324  1.00  0.00     0.065 A 
ATOM     16  C   UNL     1       1.098  -1.975  -1.769  1.00  0.00     0.082 A 
ATOM     17  C   UNL     1       0.898  -3.285  -2.210  1.00  0.00     0.024 A 
ATOM     18  C   UNL     1       1.760  -1.039  -2.574  1.00  0.00     0.024 A 
ATOM     19  C   UNL     1       1.300  -3.640  -3.493  1.00  0.00     0.030 A 
ATOM     20  C   UNL     1       2.200  -1.407  -3.850  1.00  0.00     0.030 A 
BRANCH  16  21
ATOM     21  S   UNL     1       0.485  -1.561  -0.165  1.00  0.00     0.238 S 
ATOM     22  O   UNL     1       1.052  -2.489   0.791  1.00  0.00    -0.207 OA
ATOM     23  O   UNL     1      -0.930  -1.318  -0.271  1.00  0.00    -0.207 OA
BRANCH  21  24
ATOM     24  N   UNL     1       1.184  -0.077   0.190  1.00  0.00    -0.225 NA
ATOM     25  H   UNL     1       0.875   0.232   1.112  1.00  0.00     0.137 HD
ATOM     26  H   UNL     1       0.902   0.608  -0.510  1.00  0.00     0.137 HD
ENDBRANCH  21  24
ENDBRANCH  16  21
ENDBRANCH  11  15
BRANCH  13  27
ATOM     27  C   UNL     1      -0.071  -4.037  -6.304  1.00  0.00     0.000 A 
ATOM     28  C   UNL     1      -0.942  -3.017  -5.886  1.00  0.00     0.010 A 
ATOM     29  C   UNL     1      -0.593  -5.311  -6.550  1.00  0.00     0.010 A 
ATOM     30  C   UNL     1      -2.298  -3.276  -5.681  1.00  0.00     0.001 A 
ATOM     31  C   UNL     1      -1.952  -5.567  -6.354  1.00  0.00     0.001 A 
ATOM     32  C   UNL     1      -2.801  -4.553  -5.915  1.00  0.00     0.000 A 
ENDBRANCH  13  27
ENDBRANCH   7  10
ENDBRANCH   5   6
ENDBRANCH   4   5
ENDBRANCH   3   4
ENDBRANCH   1   3
BRANCH   1  33
ATOM     33  O   UNL     1       4.671  -5.639 -12.460  1.00  0.00    -0.462 OA
BRANCH  33  34
ATOM     34  C   UNL     1       4.700  -6.988 -12.963  1.00  0.00     0.274 C 
BRANCH  34  35
ATOM     35  C   UNL     1       3.300  -7.569 -13.119  1.00  0.00     0.275 C 
BRANCH  35  36
ATOM     36  O   UNL     1       2.577  -6.921 -14.165  1.00  0.00    -0.458 OA
BRANCH  36  37
ATOM     37  C   UNL     1       1.760  -5.929 -13.752  1.00  0.00     0.338 C 
ATOM     38  O   UNL     1       1.721  -5.411 -12.650  1.00  0.00    -0.246 OA
BRANCH  37  39
ATOM     39  C   UNL     1       0.741  -5.679 -14.769  1.00  0.00     0.060 A 
ATOM     40  C   UNL     1       0.045  -4.465 -14.742  1.00  0.00     0.016 A 
ATOM     41  C   UNL     1       0.310  -6.767 -15.535  1.00  0.00     0.016 A 
ATOM     42  C   UNL     1      -1.172  -4.388 -15.392  1.00  0.00     0.010 A 
ATOM     43  C   UNL     1      -0.910  -6.697 -16.157  1.00  0.00     0.010 A 
ATOM     44  C   UNL     1      -1.665  -5.532 -16.027  1.00  0.00    -0.014 A 
BRANCH  44  45
ATOM     45  C   UNL     1      -2.952  -5.481 -16.691  1.00  0.00     0.031 A 
ATOM     46  C   UNL     1      -2.921  -4.730 -17.970  1.00  0.00     0.074 A 
ATOM     47  C   UNL     1      -3.989  -6.231 -16.268  1.00  0.00     0.049 A 
ATOM     48  N   UNL     1      -3.628  -3.701 -18.299  1.00  0.00    -0.248 NA
ATOM     49  C   UNL     1      -1.880  -5.079 -18.954  1.00  0.00     0.031 C 
ATOM     50  C   UNL     1      -4.016  -7.210 -15.177  1.00  0.00     0.029 A 
ATOM     51  N   UNL     1      -5.229  -6.358 -16.812  1.00  0.00    -0.354 N 
ATOM     52  C   UNL     1      -3.251  -3.383 -19.601  1.00  0.00     0.074 A 
ATOM     53  C   UNL     1      -2.064  -4.143 -19.884  1.00  0.00     0.031 C 
ATOM     54  C   UNL     1      -5.122  -7.981 -15.294  1.00  0.00     0.029 A 
ATOM     55  C   UNL     1      -5.934  -7.479 -16.389  1.00  0.00     0.049 A 
ATOM     56  H   UNL     1      -5.597  -5.708 -17.453  1.00  0.00     0.167 HD
ATOM     57  C   UNL     1      -4.095  -2.711 -20.429  1.00  0.00     0.037 A 
ATOM     58  C   UNL     1      -7.063  -7.979 -16.956  1.00  0.00     0.037 A 
ATOM     59  C   UNL     1      -5.113  -2.019 -19.682  1.00  0.00     0.049 A 
ATOM     60  C   UNL     1      -7.645  -6.905 -17.803  1.00  0.00     0.074 A 
ATOM     61  C   UNL     1      -5.092  -1.034 -18.713  1.00  0.00     0.029 A 
ATOM     62  N   UNL     1      -6.360  -2.588 -19.605  1.00  0.00    -0.354 N 
ATOM     63  N   UNL     1      -8.191  -5.825 -17.320  1.00  0.00    -0.248 NA
ATOM     64  C   UNL     1      -7.185  -6.811 -19.182  1.00  0.00     0.031 C 
ATOM     65  C   UNL     1      -6.119  -1.398 -17.793  1.00  0.00     0.029 A 
ATOM     66  C   UNL     1      -6.753  -2.535 -18.292  1.00  0.00     0.049 A 
ATOM     67  H   UNL     1      -6.876  -2.965 -20.354  1.00  0.00     0.167 HD
ATOM     68  C   UNL     1      -7.743  -4.808 -18.148  1.00  0.00     0.074 A 
ATOM     69  C   UNL     1      -7.193  -5.482 -19.323  1.00  0.00     0.031 C 
ATOM     70  C   UNL     1      -7.585  -3.538 -17.674  1.00  0.00     0.037 A 
BRANCH  57  71
ATOM     71  C   UNL     1      -4.223  -2.998 -21.904  1.00  0.00     0.064 A 
ATOM     72  C   UNL     1      -5.032  -2.160 -22.695  1.00  0.00     0.173 A 
ATOM     73  C   UNL     1      -3.841  -4.219 -22.504  1.00  0.00     0.173 A 
ATOM     74  F   UNL     1      -5.470  -0.986 -22.217  1.00  0.00    -0.203 F 
ATOM     75  C   UNL     1      -5.489  -2.554 -23.955  1.00  0.00     0.198 A 
ATOM     76  C   UNL     1      -4.253  -4.583 -23.784  1.00  0.00     0.198 A 
ATOM     77  F   UNL     1      -3.156  -5.160 -21.844  1.00  0.00    -0.203 F 
ATOM     78  F   UNL     1      -6.364  -1.782 -24.614  1.00  0.00    -0.200 F 
ATOM     79  C   UNL     1      -5.105  -3.767 -24.495  1.00  0.00     0.200 A 
ATOM     80  F   UNL     1      -3.885  -5.773 -24.280  1.00  0.00    -0.200 F 
ATOM     81  F   UNL     1      -5.594  -4.175 -25.673  1.00  0.00    -0.200 F 
ENDBRANCH  57  71
BRANCH  58  82
ATOM     82  C   UNL     1      -7.518  -9.387 -17.061  1.00  0.00     0.064 A 
ATOM     83  C   UNL     1      -8.844  -9.697 -17.412  1.00  0.00     0.173 A 
ATOM     84  C   UNL     1      -6.599 -10.453 -17.099  1.00  0.00     0.173 A 
ATOM     85  F   UNL     1      -9.777  -8.734 -17.444  1.00  0.00    -0.203 F 
ATOM     86  C   UNL     1      -9.219 -10.986 -17.807  1.00  0.00     0.198 A 
ATOM     87  C   UNL     1      -6.976 -11.740 -17.487  1.00  0.00     0.198 A 
ATOM     88  F   UNL     1      -5.297 -10.247 -16.855  1.00  0.00    -0.203 F 
ATOM     89  F   UNL     1     -10.479 -11.228 -18.197  1.00  0.00    -0.200 F 
ATOM     90  C   UNL     1      -8.281 -12.004 -17.855  1.00  0.00     0.200 A 
ATOM     91  F   UNL     1      -6.050 -12.707 -17.564  1.00  0.00    -0.200 F 
ATOM     92  F   UNL     1      -8.624 -13.223 -18.295  1.00  0.00    -0.200 F 
ENDBRANCH  58  82
BRANCH  70  93
ATOM     93  C   UNL     1      -8.132  -3.234 -16.306  1.00  0.00     0.064 A 
ATOM     94  C   UNL     1      -7.707  -3.869 -15.125  1.00  0.00     0.173 A 
ATOM     95  C   UNL     1      -9.040  -2.177 -16.173  1.00  0.00     0.173 A 
ATOM     96  F   UNL     1      -6.756  -4.811 -15.151  1.00  0.00    -0.203 F 
ATOM     97  C   UNL     1      -8.218  -3.506 -13.881  1.00  0.00     0.198 A 
ATOM     98  C   UNL     1      -9.519  -1.788 -14.925  1.00  0.00     0.198 A 
ATOM     99  F   UNL     1      -9.436  -1.490 -17.257  1.00  0.00    -0.203 F 
ATOM    100  F   UNL     1      -7.814  -4.147 -12.774  1.00  0.00    -0.200 F 
ATOM    101  C   UNL     1      -9.122  -2.462 -13.782  1.00  0.00     0.200 A 
ATOM    102  F   UNL     1     -10.352  -0.742 -14.830  1.00  0.00    -0.200 F 
ATOM    103  F   UNL     1      -9.591  -2.089 -12.583  1.00  0.00    -0.200 F 
ENDBRANCH  70  93
ENDBRANCH  44  45
ENDBRANCH  37  39
ENDBRANCH  36  37
ENDBRANCH  35  36
ENDBRANCH  34  35
ENDBRANCH  33  34
ENDBRANCH   1  33
TORSDOF 19
