REMARK SMILES COC(=O)c1nccc(N2CCO[C@H](CC(=O)OCCOC(=O)c3ccc(-c4c5nc(c(-c6c(F)c(F)c(F)c(F)c6F)c6ccc([nH]6)c(-c6c(F)c(F)c(F)c(F)c6F)c6nc(c(-c7c(F)c(F)c(F)c(F)c7F)c7ccc4[nH]7)C=C6)C=C5)cc3)C2)n1
REMARK SMILES IDX 19 1 18 2 16 3 17 4 15 5 14 6 10 7 11 8 87 9 12 10 13 11
REMARK SMILES IDX 9 12 5 13 6 14 88 15 7 16 8 17 3 18 4 19 2 20 1 21 20 22
REMARK SMILES IDX 21 23 22 24 23 25 24 26 25 27 86 28 26 29 85 30 27 31 28 32
REMARK SMILES IDX 29 33 79 34 30 35 84 36 78 37 80 38 31 39 83 40 77 41 76 42
REMARK SMILES IDX 32 44 64 45 44 46 63 47 45 48 48 49 62 50 81 51 46 52 47 53
REMARK SMILES IDX 61 55 82 56 49 57 33 58 34 59 42 60 35 61 36 62 40 63 43 64
REMARK SMILES IDX 37 65 38 66 41 67 39 68 65 69 66 70 74 71 67 72 68 73 72 74
REMARK SMILES IDX 75 75 69 76 70 77 73 78 71 79 50 80 51 81 59 82 52 83 53 84
REMARK SMILES IDX 57 85 60 86 54 87 55 88 58 89 56 90
REMARK H PARENT 80 43 48 54
REMARK Flexibility Score: inf
ROOT
ATOM      1  C   UNL     1      -6.785   8.385   5.129  1.00  0.00     0.274 C 
ENDROOT
BRANCH   1   2
ATOM      2  O   UNL     1      -5.960   7.717   4.157  1.00  0.00    -0.462 OA
BRANCH   2   3
ATOM      3  C   UNL     1      -4.704   7.410   4.557  1.00  0.00     0.308 C 
ATOM      4  O   UNL     1      -4.235   7.675   5.659  1.00  0.00    -0.252 OA
BRANCH   3   5
ATOM      5  C   UNL     1      -3.871   6.756   3.488  1.00  0.00     0.156 C 
BRANCH   5   6
ATOM      6  C   UNL     1      -4.643   5.883   2.485  1.00  0.00     0.148 C 
ATOM      7  N   UNL     1      -2.667   5.272   1.223  1.00  0.00    -0.352 N 
ATOM      8  C   UNL     1      -3.051   6.073   0.070  1.00  0.00     0.146 C 
ATOM      9  C   UNL     1      -3.767   4.702   1.990  1.00  0.00     0.150 C 
ATOM     10  C   UNL     1      -4.074   7.143   0.493  1.00  0.00     0.182 C 
ATOM     11  O   UNL     1      -5.118   6.649   1.351  1.00  0.00    -0.374 OA
BRANCH   7  12
ATOM     12  C   UNL     1      -1.368   4.948   1.512  1.00  0.00     0.133 A 
ATOM     13  C   UNL     1       0.286   3.391   1.817  1.00  0.00     0.241 A 
ATOM     14  N   UNL     1       1.192   4.295   2.248  1.00  0.00    -0.231 NA
ATOM     15  N   UNL     1      -0.996   3.660   1.480  1.00  0.00    -0.205 NA
ATOM     16  C   UNL     1       0.772   5.565   2.277  1.00  0.00     0.117 A 
ATOM     17  C   UNL     1      -0.490   5.947   1.893  1.00  0.00     0.067 A 
BRANCH  13  18
ATOM     18  C   UNL     1       0.798   1.990   1.643  1.00  0.00     0.376 C 
ATOM     19  O   UNL     1       1.749   1.515   2.249  1.00  0.00    -0.242 OA
BRANCH  18  20
ATOM     20  O   UNL     1       0.113   1.362   0.646  1.00  0.00    -0.463 OA
ATOM     21  C   UNL     1       0.666   0.101   0.269  1.00  0.00     0.282 C 
ENDBRANCH  18  20
ENDBRANCH  13  18
ENDBRANCH   7  12
ENDBRANCH   5   6
ENDBRANCH   3   5
ENDBRANCH   2   3
ENDBRANCH   1   2
BRANCH   1  22
ATOM     22  C   UNL     1      -7.708   7.410   5.866  1.00  0.00     0.275 C 
BRANCH  22  23
ATOM     23  O   UNL     1      -6.970   6.476   6.678  1.00  0.00    -0.458 OA
BRANCH  23  24
ATOM     24  C   UNL     1      -6.718   5.282   6.093  1.00  0.00     0.338 C 
ATOM     25  O   UNL     1      -7.070   4.906   4.989  1.00  0.00    -0.246 OA
BRANCH  24  26
ATOM     26  C   UNL     1      -5.793   4.499   6.925  1.00  0.00     0.060 A 
ATOM     27  C   UNL     1      -4.519   4.248   6.411  1.00  0.00     0.016 A 
ATOM     28  C   UNL     1      -6.194   3.932   8.135  1.00  0.00     0.016 A 
ATOM     29  C   UNL     1      -3.635   3.427   7.101  1.00  0.00     0.010 A 
ATOM     30  C   UNL     1      -5.303   3.105   8.832  1.00  0.00     0.010 A 
ATOM     31  C   UNL     1      -4.023   2.841   8.313  1.00  0.00    -0.014 A 
BRANCH  31  32
ATOM     32  C   UNL     1      -3.083   1.924   9.002  1.00  0.00     0.031 A 
ATOM     33  C   UNL     1      -3.307   0.441   8.956  1.00  0.00     0.074 A 
ATOM     34  C   UNL     1      -1.996   2.425   9.617  1.00  0.00     0.049 A 
ATOM     35  N   UNL     1      -2.612  -0.519   9.511  1.00  0.00    -0.248 NA
ATOM     36  C   UNL     1      -4.466  -0.025   8.181  1.00  0.00     0.031 C 
ATOM     37  C   UNL     1      -1.650   3.845   9.688  1.00  0.00     0.029 A 
ATOM     38  N   UNL     1      -0.978   1.796  10.286  1.00  0.00    -0.354 N 
ATOM     39  C   UNL     1      -3.256  -1.700   9.168  1.00  0.00     0.074 A 
ATOM     40  C   UNL     1      -4.408  -1.336   8.369  1.00  0.00     0.031 C 
ATOM     41  C   UNL     1      -0.490   3.978  10.351  1.00  0.00     0.029 A 
ATOM     42  C   UNL     1      -0.035   2.660  10.785  1.00  0.00     0.049 A 
ATOM     43  H   UNL     1      -0.928   0.820  10.398  1.00  0.00     0.167 HD
ATOM     44  C   UNL     1      -2.913  -2.970   9.489  1.00  0.00     0.037 A 
ATOM     45  C   UNL     1       1.064   2.416  11.524  1.00  0.00     0.037 A 
ATOM     46  C   UNL     1      -1.756  -3.331  10.267  1.00  0.00     0.049 A 
ATOM     47  C   UNL     1       1.397   0.999  11.901  1.00  0.00     0.074 A 
ATOM     48  C   UNL     1      -1.320  -4.592  10.636  1.00  0.00     0.029 A 
ATOM     49  N   UNL     1      -0.846  -2.425  10.792  1.00  0.00    -0.354 N 
ATOM     50  N   UNL     1       0.772  -0.110  11.587  1.00  0.00    -0.248 NA
ATOM     51  C   UNL     1       2.586   0.800  12.742  1.00  0.00     0.031 C 
ATOM     52  C   UNL     1      -0.167  -4.447  11.415  1.00  0.00     0.029 A 
ATOM     53  C   UNL     1       0.138  -3.098  11.499  1.00  0.00     0.049 A 
ATOM     54  H   UNL     1      -0.891  -1.448  10.679  1.00  0.00     0.167 HD
ATOM     55  C   UNL     1       1.493  -1.135  12.181  1.00  0.00     0.074 A 
ATOM     56  C   UNL     1       2.617  -0.520  12.857  1.00  0.00     0.031 C 
ATOM     57  C   UNL     1       1.244  -2.468  12.173  1.00  0.00     0.037 A 
BRANCH  44  58
ATOM     58  C   UNL     1      -3.820  -4.069   9.022  1.00  0.00     0.064 A 
ATOM     59  C   UNL     1      -3.855  -4.477   7.680  1.00  0.00     0.173 A 
ATOM     60  C   UNL     1      -4.639  -4.747   9.937  1.00  0.00     0.173 A 
ATOM     61  F   UNL     1      -3.101  -3.850   6.764  1.00  0.00    -0.203 F 
ATOM     62  C   UNL     1      -4.692  -5.511   7.269  1.00  0.00     0.198 A 
ATOM     63  C   UNL     1      -5.458  -5.796   9.527  1.00  0.00     0.198 A 
ATOM     64  F   UNL     1      -4.640  -4.397  11.232  1.00  0.00    -0.203 F 
ATOM     65  F   UNL     1      -4.739  -5.860   5.976  1.00  0.00    -0.200 F 
ATOM     66  C   UNL     1      -5.488  -6.173   8.193  1.00  0.00     0.200 A 
ATOM     67  F   UNL     1      -6.219  -6.440  10.422  1.00  0.00    -0.200 F 
ATOM     68  F   UNL     1      -6.290  -7.171   7.796  1.00  0.00    -0.200 F 
ENDBRANCH  44  58
BRANCH  45  69
ATOM     69  C   UNL     1       1.918   3.545  11.971  1.00  0.00     0.064 A 
ATOM     70  C   UNL     1       3.203   3.732  11.447  1.00  0.00     0.173 A 
ATOM     71  C   UNL     1       1.463   4.461  12.932  1.00  0.00     0.173 A 
ATOM     72  F   UNL     1       3.691   2.866  10.547  1.00  0.00    -0.203 F 
ATOM     73  C   UNL     1       4.006   4.788  11.872  1.00  0.00     0.198 A 
ATOM     74  C   UNL     1       2.257   5.531  13.338  1.00  0.00     0.198 A 
ATOM     75  F   UNL     1       0.241   4.322  13.467  1.00  0.00    -0.203 F 
ATOM     76  F   UNL     1       5.247   4.923  11.383  1.00  0.00    -0.200 F 
ATOM     77  C   UNL     1       3.530   5.690  12.812  1.00  0.00     0.200 A 
ATOM     78  F   UNL     1       1.789   6.406  14.238  1.00  0.00    -0.200 F 
ATOM     79  F   UNL     1       4.301   6.709  13.216  1.00  0.00    -0.200 F 
ENDBRANCH  45  69
BRANCH  57  80
ATOM     80  C   UNL     1       2.209  -3.345  12.913  1.00  0.00     0.064 A 
ATOM     81  C   UNL     1       2.223  -3.394  14.315  1.00  0.00     0.173 A 
ATOM     82  C   UNL     1       3.112  -4.160  12.215  1.00  0.00     0.173 A 
ATOM     83  F   UNL     1       1.388  -2.620  15.025  1.00  0.00    -0.203 F 
ATOM     84  C   UNL     1       3.125  -4.210  14.992  1.00  0.00     0.198 A 
ATOM     85  C   UNL     1       3.996  -4.992  12.896  1.00  0.00     0.198 A 
ATOM     86  F   UNL     1       3.134  -4.152  10.874  1.00  0.00    -0.203 F 
ATOM     87  F   UNL     1       3.151  -4.209  16.332  1.00  0.00    -0.200 F 
ATOM     88  C   UNL     1       4.007  -5.012  14.282  1.00  0.00     0.200 A 
ATOM     89  F   UNL     1       4.843  -5.773  12.210  1.00  0.00    -0.200 F 
ATOM     90  F   UNL     1       4.874  -5.797  14.936  1.00  0.00    -0.200 F 
ENDBRANCH  57  80
ENDBRANCH  31  32
ENDBRANCH  24  26
ENDBRANCH  23  24
ENDBRANCH  22  23
ENDBRANCH   1  22
TORSDOF 15
