REMARK SMILES COc1cc([C@H]2CC(c3ccc(S(C)(=O)=O)cc3)=NN2c2ccc(C(=O)OCCOC(=O)c3ccc(-c4c5nc(c(-c6c(F)c(F)c(F)c(F)c6F)c6ccc([nH]6)c(-c6c(F)c(F)c(F)c(F)c6F)c6nc(c(-c7c(F)c(F)c(F)c(F)c7F)c7ccc4[nH]7)C=C6)C=C5)cc3)cc2)cc(OC)c1OC
REMARK SMILES IDX 28 1 27 2 25 3 26 4 24 5 21 6 22 7 97 8 23 9 96 10 20 11
REMARK SMILES IDX 6 12 7 13 8 14 19 15 5 16 3 17 4 18 102 19 99 20 98 21 2 22
REMARK SMILES IDX 1 23 103 24 104 25 100 26 101 27 9 28 10 29 18 30 11 31
REMARK SMILES IDX 17 32 12 33 13 34 14 35 15 36 16 37 29 38 30 39 31 40 32 41
REMARK SMILES IDX 33 42 34 43 95 44 35 45 94 46 36 47 37 48 38 49 88 50 39 51
REMARK SMILES IDX 93 52 87 53 89 54 40 55 92 56 86 57 85 58 41 60 73 61 53 62
REMARK SMILES IDX 72 63 54 64 57 65 71 66 90 67 55 68 56 69 70 71 91 72 58 73
REMARK SMILES IDX 42 74 43 75 51 76 44 77 45 78 49 79 52 80 46 81 47 82 50 83
REMARK SMILES IDX 48 84 74 85 75 86 83 87 76 88 77 89 81 90 84 91 78 92 79 93
REMARK SMILES IDX 82 94 80 95 59 96 60 97 68 98 61 99 62 100 66 101 69 102
REMARK SMILES IDX 63 103 64 104 67 105 65 106
REMARK H PARENT 89 59 57 70
REMARK Flexibility Score: inf
ROOT
ATOM      1  C   UNL     1       0.905   3.665   8.489  1.00  0.00     0.275 C 
ENDROOT
BRANCH   1   2
ATOM      2  O   UNL     1       0.466   2.358   8.062  1.00  0.00    -0.458 OA
BRANCH   2   3
ATOM      3  C   UNL     1       1.359   1.663   7.311  1.00  0.00     0.338 C 
ATOM      4  O   UNL     1       2.470   2.028   6.982  1.00  0.00    -0.246 OA
BRANCH   3   5
ATOM      5  C   UNL     1       0.837   0.314   6.998  1.00  0.00     0.060 A 
ATOM      6  C   UNL     1       0.000  -2.270   6.262  1.00  0.00     0.060 A 
ATOM      7  C   UNL     1       1.274  -2.057   6.792  1.00  0.00     0.029 A 
ATOM      8  C   UNL     1      -0.862  -1.171   6.132  1.00  0.00     0.029 A 
ATOM      9  C   UNL     1       1.704  -0.775   7.112  1.00  0.00     0.018 A 
ATOM     10  C   UNL     1      -0.459   0.115   6.521  1.00  0.00     0.018 A 
BRANCH   6  11
ATOM     11  N   UNL     1      -0.360  -3.541   5.836  1.00  0.00    -0.257 N 
ATOM     12  C   UNL     1      -0.566  -3.889   4.423  1.00  0.00     0.144 C 
ATOM     13  C   UNL     1      -0.561  -5.430   4.462  1.00  0.00     0.091 C 
ATOM     14  C   UNL     1      -0.215  -5.669   5.907  1.00  0.00     0.071 C 
ATOM     15  N   UNL     1      -0.092  -4.607   6.637  1.00  0.00    -0.176 NA
BRANCH  12  16
ATOM     16  C   UNL     1       0.475  -3.256   3.499  1.00  0.00    -0.015 A 
ATOM     17  C   UNL     1       1.143  -1.421   2.016  1.00  0.00     0.164 A 
ATOM     18  C   UNL     1       0.174  -2.078   2.798  1.00  0.00     0.056 A 
ATOM     19  C   UNL     1       2.456  -1.918   1.915  1.00  0.00     0.203 A 
ATOM     20  C   UNL     1       2.765  -3.104   2.612  1.00  0.00     0.164 A 
ATOM     21  C   UNL     1       1.782  -3.747   3.392  1.00  0.00     0.056 A 
BRANCH  17  22
ATOM     22  O   UNL     1       0.800  -0.203   1.484  1.00  0.00    -0.493 OA
ATOM     23  C   UNL     1      -0.074  -0.330   0.363  1.00  0.00     0.278 C 
ENDBRANCH  17  22
BRANCH  19  24
ATOM     24  O   UNL     1       3.481  -1.323   1.231  1.00  0.00    -0.490 OA
ATOM     25  C   UNL     1       3.221  -0.333   0.251  1.00  0.00     0.278 C 
ENDBRANCH  19  24
BRANCH  20  26
ATOM     26  O   UNL     1       3.959  -3.783   2.660  1.00  0.00    -0.493 OA
ATOM     27  C   UNL     1       5.109  -3.213   2.054  1.00  0.00     0.278 C 
ENDBRANCH  20  26
ENDBRANCH  12  16
BRANCH  14  28
ATOM     28  C   UNL     1      -0.117  -7.024   6.481  1.00  0.00    -0.002 A 
ATOM     29  C   UNL     1      -0.761  -7.265   7.703  1.00  0.00     0.011 A 
ATOM     30  C   UNL     1       0.579  -8.049   5.836  1.00  0.00     0.011 A 
ATOM     31  C   UNL     1      -0.744  -8.542   8.266  1.00  0.00     0.021 A 
ATOM     32  C   UNL     1       0.621  -9.324   6.413  1.00  0.00     0.021 A 
ATOM     33  C   UNL     1      -0.048  -9.566   7.619  1.00  0.00     0.067 A 
BRANCH  33  34
ATOM     34  S   UNL     1      -0.084 -11.206   8.310  1.00  0.00     0.175 S 
ATOM     35  C   UNL     1       0.661 -11.042   9.911  1.00  0.00     0.163 C 
ATOM     36  O   UNL     1      -1.482 -11.547   8.490  1.00  0.00    -0.224 OA
ATOM     37  O   UNL     1       0.789 -12.039   7.504  1.00  0.00    -0.224 OA
ENDBRANCH  33  34
ENDBRANCH  14  28
ENDBRANCH   6  11
ENDBRANCH   3   5
ENDBRANCH   2   3
ENDBRANCH   1   2
BRANCH   1  38
ATOM     38  C   UNL     1       1.426   3.642   9.926  1.00  0.00     0.275 C 
BRANCH  38  39
ATOM     39  O   UNL     1       2.641   2.874  10.005  1.00  0.00    -0.458 OA
BRANCH  39  40
ATOM     40  C   UNL     1       2.589   1.778  10.793  1.00  0.00     0.338 C 
ATOM     41  O   UNL     1       1.656   1.395  11.481  1.00  0.00    -0.246 OA
BRANCH  40  42
ATOM     42  C   UNL     1       3.852   1.029  10.704  1.00  0.00     0.060 A 
ATOM     43  C   UNL     1       4.191   0.426   9.499  1.00  0.00     0.016 A 
ATOM     44  C   UNL     1       4.606   0.770  11.846  1.00  0.00     0.016 A 
ATOM     45  C   UNL     1       5.183  -0.550   9.456  1.00  0.00     0.010 A 
ATOM     46  C   UNL     1       5.696  -0.106  11.768  1.00  0.00     0.010 A 
ATOM     47  C   UNL     1       5.968  -0.820  10.585  1.00  0.00    -0.014 A 
BRANCH  47  48
ATOM     48  C   UNL     1       7.042  -1.857  10.536  1.00  0.00     0.031 A 
ATOM     49  C   UNL     1       7.061  -2.987  11.534  1.00  0.00     0.074 A 
ATOM     50  C   UNL     1       8.009  -1.798   9.598  1.00  0.00     0.049 A 
ATOM     51  N   UNL     1       8.002  -3.867  11.779  1.00  0.00    -0.248 NA
ATOM     52  C   UNL     1       5.871  -3.137  12.386  1.00  0.00     0.031 C 
ATOM     53  C   UNL     1       8.107  -0.788   8.543  1.00  0.00     0.029 A 
ATOM     54  N   UNL     1       9.098  -2.609   9.377  1.00  0.00    -0.354 N 
ATOM     55  C   UNL     1       7.549  -4.622  12.855  1.00  0.00     0.074 A 
ATOM     56  C   UNL     1       6.250  -4.096  13.218  1.00  0.00     0.031 C 
ATOM     57  C   UNL     1       9.163  -1.061   7.766  1.00  0.00     0.029 A 
ATOM     58  C   UNL     1       9.880  -2.201   8.324  1.00  0.00     0.049 A 
ATOM     59  H   UNL     1       9.297  -3.405   9.922  1.00  0.00     0.167 HD
ATOM     60  C   UNL     1       8.163  -5.654  13.483  1.00  0.00     0.037 A 
ATOM     61  C   UNL     1      11.068  -2.653   7.881  1.00  0.00     0.037 A 
ATOM     62  C   UNL     1       9.424  -6.220  13.074  1.00  0.00     0.049 A 
ATOM     63  C   UNL     1      11.735  -3.792   8.595  1.00  0.00     0.074 A 
ATOM     64  C   UNL     1      10.104  -7.298  13.617  1.00  0.00     0.029 A 
ATOM     65  N   UNL     1      10.191  -5.761  12.012  1.00  0.00    -0.354 N 
ATOM     66  N   UNL     1      11.321  -4.469   9.637  1.00  0.00    -0.248 NA
ATOM     67  C   UNL     1      13.045  -4.217   8.082  1.00  0.00     0.031 C 
ATOM     68  C   UNL     1      11.302  -7.462  12.912  1.00  0.00     0.029 A 
ATOM     69  C   UNL     1      11.346  -6.519  11.897  1.00  0.00     0.049 A 
ATOM     70  H   UNL     1       9.949  -5.007  11.427  1.00  0.00     0.167 HD
ATOM     71  C   UNL     1      12.312  -5.402   9.904  1.00  0.00     0.074 A 
ATOM     72  C   UNL     1      13.339  -5.220   8.899  1.00  0.00     0.031 C 
ATOM     73  C   UNL     1      12.365  -6.323  10.898  1.00  0.00     0.037 A 
BRANCH  60  74
ATOM     74  C   UNL     1       7.501  -6.213  14.712  1.00  0.00     0.064 A 
ATOM     75  C   UNL     1       6.316  -6.961  14.653  1.00  0.00     0.173 A 
ATOM     76  C   UNL     1       8.081  -6.007  15.975  1.00  0.00     0.173 A 
ATOM     77  F   UNL     1       5.715  -7.181  13.474  1.00  0.00    -0.203 F 
ATOM     78  C   UNL     1       5.716  -7.446  15.813  1.00  0.00     0.198 A 
ATOM     79  C   UNL     1       7.496  -6.522  17.129  1.00  0.00     0.198 A 
ATOM     80  F   UNL     1       9.222  -5.310  16.090  1.00  0.00    -0.203 F 
ATOM     81  F   UNL     1       4.553  -8.108  15.737  1.00  0.00    -0.200 F 
ATOM     82  C   UNL     1       6.308  -7.231  17.049  1.00  0.00     0.200 A 
ATOM     83  F   UNL     1       8.080  -6.326  18.320  1.00  0.00    -0.200 F 
ATOM     84  F   UNL     1       5.729  -7.700  18.163  1.00  0.00    -0.200 F 
ENDBRANCH  60  74
BRANCH  61  85
ATOM     85  C   UNL     1      11.712  -1.983   6.721  1.00  0.00     0.064 A 
ATOM     86  C   UNL     1      11.811  -2.624   5.479  1.00  0.00     0.173 A 
ATOM     87  C   UNL     1      12.196  -0.669   6.819  1.00  0.00     0.173 A 
ATOM     88  F   UNL     1      11.388  -3.889   5.343  1.00  0.00    -0.203 F 
ATOM     89  C   UNL     1      12.364  -1.973   4.378  1.00  0.00     0.198 A 
ATOM     90  C   UNL     1      12.719  -0.009   5.711  1.00  0.00     0.198 A 
ATOM     91  F   UNL     1      12.124  -0.013   7.987  1.00  0.00    -0.203 F 
ATOM     92  F   UNL     1      12.471  -2.616   3.207  1.00  0.00    -0.200 F 
ATOM     93  C   UNL     1      12.806  -0.663   4.491  1.00  0.00     0.200 A 
ATOM     94  F   UNL     1      13.127   1.262   5.821  1.00  0.00    -0.200 F 
ATOM     95  F   UNL     1      13.316  -0.031   3.426  1.00  0.00    -0.200 F 
ENDBRANCH  61  85
BRANCH  73  96
ATOM     96  C   UNL     1      13.568  -7.219  10.932  1.00  0.00     0.064 A 
ATOM     97  C   UNL     1      14.825  -6.745  11.335  1.00  0.00     0.173 A 
ATOM     98  C   UNL     1      13.455  -8.574  10.585  1.00  0.00     0.173 A 
ATOM     99  F   UNL     1      14.988  -5.454  11.659  1.00  0.00    -0.203 F 
ATOM    100  C   UNL     1      15.932  -7.590  11.365  1.00  0.00     0.198 A 
ATOM    101  C   UNL     1      14.557  -9.422  10.643  1.00  0.00     0.198 A 
ATOM    102  F   UNL     1      12.274  -9.076  10.197  1.00  0.00    -0.203 F 
ATOM    103  F   UNL     1      17.134  -7.106  11.707  1.00  0.00    -0.200 F 
ATOM    104  C   UNL     1      15.796  -8.928  11.026  1.00  0.00     0.200 A 
ATOM    105  F   UNL     1      14.422 -10.717  10.325  1.00  0.00    -0.200 F 
ATOM    106  F   UNL     1      16.860  -9.741  11.059  1.00  0.00    -0.200 F 
ENDBRANCH  73  96
ENDBRANCH  47  48
ENDBRANCH  40  42
ENDBRANCH  39  40
ENDBRANCH  38  39
ENDBRANCH   1  38
TORSDOF 18
