REMARK SMILES O=C(OCCOC(=O)c1cnc(Nc2ccccc2)nc1)c1ccc(-c2c3nc(c(-c4c(F)c(F)c(F)c(F)c4F)c4ccc([nH]4)c(-c4c(F)c(F)c(F)c(F)c4F)c4nc(c(-c5c(F)c(F)c(F)c(F)c5F)c5ccc2[nH]5)C=C4)C=C3)cc1
REMARK SMILES IDX 4 1 3 2 2 3 1 4 22 5 23 6 84 7 24 8 83 9 25 10 26 11 27 12
REMARK SMILES IDX 77 13 28 14 82 15 76 16 78 17 29 18 81 19 75 20 74 21 30 23
REMARK SMILES IDX 62 24 42 25 61 26 43 27 46 28 60 29 79 30 44 31 45 32 59 34
REMARK SMILES IDX 80 35 47 36 31 37 32 38 40 39 33 40 34 41 38 42 41 43 35 44
REMARK SMILES IDX 36 45 39 46 37 47 63 48 64 49 72 50 65 51 66 52 70 53 73 54
REMARK SMILES IDX 67 55 68 56 71 57 69 58 48 59 49 60 57 61 50 62 51 63 55 64
REMARK SMILES IDX 58 65 52 66 53 67 56 68 54 69 5 70 6 71 7 72 8 73 9 74 10 75
REMARK SMILES IDX 21 76 11 77 20 78 12 79 13 80 14 82 15 83 19 84 16 85 18 86
REMARK SMILES IDX 17 87
REMARK H PARENT 78 22 46 33 13 81
REMARK Flexibility Score: inf
ROOT
ATOM      1  C   UNL     1       3.950  -0.163  -1.680  1.00  0.00     0.275 C 
ENDROOT
BRANCH   1   2
ATOM      2  O   UNL     1       2.896  -0.814  -0.948  1.00  0.00    -0.458 OA
BRANCH   2   3
ATOM      3  C   UNL     1       2.765  -1.062   0.375  1.00  0.00     0.338 C 
ATOM      4  O   UNL     1       1.883  -1.833   0.750  1.00  0.00    -0.246 OA
BRANCH   3   5
ATOM      5  C   UNL     1       3.531  -0.340   1.436  1.00  0.00     0.060 A 
ATOM      6  C   UNL     1       4.857   0.083   1.346  1.00  0.00     0.016 A 
ATOM      7  C   UNL     1       2.852  -0.117   2.650  1.00  0.00     0.016 A 
ATOM      8  C   UNL     1       5.469   0.760   2.406  1.00  0.00     0.010 A 
ATOM      9  C   UNL     1       3.454   0.569   3.710  1.00  0.00     0.010 A 
ATOM     10  C   UNL     1       4.776   1.004   3.595  1.00  0.00    -0.014 A 
BRANCH  10  11
ATOM     11  C   UNL     1       5.503   1.569   4.754  1.00  0.00     0.031 A 
ATOM     12  C   UNL     1       5.975   0.635   5.828  1.00  0.00     0.074 A 
ATOM     13  C   UNL     1       5.817   2.877   4.795  1.00  0.00     0.049 A 
ATOM     14  N   UNL     1       6.728   0.881   6.869  1.00  0.00    -0.248 NA
ATOM     15  C   UNL     1       5.563  -0.773   5.702  1.00  0.00     0.031 C 
ATOM     16  C   UNL     1       5.450   3.855   3.777  1.00  0.00     0.029 A 
ATOM     17  N   UNL     1       6.523   3.606   5.718  1.00  0.00    -0.354 N 
ATOM     18  C   UNL     1       6.912  -0.343   7.493  1.00  0.00     0.074 A 
ATOM     19  C   UNL     1       6.137  -1.320   6.762  1.00  0.00     0.031 C 
ATOM     20  C   UNL     1       5.927   5.061   4.128  1.00  0.00     0.029 A 
ATOM     21  C   UNL     1       6.627   4.940   5.402  1.00  0.00     0.049 A 
ATOM     22  H   UNL     1       6.917   3.211   6.529  1.00  0.00     0.167 HD
ATOM     23  C   UNL     1       7.691  -0.632   8.561  1.00  0.00     0.037 A 
ATOM     24  C   UNL     1       7.220   5.946   6.075  1.00  0.00     0.037 A 
ATOM     25  C   UNL     1       8.435   0.351   9.298  1.00  0.00     0.049 A 
ATOM     26  C   UNL     1       7.922   5.621   7.367  1.00  0.00     0.074 A 
ATOM     27  C   UNL     1       9.254   0.176  10.397  1.00  0.00     0.029 A 
ATOM     28  N   UNL     1       8.430   1.710   9.011  1.00  0.00    -0.354 N 
ATOM     29  N   UNL     1       8.140   4.451   7.920  1.00  0.00    -0.248 NA
ATOM     30  C   UNL     1       8.464   6.753   8.129  1.00  0.00     0.031 C 
ATOM     31  C   UNL     1       9.708   1.436  10.805  1.00  0.00     0.029 A 
ATOM     32  C   UNL     1       9.207   2.391   9.933  1.00  0.00     0.049 A 
ATOM     33  H   UNL     1       7.946   2.128   8.262  1.00  0.00     0.167 HD
ATOM     34  C   UNL     1       8.898   4.699   9.055  1.00  0.00     0.074 A 
ATOM     35  C   UNL     1       9.087   6.134   9.122  1.00  0.00     0.031 C 
ATOM     36  C   UNL     1       9.408   3.818   9.951  1.00  0.00     0.037 A 
BRANCH  23  37
ATOM     37  C   UNL     1       7.750  -2.069   8.983  1.00  0.00     0.064 A 
ATOM     38  C   UNL     1       8.424  -3.029   8.210  1.00  0.00     0.173 A 
ATOM     39  C   UNL     1       7.096  -2.501  10.145  1.00  0.00     0.173 A 
ATOM     40  F   UNL     1       9.046  -2.669   7.078  1.00  0.00    -0.203 F 
ATOM     41  C   UNL     1       8.408  -4.375   8.567  1.00  0.00     0.198 A 
ATOM     42  C   UNL     1       7.103  -3.845  10.511  1.00  0.00     0.198 A 
ATOM     43  F   UNL     1       6.435  -1.624  10.914  1.00  0.00    -0.203 F 
ATOM     44  F   UNL     1       9.005  -5.282   7.781  1.00  0.00    -0.200 F 
ATOM     45  C   UNL     1       7.748  -4.781   9.717  1.00  0.00     0.200 A 
ATOM     46  F   UNL     1       6.467  -4.237  11.624  1.00  0.00    -0.200 F 
ATOM     47  F   UNL     1       7.721  -6.079  10.052  1.00  0.00    -0.200 F 
ENDBRANCH  23  37
BRANCH  24  48
ATOM     48  C   UNL     1       7.170   7.344   5.562  1.00  0.00     0.064 A 
ATOM     49  C   UNL     1       8.326   8.042   5.189  1.00  0.00     0.173 A 
ATOM     50  C   UNL     1       5.954   8.034   5.481  1.00  0.00     0.173 A 
ATOM     51  F   UNL     1       9.523   7.444   5.269  1.00  0.00    -0.203 F 
ATOM     52  C   UNL     1       8.264   9.376   4.780  1.00  0.00     0.198 A 
ATOM     53  C   UNL     1       5.884   9.356   5.049  1.00  0.00     0.198 A 
ATOM     54  F   UNL     1       4.825   7.415   5.831  1.00  0.00    -0.203 F 
ATOM     55  F   UNL     1       9.392  10.034   4.481  1.00  0.00    -0.200 F 
ATOM     56  C   UNL     1       7.043  10.031   4.708  1.00  0.00     0.200 A 
ATOM     57  F   UNL     1       4.699   9.978   4.980  1.00  0.00    -0.200 F 
ATOM     58  F   UNL     1       6.987  11.313   4.325  1.00  0.00    -0.200 F 
ENDBRANCH  24  48
BRANCH  36  59
ATOM     59  C   UNL     1      10.292   4.377  11.024  1.00  0.00     0.064 A 
ATOM     60  C   UNL     1       9.776   5.097  12.110  1.00  0.00     0.173 A 
ATOM     61  C   UNL     1      11.677   4.155  10.976  1.00  0.00     0.173 A 
ATOM     62  F   UNL     1       8.461   5.351  12.188  1.00  0.00    -0.203 F 
ATOM     63  C   UNL     1      10.619   5.595  13.099  1.00  0.00     0.198 A 
ATOM     64  C   UNL     1      12.512   4.629  11.981  1.00  0.00     0.198 A 
ATOM     65  F   UNL     1      12.216   3.467   9.958  1.00  0.00    -0.203 F 
ATOM     66  F   UNL     1      10.112   6.320  14.105  1.00  0.00    -0.200 F 
ATOM     67  C   UNL     1      11.984   5.354  13.038  1.00  0.00     0.200 A 
ATOM     68  F   UNL     1      13.829   4.386  11.926  1.00  0.00    -0.200 F 
ATOM     69  F   UNL     1      12.793   5.829  13.995  1.00  0.00    -0.200 F 
ENDBRANCH  36  59
ENDBRANCH  10  11
ENDBRANCH   3   5
ENDBRANCH   2   3
ENDBRANCH   1   2
BRANCH   1  70
ATOM     70  C   UNL     1       3.737   1.335  -1.899  1.00  0.00     0.275 C 
BRANCH  70  71
ATOM     71  O   UNL     1       3.372   2.039  -0.702  1.00  0.00    -0.458 OA
BRANCH  71  72
ATOM     72  C   UNL     1       2.039   2.244  -0.539  1.00  0.00     0.341 C 
ATOM     73  O   UNL     1       1.141   1.903  -1.287  1.00  0.00    -0.246 OA
BRANCH  72  74
ATOM     74  C   UNL     1       1.807   2.828   0.777  1.00  0.00     0.096 A 
ATOM     75  C   UNL     1       2.487   3.915   1.259  1.00  0.00     0.132 A 
ATOM     76  C   UNL     1       0.914   2.252   1.644  1.00  0.00     0.132 A 
ATOM     77  N   UNL     1       2.340   4.376   2.521  1.00  0.00    -0.220 NA
ATOM     78  N   UNL     1       0.792   2.633   2.936  1.00  0.00    -0.220 NA
ATOM     79  C   UNL     1       1.527   3.684   3.343  1.00  0.00     0.227 A 
BRANCH  79  80
ATOM     80  N   UNL     1       1.511   3.936   4.707  1.00  0.00    -0.324 N 
ATOM     81  H   UNL     1       1.260   3.159   5.257  1.00  0.00     0.170 HD
BRANCH  80  82
ATOM     82  C   UNL     1       1.785   5.091   5.443  1.00  0.00     0.041 A 
ATOM     83  C   UNL     1       2.267   4.972   6.755  1.00  0.00     0.026 A 
ATOM     84  C   UNL     1       1.610   6.374   4.915  1.00  0.00     0.026 A 
ATOM     85  C   UNL     1       2.511   6.104   7.536  1.00  0.00     0.002 A 
ATOM     86  C   UNL     1       1.826   7.508   5.702  1.00  0.00     0.002 A 
ATOM     87  C   UNL     1       2.266   7.373   7.017  1.00  0.00     0.000 A 
ENDBRANCH  80  82
ENDBRANCH  79  80
ENDBRANCH  72  74
ENDBRANCH  71  72
ENDBRANCH  70  71
ENDBRANCH   1  70
TORSDOF 13
