REMARK SMILES CS(=O)(=O)c1ccc(C(=O)OCCOC(=O)c2ccc(-c3c4nc(c(-c5c(F)c(F)c(F)c(F)c5F)c5ccc([nH]5)c(-c5c(F)c(F)c(F)c(F)c5F)c5nc(c(-c6c(F)c(F)c(F)c(F)c6F)c6ccc3[nH]6)C=C5)C=C4)cc2)o1
REMARK SMILES IDX 13 1 12 2 11 3 9 4 10 5 8 6 5 7 6 8 80 9 7 10 2 11 1 12 3 13
REMARK SMILES IDX 4 14 14 15 15 16 16 17 17 18 18 19 79 20 19 21 78 22 20 23
REMARK SMILES IDX 21 24 22 25 72 26 23 27 77 28 71 29 73 30 24 31 76 32 70 33
REMARK SMILES IDX 69 34 25 36 57 37 37 38 56 39 38 40 41 41 55 42 74 43 39 44
REMARK SMILES IDX 40 45 54 47 75 48 42 49 26 50 27 51 35 52 28 53 29 54 33 55
REMARK SMILES IDX 36 56 30 57 31 58 34 59 32 60 58 61 59 62 67 63 60 64 61 65
REMARK SMILES IDX 65 66 68 67 62 68 63 69 66 70 64 71 43 72 44 73 52 74 45 75
REMARK SMILES IDX 46 76 50 77 53 78 47 79 48 80 51 81 49 82
REMARK H PARENT 73 35 41 46
REMARK Flexibility Score: inf
ROOT
ATOM      1  C   UNL     1       4.074   1.974  -8.146  1.00  0.00     0.275 C 
ENDROOT
BRANCH   1   2
ATOM      2  C   UNL     1       2.602   2.398  -8.225  1.00  0.00     0.275 C 
BRANCH   2   3
ATOM      3  O   UNL     1       2.026   2.555  -6.915  1.00  0.00    -0.456 OA
BRANCH   3   4
ATOM      4  C   UNL     1       1.334   1.476  -6.441  1.00  0.00     0.374 C 
ATOM      5  O   UNL     1       1.085   0.474  -7.096  1.00  0.00    -0.242 OA
BRANCH   4   6
ATOM      6  C   UNL     1       1.035   1.657  -5.037  1.00  0.00     0.213 A 
ATOM      7  C   UNL     1       0.532   0.884  -3.000  1.00  0.00     0.218 A 
ATOM      8  C   UNL     1       0.790   2.244  -2.885  1.00  0.00     0.064 A 
ATOM      9  O   UNL     1       0.630   0.557  -4.334  1.00  0.00    -0.438 OA
ATOM     10  C   UNL     1       1.126   2.730  -4.175  1.00  0.00     0.059 A 
BRANCH   7  11
ATOM     11  S   UNL     1       0.154  -0.380  -1.786  1.00  0.00     0.208 S 
ATOM     12  C   UNL     1       1.016   0.152  -0.333  1.00  0.00     0.167 C 
ATOM     13  O   UNL     1       0.785  -1.588  -2.279  1.00  0.00    -0.221 OA
ATOM     14  O   UNL     1      -1.272  -0.275  -1.557  1.00  0.00    -0.221 OA
ENDBRANCH   7  11
ENDBRANCH   4   6
ENDBRANCH   3   4
ENDBRANCH   2   3
ENDBRANCH   1   2
BRANCH   1  15
ATOM     15  O   UNL     1       4.227   0.613  -7.694  1.00  0.00    -0.458 OA
BRANCH  15  16
ATOM     16  C   UNL     1       4.371   0.459  -6.356  1.00  0.00     0.338 C 
ATOM     17  O   UNL     1       4.403   1.345  -5.517  1.00  0.00    -0.246 OA
BRANCH  16  18
ATOM     18  C   UNL     1       4.352  -0.974  -6.003  1.00  0.00     0.060 A 
ATOM     19  C   UNL     1       3.475  -1.379  -4.994  1.00  0.00     0.016 A 
ATOM     20  C   UNL     1       5.213  -1.899  -6.598  1.00  0.00     0.016 A 
ATOM     21  C   UNL     1       3.449  -2.705  -4.574  1.00  0.00     0.010 A 
ATOM     22  C   UNL     1       5.194  -3.233  -6.169  1.00  0.00     0.010 A 
ATOM     23  C   UNL     1       4.318  -3.640  -5.148  1.00  0.00    -0.014 A 
BRANCH  23  24
ATOM     24  C   UNL     1       4.323  -5.029  -4.630  1.00  0.00     0.031 A 
ATOM     25  C   UNL     1       5.393  -5.469  -3.675  1.00  0.00     0.074 A 
ATOM     26  C   UNL     1       3.336  -5.875  -4.974  1.00  0.00     0.049 A 
ATOM     27  N   UNL     1       5.559  -6.630  -3.092  1.00  0.00    -0.248 NA
ATOM     28  C   UNL     1       6.413  -4.469  -3.326  1.00  0.00     0.031 C 
ATOM     29  C   UNL     1       2.222  -5.550  -5.864  1.00  0.00     0.029 A 
ATOM     30  N   UNL     1       3.105  -7.177  -4.606  1.00  0.00    -0.354 N 
ATOM     31  C   UNL     1       6.700  -6.502  -2.312  1.00  0.00     0.074 A 
ATOM     32  C   UNL     1       7.203  -5.160  -2.515  1.00  0.00     0.031 C 
ATOM     33  C   UNL     1       1.419  -6.621  -5.966  1.00  0.00     0.029 A 
ATOM     34  C   UNL     1       1.976  -7.714  -5.171  1.00  0.00     0.049 A 
ATOM     35  H   UNL     1       3.693  -7.677  -3.995  1.00  0.00     0.167 HD
ATOM     36  C   UNL     1       7.269  -7.420  -1.495  1.00  0.00     0.037 A 
ATOM     37  C   UNL     1       1.453  -8.950  -5.063  1.00  0.00     0.037 A 
ATOM     38  C   UNL     1       6.762  -8.751  -1.285  1.00  0.00     0.049 A 
ATOM     39  C   UNL     1       2.129  -9.963  -4.181  1.00  0.00     0.074 A 
ATOM     40  C   UNL     1       7.263  -9.748  -0.465  1.00  0.00     0.029 A 
ATOM     41  N   UNL     1       5.634  -9.272  -1.903  1.00  0.00    -0.354 N 
ATOM     42  N   UNL     1       3.200  -9.830  -3.437  1.00  0.00    -0.248 NA
ATOM     43  C   UNL     1       1.523 -11.301  -4.123  1.00  0.00     0.031 C 
ATOM     44  C   UNL     1       6.461 -10.884  -0.615  1.00  0.00     0.029 A 
ATOM     45  C   UNL     1       5.436 -10.583  -1.498  1.00  0.00     0.049 A 
ATOM     46  H   UNL     1       5.059  -8.783  -2.535  1.00  0.00     0.167 HD
ATOM     47  C   UNL     1       3.383 -11.053  -2.807  1.00  0.00     0.074 A 
ATOM     48  C   UNL     1       2.306 -11.915  -3.247  1.00  0.00     0.031 C 
ATOM     49  C   UNL     1       4.357 -11.427  -1.942  1.00  0.00     0.037 A 
BRANCH  36  50
ATOM     50  C   UNL     1       8.525  -7.021  -0.780  1.00  0.00     0.064 A 
ATOM     51  C   UNL     1       8.502  -6.137   0.308  1.00  0.00     0.173 A 
ATOM     52  C   UNL     1       9.762  -7.557  -1.168  1.00  0.00     0.173 A 
ATOM     53  F   UNL     1       7.346  -5.588   0.709  1.00  0.00    -0.203 F 
ATOM     54  C   UNL     1       9.677  -5.787   0.969  1.00  0.00     0.198 A 
ATOM     55  C   UNL     1      10.931  -7.223  -0.491  1.00  0.00     0.198 A 
ATOM     56  F   UNL     1       9.835  -8.410  -2.201  1.00  0.00    -0.203 F 
ATOM     57  F   UNL     1       9.639  -4.910   1.981  1.00  0.00    -0.200 F 
ATOM     58  C   UNL     1      10.889  -6.334   0.573  1.00  0.00     0.200 A 
ATOM     59  F   UNL     1      12.100  -7.758  -0.869  1.00  0.00    -0.200 F 
ATOM     60  F   UNL     1      12.018  -5.998   1.212  1.00  0.00    -0.200 F 
ENDBRANCH  36  50
BRANCH  37  61
ATOM     61  C   UNL     1       0.219  -9.295  -5.814  1.00  0.00     0.064 A 
ATOM     62  C   UNL     1      -0.998  -9.501  -5.150  1.00  0.00     0.173 A 
ATOM     63  C   UNL     1       0.235  -9.428  -7.210  1.00  0.00     0.173 A 
ATOM     64  F   UNL     1      -1.054  -9.415  -3.813  1.00  0.00    -0.203 F 
ATOM     65  C   UNL     1      -2.151  -9.837  -5.855  1.00  0.00     0.198 A 
ATOM     66  C   UNL     1      -0.924  -9.740  -7.915  1.00  0.00     0.198 A 
ATOM     67  F   UNL     1       1.377  -9.247  -7.889  1.00  0.00    -0.203 F 
ATOM     68  F   UNL     1      -3.294 -10.070  -5.195  1.00  0.00    -0.200 F 
ATOM     69  C   UNL     1      -2.115  -9.950  -7.237  1.00  0.00     0.200 A 
ATOM     70  F   UNL     1      -0.886  -9.843  -9.251  1.00  0.00    -0.200 F 
ATOM     71  F   UNL     1      -3.226 -10.272  -7.915  1.00  0.00    -0.200 F 
ENDBRANCH  37  61
BRANCH  49  72
ATOM     72  C   UNL     1       4.290 -12.822  -1.396  1.00  0.00     0.064 A 
ATOM     73  C   UNL     1       4.631 -13.933  -2.181  1.00  0.00     0.173 A 
ATOM     74  C   UNL     1       3.920 -13.046  -0.061  1.00  0.00     0.173 A 
ATOM     75  F   UNL     1       4.978 -13.770  -3.466  1.00  0.00    -0.203 F 
ATOM     76  C   UNL     1       4.585 -15.221  -1.654  1.00  0.00     0.198 A 
ATOM     77  C   UNL     1       3.897 -14.333   0.468  1.00  0.00     0.198 A 
ATOM     78  F   UNL     1       3.591 -12.015   0.732  1.00  0.00    -0.203 F 
ATOM     79  F   UNL     1       4.878 -16.272  -2.432  1.00  0.00    -0.200 F 
ATOM     80  C   UNL     1       4.224 -15.419  -0.330  1.00  0.00     0.200 A 
ATOM     81  F   UNL     1       3.559 -14.523   1.751  1.00  0.00    -0.200 F 
ATOM     82  F   UNL     1       4.185 -16.660   0.177  1.00  0.00    -0.200 F 
ENDBRANCH  49  72
ENDBRANCH  23  24
ENDBRANCH  16  18
ENDBRANCH  15  16
ENDBRANCH   1  15
TORSDOF 12
