REMARK SMILES CC(=O)N1CCCN(S(=O)(=O)c2ccc(C)c(C(=O)OCCOC(=O)c3ccc(-c4c5nc(c(-c6c(F)c(F)c(F)c(F)c6F)c6ccc([nH]6)c(-c6c(F)c(F)c(F)c(F)c6F)c6nc(c(-c7c(F)c(F)c(F)c(F)c7F)c7ccc4[nH]7)C=C6)C=C5)cc3)c2)CC1
REMARK SMILES IDX 18 1 19 2 17 3 12 4 13 5 89 6 14 7 15 8 16 9 9 10 10 11
REMARK SMILES IDX 11 12 8 13 7 14 6 15 5 16 4 17 2 18 1 19 3 20 91 21 90 23
REMARK SMILES IDX 20 25 21 26 22 27 23 28 24 29 25 30 26 31 27 32 88 33 28 34
REMARK SMILES IDX 87 35 29 36 30 37 31 38 81 39 32 40 86 41 80 42 82 43 33 44
REMARK SMILES IDX 85 45 79 46 78 47 34 49 66 50 46 51 65 52 47 53 50 54 64 55
REMARK SMILES IDX 83 56 48 57 49 58 63 60 84 61 51 62 35 63 36 64 44 65 37 66
REMARK SMILES IDX 38 67 42 68 45 69 39 70 40 71 43 72 41 73 67 74 68 75 76 76
REMARK SMILES IDX 69 77 70 78 74 79 77 80 71 81 72 82 75 83 73 84 52 85 53 86
REMARK SMILES IDX 61 87 54 88 55 89 59 90 62 91 56 92 57 93 60 94 58 95
REMARK H PARENT 82 48 50 59
REMARK Flexibility Score: 80.00
ROOT
ATOM      1  C   UNL     1      -0.573 -10.549   4.018  1.00  0.00     0.338 C 
ATOM      2  O   UNL     1       0.473 -11.078   4.498  1.00  0.00    -0.246 OA
ENDROOT
BRANCH   1   3
ATOM      3  C   UNL     1      -1.123  -8.524   3.485  1.00  0.00     0.064 A 
ATOM      4  C   UNL     1      -0.330  -5.875   3.252  1.00  0.00     0.083 A 
ATOM      5  C   UNL     1      -1.482  -5.462   2.659  1.00  0.00     0.022 A 
ATOM      6  C   UNL     1      -0.216  -7.236   3.639  1.00  0.00     0.037 A 
ATOM      7  C   UNL     1      -2.497  -6.390   2.531  1.00  0.00     0.006 A 
ATOM      8  C   UNL     1      -2.410  -7.812   2.889  1.00  0.00    -0.037 A 
ATOM      9  C   UNL     1      -3.816  -8.383   2.489  1.00  0.00     0.045 C 
BRANCH   4  10
ATOM     10  S   UNL     1       1.178  -4.899   3.150  1.00  0.00     0.243 S 
ATOM     11  O   UNL     1       1.275  -4.519   1.760  1.00  0.00    -0.207 OA
ATOM     12  O   UNL     1       2.251  -5.663   3.751  1.00  0.00    -0.207 OA
BRANCH  10  13
ATOM     13  N   UNL     1       0.985  -3.517   4.115  1.00  0.00    -0.196 NA
BRANCH  13  14
ATOM     14  C   UNL     1       2.222  -2.775   4.467  1.00  0.00     0.104 C 
BRANCH  14  15
ATOM     15  C   UNL     1       2.965  -2.105   3.317  1.00  0.00     0.038 C 
BRANCH  15  16
ATOM     16  C   UNL     1       2.259  -1.712   2.016  1.00  0.00     0.121 C 
BRANCH  16  17
ATOM     17  N   UNL     1       0.917  -1.135   2.114  1.00  0.00    -0.342 N 
BRANCH  17  18
ATOM     18  C   UNL     1       0.522  -0.017   1.381  1.00  0.00     0.219 C 
ATOM     19  C   UNL     1       1.181   0.185   0.038  1.00  0.00     0.114 C 
ATOM     20  O   UNL     1      -0.445   0.670   1.711  1.00  0.00    -0.275 OA
ENDBRANCH  17  18
BRANCH  17  21
ATOM     21  C   UNL     1      -0.202  -1.987   2.516  1.00  0.00     0.136 CG0
ATOM     22  G   UNL     1      -0.144  -2.587   3.910  1.00  0.00     0.000 G0
ENDBRANCH  17  21
ENDBRANCH  16  17
ENDBRANCH  15  16
ENDBRANCH  14  15
ENDBRANCH  13  14
BRANCH  13  23
ATOM     23  C   UNL     1      -0.144  -2.587   3.910  1.00  0.00     0.124 CG0
ATOM     24  G   UNL     1      -0.202  -1.987   2.516  1.00  0.00     0.000 G0
ENDBRANCH  13  23
ENDBRANCH  10  13
ENDBRANCH   4  10
ENDBRANCH   1   3
BRANCH   1  25
ATOM     25  O   UNL     1      -1.424 -11.785   3.904  1.00  0.00    -0.458 OA
BRANCH  25  26
ATOM     26  C   UNL     1      -0.739 -13.031   3.694  1.00  0.00     0.275 C 
BRANCH  26  27
ATOM     27  C   UNL     1      -0.188 -13.062   2.261  1.00  0.00     0.275 C 
BRANCH  27  28
ATOM     28  O   UNL     1       0.828 -12.067   1.952  1.00  0.00    -0.458 OA
BRANCH  28  29
ATOM     29  C   UNL     1       0.510 -10.946   1.238  1.00  0.00     0.338 C 
ATOM     30  O   UNL     1       0.953 -10.659   0.141  1.00  0.00    -0.246 OA
BRANCH  29  31
ATOM     31  C   UNL     1      -0.148  -9.941   2.099  1.00  0.00     0.060 A 
ATOM     32  C   UNL     1       0.933  -9.294   3.387  1.00  0.00     0.016 A 
ATOM     33  C   UNL     1      -1.882 -10.252   2.445  1.00  0.00     0.016 A 
ATOM     34  C   UNL     1       0.274  -9.016   5.089  1.00  0.00     0.010 A 
ATOM     35  C   UNL     1      -2.535  -9.985   4.147  1.00  0.00     0.010 A 
ATOM     36  C   UNL     1      -1.435  -9.382   5.447  1.00  0.00    -0.014 A 
BRANCH  36  37
ATOM     37  C   UNL     1      -1.849  -9.784   6.768  1.00  0.00     0.031 A 
ATOM     38  C   UNL     1      -3.143  -9.226   7.162  1.00  0.00     0.074 A 
ATOM     39  C   UNL     1      -1.134 -10.774   7.363  1.00  0.00     0.049 A 
ATOM     40  N   UNL     1      -3.620  -9.341   8.334  1.00  0.00    -0.248 NA
ATOM     41  C   UNL     1      -4.009  -8.415   6.298  1.00  0.00     0.031 C 
ATOM     42  C   UNL     1      -1.466 -11.688   8.453  1.00  0.00     0.029 A 
ATOM     43  N   UNL     1       0.227 -11.036   7.151  1.00  0.00    -0.354 N 
ATOM     44  C   UNL     1      -4.941  -8.965   8.289  1.00  0.00     0.074 A 
ATOM     45  C   UNL     1      -5.113  -8.291   7.038  1.00  0.00     0.031 C 
ATOM     46  C   UNL     1      -0.326 -12.164   8.999  1.00  0.00     0.029 A 
ATOM     47  C   UNL     1       0.791 -11.506   8.342  1.00  0.00     0.049 A 
ATOM     48  H   UNL     1       0.709 -10.909   6.302  1.00  0.00     0.167 HD
ATOM     49  C   UNL     1      -5.716  -9.429   9.299  1.00  0.00     0.037 A 
ATOM     50  C   UNL     1       1.717 -10.720   8.971  1.00  0.00     0.037 A 
ATOM     51  C   UNL     1      -4.834  -9.972  10.335  1.00  0.00     0.049 A 
ATOM     52  C   UNL     1       1.089 -10.032  10.171  1.00  0.00     0.074 A 
ATOM     53  C   UNL     1      -4.380 -11.250  10.607  1.00  0.00     0.029 A 
ATOM     54  N   UNL     1      -3.908  -9.098  10.899  1.00  0.00    -0.354 N 
ATOM     55  N   UNL     1      -0.198  -9.834  10.314  1.00  0.00    -0.248 NA
ATOM     56  C   UNL     1       1.853  -9.601  11.336  1.00  0.00     0.031 C 
ATOM     57  C   UNL     1      -3.114 -11.121  11.261  1.00  0.00     0.029 A 
ATOM     58  C   UNL     1      -2.815  -9.773  11.407  1.00  0.00     0.049 A 
ATOM     59  H   UNL     1      -4.018  -8.120  10.931  1.00  0.00     0.167 HD
ATOM     60  C   UNL     1      -0.452  -9.314  11.554  1.00  0.00     0.074 A 
ATOM     61  C   UNL     1       0.867  -9.198  12.155  1.00  0.00     0.031 C 
ATOM     62  C   UNL     1      -1.712  -9.025  12.009  1.00  0.00     0.037 A 
BRANCH  49  63
ATOM     63  C   UNL     1      -7.210  -9.579   9.299  1.00  0.00     0.064 A 
ATOM     64  C   UNL     1      -7.834 -10.107  10.448  1.00  0.00     0.173 A 
ATOM     65  C   UNL     1      -8.070  -9.355   8.202  1.00  0.00     0.173 A 
ATOM     66  F   UNL     1      -7.131 -10.363  11.560  1.00  0.00    -0.203 F 
ATOM     67  C   UNL     1      -9.196 -10.409  10.491  1.00  0.00     0.198 A 
ATOM     68  C   UNL     1      -9.442  -9.626   8.259  1.00  0.00     0.198 A 
ATOM     69  F   UNL     1      -7.626  -8.912   7.022  1.00  0.00    -0.203 F 
ATOM     70  F   UNL     1      -9.718 -10.954  11.597  1.00  0.00    -0.200 F 
ATOM     71  C   UNL     1     -10.002 -10.164   9.399  1.00  0.00     0.200 A 
ATOM     72  F   UNL     1     -10.212  -9.382   7.188  1.00  0.00    -0.200 F 
ATOM     73  F   UNL     1     -11.309 -10.452   9.440  1.00  0.00    -0.200 F 
ENDBRANCH  49  63
BRANCH  50  74
ATOM     74  C   UNL     1       2.718 -10.144   8.011  1.00  0.00     0.064 A 
ATOM     75  C   UNL     1       3.398 -11.056   7.166  1.00  0.00     0.173 A 
ATOM     76  C   UNL     1       2.738  -8.801   7.628  1.00  0.00     0.173 A 
ATOM     77  F   UNL     1       3.480 -12.351   7.513  1.00  0.00    -0.203 F 
ATOM     78  C   UNL     1       3.878 -10.682   5.911  1.00  0.00     0.198 A 
ATOM     79  C   UNL     1       3.282  -8.417   6.390  1.00  0.00     0.198 A 
ATOM     80  F   UNL     1       2.078  -7.879   8.343  1.00  0.00    -0.203 F 
ATOM     81  F   UNL     1       4.330 -11.616   5.061  1.00  0.00    -0.200 F 
ATOM     82  C   UNL     1       3.797  -9.363   5.513  1.00  0.00     0.200 A 
ATOM     83  F   UNL     1       3.125  -7.153   5.972  1.00  0.00    -0.200 F 
ATOM     84  F   UNL     1       4.137  -9.018   4.262  1.00  0.00    -0.200 F 
ENDBRANCH  50  74
BRANCH  62  85
ATOM     85  C   UNL     1      -2.011  -8.057  13.143  1.00  0.00     0.064 A 
ATOM     86  C   UNL     1      -1.081  -7.133  13.648  1.00  0.00     0.173 A 
ATOM     87  C   UNL     1      -3.316  -7.934  13.689  1.00  0.00     0.173 A 
ATOM     88  F   UNL     1       0.120  -6.957  13.085  1.00  0.00    -0.203 F 
ATOM     89  C   UNL     1      -1.376  -6.289  14.719  1.00  0.00     0.198 A 
ATOM     90  C   UNL     1      -3.639  -7.003  14.672  1.00  0.00     0.198 A 
ATOM     91  F   UNL     1      -4.344  -8.686  13.275  1.00  0.00    -0.203 F 
ATOM     92  F   UNL     1      -0.408  -5.521  15.237  1.00  0.00    -0.200 F 
ATOM     93  C   UNL     1      -2.656  -6.218  15.226  1.00  0.00     0.200 A 
ATOM     94  F   UNL     1      -4.913  -6.871  15.065  1.00  0.00    -0.200 F 
ATOM     95  F   UNL     1      -2.948  -5.376  16.225  1.00  0.00    -0.200 F 
ENDBRANCH  62  85
ENDBRANCH  36  37
ENDBRANCH  29  31
ENDBRANCH  28  29
ENDBRANCH  27  28
ENDBRANCH  26  27
ENDBRANCH  25  26
ENDBRANCH   1  25
TORSDOF 14
