REMARK SMILES COc1cc(/C=N/NC(=O)c2cc(Cl)ccc2O)ccc1OCC(=O)OCCOC(=O)c1ccc(-c2c3nc(c(-c4c(F)c(F)c(F)c(F)c4F)c4ccc([nH]4)c(-c4c(F)c(F)c(F)c(F)c4F)c4nc(c(-c5c(F)c(F)c(F)c(F)c5F)c5ccc2[nH]5)C=C4)C=C3)cc1
REMARK SMILES IDX 24 1 25 2 23 3 22 4 21 5 3 6 4 7 5 8 20 9 19 10 2 11 1 12
REMARK SMILES IDX 6 13 7 14 8 15 9 16 10 18 11 19 12 20 17 21 13 22 16 23
REMARK SMILES IDX 14 24 15 25 18 26 26 28 27 29 28 30 29 31 30 32 31 33 32 34
REMARK SMILES IDX 33 35 94 36 34 37 93 38 35 39 36 40 37 41 87 42 38 43 92 44
REMARK SMILES IDX 86 45 88 46 39 47 91 48 85 49 84 50 40 52 72 53 52 54 71 55
REMARK SMILES IDX 53 56 56 57 70 58 89 59 54 60 55 61 69 63 90 64 57 65 41 66
REMARK SMILES IDX 42 67 50 68 43 69 44 70 48 71 51 72 45 73 46 74 49 75 47 76
REMARK SMILES IDX 73 77 74 78 82 79 75 80 76 81 80 82 83 83 77 84 78 85 81 86
REMARK SMILES IDX 79 87 58 88 59 89 67 90 60 91 61 92 65 93 68 94 62 95 63 96
REMARK SMILES IDX 66 97 64 98
REMARK H PARENT 8 17 18 27 88 51 56 62
REMARK Flexibility Score: inf
ROOT
ATOM      1  C   UNL     1       3.021   1.850  -0.419  1.00  0.00     0.344 C 
ATOM      2  O   UNL     1       3.221   2.370   0.675  1.00  0.00    -0.248 OA
ENDROOT
BRANCH   1   3
ATOM      3  C   UNL     1       4.030   0.873  -1.053  1.00  0.00     0.352 C 
BRANCH   3   4
ATOM      4  O   UNL     1       3.947   0.223  -2.299  1.00  0.00    -0.478 OA
BRANCH   4   5
ATOM      5  C   UNL     1       2.756  -0.256  -2.750  1.00  0.00     0.162 A 
ATOM      6  C   UNL     1       1.877  -1.135  -2.104  1.00  0.00     0.161 A 
ATOM      7  C   UNL     1       0.738  -1.615  -2.789  1.00  0.00     0.060 A 
ATOM      8  C   UNL     1       0.503  -1.226  -4.116  1.00  0.00    -0.002 A 
ATOM      9  C   UNL     1       2.526   0.082  -4.088  1.00  0.00     0.051 A 
ATOM     10  C   UNL     1       1.410  -0.392  -4.769  1.00  0.00     0.014 A 
BRANCH   6  11
ATOM     11  O   UNL     1       2.224  -1.775  -0.942  1.00  0.00    -0.493 OA
ATOM     12  C   UNL     1       1.878  -1.077   0.245  1.00  0.00     0.278 C 
ENDBRANCH   6  11
BRANCH   8  13
ATOM     13  C   UNL     1      -0.619  -1.721  -4.941  1.00  0.00     0.141 C 
ATOM     14  N   UNL     1      -1.296  -2.800  -4.679  1.00  0.00    -0.180 NA
BRANCH  14  15
ATOM     15  N   UNL     1      -2.212  -3.166  -5.637  1.00  0.00    -0.243 N 
ATOM     16  C   UNL     1      -2.031  -3.309  -7.009  1.00  0.00     0.275 C 
ATOM     17  H   UNL     1      -3.120  -3.352  -5.307  1.00  0.00     0.194 HD
ATOM     18  O   UNL     1      -3.001  -3.482  -7.746  1.00  0.00    -0.267 OA
BRANCH  16  19
ATOM     19  C   UNL     1      -0.671  -3.272  -7.603  1.00  0.00     0.084 A 
ATOM     20  C   UNL     1      -0.518  -2.608  -8.830  1.00  0.00     0.038 A 
ATOM     21  C   UNL     1       0.440  -3.888  -7.014  1.00  0.00     0.128 A 
ATOM     22  C   UNL     1       0.745  -2.511  -9.414  1.00  0.00     0.042 A 
ATOM     23  C   UNL     1       1.698  -3.794  -7.607  1.00  0.00     0.048 A 
ATOM     24  Cl  UNL     1       0.940  -1.654 -10.893  1.00  0.00    -0.084 Cl
ATOM     25  C   UNL     1       1.855  -3.090  -8.802  1.00  0.00     0.024 A 
BRANCH  21  26
ATOM     26  O   UNL     1       0.378  -4.599  -5.849  1.00  0.00    -0.507 OA
ATOM     27  H   UNL     1      -0.440  -4.697  -5.403  1.00  0.00     0.293 HD
ENDBRANCH  21  26
ENDBRANCH  16  19
ENDBRANCH  14  15
ENDBRANCH   8  13
ENDBRANCH   4   5
ENDBRANCH   3   4
ENDBRANCH   1   3
BRANCH   1  28
ATOM     28  O   UNL     1       1.900   2.048  -1.161  1.00  0.00    -0.460 OA
BRANCH  28  29
ATOM     29  C   UNL     1       0.896   2.891  -0.553  1.00  0.00     0.274 C 
BRANCH  29  30
ATOM     30  C   UNL     1      -0.488   2.498  -1.072  1.00  0.00     0.275 C 
BRANCH  30  31
ATOM     31  O   UNL     1      -0.870   1.241  -0.479  1.00  0.00    -0.458 OA
BRANCH  31  32
ATOM     32  C   UNL     1      -2.014   0.694  -0.971  1.00  0.00     0.338 C 
ATOM     33  O   UNL     1      -2.740   1.197  -1.810  1.00  0.00    -0.246 OA
BRANCH  32  34
ATOM     34  C   UNL     1      -2.217  -0.674  -0.410  1.00  0.00     0.060 A 
ATOM     35  C   UNL     1      -1.377  -1.195   0.572  1.00  0.00     0.016 A 
ATOM     36  C   UNL     1      -3.224  -1.493  -0.925  1.00  0.00     0.016 A 
ATOM     37  C   UNL     1      -1.426  -2.551   0.909  1.00  0.00     0.010 A 
ATOM     38  C   UNL     1      -3.354  -2.822  -0.485  1.00  0.00     0.010 A 
ATOM     39  C   UNL     1      -2.429  -3.391   0.409  1.00  0.00    -0.014 A 
BRANCH  39  40
ATOM     40  C   UNL     1      -2.508  -4.842   0.789  1.00  0.00     0.031 A 
ATOM     41  C   UNL     1      -2.671  -5.899  -0.281  1.00  0.00     0.074 A 
ATOM     42  C   UNL     1      -2.447  -5.249   2.077  1.00  0.00     0.049 A 
ATOM     43  N   UNL     1      -3.083  -7.139  -0.172  1.00  0.00    -0.248 NA
ATOM     44  C   UNL     1      -2.345  -5.500  -1.660  1.00  0.00     0.031 C 
ATOM     45  C   UNL     1      -2.222  -4.388   3.240  1.00  0.00     0.029 A 
ATOM     46  N   UNL     1      -2.575  -6.506   2.630  1.00  0.00    -0.354 N 
ATOM     47  C   UNL     1      -3.157  -7.634  -1.469  1.00  0.00     0.074 A 
ATOM     48  C   UNL     1      -2.722  -6.569  -2.349  1.00  0.00     0.031 C 
ATOM     49  C   UNL     1      -2.177  -5.138   4.350  1.00  0.00     0.029 A 
ATOM     50  C   UNL     1      -2.505  -6.515   4.004  1.00  0.00     0.049 A 
ATOM     51  H   UNL     1      -2.705  -7.320   2.092  1.00  0.00     0.167 HD
ATOM     52  C   UNL     1      -3.564  -8.858  -1.885  1.00  0.00     0.037 A 
ATOM     53  C   UNL     1      -2.747  -7.492   4.901  1.00  0.00     0.037 A 
ATOM     54  C   UNL     1      -3.905  -9.948  -1.004  1.00  0.00     0.049 A 
ATOM     55  C   UNL     1      -3.209  -8.839   4.420  1.00  0.00     0.074 A 
ATOM     56  C   UNL     1      -4.329 -11.226  -1.332  1.00  0.00     0.029 A 
ATOM     57  N   UNL     1      -3.825  -9.900   0.379  1.00  0.00    -0.354 N 
ATOM     58  N   UNL     1      -3.398  -9.259   3.194  1.00  0.00    -0.248 NA
ATOM     59  C   UNL     1      -3.523  -9.838   5.452  1.00  0.00     0.031 C 
ATOM     60  C   UNL     1      -4.530 -11.941  -0.146  1.00  0.00     0.029 A 
ATOM     61  C   UNL     1      -4.190 -11.124   0.918  1.00  0.00     0.049 A 
ATOM     62  H   UNL     1      -3.549  -9.112   0.901  1.00  0.00     0.167 HD
ATOM     63  C   UNL     1      -3.838 -10.570   3.305  1.00  0.00     0.074 A 
ATOM     64  C   UNL     1      -3.868 -10.886   4.717  1.00  0.00     0.031 C 
ATOM     65  C   UNL     1      -4.196 -11.433   2.323  1.00  0.00     0.037 A 
BRANCH  52  66
ATOM     66  C   UNL     1      -3.714  -9.086  -3.363  1.00  0.00     0.064 A 
ATOM     67  C   UNL     1      -2.612  -9.234  -4.216  1.00  0.00     0.173 A 
ATOM     68  C   UNL     1      -4.997  -9.219  -3.922  1.00  0.00     0.173 A 
ATOM     69  F   UNL     1      -1.366  -9.109  -3.735  1.00  0.00    -0.203 F 
ATOM     70  C   UNL     1      -2.787  -9.486  -5.576  1.00  0.00     0.198 A 
ATOM     71  C   UNL     1      -5.167  -9.499  -5.275  1.00  0.00     0.198 A 
ATOM     72  F   UNL     1      -6.087  -9.098  -3.149  1.00  0.00    -0.203 F 
ATOM     73  F   UNL     1      -1.719  -9.590  -6.379  1.00  0.00    -0.200 F 
ATOM     74  C   UNL     1      -4.063  -9.627  -6.102  1.00  0.00     0.200 A 
ATOM     75  F   UNL     1      -6.401  -9.653  -5.776  1.00  0.00    -0.200 F 
ATOM     76  F   UNL     1      -4.228  -9.886  -7.407  1.00  0.00    -0.200 F 
ENDBRANCH  52  66
BRANCH  53  77
ATOM     77  C   UNL     1      -2.632  -7.210   6.360  1.00  0.00     0.064 A 
ATOM     78  C   UNL     1      -1.649  -7.834   7.141  1.00  0.00     0.173 A 
ATOM     79  C   UNL     1      -3.508  -6.323   7.004  1.00  0.00     0.173 A 
ATOM     80  F   UNL     1      -0.809  -8.716   6.582  1.00  0.00    -0.203 F 
ATOM     81  C   UNL     1      -1.554  -7.588   8.510  1.00  0.00     0.198 A 
ATOM     82  C   UNL     1      -3.388  -6.049   8.364  1.00  0.00     0.198 A 
ATOM     83  F   UNL     1      -4.471  -5.703   6.306  1.00  0.00    -0.203 F 
ATOM     84  F   UNL     1      -0.637  -8.235   9.243  1.00  0.00    -0.200 F 
ATOM     85  C   UNL     1      -2.416  -6.688   9.118  1.00  0.00     0.200 A 
ATOM     86  F   UNL     1      -4.212  -5.165   8.942  1.00  0.00    -0.200 F 
ATOM     87  F   UNL     1      -2.316  -6.442  10.432  1.00  0.00    -0.200 F 
ENDBRANCH  53  77
BRANCH  65  88
ATOM     88  C   UNL     1      -4.597 -12.816   2.741  1.00  0.00     0.064 A 
ATOM     89  C   UNL     1      -5.829 -13.072   3.359  1.00  0.00     0.173 A 
ATOM     90  C   UNL     1      -3.741 -13.902   2.504  1.00  0.00     0.173 A 
ATOM     91  F   UNL     1      -6.673 -12.063   3.624  1.00  0.00    -0.203 F 
ATOM     92  C   UNL     1      -6.179 -14.362   3.749  1.00  0.00     0.198 A 
ATOM     93  C   UNL     1      -4.104 -15.194   2.872  1.00  0.00     0.198 A 
ATOM     94  F   UNL     1      -2.552 -13.710   1.913  1.00  0.00    -0.203 F 
ATOM     95  F   UNL     1      -7.340 -14.576   4.383  1.00  0.00    -0.200 F 
ATOM     96  C   UNL     1      -5.319 -15.422   3.501  1.00  0.00     0.200 A 
ATOM     97  F   UNL     1      -3.276 -16.218   2.625  1.00  0.00    -0.200 F 
ATOM     98  F   UNL     1      -5.657 -16.663   3.879  1.00  0.00    -0.200 F 
ENDBRANCH  65  88
ENDBRANCH  39  40
ENDBRANCH  32  34
ENDBRANCH  31  32
ENDBRANCH  30  31
ENDBRANCH  29  30
ENDBRANCH  28  29
ENDBRANCH   1  28
TORSDOF 18
