REMARK SMILES C[N@H+]1CCO[C@@H](COc2ccc(C(=O)OCCOC(=O)c3ccc(-c4c5nc(c(-c6c(F)c(F)c(F)c(F)c6F)c6ccc([nH]6)c(-c6c(F)c(F)c(F)c(F)c6F)c6nc(c(-c7c(F)c(F)c(F)c(F)c7F)c7ccc4[nH]7)C=C6)C=C5)cc3)cc2N)C1
REMARK SMILES IDX 16 1 15 2 13 3 14 4 12 5 9 6 10 7 85 8 11 9 84 10 8 11 7 12
REMARK SMILES IDX 6 13 1 14 2 15 3 16 87 17 4 19 5 20 86 21 17 24 18 25 19 26
REMARK SMILES IDX 20 27 21 28 22 29 83 30 23 31 82 32 24 33 25 34 26 35 76 36
REMARK SMILES IDX 27 37 81 38 75 39 77 40 28 41 80 42 74 43 73 44 29 46 61 47
REMARK SMILES IDX 41 48 60 49 42 50 45 51 59 52 78 53 43 54 44 55 58 57 79 58
REMARK SMILES IDX 46 59 30 60 31 61 39 62 32 63 33 64 37 65 40 66 34 67 35 68
REMARK SMILES IDX 38 69 36 70 62 71 63 72 71 73 64 74 65 75 69 76 72 77 66 78
REMARK SMILES IDX 67 79 70 80 68 81 47 82 48 83 56 84 49 85 50 86 54 87 57 88
REMARK SMILES IDX 51 89 52 90 55 91 53 92
REMARK H PARENT 2 18 86 22 86 23 77 45 45 56
REMARK Flexibility Score: inf
ROOT
ATOM      1  C   UNL     1      -5.187   2.191  -1.044  1.00  0.00     0.275 C 
ENDROOT
BRANCH   1   2
ATOM      2  O   UNL     1      -4.304   1.298  -0.339  1.00  0.00    -0.458 OA
BRANCH   2   3
ATOM      3  C   UNL     1      -3.106   1.813   0.021  1.00  0.00     0.338 C 
ATOM      4  O   UNL     1      -2.688   2.928  -0.257  1.00  0.00    -0.246 OA
BRANCH   3   5
ATOM      5  C   UNL     1      -2.345   0.871   0.882  1.00  0.00     0.062 A 
ATOM      6  C   UNL     1      -0.713  -0.860   2.305  1.00  0.00     0.142 A 
ATOM      7  C   UNL     1      -0.334   0.473   2.178  1.00  0.00     0.049 A 
ATOM      8  C   UNL     1      -1.982  -1.306   1.891  1.00  0.00     0.075 A 
ATOM      9  C   UNL     1      -1.141   1.332   1.442  1.00  0.00     0.019 A 
ATOM     10  C   UNL     1      -2.778  -0.435   1.143  1.00  0.00     0.045 A 
BRANCH   6  11
ATOM     11  O   UNL     1       0.174  -1.787   2.792  1.00  0.00    -0.488 OA
BRANCH  11  12
ATOM     12  C   UNL     1       1.302  -1.966   1.908  1.00  0.00     0.267 C 
BRANCH  12  13
ATOM     13  C   UNL     1       1.008  -2.889   0.705  1.00  0.00     0.210 C 
ATOM     14  C   UNL     1       1.364  -0.108  -1.041  1.00  0.00     0.332 C 
ATOM     15  N   UNL     1       1.089  -1.472  -1.468  1.00  0.00    -0.333 N 
ATOM     16  C   UNL     1       2.312  -2.218  -1.790  1.00  0.00     0.290 C 
ATOM     17  C   UNL     1       0.283  -2.259  -0.516  1.00  0.00     0.298 C 
ATOM     18  H   UNL     1       0.531  -1.349  -2.313  1.00  0.00     0.348 HD
ATOM     19  C   UNL     1       3.053  -2.730  -0.546  1.00  0.00     0.222 C 
ATOM     20  O   UNL     1       2.217  -3.558   0.272  1.00  0.00    -0.363 OA
ENDBRANCH  12  13
ENDBRANCH  11  12
ENDBRANCH   6  11
BRANCH   8  21
ATOM     21  N   UNL     1      -2.326  -2.654   1.995  1.00  0.00    -0.396 N 
ATOM     22  H   UNL     1      -1.764  -3.267   2.523  1.00  0.00     0.156 HD
ATOM     23  H   UNL     1      -3.131  -2.993   1.541  1.00  0.00     0.156 HD
ENDBRANCH   8  21
ENDBRANCH   3   5
ENDBRANCH   2   3
ENDBRANCH   1   2
BRANCH   1  24
ATOM     24  C   UNL     1      -6.269   2.726  -0.105  1.00  0.00     0.275 C 
BRANCH  24  25
ATOM     25  O   UNL     1      -5.701   3.596   0.895  1.00  0.00    -0.458 OA
BRANCH  25  26
ATOM     26  C   UNL     1      -5.490   3.022   2.101  1.00  0.00     0.338 C 
ATOM     27  O   UNL     1      -5.771   1.887   2.446  1.00  0.00    -0.246 OA
BRANCH  26  28
ATOM     28  C   UNL     1      -4.735   3.937   2.969  1.00  0.00     0.060 A 
ATOM     29  C   UNL     1      -3.358   3.746   3.064  1.00  0.00     0.016 A 
ATOM     30  C   UNL     1      -5.376   4.842   3.811  1.00  0.00     0.016 A 
ATOM     31  C   UNL     1      -2.617   4.400   4.038  1.00  0.00     0.010 A 
ATOM     32  C   UNL     1      -4.623   5.538   4.767  1.00  0.00     0.010 A 
ATOM     33  C   UNL     1      -3.244   5.290   4.916  1.00  0.00    -0.014 A 
BRANCH  33  34
ATOM     34  C   UNL     1      -2.466   5.851   6.053  1.00  0.00     0.031 A 
ATOM     35  C   UNL     1      -2.810   5.447   7.461  1.00  0.00     0.074 A 
ATOM     36  C   UNL     1      -1.411   6.657   5.830  1.00  0.00     0.049 A 
ATOM     37  N   UNL     1      -2.318   5.881   8.595  1.00  0.00    -0.248 NA
ATOM     38  C   UNL     1      -3.857   4.426   7.614  1.00  0.00     0.031 C 
ATOM     39  C   UNL     1      -0.933   7.079   4.514  1.00  0.00     0.029 A 
ATOM     40  N   UNL     1      -0.540   7.253   6.709  1.00  0.00    -0.354 N 
ATOM     41  C   UNL     1      -3.035   5.231   9.591  1.00  0.00     0.074 A 
ATOM     42  C   UNL     1      -3.997   4.375   8.930  1.00  0.00     0.031 C 
ATOM     43  C   UNL     1       0.157   7.846   4.669  1.00  0.00     0.029 A 
ATOM     44  C   UNL     1       0.420   8.019   6.096  1.00  0.00     0.049 A 
ATOM     45  H   UNL     1      -0.599   7.142   7.685  1.00  0.00     0.167 HD
ATOM     46  C   UNL     1      -2.901   5.337  10.935  1.00  0.00     0.037 A 
ATOM     47  C   UNL     1       1.386   8.795   6.623  1.00  0.00     0.037 A 
ATOM     48  C   UNL     1      -1.900   6.139  11.590  1.00  0.00     0.049 A 
ATOM     49  C   UNL     1       1.521   8.892   8.117  1.00  0.00     0.074 A 
ATOM     50  C   UNL     1      -1.668   6.293  12.946  1.00  0.00     0.029 A 
ATOM     51  N   UNL     1      -0.953   6.910  10.933  1.00  0.00    -0.354 N 
ATOM     52  N   UNL     1       0.814   8.305   9.052  1.00  0.00    -0.248 NA
ATOM     53  C   UNL     1       2.587   9.763   8.631  1.00  0.00     0.031 C 
ATOM     54  C   UNL     1      -0.602   7.184  13.110  1.00  0.00     0.029 A 
ATOM     55  C   UNL     1      -0.140   7.550  11.856  1.00  0.00     0.049 A 
ATOM     56  H   UNL     1      -0.870   6.990   9.955  1.00  0.00     0.167 HD
ATOM     57  C   UNL     1       1.354   8.723  10.260  1.00  0.00     0.074 A 
ATOM     58  C   UNL     1       2.463   9.597   9.940  1.00  0.00     0.031 C 
ATOM     59  C   UNL     1       0.963   8.415  11.521  1.00  0.00     0.037 A 
BRANCH  46  60
ATOM     60  C   UNL     1      -3.893   4.599  11.787  1.00  0.00     0.064 A 
ATOM     61  C   UNL     1      -3.877   3.203  11.914  1.00  0.00     0.173 A 
ATOM     62  C   UNL     1      -4.873   5.311  12.496  1.00  0.00     0.173 A 
ATOM     63  F   UNL     1      -2.971   2.474  11.245  1.00  0.00    -0.203 F 
ATOM     64  C   UNL     1      -4.827   2.544  12.690  1.00  0.00     0.198 A 
ATOM     65  C   UNL     1      -5.803   4.651  13.296  1.00  0.00     0.198 A 
ATOM     66  F   UNL     1      -4.930   6.649  12.414  1.00  0.00    -0.203 F 
ATOM     67  F   UNL     1      -4.829   1.205  12.752  1.00  0.00    -0.200 F 
ATOM     68  C   UNL     1      -5.785   3.268  13.384  1.00  0.00     0.200 A 
ATOM     69  F   UNL     1      -6.720   5.355  13.974  1.00  0.00    -0.200 F 
ATOM     70  F   UNL     1      -6.699   2.632  14.131  1.00  0.00    -0.200 F 
ENDBRANCH  46  60
BRANCH  47  71
ATOM     71  C   UNL     1       2.288   9.558   5.722  1.00  0.00     0.064 A 
ATOM     72  C   UNL     1       3.642   9.218   5.596  1.00  0.00     0.173 A 
ATOM     73  C   UNL     1       1.810  10.633   4.958  1.00  0.00     0.173 A 
ATOM     74  F   UNL     1       4.151   8.214   6.324  1.00  0.00    -0.203 F 
ATOM     75  C   UNL     1       4.485   9.930   4.745  1.00  0.00     0.198 A 
ATOM     76  C   UNL     1       2.647  11.325   4.087  1.00  0.00     0.198 A 
ATOM     77  F   UNL     1       0.523  10.998   5.045  1.00  0.00    -0.203 F 
ATOM     78  F   UNL     1       5.783   9.608   4.668  1.00  0.00    -0.200 F 
ATOM     79  C   UNL     1       3.985  10.977   3.984  1.00  0.00     0.200 A 
ATOM     80  F   UNL     1       2.156  12.327   3.344  1.00  0.00    -0.200 F 
ATOM     81  F   UNL     1       4.794  11.653   3.157  1.00  0.00    -0.200 F 
ENDBRANCH  47  71
BRANCH  59  82
ATOM     82  C   UNL     1       1.760   9.003  12.648  1.00  0.00     0.064 A 
ATOM     83  C   UNL     1       1.675  10.364  12.977  1.00  0.00     0.173 A 
ATOM     84  C   UNL     1       2.600   8.190  13.423  1.00  0.00     0.173 A 
ATOM     85  F   UNL     1       0.897  11.185  12.257  1.00  0.00    -0.203 F 
ATOM     86  C   UNL     1       2.425  10.894  14.024  1.00  0.00     0.198 A 
ATOM     87  C   UNL     1       3.328   8.718  14.486  1.00  0.00     0.198 A 
ATOM     88  F   UNL     1       2.712   6.880  13.152  1.00  0.00    -0.203 F 
ATOM     89  F   UNL     1       2.367  12.206  14.290  1.00  0.00    -0.200 F 
ATOM     90  C   UNL     1       3.246  10.070  14.780  1.00  0.00     0.200 A 
ATOM     91  F   UNL     1       4.112   7.919  15.222  1.00  0.00    -0.200 F 
ATOM     92  F   UNL     1       3.967  10.583  15.787  1.00  0.00    -0.200 F 
ENDBRANCH  59  82
ENDBRANCH  33  34
ENDBRANCH  26  28
ENDBRANCH  25  26
ENDBRANCH  24  25
ENDBRANCH   1  24
TORSDOF 15
