REMARK SMILES O=C(COc1ccc(C(=O)/C=C/c2ccc(Cl)c([N+](=O)[O-])c2)cc1)OCCOC(=O)c1ccc(-c2c3nc(c(-c4c(F)c(F)c(F)c(F)c4F)c4ccc([nH]4)c(-c4c(F)c(F)c(F)c(F)c4F)c4nc(c(-c5c(F)c(F)c(F)c(F)c5F)c5ccc2[nH]5)C=C4)C=C3)cc1
REMARK SMILES IDX 1 1 2 2 3 3 4 4 5 5 6 6 24 7 7 8 23 9 8 10 9 11 10 12 11 13
REMARK SMILES IDX 12 14 13 15 14 16 22 17 15 18 18 19 16 20 17 21 19 22 20 23
REMARK SMILES IDX 21 24 25 25 26 26 27 27 28 28 29 29 30 30 31 31 32 32 93 33
REMARK SMILES IDX 33 34 92 35 34 36 35 37 36 38 86 39 37 40 91 41 85 42 87 43
REMARK SMILES IDX 38 44 90 45 84 46 83 47 39 49 71 50 51 51 70 52 52 53 55 54
REMARK SMILES IDX 69 55 88 56 53 57 54 58 68 60 89 61 56 62 40 63 41 64 49 65
REMARK SMILES IDX 42 66 43 67 47 68 50 69 44 70 45 71 48 72 46 73 72 74 73 75
REMARK SMILES IDX 81 76 74 77 75 78 79 79 82 80 76 81 77 82 80 83 78 84 57 85
REMARK SMILES IDX 58 86 66 87 59 88 60 89 64 90 67 91 61 92 62 93 65 94 63 95
REMARK H PARENT 87 48 55 59
REMARK Flexibility Score: inf
ROOT
ATOM      1  O   UNL     1       1.356   0.607  -0.643  1.00  0.00    -0.248 OA
ATOM      2  C   UNL     1       2.564   0.427  -0.495  1.00  0.00     0.344 C 
ENDROOT
BRANCH   2   3
ATOM      3  C   UNL     1       3.449   0.018  -1.669  1.00  0.00     0.351 C 
BRANCH   3   4
ATOM      4  O   UNL     1       4.377   1.015  -2.092  1.00  0.00    -0.482 OA
BRANCH   4   5
ATOM      5  C   UNL     1       3.731   1.926  -2.881  1.00  0.00     0.120 A 
ATOM      6  C   UNL     1       3.639   1.709  -4.254  1.00  0.00     0.047 A 
ATOM      7  C   UNL     1       3.176   3.058  -2.293  1.00  0.00     0.047 A 
ATOM      8  C   UNL     1       2.893   2.591  -5.036  1.00  0.00     0.016 A 
ATOM      9  C   UNL     1       2.440   3.944  -3.076  1.00  0.00     0.016 A 
ATOM     10  C   UNL     1       2.253   3.688  -4.442  1.00  0.00     0.022 A 
BRANCH  10  11
ATOM     11  C   UNL     1       1.411   4.564  -5.300  1.00  0.00     0.185 C 
ATOM     12  O   UNL     1       1.661   4.680  -6.496  1.00  0.00    -0.289 OA
BRANCH  11  13
ATOM     13  C   UNL     1       0.269   5.321  -4.719  1.00  0.00     0.053 C 
ATOM     14  C   UNL     1      -0.498   4.868  -3.715  1.00  0.00     0.012 C 
BRANCH  14  15
ATOM     15  C   UNL     1      -1.566   5.679  -3.134  1.00  0.00    -0.019 A 
ATOM     16  C   UNL     1      -1.387   6.231  -1.864  1.00  0.00     0.010 A 
ATOM     17  C   UNL     1      -2.762   5.906  -3.820  1.00  0.00     0.095 A 
ATOM     18  C   UNL     1      -2.386   7.021  -1.290  1.00  0.00     0.028 A 
ATOM     19  C   UNL     1      -3.775   6.694  -3.234  1.00  0.00     0.288 A 
ATOM     20  C   UNL     1      -3.586   7.267  -1.971  1.00  0.00     0.118 A 
ATOM     21  Cl  UNL     1      -4.699   8.320  -1.174  1.00  0.00    -0.077 Cl
BRANCH  19  22
ATOM     22  N   UNL     1      -5.009   6.872  -4.001  1.00  0.00     0.064 N 
ATOM     23  O   UNL     1      -6.071   7.036  -3.391  1.00  0.00    -0.258 OA
ATOM     24  O   UNL     1      -4.919   6.796  -5.235  1.00  0.00    -0.258 OA
ENDBRANCH  19  22
ENDBRANCH  14  15
ENDBRANCH  11  13
ENDBRANCH  10  11
ENDBRANCH   4   5
ENDBRANCH   3   4
ENDBRANCH   2   3
BRANCH   2  25
ATOM     25  O   UNL     1       3.144   0.630   0.713  1.00  0.00    -0.460 OA
BRANCH  25  26
ATOM     26  C   UNL     1       4.473   0.183   1.058  1.00  0.00     0.274 C 
BRANCH  26  27
ATOM     27  C   UNL     1       4.428  -1.206   1.700  1.00  0.00     0.275 C 
BRANCH  27  28
ATOM     28  O   UNL     1       4.057  -2.183   0.710  1.00  0.00    -0.458 OA
BRANCH  28  29
ATOM     29  C   UNL     1       2.758  -2.572   0.708  1.00  0.00     0.338 C 
ATOM     30  O   UNL     1       1.904  -2.290   1.528  1.00  0.00    -0.246 OA
BRANCH  29  31
ATOM     31  C   UNL     1       2.478  -3.232  -0.587  1.00  0.00     0.060 A 
ATOM     32  C   UNL     1       1.276  -2.937  -1.243  1.00  0.00     0.016 A 
ATOM     33  C   UNL     1       3.409  -4.093  -1.175  1.00  0.00     0.016 A 
ATOM     34  C   UNL     1       0.992  -3.519  -2.482  1.00  0.00     0.010 A 
ATOM     35  C   UNL     1       3.123  -4.678  -2.409  1.00  0.00     0.010 A 
ATOM     36  C   UNL     1       1.905  -4.412  -3.057  1.00  0.00    -0.014 A 
BRANCH  36  37
ATOM     37  C   UNL     1       1.549  -5.210  -4.253  1.00  0.00     0.031 A 
ATOM     38  C   UNL     1       1.028  -6.603  -4.051  1.00  0.00     0.074 A 
ATOM     39  C   UNL     1       1.764  -4.742  -5.494  1.00  0.00     0.049 A 
ATOM     40  N   UNL     1       0.802  -7.544  -4.930  1.00  0.00    -0.248 NA
ATOM     41  C   UNL     1       0.739  -6.989  -2.661  1.00  0.00     0.031 C 
ATOM     42  C   UNL     1       2.251  -3.405  -5.822  1.00  0.00     0.029 A 
ATOM     43  N   UNL     1       1.630  -5.364  -6.711  1.00  0.00    -0.354 N 
ATOM     44  C   UNL     1       0.360  -8.638  -4.200  1.00  0.00     0.074 A 
ATOM     45  C   UNL     1       0.370  -8.252  -2.805  1.00  0.00     0.031 C 
ATOM     46  C   UNL     1       2.412  -3.318  -7.154  1.00  0.00     0.029 A 
ATOM     47  C   UNL     1       2.069  -4.603  -7.765  1.00  0.00     0.049 A 
ATOM     48  H   UNL     1       1.255  -6.268  -6.817  1.00  0.00     0.167 HD
ATOM     49  C   UNL     1      -0.019  -9.856  -4.652  1.00  0.00     0.037 A 
ATOM     50  C   UNL     1       2.212  -4.921  -9.067  1.00  0.00     0.037 A 
ATOM     51  C   UNL     1      -0.023 -10.242  -6.036  1.00  0.00     0.049 A 
ATOM     52  C   UNL     1       1.832  -6.299  -9.545  1.00  0.00     0.074 A 
ATOM     53  C   UNL     1      -0.428 -11.440  -6.598  1.00  0.00     0.029 A 
ATOM     54  N   UNL     1       0.414  -9.438  -7.078  1.00  0.00    -0.354 N 
ATOM     55  N   UNL     1       1.373  -7.316  -8.857  1.00  0.00    -0.248 NA
ATOM     56  C   UNL     1       1.992  -6.573 -10.981  1.00  0.00     0.031 C 
ATOM     57  C   UNL     1      -0.190 -11.378  -7.975  1.00  0.00     0.029 A 
ATOM     58  C   UNL     1       0.317 -10.124  -8.277  1.00  0.00     0.049 A 
ATOM     59  H   UNL     1       0.744  -8.515  -6.980  1.00  0.00     0.167 HD
ATOM     60  C   UNL     1       1.164  -8.338  -9.775  1.00  0.00     0.074 A 
ATOM     61  C   UNL     1       1.546  -7.819 -11.072  1.00  0.00     0.031 C 
ATOM     62  C   UNL     1       0.692  -9.591  -9.562  1.00  0.00     0.037 A 
BRANCH  49  63
ATOM     63  C   UNL     1      -0.424 -10.867  -3.623  1.00  0.00     0.064 A 
ATOM     64  C   UNL     1      -1.630 -10.757  -2.914  1.00  0.00     0.173 A 
ATOM     65  C   UNL     1       0.412 -11.956  -3.335  1.00  0.00     0.173 A 
ATOM     66  F   UNL     1      -2.453  -9.722  -3.141  1.00  0.00    -0.203 F 
ATOM     67  C   UNL     1      -1.967 -11.680  -1.929  1.00  0.00     0.198 A 
ATOM     68  C   UNL     1       0.059 -12.893  -2.368  1.00  0.00     0.198 A 
ATOM     69  F   UNL     1       1.576 -12.106  -3.985  1.00  0.00    -0.203 F 
ATOM     70  F   UNL     1      -3.095 -11.522  -1.222  1.00  0.00    -0.200 F 
ATOM     71  C   UNL     1      -1.125 -12.749  -1.659  1.00  0.00     0.200 A 
ATOM     72  F   UNL     1       0.871 -13.928  -2.113  1.00  0.00    -0.200 F 
ATOM     73  F   UNL     1      -1.447 -13.633  -0.705  1.00  0.00    -0.200 F 
ENDBRANCH  49  63
BRANCH  50  74
ATOM     74  C   UNL     1       2.764  -3.916 -10.010  1.00  0.00     0.064 A 
ATOM     75  C   UNL     1       1.948  -3.295 -10.964  1.00  0.00     0.173 A 
ATOM     76  C   UNL     1       4.119  -3.553  -9.970  1.00  0.00     0.173 A 
ATOM     77  F   UNL     1       0.653  -3.630 -11.056  1.00  0.00    -0.203 F 
ATOM     78  C   UNL     1       2.468  -2.353 -11.850  1.00  0.00     0.198 A 
ATOM     79  C   UNL     1       4.632  -2.594 -10.842  1.00  0.00     0.198 A 
ATOM     80  F   UNL     1       4.940  -4.121  -9.076  1.00  0.00    -0.203 F 
ATOM     81  F   UNL     1       1.674  -1.798 -12.776  1.00  0.00    -0.200 F 
ATOM     82  C   UNL     1       3.807  -1.998 -11.784  1.00  0.00     0.200 A 
ATOM     83  F   UNL     1       5.925  -2.249 -10.768  1.00  0.00    -0.200 F 
ATOM     84  F   UNL     1       4.305  -1.088 -12.632  1.00  0.00    -0.200 F 
ENDBRANCH  50  74
BRANCH  62  85
ATOM     85  C   UNL     1       0.524 -10.486 -10.755  1.00  0.00     0.064 A 
ATOM     86  C   UNL     1       1.622 -11.091 -11.382  1.00  0.00     0.173 A 
ATOM     87  C   UNL     1      -0.760 -10.806 -11.223  1.00  0.00     0.173 A 
ATOM     88  F   UNL     1       2.870 -10.807 -10.979  1.00  0.00    -0.203 F 
ATOM     89  C   UNL     1       1.441 -11.977 -12.441  1.00  0.00     0.198 A 
ATOM     90  C   UNL     1      -0.939 -11.710 -12.266  1.00  0.00     0.198 A 
ATOM     91  F   UNL     1      -1.843 -10.259 -10.651  1.00  0.00    -0.203 F 
ATOM     92  F   UNL     1       2.506 -12.524 -13.044  1.00  0.00    -0.200 F 
ATOM     93  C   UNL     1       0.162 -12.293 -12.876  1.00  0.00     0.200 A 
ATOM     94  F   UNL     1      -2.175 -12.025 -12.674  1.00  0.00    -0.200 F 
ATOM     95  F   UNL     1      -0.010 -13.159 -13.883  1.00  0.00    -0.200 F 
ENDBRANCH  62  85
ENDBRANCH  36  37
ENDBRANCH  29  31
ENDBRANCH  28  29
ENDBRANCH  27  28
ENDBRANCH  26  27
ENDBRANCH  25  26
ENDBRANCH   2  25
TORSDOF 17
