REMARK SMILES [NH3+][C@H](CCC(=O)OCCOC(=O)c1ccc(-c2c3nc(c(-c4c(F)c(F)c(F)c(F)c4F)c4ccc([nH]4)c(-c4c(F)c(F)c(F)c(F)c4F)c4nc(c(-c5c(F)c(F)c(F)c(F)c5F)c5ccc2[nH]5)C=C4)C=C3)cc1)Cc1c[nH]c2ccccc12
REMARK SMILES IDX 8 1 7 2 5 3 6 4 4 5 3 6 2 7 1 8 76 12 77 13 78 14 85 15
REMARK SMILES IDX 79 16 80 17 84 18 81 20 83 21 82 22 9 23 10 24 11 25 12 26
REMARK SMILES IDX 13 27 14 28 75 29 15 30 74 31 16 32 17 33 18 34 68 35 19 36
REMARK SMILES IDX 73 37 67 38 69 39 20 40 72 41 66 42 65 43 21 45 53 46 33 47
REMARK SMILES IDX 52 48 34 49 37 50 51 51 70 52 35 53 36 54 50 56 71 57 38 58
REMARK SMILES IDX 22 59 23 60 31 61 24 62 25 63 29 64 32 65 26 66 27 67 30 68
REMARK SMILES IDX 28 69 54 70 55 71 63 72 56 73 57 74 61 75 64 76 58 77 59 78
REMARK SMILES IDX 62 79 60 80 39 81 40 82 48 83 41 84 42 85 46 86 49 87 43 88
REMARK SMILES IDX 44 89 47 90 45 91
REMARK H PARENT 1 9 1 10 1 11 79 19 69 44 37 55
REMARK Flexibility Score: inf
ROOT
ATOM      1  C   UNL     1       3.205   3.767  -0.215  1.00  0.00     0.274 C 
ENDROOT
BRANCH   1   2
ATOM      2  O   UNL     1       2.487   2.582  -0.620  1.00  0.00    -0.462 OA
BRANCH   2   3
ATOM      3  C   UNL     1       3.249   1.480  -0.841  1.00  0.00     0.306 C 
ATOM      4  O   UNL     1       4.453   1.407  -0.625  1.00  0.00    -0.252 OA
BRANCH   3   5
ATOM      5  C   UNL     1       2.477   0.362  -1.501  1.00  0.00     0.129 C 
BRANCH   5   6
ATOM      6  C   UNL     1       1.288  -0.200  -0.722  1.00  0.00     0.077 C 
BRANCH   6   7
ATOM      7  C   UNL     1      -0.042   0.600  -0.773  1.00  0.00     0.185 C 
BRANCH   7   8
ATOM      8  N   UNL     1      -0.397   0.978  -2.145  1.00  0.00    -0.355 N 
ATOM      9  H   UNL     1      -1.273   1.500  -2.138  1.00  0.00     0.344 HD
ATOM     10  H   UNL     1      -0.507   0.137  -2.711  1.00  0.00     0.344 HD
ATOM     11  H   UNL     1       0.342   1.560  -2.539  1.00  0.00     0.344 HD
ENDBRANCH   7   8
BRANCH   7  12
ATOM     12  C   UNL     1      -1.228  -0.197  -0.111  1.00  0.00     0.102 C 
BRANCH  12  13
ATOM     13  C   UNL     1      -0.897  -0.493   1.321  1.00  0.00    -0.017 A 
ATOM     14  C   UNL     1      -0.529   0.465   2.242  1.00  0.00     0.087 A 
ATOM     15  C   UNL     1      -0.618  -1.760   1.920  1.00  0.00     0.003 A 
ATOM     16  N   UNL     1       0.348  -0.143   3.101  1.00  0.00    -0.361 N 
ATOM     17  C   UNL     1       0.355  -1.499   2.885  1.00  0.00     0.046 A 
ATOM     18  C   UNL     1      -0.945  -3.100   1.640  1.00  0.00     0.010 A 
ATOM     19  H   UNL     1       0.893   0.324   3.774  1.00  0.00     0.166 HD
ATOM     20  C   UNL     1       1.164  -2.502   3.428  1.00  0.00     0.026 A 
ATOM     21  C   UNL     1      -0.232  -4.123   2.279  1.00  0.00     0.001 A 
ATOM     22  C   UNL     1       0.849  -3.824   3.107  1.00  0.00     0.002 A 
ENDBRANCH  12  13
ENDBRANCH   7  12
ENDBRANCH   6   7
ENDBRANCH   5   6
ENDBRANCH   3   5
ENDBRANCH   2   3
ENDBRANCH   1   2
BRANCH   1  23
ATOM     23  C   UNL     1       3.247   3.943   1.302  1.00  0.00     0.275 C 
BRANCH  23  24
ATOM     24  O   UNL     1       4.042   2.911   1.914  1.00  0.00    -0.458 OA
BRANCH  24  25
ATOM     25  C   UNL     1       3.337   1.963   2.564  1.00  0.00     0.338 C 
ATOM     26  O   UNL     1       2.139   1.935   2.770  1.00  0.00    -0.246 OA
BRANCH  25  27
ATOM     27  C   UNL     1       4.219   0.891   3.036  1.00  0.00     0.060 A 
ATOM     28  C   UNL     1       4.323  -0.287   2.293  1.00  0.00     0.016 A 
ATOM     29  C   UNL     1       4.803   0.995   4.298  1.00  0.00     0.016 A 
ATOM     30  C   UNL     1       5.016  -1.376   2.819  1.00  0.00     0.010 A 
ATOM     31  C   UNL     1       5.515  -0.090   4.814  1.00  0.00     0.010 A 
ATOM     32  C   UNL     1       5.617  -1.287   4.084  1.00  0.00    -0.014 A 
BRANCH  32  33
ATOM     33  C   UNL     1       6.352  -2.445   4.649  1.00  0.00     0.031 A 
ATOM     34  C   UNL     1       5.793  -3.207   5.815  1.00  0.00     0.074 A 
ATOM     35  C   UNL     1       7.535  -2.801   4.114  1.00  0.00     0.049 A 
ATOM     36  N   UNL     1       6.335  -4.178   6.508  1.00  0.00    -0.248 NA
ATOM     37  C   UNL     1       4.446  -2.828   6.265  1.00  0.00     0.031 C 
ATOM     38  C   UNL     1       8.166  -2.158   2.962  1.00  0.00     0.029 A 
ATOM     39  N   UNL     1       8.419  -3.787   4.474  1.00  0.00    -0.354 N 
ATOM     40  C   UNL     1       5.405  -4.513   7.483  1.00  0.00     0.074 A 
ATOM     41  C   UNL     1       4.270  -3.633   7.304  1.00  0.00     0.031 C 
ATOM     42  C   UNL     1       9.331  -2.770   2.703  1.00  0.00     0.029 A 
ATOM     43  C   UNL     1       9.554  -3.811   3.703  1.00  0.00     0.049 A 
ATOM     44  H   UNL     1       8.254  -4.416   5.214  1.00  0.00     0.167 HD
ATOM     45  C   UNL     1       5.495  -5.470   8.439  1.00  0.00     0.037 A 
ATOM     46  C   UNL     1      10.663  -4.567   3.809  1.00  0.00     0.037 A 
ATOM     47  C   UNL     1       6.624  -6.349   8.607  1.00  0.00     0.049 A 
ATOM     48  C   UNL     1      10.759  -5.581   4.914  1.00  0.00     0.074 A 
ATOM     49  C   UNL     1       6.802  -7.357   9.539  1.00  0.00     0.029 A 
ATOM     50  N   UNL     1       7.768  -6.324   7.824  1.00  0.00    -0.354 N 
ATOM     51  N   UNL     1       9.880  -5.887   5.836  1.00  0.00    -0.248 NA
ATOM     52  C   UNL     1      12.008  -6.351   4.997  1.00  0.00     0.031 C 
ATOM     53  C   UNL     1       8.070  -7.916   9.345  1.00  0.00     0.029 A 
ATOM     54  C   UNL     1       8.664  -7.288   8.262  1.00  0.00     0.049 A 
ATOM     55  H   UNL     1       7.922  -5.713   7.067  1.00  0.00     0.167 HD
ATOM     56  C   UNL     1      10.456  -6.896   6.594  1.00  0.00     0.074 A 
ATOM     57  C   UNL     1      11.757  -7.162   6.015  1.00  0.00     0.031 C 
ATOM     58  C   UNL     1       9.953  -7.544   7.673  1.00  0.00     0.037 A 
BRANCH  45  59
ATOM     59  C   UNL     1       4.348  -5.603   9.398  1.00  0.00     0.064 A 
ATOM     60  C   UNL     1       3.120  -6.155   9.006  1.00  0.00     0.173 A 
ATOM     61  C   UNL     1       4.497  -5.219  10.740  1.00  0.00     0.173 A 
ATOM     62  F   UNL     1       2.923  -6.527   7.733  1.00  0.00    -0.203 F 
ATOM     63  C   UNL     1       2.076  -6.298   9.918  1.00  0.00     0.198 A 
ATOM     64  C   UNL     1       3.460  -5.388  11.654  1.00  0.00     0.198 A 
ATOM     65  F   UNL     1       5.654  -4.692  11.168  1.00  0.00    -0.203 F 
ATOM     66  F   UNL     1       0.898  -6.793   9.512  1.00  0.00    -0.200 F 
ATOM     67  C   UNL     1       2.249  -5.921  11.241  1.00  0.00     0.200 A 
ATOM     68  F   UNL     1       3.634  -5.034  12.935  1.00  0.00    -0.200 F 
ATOM     69  F   UNL     1       1.246  -6.068  12.118  1.00  0.00    -0.200 F 
ENDBRANCH  45  59
BRANCH  46  70
ATOM     70  C   UNL     1      11.777  -4.380   2.845  1.00  0.00     0.064 A 
ATOM     71  C   UNL     1      12.080  -5.365   1.897  1.00  0.00     0.173 A 
ATOM     72  C   UNL     1      12.556  -3.213   2.850  1.00  0.00     0.173 A 
ATOM     73  F   UNL     1      11.379  -6.508   1.870  1.00  0.00    -0.203 F 
ATOM     74  C   UNL     1      13.130  -5.197   0.996  1.00  0.00     0.198 A 
ATOM     75  C   UNL     1      13.587  -3.034   1.931  1.00  0.00     0.198 A 
ATOM     76  F   UNL     1      12.306  -2.241   3.739  1.00  0.00    -0.203 F 
ATOM     77  F   UNL     1      13.425  -6.171   0.125  1.00  0.00    -0.200 F 
ATOM     78  C   UNL     1      13.877  -4.028   1.009  1.00  0.00     0.200 A 
ATOM     79  F   UNL     1      14.299  -1.899   1.938  1.00  0.00    -0.200 F 
ATOM     80  F   UNL     1      14.882  -3.864   0.138  1.00  0.00    -0.200 F 
ENDBRANCH  46  70
BRANCH  58  81
ATOM     81  C   UNL     1      10.798  -8.626   8.277  1.00  0.00     0.064 A 
ATOM     82  C   UNL     1      11.946  -8.331   9.027  1.00  0.00     0.173 A 
ATOM     83  C   UNL     1      10.438  -9.974   8.127  1.00  0.00     0.173 A 
ATOM     84  F   UNL     1      12.340  -7.058   9.184  1.00  0.00    -0.203 F 
ATOM     85  C   UNL     1      12.716  -9.347   9.586  1.00  0.00     0.198 A 
ATOM     86  C   UNL     1      11.196 -10.986   8.710  1.00  0.00     0.198 A 
ATOM     87  F   UNL     1       9.347 -10.308   7.423  1.00  0.00    -0.203 F 
ATOM     88  F   UNL     1      13.834  -9.045  10.260  1.00  0.00    -0.200 F 
ATOM     89  C   UNL     1      12.337 -10.673   9.432  1.00  0.00     0.200 A 
ATOM     90  F   UNL     1      10.822 -12.266   8.569  1.00  0.00    -0.200 F 
ATOM     91  F   UNL     1      13.077 -11.650   9.974  1.00  0.00    -0.200 F 
ENDBRANCH  58  81
ENDBRANCH  32  33
ENDBRANCH  25  27
ENDBRANCH  24  25
ENDBRANCH  23  24
ENDBRANCH   1  23
TORSDOF 16
