REMARK SMILES CC(C)[C@H](CO)NS(=O)(=O)c1ccc(Cl)c(C(=O)OCCOC(=O)c2ccc(-c3c4nc(c(-c5c(F)c(F)c(F)c(F)c5F)c5ccc([nH]5)c(-c5c(F)c(F)c(F)c(F)c5F)c5nc(c(-c6c(F)c(F)c(F)c(F)c6F)c6ccc3[nH]6)C=C5)C=C4)cc2)c1
REMARK SMILES IDX 19 1 17 2 18 3 16 4 11 5 12 6 88 7 13 8 14 9 15 10 8 11 9 12
REMARK SMILES IDX 10 13 7 14 4 16 2 17 1 18 3 19 5 20 6 21 20 23 21 24 22 25
REMARK SMILES IDX 23 26 24 27 25 28 26 29 87 30 27 31 86 32 28 33 29 34 30 35
REMARK SMILES IDX 80 36 31 37 85 38 79 39 81 40 32 41 84 42 78 43 77 44 33 46
REMARK SMILES IDX 65 47 45 48 64 49 46 50 49 51 63 52 82 53 47 54 48 55 62 57
REMARK SMILES IDX 83 58 50 59 34 60 35 61 43 62 36 63 37 64 41 65 44 66 38 67
REMARK SMILES IDX 39 68 42 69 40 70 66 71 67 72 75 73 68 74 69 75 73 76 76 77
REMARK SMILES IDX 70 78 71 79 74 80 72 81 51 82 52 83 60 84 53 85 54 86 58 87
REMARK SMILES IDX 61 88 55 89 56 90 59 91 57 92
REMARK H PARENT 7 15 6 22 81 45 49 56
REMARK Flexibility Score: inf
ROOT
ATOM      1  O   UNL     1      -5.499  -1.904   6.087  1.00  0.00    -0.458 OA
ENDROOT
BRANCH   1   2
ATOM      2  C   UNL     1      -4.329  -2.260   5.507  1.00  0.00     0.339 C 
ATOM      3  O   UNL     1      -3.618  -3.205   5.804  1.00  0.00    -0.246 OA
BRANCH   2   4
ATOM      4  C   UNL     1      -4.098  -1.439   4.296  1.00  0.00     0.080 A 
ATOM      5  C   UNL     1      -3.662  -1.440   1.905  1.00  0.00     0.083 A 
ATOM      6  C   UNL     1      -3.898  -0.064   1.866  1.00  0.00     0.023 A 
ATOM      7  C   UNL     1      -3.736  -2.123   3.120  1.00  0.00     0.039 A 
ATOM      8  C   UNL     1      -4.158   0.632   3.049  1.00  0.00     0.023 A 
ATOM      9  C   UNL     1      -4.265  -0.050   4.267  1.00  0.00     0.055 A 
ATOM     10  Cl  UNL     1      -4.545   0.900   5.682  1.00  0.00    -0.083 Cl
BRANCH   5  11
ATOM     11  S   UNL     1      -3.505  -2.349   0.381  1.00  0.00     0.240 S 
ATOM     12  O   UNL     1      -4.295  -1.663  -0.616  1.00  0.00    -0.207 OA
ATOM     13  O   UNL     1      -3.741  -3.741   0.679  1.00  0.00    -0.207 OA
BRANCH  11  14
ATOM     14  N   UNL     1      -1.892  -2.265  -0.022  1.00  0.00    -0.206 NA
ATOM     15  H   UNL     1      -1.403  -2.766   0.720  1.00  0.00     0.141 HD
BRANCH  14  16
ATOM     16  C   UNL     1      -1.123  -1.027  -0.228  1.00  0.00     0.098 C 
BRANCH  16  17
ATOM     17  C   UNL     1      -1.332  -0.381  -1.624  1.00  0.00     0.003 C 
ATOM     18  C   UNL     1      -1.648  -1.363  -2.756  1.00  0.00     0.009 C 
ATOM     19  C   UNL     1      -2.381   0.737  -1.592  1.00  0.00     0.009 C 
ENDBRANCH  16  17
BRANCH  16  20
ATOM     20  C   UNL     1       0.374  -1.342   0.061  1.00  0.00     0.176 C 
BRANCH  20  21
ATOM     21  O   UNL     1       1.120  -1.735  -1.084  1.00  0.00    -0.395 OA
ATOM     22  H   UNL     1       0.753  -2.558  -1.442  1.00  0.00     0.210 HD
ENDBRANCH  20  21
ENDBRANCH  16  20
ENDBRANCH  14  16
ENDBRANCH  11  14
ENDBRANCH   5  11
ENDBRANCH   2   4
ENDBRANCH   1   2
BRANCH   1  23
ATOM     23  C   UNL     1      -5.936  -2.667   7.230  1.00  0.00     0.275 C 
BRANCH  23  24
ATOM     24  C   UNL     1      -7.279  -3.331   6.933  1.00  0.00     0.275 C 
BRANCH  24  25
ATOM     25  O   UNL     1      -7.096  -4.349   5.934  1.00  0.00    -0.458 OA
BRANCH  25  26
ATOM     26  C   UNL     1      -7.590  -4.066   4.707  1.00  0.00     0.338 C 
ATOM     27  O   UNL     1      -8.240  -3.096   4.362  1.00  0.00    -0.246 OA
BRANCH  26  28
ATOM     28  C   UNL     1      -7.138  -5.103   3.770  1.00  0.00     0.060 A 
ATOM     29  C   UNL     1      -5.801  -5.103   3.392  1.00  0.00     0.016 A 
ATOM     30  C   UNL     1      -8.034  -5.992   3.184  1.00  0.00     0.016 A 
ATOM     31  C   UNL     1      -5.367  -5.934   2.364  1.00  0.00     0.010 A 
ATOM     32  C   UNL     1      -7.569  -6.904   2.226  1.00  0.00     0.010 A 
ATOM     33  C   UNL     1      -6.232  -6.873   1.785  1.00  0.00    -0.014 A 
BRANCH  33  34
ATOM     34  C   UNL     1      -5.737  -7.812   0.734  1.00  0.00     0.031 A 
ATOM     35  C   UNL     1      -6.428  -7.898  -0.603  1.00  0.00     0.074 A 
ATOM     36  C   UNL     1      -4.665  -8.598   0.966  1.00  0.00     0.049 A 
ATOM     37  N   UNL     1      -6.314  -8.807  -1.540  1.00  0.00    -0.248 NA
ATOM     38  C   UNL     1      -7.384  -6.827  -0.923  1.00  0.00     0.031 C 
ATOM     39  C   UNL     1      -3.848  -8.586   2.181  1.00  0.00     0.029 A 
ATOM     40  N   UNL     1      -4.073  -9.566   0.186  1.00  0.00    -0.354 N 
ATOM     41  C   UNL     1      -7.223  -8.451  -2.529  1.00  0.00     0.074 A 
ATOM     42  C   UNL     1      -7.881  -7.242  -2.081  1.00  0.00     0.031 C 
ATOM     43  C   UNL     1      -2.846  -9.466   2.052  1.00  0.00     0.029 A 
ATOM     44  C   UNL     1      -3.014 -10.193   0.800  1.00  0.00     0.049 A 
ATOM     45  H   UNL     1      -4.378  -9.787  -0.723  1.00  0.00     0.167 HD
ATOM     46  C   UNL     1      -7.484  -9.082  -3.701  1.00  0.00     0.037 A 
ATOM     47  C   UNL     1      -2.298 -11.275   0.439  1.00  0.00     0.037 A 
ATOM     48  C   UNL     1      -6.780 -10.248  -4.171  1.00  0.00     0.049 A 
ATOM     49  C   UNL     1      -2.655 -11.999  -0.827  1.00  0.00     0.074 A 
ATOM     50  C   UNL     1      -6.954 -10.942  -5.357  1.00  0.00     0.029 A 
ATOM     51  N   UNL     1      -5.756 -10.883  -3.485  1.00  0.00    -0.354 N 
ATOM     52  N   UNL     1      -3.562 -11.700  -1.723  1.00  0.00    -0.248 NA
ATOM     53  C   UNL     1      -1.910 -13.233  -1.115  1.00  0.00     0.031 C 
ATOM     54  C   UNL     1      -6.066 -12.023  -5.367  1.00  0.00     0.029 A 
ATOM     55  C   UNL     1      -5.307 -11.977  -4.210  1.00  0.00     0.049 A 
ATOM     56  H   UNL     1      -5.399 -10.599  -2.612  1.00  0.00     0.167 HD
ATOM     57  C   UNL     1      -3.500 -12.704  -2.678  1.00  0.00     0.074 A 
ATOM     58  C   UNL     1      -2.443 -13.606  -2.270  1.00  0.00     0.031 C 
ATOM     59  C   UNL     1      -4.259 -12.869  -3.788  1.00  0.00     0.037 A 
BRANCH  46  60
ATOM     60  C   UNL     1      -8.604  -8.553  -4.551  1.00  0.00     0.064 A 
ATOM     61  C   UNL     1      -8.491  -7.360  -5.278  1.00  0.00     0.173 A 
ATOM     62  C   UNL     1      -9.789  -9.294  -4.690  1.00  0.00     0.173 A 
ATOM     63  F   UNL     1      -7.383  -6.611  -5.178  1.00  0.00    -0.203 F 
ATOM     64  C   UNL     1      -9.529  -6.918  -6.096  1.00  0.00     0.198 A 
ATOM     65  C   UNL     1     -10.813  -8.865  -5.529  1.00  0.00     0.198 A 
ATOM     66  F   UNL     1      -9.945 -10.450  -4.025  1.00  0.00    -0.203 F 
ATOM     67  F   UNL     1      -9.414  -5.757  -6.755  1.00  0.00    -0.200 F 
ATOM     68  C   UNL     1     -10.685  -7.675  -6.228  1.00  0.00     0.200 A 
ATOM     69  F   UNL     1     -11.921  -9.607  -5.668  1.00  0.00    -0.200 F 
ATOM     70  F   UNL     1     -11.676  -7.255  -7.026  1.00  0.00    -0.200 F 
ENDBRANCH  46  60
BRANCH  47  71
ATOM     71  C   UNL     1      -1.226 -11.786   1.335  1.00  0.00     0.064 A 
ATOM     72  C   UNL     1       0.119 -11.750   0.946  1.00  0.00     0.173 A 
ATOM     73  C   UNL     1      -1.524 -12.317   2.600  1.00  0.00     0.173 A 
ATOM     74  F   UNL     1       0.454 -11.280  -0.265  1.00  0.00    -0.203 F 
ATOM     75  C   UNL     1       1.124 -12.230   1.784  1.00  0.00     0.198 A 
ATOM     76  C   UNL     1      -0.517 -12.763   3.451  1.00  0.00     0.198 A 
ATOM     77  F   UNL     1      -2.797 -12.382   3.019  1.00  0.00    -0.203 F 
ATOM     78  F   UNL     1       2.398 -12.224   1.371  1.00  0.00    -0.200 F 
ATOM     79  C   UNL     1       0.806 -12.726   3.040  1.00  0.00     0.200 A 
ATOM     80  F   UNL     1      -0.829 -13.226   4.670  1.00  0.00    -0.200 F 
ATOM     81  F   UNL     1       1.774 -13.175   3.851  1.00  0.00    -0.200 F 
ENDBRANCH  47  71
BRANCH  59  82
ATOM     82  C   UNL     1      -3.965 -14.065  -4.644  1.00  0.00     0.064 A 
ATOM     83  C   UNL     1      -4.327 -15.358  -4.240  1.00  0.00     0.173 A 
ATOM     84  C   UNL     1      -3.344 -13.914  -5.893  1.00  0.00     0.173 A 
ATOM     85  F   UNL     1      -4.904 -15.555  -3.045  1.00  0.00    -0.203 F 
ATOM     86  C   UNL     1      -4.061 -16.460  -5.048  1.00  0.00     0.198 A 
ATOM     87  C   UNL     1      -3.104 -15.014  -6.710  1.00  0.00     0.198 A 
ATOM     88  F   UNL     1      -2.980 -12.697  -6.325  1.00  0.00    -0.203 F 
ATOM     89  F   UNL     1      -4.375 -17.691  -4.624  1.00  0.00    -0.200 F 
ATOM     90  C   UNL     1      -3.456 -16.287  -6.285  1.00  0.00     0.200 A 
ATOM     91  F   UNL     1      -2.529 -14.845  -7.908  1.00  0.00    -0.200 F 
ATOM     92  F   UNL     1      -3.206 -17.348  -7.064  1.00  0.00    -0.200 F 
ENDBRANCH  59  82
ENDBRANCH  33  34
ENDBRANCH  26  28
ENDBRANCH  25  26
ENDBRANCH  24  25
ENDBRANCH  23  24
ENDBRANCH   1  23
TORSDOF 17
