REMARK SMILES CC(C)(C)C(=O)Nc1ccc(C(=O)OCCOC(=O)c2ccc(-c3c4nc(c(-c5c(F)c(F)c(F)c(F)c5F)c5ccc([nH]5)c(-c5c(F)c(F)c(F)c(F)c5F)c5nc(c(-c6c(F)c(F)c(F)c(F)c6F)c6ccc3[nH]6)C=C5)C=C4)cc2)cc1Br
REMARK SMILES IDX 15 1 14 2 12 3 13 4 11 5 8 6 9 7 84 8 10 9 83 10 85 11 7 12
REMARK SMILES IDX 5 13 6 14 2 16 1 17 3 18 4 19 16 20 17 21 18 22 19 23 20 24
REMARK SMILES IDX 21 25 82 26 22 27 81 28 23 29 24 30 25 31 75 32 26 33 80 34
REMARK SMILES IDX 74 35 76 36 27 37 79 38 73 39 72 40 28 42 60 43 40 44 59 45
REMARK SMILES IDX 41 46 44 47 58 48 77 49 42 50 43 51 57 53 78 54 45 55 29 56
REMARK SMILES IDX 30 57 38 58 31 59 32 60 36 61 39 62 33 63 34 64 37 65 35 66
REMARK SMILES IDX 61 67 62 68 70 69 63 70 64 71 68 72 71 73 65 74 66 75 69 76
REMARK SMILES IDX 67 77 46 78 47 79 55 80 48 81 49 82 53 83 56 84 50 85 51 86
REMARK SMILES IDX 54 87 52 88
REMARK H PARENT 7 15 76 41 44 52
REMARK Flexibility Score: inf
ROOT
ATOM      1  C   UNL     1      -4.460  -4.962   5.433  1.00  0.00     0.275 C 
ENDROOT
BRANCH   1   2
ATOM      2  O   UNL     1      -3.813  -4.617   4.195  1.00  0.00    -0.458 OA
BRANCH   2   3
ATOM      3  C   UNL     1      -2.462  -4.633   4.220  1.00  0.00     0.338 C 
ATOM      4  O   UNL     1      -1.758  -4.829   5.200  1.00  0.00    -0.246 OA
BRANCH   3   5
ATOM      5  C   UNL     1      -1.891  -4.444   2.862  1.00  0.00     0.061 A 
ATOM      6  C   UNL     1      -0.638  -3.881   0.441  1.00  0.00     0.055 A 
ATOM      7  C   UNL     1       0.111  -4.401   1.493  1.00  0.00     0.028 A 
ATOM      8  C   UNL     1      -2.035  -3.813   0.535  1.00  0.00     0.042 A 
ATOM      9  C   UNL     1      -0.509  -4.645   2.712  1.00  0.00     0.018 A 
ATOM     10  C   UNL     1      -2.664  -4.080   1.754  1.00  0.00     0.033 A 
ATOM     11  Br  UNL     1      -3.111  -3.285  -0.936  1.00  0.00    -0.049 Br
BRANCH   6  12
ATOM     12  N   UNL     1       0.059  -3.374  -0.654  1.00  0.00    -0.325 N 
ATOM     13  C   UNL     1       0.739  -2.186  -0.730  1.00  0.00     0.229 C 
ATOM     14  O   UNL     1       1.503  -2.058  -1.694  1.00  0.00    -0.274 OA
ATOM     15  H   UNL     1       0.065  -3.932  -1.465  1.00  0.00     0.169 HD
BRANCH  13  16
ATOM     16  C   UNL     1       0.569  -1.040   0.319  1.00  0.00     0.041 C 
ATOM     17  C   UNL     1       1.334   0.194  -0.213  1.00  0.00     0.021 C 
ATOM     18  C   UNL     1       1.182  -1.380   1.685  1.00  0.00     0.021 C 
ATOM     19  C   UNL     1      -0.897  -0.614   0.490  1.00  0.00     0.021 C 
ENDBRANCH  13  16
ENDBRANCH   6  12
ENDBRANCH   3   5
ENDBRANCH   2   3
ENDBRANCH   1   2
BRANCH   1  20
ATOM     20  C   UNL     1      -4.955  -6.408   5.393  1.00  0.00     0.275 C 
BRANCH  20  21
ATOM     21  O   UNL     1      -3.852  -7.337   5.357  1.00  0.00    -0.458 OA
BRANCH  21  22
ATOM     22  C   UNL     1      -3.556  -7.838   4.136  1.00  0.00     0.338 C 
ATOM     23  O   UNL     1      -4.125  -7.618   3.081  1.00  0.00    -0.246 OA
BRANCH  22  24
ATOM     24  C   UNL     1      -2.328  -8.644   4.212  1.00  0.00     0.060 A 
ATOM     25  C   UNL     1      -1.116  -8.011   3.951  1.00  0.00     0.016 A 
ATOM     26  C   UNL     1      -2.371 -10.025   4.387  1.00  0.00     0.016 A 
ATOM     27  C   UNL     1       0.055  -8.747   3.808  1.00  0.00     0.010 A 
ATOM     28  C   UNL     1      -1.180 -10.763   4.305  1.00  0.00     0.010 A 
ATOM     29  C   UNL     1       0.041 -10.134   3.991  1.00  0.00    -0.014 A 
BRANCH  29  30
ATOM     30  C   UNL     1       1.294 -10.917   3.805  1.00  0.00     0.031 A 
ATOM     31  C   UNL     1       1.381 -11.954   2.718  1.00  0.00     0.074 A 
ATOM     32  C   UNL     1       2.366 -10.684   4.590  1.00  0.00     0.049 A 
ATOM     33  N   UNL     1       2.317 -12.842   2.492  1.00  0.00    -0.248 NA
ATOM     34  C   UNL     1       0.264 -12.006   1.762  1.00  0.00     0.031 C 
ATOM     35  C   UNL     1       2.438  -9.675   5.648  1.00  0.00     0.029 A 
ATOM     36  N   UNL     1       3.603 -11.282   4.620  1.00  0.00    -0.354 N 
ATOM     37  C   UNL     1       1.876 -13.592   1.409  1.00  0.00     0.074 A 
ATOM     38  C   UNL     1       0.592 -13.053   1.017  1.00  0.00     0.031 C 
ATOM     39  C   UNL     1       3.655  -9.713   6.211  1.00  0.00     0.029 A 
ATOM     40  C   UNL     1       4.423 -10.799   5.611  1.00  0.00     0.049 A 
ATOM     41  H   UNL     1       3.875 -11.989   3.991  1.00  0.00     0.167 HD
ATOM     42  C   UNL     1       2.489 -14.636   0.803  1.00  0.00     0.037 A 
ATOM     43  C   UNL     1       5.637 -11.212   6.024  1.00  0.00     0.037 A 
ATOM     44  C   UNL     1       3.796 -15.128   1.153  1.00  0.00     0.049 A 
ATOM     45  C   UNL     1       6.285 -12.386   5.343  1.00  0.00     0.074 A 
ATOM     46  C   UNL     1       4.514 -16.159   0.569  1.00  0.00     0.029 A 
ATOM     47  N   UNL     1       4.588 -14.616   2.169  1.00  0.00    -0.354 N 
ATOM     48  N   UNL     1       5.846 -13.107   4.340  1.00  0.00    -0.248 NA
ATOM     49  C   UNL     1       7.593 -12.815   5.861  1.00  0.00     0.031 C 
ATOM     50  C   UNL     1       5.723 -16.297   1.259  1.00  0.00     0.029 A 
ATOM     51  C   UNL     1       5.779 -15.322   2.240  1.00  0.00     0.049 A 
ATOM     52  H   UNL     1       4.341 -13.863   2.754  1.00  0.00     0.167 HD
ATOM     53  C   UNL     1       6.827 -14.059   4.097  1.00  0.00     0.074 A 
ATOM     54  C   UNL     1       7.895 -13.812   5.041  1.00  0.00     0.031 C 
ATOM     55  C   UNL     1       6.838 -15.054   3.178  1.00  0.00     0.037 A 
BRANCH  42  56
ATOM     56  C   UNL     1       1.748 -15.351  -0.289  1.00  0.00     0.064 A 
ATOM     57  C   UNL     1       1.589 -14.798  -1.566  1.00  0.00     0.173 A 
ATOM     58  C   UNL     1       1.256 -16.647  -0.067  1.00  0.00     0.173 A 
ATOM     59  F   UNL     1       2.030 -13.558  -1.825  1.00  0.00    -0.203 F 
ATOM     60  C   UNL     1       0.955 -15.513  -2.580  1.00  0.00     0.198 A 
ATOM     61  C   UNL     1       0.646 -17.369  -1.089  1.00  0.00     0.198 A 
ATOM     62  F   UNL     1       1.389 -17.224   1.138  1.00  0.00    -0.203 F 
ATOM     63  F   UNL     1       0.787 -14.956  -3.787  1.00  0.00    -0.200 F 
ATOM     64  C   UNL     1       0.493 -16.800  -2.344  1.00  0.00     0.200 A 
ATOM     65  F   UNL     1       0.214 -18.617  -0.861  1.00  0.00    -0.200 F 
ATOM     66  F   UNL     1      -0.100 -17.492  -3.326  1.00  0.00    -0.200 F 
ENDBRANCH  42  56
BRANCH  43  67
ATOM     67  C   UNL     1       6.298 -10.548   7.180  1.00  0.00     0.064 A 
ATOM     68  C   UNL     1       7.484  -9.819   7.018  1.00  0.00     0.173 A 
ATOM     69  C   UNL     1       5.770 -10.653   8.476  1.00  0.00     0.173 A 
ATOM     70  F   UNL     1       8.044  -9.711   5.804  1.00  0.00    -0.203 F 
ATOM     71  C   UNL     1       8.128  -9.240   8.110  1.00  0.00     0.198 A 
ATOM     72  C   UNL     1       6.396 -10.045   9.561  1.00  0.00     0.198 A 
ATOM     73  F   UNL     1       4.639 -11.342   8.687  1.00  0.00    -0.203 F 
ATOM     74  F   UNL     1       9.290  -8.597   7.936  1.00  0.00    -0.200 F 
ATOM     75  C   UNL     1       7.580  -9.348   9.380  1.00  0.00     0.200 A 
ATOM     76  F   UNL     1       5.854 -10.141  10.783  1.00  0.00    -0.200 F 
ATOM     77  F   UNL     1       8.199  -8.791  10.429  1.00  0.00    -0.200 F 
ENDBRANCH  43  67
BRANCH  55  78
ATOM     78  C   UNL     1       8.057 -15.926   3.124  1.00  0.00     0.064 A 
ATOM     79  C   UNL     1       8.324 -16.879   4.117  1.00  0.00     0.173 A 
ATOM     80  C   UNL     1       8.951 -15.829   2.047  1.00  0.00     0.173 A 
ATOM     81  F   UNL     1       7.508 -16.998   5.175  1.00  0.00    -0.203 F 
ATOM     82  C   UNL     1       9.456 -17.686   4.047  1.00  0.00     0.198 A 
ATOM     83  C   UNL     1      10.067 -16.657   1.966  1.00  0.00     0.198 A 
ATOM     84  F   UNL     1       8.737 -14.937   1.068  1.00  0.00    -0.203 F 
ATOM     85  F   UNL     1       9.716 -18.558   5.031  1.00  0.00    -0.200 F 
ATOM     86  C   UNL     1      10.322 -17.580   2.969  1.00  0.00     0.200 A 
ATOM     87  F   UNL     1      10.896 -16.561   0.917  1.00  0.00    -0.200 F 
ATOM     88  F   UNL     1      11.408 -18.362   2.900  1.00  0.00    -0.200 F 
ENDBRANCH  55  78
ENDBRANCH  29  30
ENDBRANCH  22  24
ENDBRANCH  21  22
ENDBRANCH  20  21
ENDBRANCH   1  20
TORSDOF 13
