REMARK SMILES Cc1ccc2c(c1C)O[C@@H](C(=O)OCCOC(=O)c1ccc(-c3c4nc(c(-c5c(F)c(F)c(F)c(F)c5F)c5ccc([nH]5)c(-c5c(F)c(F)c(F)c(F)c5F)c5nc(c(-c6c(F)c(F)c(F)c(F)c6F)c6ccc3[nH]6)C=C5)C=C4)cc1)CC2=O
REMARK SMILES IDX 15 1 14 2 13 3 11 4 12 5 10 6 1 7 2 8 3 9 7 10 4 11 6 12
REMARK SMILES IDX 8 13 5 14 9 15 83 16 82 17 84 18 16 19 17 20 18 21 19 22
REMARK SMILES IDX 20 23 81 24 21 25 80 26 22 27 23 28 24 29 74 30 25 31 79 32
REMARK SMILES IDX 73 33 75 34 26 35 78 36 72 37 71 38 27 40 59 41 39 42 58 43
REMARK SMILES IDX 40 44 43 45 57 46 76 47 41 48 42 49 56 51 77 52 44 53 28 54
REMARK SMILES IDX 29 55 37 56 30 57 31 58 35 59 38 60 32 61 33 62 36 63 34 64
REMARK SMILES IDX 60 65 61 66 69 67 62 68 63 69 67 70 70 71 64 72 65 73 68 74
REMARK SMILES IDX 66 75 45 76 46 77 54 78 47 79 48 80 52 81 55 82 49 83 50 84
REMARK SMILES IDX 53 85 51 86
REMARK H PARENT 75 39 43 50
REMARK Flexibility Score: inf
ROOT
ATOM      1  C   UNL     1      -3.710  -6.054  -2.336  1.00  0.00     0.275 C 
ENDROOT
BRANCH   1   2
ATOM      2  C   UNL     1      -3.034  -4.716  -2.035  1.00  0.00     0.274 C 
BRANCH   2   3
ATOM      3  O   UNL     1      -2.445  -4.723  -0.720  1.00  0.00    -0.459 OA
BRANCH   3   4
ATOM      4  C   UNL     1      -3.112  -4.051   0.253  1.00  0.00     0.347 C 
ATOM      5  O   UNL     1      -4.152  -3.423   0.079  1.00  0.00    -0.248 OA
BRANCH   4   6
ATOM      6  C   UNL     1      -2.405  -4.123   1.616  1.00  0.00     0.290 C 
ATOM      7  C   UNL     1       1.298   0.358  -0.089  1.00  0.00     0.045 C 
ATOM      8  C   UNL     1       0.880  -1.046   0.256  1.00  0.00    -0.044 A 
ATOM      9  C   UNL     1       1.689  -2.111  -0.182  1.00  0.00     0.005 A 
ATOM     10  C   UNL     1      -0.303  -1.319   0.975  1.00  0.00    -0.005 A 
ATOM     11  C   UNL     1       1.353  -3.432   0.103  1.00  0.00     0.016 A 
ATOM     12  C   UNL     1      -0.633  -2.659   1.248  1.00  0.00     0.134 A 
ATOM     13  C   UNL     1      -1.236  -0.234   1.448  1.00  0.00     0.049 C 
ATOM     14  C   UNL     1       0.194  -3.701   0.824  1.00  0.00     0.060 A 
ATOM     15  O   UNL     1      -1.784  -2.889   1.961  1.00  0.00    -0.477 OA
ATOM     16  C   UNL     1      -0.171  -5.093   1.148  1.00  0.00     0.170 C 
ATOM     17  C   UNL     1      -1.485  -5.309   1.842  1.00  0.00     0.138 C 
ATOM     18  O   UNL     1       0.596  -6.018   0.899  1.00  0.00    -0.294 OA
ENDBRANCH   4   6
ENDBRANCH   3   4
ENDBRANCH   2   3
ENDBRANCH   1   2
BRANCH   1  19
ATOM     19  O   UNL     1      -4.881  -6.239  -1.518  1.00  0.00    -0.458 OA
BRANCH  19  20
ATOM     20  C   UNL     1      -4.673  -6.916  -0.368  1.00  0.00     0.338 C 
ATOM     21  O   UNL     1      -3.635  -7.403   0.039  1.00  0.00    -0.246 OA
BRANCH  20  22
ATOM     22  C   UNL     1      -5.898  -6.900   0.437  1.00  0.00     0.060 A 
ATOM     23  C   UNL     1      -5.997  -5.976   1.481  1.00  0.00     0.016 A 
ATOM     24  C   UNL     1      -6.880  -7.870   0.240  1.00  0.00     0.016 A 
ATOM     25  C   UNL     1      -7.076  -6.031   2.354  1.00  0.00     0.010 A 
ATOM     26  C   UNL     1      -7.972  -7.915   1.109  1.00  0.00     0.010 A 
ATOM     27  C   UNL     1      -8.063  -7.009   2.180  1.00  0.00    -0.014 A 
BRANCH  27  28
ATOM     28  C   UNL     1      -9.170  -7.108   3.154  1.00  0.00     0.031 A 
ATOM     29  C   UNL     1      -9.142  -8.177   4.204  1.00  0.00     0.074 A 
ATOM     30  C   UNL     1     -10.182  -6.225   3.098  1.00  0.00     0.049 A 
ATOM     31  N   UNL     1     -10.045  -8.476   5.101  1.00  0.00    -0.248 NA
ATOM     32  C   UNL     1      -7.938  -9.021   4.255  1.00  0.00     0.031 C 
ATOM     33  C   UNL     1     -10.282  -5.119   2.145  1.00  0.00     0.029 A 
ATOM     34  N   UNL     1     -11.320  -6.123   3.854  1.00  0.00    -0.354 N 
ATOM     35  C   UNL     1      -9.525  -9.545   5.816  1.00  0.00     0.074 A 
ATOM     36  C   UNL     1      -8.234  -9.856   5.242  1.00  0.00     0.031 C 
ATOM     37  C   UNL     1     -11.428  -4.455   2.368  1.00  0.00     0.029 A 
ATOM     38  C   UNL     1     -12.156  -5.112   3.450  1.00  0.00     0.049 A 
ATOM     39  H   UNL     1     -11.519  -6.718   4.613  1.00  0.00     0.167 HD
ATOM     40  C   UNL     1     -10.081 -10.201   6.861  1.00  0.00     0.037 A 
ATOM     41  C   UNL     1     -13.383  -4.776   3.887  1.00  0.00     0.037 A 
ATOM     42  C   UNL     1     -11.360  -9.878   7.433  1.00  0.00     0.049 A 
ATOM     43  C   UNL     1     -14.004  -5.566   5.006  1.00  0.00     0.074 A 
ATOM     44  C   UNL     1     -11.999 -10.470   8.508  1.00  0.00     0.029 A 
ATOM     45  N   UNL     1     -12.196  -8.871   6.973  1.00  0.00    -0.354 N 
ATOM     46  N   UNL     1     -13.507  -6.575   5.678  1.00  0.00    -0.248 NA
ATOM     47  C   UNL     1     -15.359  -5.177   5.422  1.00  0.00     0.031 C 
ATOM     48  C   UNL     1     -13.239  -9.847   8.675  1.00  0.00     0.029 A 
ATOM     49  C   UNL     1     -13.357  -8.842   7.727  1.00  0.00     0.049 A 
ATOM     50  H   UNL     1     -11.994  -8.268   6.222  1.00  0.00     0.167 HD
ATOM     51  C   UNL     1     -14.478  -6.935   6.601  1.00  0.00     0.074 A 
ATOM     52  C   UNL     1     -15.590  -6.026   6.414  1.00  0.00     0.031 C 
ATOM     53  C   UNL     1     -14.452  -7.931   7.519  1.00  0.00     0.037 A 
BRANCH  40  54
ATOM     54  C   UNL     1      -9.319 -11.347   7.450  1.00  0.00     0.064 A 
ATOM     55  C   UNL     1      -8.222 -11.138   8.298  1.00  0.00     0.173 A 
ATOM     56  C   UNL     1      -9.734 -12.667   7.221  1.00  0.00     0.173 A 
ATOM     57  F   UNL     1      -7.781  -9.894   8.537  1.00  0.00    -0.203 F 
ATOM     58  C   UNL     1      -7.565 -12.212   8.893  1.00  0.00     0.198 A 
ATOM     59  C   UNL     1      -9.086 -13.737   7.831  1.00  0.00     0.198 A 
ATOM     60  F   UNL     1     -10.780 -12.916   6.418  1.00  0.00    -0.203 F 
ATOM     61  F   UNL     1      -6.507 -11.992   9.686  1.00  0.00    -0.200 F 
ATOM     62  C   UNL     1      -8.002 -13.509   8.665  1.00  0.00     0.200 A 
ATOM     63  F   UNL     1      -9.514 -14.989   7.617  1.00  0.00    -0.200 F 
ATOM     64  F   UNL     1      -7.377 -14.540   9.250  1.00  0.00    -0.200 F 
ENDBRANCH  40  54
BRANCH  41  65
ATOM     65  C   UNL     1     -14.110  -3.655   3.243  1.00  0.00     0.064 A 
ATOM     66  C   UNL     1     -14.308  -2.442   3.915  1.00  0.00     0.173 A 
ATOM     67  C   UNL     1     -14.609  -3.770   1.937  1.00  0.00     0.173 A 
ATOM     68  F   UNL     1     -13.868  -2.295   5.174  1.00  0.00    -0.203 F 
ATOM     69  C   UNL     1     -14.984  -1.387   3.307  1.00  0.00     0.198 A 
ATOM     70  C   UNL     1     -15.265  -2.707   1.322  1.00  0.00     0.198 A 
ATOM     71  F   UNL     1     -14.445  -4.912   1.254  1.00  0.00    -0.203 F 
ATOM     72  F   UNL     1     -15.188  -0.247   3.982  1.00  0.00    -0.200 F 
ATOM     73  C   UNL     1     -15.456  -1.517   2.009  1.00  0.00     0.200 A 
ATOM     74  F   UNL     1     -15.710  -2.834   0.065  1.00  0.00    -0.200 F 
ATOM     75  F   UNL     1     -16.101  -0.499   1.423  1.00  0.00    -0.200 F 
ENDBRANCH  41  65
BRANCH  53  76
ATOM     76  C   UNL     1     -15.656  -8.090   8.396  1.00  0.00     0.064 A 
ATOM     77  C   UNL     1     -16.830  -8.685   7.915  1.00  0.00     0.173 A 
ATOM     78  C   UNL     1     -15.609  -7.713   9.746  1.00  0.00     0.173 A 
ATOM     79  F   UNL     1     -16.924  -9.048   6.627  1.00  0.00    -0.203 F 
ATOM     80  C   UNL     1     -17.921  -8.890   8.754  1.00  0.00     0.198 A 
ATOM     81  C   UNL     1     -16.694  -7.940  10.588  1.00  0.00     0.198 A 
ATOM     82  F   UNL     1     -14.503  -7.147  10.252  1.00  0.00    -0.203 F 
ATOM     83  F   UNL     1     -19.044  -9.437   8.269  1.00  0.00    -0.200 F 
ATOM     84  C   UNL     1     -17.849  -8.525  10.091  1.00  0.00     0.200 A 
ATOM     85  F   UNL     1     -16.619  -7.597  11.881  1.00  0.00    -0.200 F 
ATOM     86  F   UNL     1     -18.895  -8.736  10.901  1.00  0.00    -0.200 F 
ENDBRANCH  53  76
ENDBRANCH  27  28
ENDBRANCH  20  22
ENDBRANCH  19  20
ENDBRANCH   1  19
TORSDOF 11
