REMARK SMILES O=C(OCCOC(=O)c1ccc([C@@H]2CC(O)=Nc3c2ncn3-c2cccc(Cl)c2)cc1)c1ccc(-c2c3nc(c(-c4c(F)c(F)c(F)c(F)c4F)c4ccc([nH]4)c(-c4c(F)c(F)c(F)c(F)c4F)c4nc(c(-c5c(F)c(F)c(F)c(F)c5F)c5ccc2[nH]5)C=C4)C=C3)cc1
REMARK SMILES IDX 4 1 3 2 2 3 1 4 32 5 33 6 94 7 34 8 93 9 35 10 36 11 37 12
REMARK SMILES IDX 87 13 38 14 92 15 86 16 88 17 39 18 91 19 85 20 84 21 40 23
REMARK SMILES IDX 72 24 52 25 71 26 53 27 56 28 70 29 89 30 54 31 55 32 69 34
REMARK SMILES IDX 90 35 57 36 41 37 42 38 50 39 43 40 44 41 48 42 51 43 45 44
REMARK SMILES IDX 46 45 49 46 47 47 73 48 74 49 82 50 75 51 76 52 80 53 83 54
REMARK SMILES IDX 77 55 78 56 81 57 79 58 58 59 59 60 67 61 60 62 61 63 65 64
REMARK SMILES IDX 68 65 62 66 63 67 66 68 64 69 5 70 6 71 7 72 8 73 9 74 10 75
REMARK SMILES IDX 31 76 11 77 30 78 12 79 13 80 14 81 19 82 15 83 18 84 20 85
REMARK SMILES IDX 17 86 22 87 21 88 16 89 23 91 24 92 29 93 25 94 27 95 26 96
REMARK SMILES IDX 28 97
REMARK H PARENT 88 22 56 33 16 90
REMARK Flexibility Score: inf
ROOT
ATOM      1  C   UNL     1       4.749   1.006  -0.457  1.00  0.00     0.275 C 
ENDROOT
BRANCH   1   2
ATOM      2  O   UNL     1       3.567   0.815  -1.265  1.00  0.00    -0.458 OA
BRANCH   2   3
ATOM      3  C   UNL     1       2.457   0.306  -0.694  1.00  0.00     0.338 C 
ATOM      4  O   UNL     1       1.554   0.986  -0.218  1.00  0.00    -0.246 OA
BRANCH   3   5
ATOM      5  C   UNL     1       2.339  -1.158  -0.887  1.00  0.00     0.060 A 
ATOM      6  C   UNL     1       3.445  -1.958  -1.189  1.00  0.00     0.016 A 
ATOM      7  C   UNL     1       1.071  -1.741  -0.762  1.00  0.00     0.016 A 
ATOM      8  C   UNL     1       3.280  -3.314  -1.423  1.00  0.00     0.010 A 
ATOM      9  C   UNL     1       0.908  -3.105  -0.976  1.00  0.00     0.010 A 
ATOM     10  C   UNL     1       2.006  -3.881  -1.356  1.00  0.00    -0.014 A 
BRANCH  10  11
ATOM     11  C   UNL     1       1.885  -5.293  -1.711  1.00  0.00     0.031 A 
ATOM     12  C   UNL     1       2.634  -6.284  -0.878  1.00  0.00     0.074 A 
ATOM     13  C   UNL     1       1.058  -5.717  -2.687  1.00  0.00     0.049 A 
ATOM     14  N   UNL     1       3.437  -7.231  -1.261  1.00  0.00    -0.248 NA
ATOM     15  C   UNL     1       2.471  -6.190   0.578  1.00  0.00     0.031 C 
ATOM     16  C   UNL     1       0.053  -4.947  -3.424  1.00  0.00     0.029 A 
ATOM     17  N   UNL     1       0.881  -6.986  -3.151  1.00  0.00    -0.354 N 
ATOM     18  C   UNL     1       3.772  -7.944  -0.108  1.00  0.00     0.074 A 
ATOM     19  C   UNL     1       3.207  -7.219   0.994  1.00  0.00     0.031 C 
ATOM     20  C   UNL     1      -0.769  -5.800  -4.073  1.00  0.00     0.029 A 
ATOM     21  C   UNL     1      -0.264  -7.151  -3.908  1.00  0.00     0.049 A 
ATOM     22  H   UNL     1       1.512  -7.718  -2.965  1.00  0.00     0.167 HD
ATOM     23  C   UNL     1       4.369  -9.169  -0.136  1.00  0.00     0.037 A 
ATOM     24  C   UNL     1      -0.803  -8.324  -4.312  1.00  0.00     0.037 A 
ATOM     25  C   UNL     1       5.084  -9.389  -1.360  1.00  0.00     0.049 A 
ATOM     26  C   UNL     1       0.252  -9.362  -4.245  1.00  0.00     0.074 A 
ATOM     27  C   UNL     1       6.144  -8.765  -1.990  1.00  0.00     0.029 A 
ATOM     28  N   UNL     1       4.560 -10.237  -2.302  1.00  0.00    -0.354 N 
ATOM     29  N   UNL     1       1.288  -9.411  -5.036  1.00  0.00    -0.248 NA
ATOM     30  C   UNL     1       0.359 -10.145  -3.023  1.00  0.00     0.031 C 
ATOM     31  C   UNL     1       5.858  -8.874  -3.383  1.00  0.00     0.029 A 
ATOM     32  C   UNL     1       4.659  -9.577  -3.498  1.00  0.00     0.049 A 
ATOM     33  H   UNL     1       4.188 -11.136  -2.150  1.00  0.00     0.167 HD
ATOM     34  C   UNL     1       2.317  -9.892  -4.241  1.00  0.00     0.074 A 
ATOM     35  C   UNL     1       1.665 -10.422  -3.049  1.00  0.00     0.031 C 
ATOM     36  C   UNL     1       3.620  -9.573  -4.497  1.00  0.00     0.037 A 
BRANCH  23  37
ATOM     37  C   UNL     1       4.071 -10.288   0.837  1.00  0.00     0.064 A 
ATOM     38  C   UNL     1       4.833 -11.475   0.791  1.00  0.00     0.173 A 
ATOM     39  C   UNL     1       2.882 -10.363   1.594  1.00  0.00     0.173 A 
ATOM     40  F   UNL     1       5.979 -11.528   0.095  1.00  0.00    -0.203 F 
ATOM     41  C   UNL     1       4.392 -12.664   1.381  1.00  0.00     0.198 A 
ATOM     42  C   UNL     1       2.471 -11.538   2.226  1.00  0.00     0.198 A 
ATOM     43  F   UNL     1       2.022  -9.341   1.666  1.00  0.00    -0.203 F 
ATOM     44  F   UNL     1       5.088 -13.795   1.200  1.00  0.00    -0.200 F 
ATOM     45  C   UNL     1       3.206 -12.696   2.089  1.00  0.00     0.200 A 
ATOM     46  F   UNL     1       1.313 -11.553   2.900  1.00  0.00    -0.200 F 
ATOM     47  F   UNL     1       2.748 -13.847   2.598  1.00  0.00    -0.200 F 
ENDBRANCH  23  37
BRANCH  24  48
ATOM     48  C   UNL     1      -2.239  -8.638  -4.468  1.00  0.00     0.064 A 
ATOM     49  C   UNL     1      -2.669  -9.719  -5.250  1.00  0.00     0.173 A 
ATOM     50  C   UNL     1      -3.210  -8.025  -3.650  1.00  0.00     0.173 A 
ATOM     51  F   UNL     1      -1.794 -10.389  -6.013  1.00  0.00    -0.203 F 
ATOM     52  C   UNL     1      -3.994 -10.163  -5.214  1.00  0.00     0.198 A 
ATOM     53  C   UNL     1      -4.533  -8.461  -3.623  1.00  0.00     0.198 A 
ATOM     54  F   UNL     1      -2.873  -7.049  -2.795  1.00  0.00    -0.203 F 
ATOM     55  F   UNL     1      -4.360 -11.231  -5.935  1.00  0.00    -0.200 F 
ATOM     56  C   UNL     1      -4.923  -9.537  -4.398  1.00  0.00     0.200 A 
ATOM     57  F   UNL     1      -5.411  -7.869  -2.802  1.00  0.00    -0.200 F 
ATOM     58  F   UNL     1      -6.181  -9.993  -4.326  1.00  0.00    -0.200 F 
ENDBRANCH  24  48
BRANCH  36  59
ATOM     59  C   UNL     1       3.941  -8.886  -5.792  1.00  0.00     0.064 A 
ATOM     60  C   UNL     1       3.468  -7.604  -6.121  1.00  0.00     0.173 A 
ATOM     61  C   UNL     1       4.898  -9.460  -6.639  1.00  0.00     0.173 A 
ATOM     62  F   UNL     1       2.640  -6.945  -5.302  1.00  0.00    -0.203 F 
ATOM     63  C   UNL     1       3.902  -6.947  -7.270  1.00  0.00     0.198 A 
ATOM     64  C   UNL     1       5.358  -8.785  -7.767  1.00  0.00     0.198 A 
ATOM     65  F   UNL     1       5.436 -10.652  -6.338  1.00  0.00    -0.203 F 
ATOM     66  F   UNL     1       3.433  -5.725  -7.562  1.00  0.00    -0.200 F 
ATOM     67  C   UNL     1       4.853  -7.535  -8.087  1.00  0.00     0.200 A 
ATOM     68  F   UNL     1       6.319  -9.332  -8.525  1.00  0.00    -0.200 F 
ATOM     69  F   UNL     1       5.309  -6.881  -9.165  1.00  0.00    -0.200 F 
ENDBRANCH  36  59
ENDBRANCH  10  11
ENDBRANCH   3   5
ENDBRANCH   2   3
ENDBRANCH   1   2
BRANCH   1  70
ATOM     70  C   UNL     1       4.544   1.238   1.040  1.00  0.00     0.275 C 
BRANCH  70  71
ATOM     71  O   UNL     1       4.041   0.050   1.678  1.00  0.00    -0.458 OA
BRANCH  71  72
ATOM     72  C   UNL     1       3.036   0.255   2.558  1.00  0.00     0.338 C 
ATOM     73  O   UNL     1       2.534   1.331   2.886  1.00  0.00    -0.246 OA
BRANCH  72  74
ATOM     74  C   UNL     1       2.571  -1.026   3.095  1.00  0.00     0.060 A 
ATOM     75  C   UNL     1       1.296  -1.483   2.760  1.00  0.00     0.016 A 
ATOM     76  C   UNL     1       3.347  -1.712   4.029  1.00  0.00     0.016 A 
ATOM     77  C   UNL     1       0.800  -2.645   3.353  1.00  0.00     0.005 A 
ATOM     78  C   UNL     1       2.832  -2.854   4.650  1.00  0.00     0.005 A 
ATOM     79  C   UNL     1       1.552  -3.340   4.320  1.00  0.00    -0.038 A 
BRANCH  79  80
ATOM     80  C   UNL     1       0.885  -4.495   5.057  1.00  0.00     0.081 C 
ATOM     81  C   UNL     1       0.336  -4.042   6.427  1.00  0.00     0.111 C 
ATOM     82  C   UNL     1       1.863  -5.600   5.202  1.00  0.00     0.093 A 
ATOM     83  C   UNL     1       1.027  -4.652   7.637  1.00  0.00     0.188 C 
ATOM     84  C   UNL     1       2.221  -6.095   6.438  1.00  0.00     0.164 A 
ATOM     85  N   UNL     1       2.520  -6.238   4.188  1.00  0.00    -0.238 NA
ATOM     86  N   UNL     1       1.864  -5.639   7.662  1.00  0.00    -0.198 NA
ATOM     87  N   UNL     1       3.149  -7.085   6.177  1.00  0.00    -0.283 N 
ATOM     88  C   UNL     1       3.308  -7.093   4.806  1.00  0.00     0.206 A 
BRANCH  83  89
ATOM     89  O   UNL     1       0.662  -4.097   8.809  1.00  0.00    -0.496 OA
ATOM     90  H   UNL     1       0.057  -3.382   8.821  1.00  0.00     0.294 HD
ENDBRANCH  83  89
BRANCH  87  91
ATOM     91  C   UNL     1       3.802  -7.954   7.083  1.00  0.00     0.050 A 
ATOM     92  C   UNL     1       5.120  -8.362   6.827  1.00  0.00     0.027 A 
ATOM     93  C   UNL     1       3.118  -8.443   8.202  1.00  0.00     0.047 A 
ATOM     94  C   UNL     1       5.756  -9.244   7.701  1.00  0.00     0.004 A 
ATOM     95  C   UNL     1       3.749  -9.362   9.039  1.00  0.00     0.043 A 
ATOM     96  C   UNL     1       5.066  -9.757   8.799  1.00  0.00     0.020 A 
ATOM     97  Cl  UNL     1       2.886 -10.048  10.361  1.00  0.00    -0.084 Cl
ENDBRANCH  87  91
ENDBRANCH  79  80
ENDBRANCH  72  74
ENDBRANCH  71  72
ENDBRANCH  70  71
ENDBRANCH   1  70
TORSDOF 14
