REMARK SMILES CCN(CC)c1ccc([C@@H]2[NH2+][C@@H](C(=O)OCCOC(=O)c3ccc(-c4c5nc(c(-c6c(F)c(F)c(F)c(F)c6F)c6ccc([nH]6)c(-c6c(F)c(F)c(F)c(F)c6F)c6nc(c(-c7c(F)c(F)c(F)c(F)c7F)c7ccc4[nH]7)C=C6)C=C5)cc3)Cc3c2[nH]c2ccccc32)cc1
REMARK SMILES IDX 16 1 15 2 13 3 14 4 12 5 10 6 11 7 86 8 85 11 87 12 84 13
REMARK SMILES IDX 93 14 88 15 92 17 89 18 91 19 90 20 9 21 6 22 7 23 95 24
REMARK SMILES IDX 8 25 94 26 3 27 2 28 1 29 4 30 5 31 17 32 18 33 19 34 20 35
REMARK SMILES IDX 21 36 22 37 83 38 23 39 82 40 24 41 25 42 26 43 76 44 27 45
REMARK SMILES IDX 81 46 75 47 77 48 28 49 80 50 74 51 73 52 29 54 61 55 41 56
REMARK SMILES IDX 60 57 42 58 45 59 59 60 78 61 43 62 44 63 58 65 79 66 46 67
REMARK SMILES IDX 30 68 31 69 39 70 32 71 33 72 37 73 40 74 34 75 35 76 38 77
REMARK SMILES IDX 36 78 62 79 63 80 71 81 64 82 65 83 69 84 72 85 66 86 67 87
REMARK SMILES IDX 70 88 68 89 47 90 48 91 56 92 49 93 50 94 54 95 57 96 51 97
REMARK SMILES IDX 52 98 55 99 53 100
REMARK H PARENT 11 9 11 10 87 16 77 53 45 64
REMARK Flexibility Score: inf
ROOT
ATOM      1  C   UNL     1       9.329  -1.215  -0.742  1.00  0.00     0.274 C 
ENDROOT
BRANCH   1   2
ATOM      2  O   UNL     1       8.784   0.115  -0.588  1.00  0.00    -0.458 OA
BRANCH   2   3
ATOM      3  C   UNL     1       7.646   0.144   0.152  1.00  0.00     0.365 C 
ATOM      4  O   UNL     1       7.225  -0.824   0.787  1.00  0.00    -0.245 OA
BRANCH   3   5
ATOM      5  C   UNL     1       6.814   1.423   0.040  1.00  0.00     0.298 C 
ATOM      6  C   UNL     1       6.033   1.655  -2.375  1.00  0.00     0.262 C 
ATOM      7  N   UNL     1       5.790   1.185  -0.982  1.00  0.00    -0.323 N 
ATOM      8  C   UNL     1       6.747   2.969  -2.309  1.00  0.00     0.083 A 
ATOM      9  H   UNL     1       5.644   0.176  -1.029  1.00  0.00     0.347 HD
ATOM     10  H   UNL     1       4.999   1.748  -0.670  1.00  0.00     0.347 HD
ATOM     11  C   UNL     1       7.124   3.612  -1.146  1.00  0.00    -0.006 A 
ATOM     12  N   UNL     1       6.946   3.887  -3.313  1.00  0.00    -0.353 N 
ATOM     13  C   UNL     1       7.456   2.825   0.079  1.00  0.00     0.115 C 
ATOM     14  C   UNL     1       6.604   4.922  -1.371  1.00  0.00     0.003 A 
ATOM     15  C   UNL     1       6.655   5.125  -2.756  1.00  0.00     0.046 A 
ATOM     16  H   UNL     1       7.236   3.705  -4.236  1.00  0.00     0.166 HD
ATOM     17  C   UNL     1       5.980   5.910  -0.581  1.00  0.00     0.010 A 
ATOM     18  C   UNL     1       6.291   6.327  -3.372  1.00  0.00     0.026 A 
ATOM     19  C   UNL     1       5.453   7.050  -1.208  1.00  0.00     0.001 A 
ATOM     20  C   UNL     1       5.652   7.276  -2.571  1.00  0.00     0.002 A 
BRANCH   6  21
ATOM     21  C   UNL     1       4.564   1.734  -2.892  1.00  0.00     0.016 A 
ATOM     22  C   UNL     1       1.815   1.822  -2.182  1.00  0.00     0.037 A 
ATOM     23  C   UNL     1       2.502   2.979  -2.545  1.00  0.00     0.026 A 
ATOM     24  C   UNL     1       2.466   0.604  -2.407  1.00  0.00     0.026 A 
ATOM     25  C   UNL     1       3.853   2.942  -2.903  1.00  0.00     0.012 A 
ATOM     26  C   UNL     1       3.810   0.549  -2.799  1.00  0.00     0.012 A 
BRANCH  22  27
ATOM     27  N   UNL     1       0.584   1.865  -1.541  1.00  0.00    -0.372 N 
BRANCH  27  28
ATOM     28  C   UNL     1       0.535   1.529  -0.108  1.00  0.00     0.113 C 
ATOM     29  C   UNL     1       0.510   0.031   0.155  1.00  0.00     0.027 C 
ENDBRANCH  27  28
BRANCH  27  30
ATOM     30  C   UNL     1      -0.510   2.661  -2.099  1.00  0.00     0.113 C 
ATOM     31  C   UNL     1      -0.574   4.086  -1.560  1.00  0.00     0.027 C 
ENDBRANCH  27  30
ENDBRANCH  22  27
ENDBRANCH   6  21
ENDBRANCH   3   5
ENDBRANCH   2   3
ENDBRANCH   1   2
BRANCH   1  32
ATOM     32  C   UNL     1      10.324  -1.650   0.348  1.00  0.00     0.275 C 
BRANCH  32  33
ATOM     33  O   UNL     1       9.783  -1.600   1.681  1.00  0.00    -0.458 OA
BRANCH  33  34
ATOM     34  C   UNL     1       9.958  -0.423   2.311  1.00  0.00     0.338 C 
ATOM     35  O   UNL     1      10.593   0.552   1.895  1.00  0.00    -0.246 OA
BRANCH  34  36
ATOM     36  C   UNL     1       9.125  -0.335   3.515  1.00  0.00     0.060 A 
ATOM     37  C   UNL     1       8.144   0.661   3.533  1.00  0.00     0.016 A 
ATOM     38  C   UNL     1       9.358  -1.117   4.647  1.00  0.00     0.016 A 
ATOM     39  C   UNL     1       7.389   0.888   4.673  1.00  0.00     0.010 A 
ATOM     40  C   UNL     1       8.616  -0.870   5.811  1.00  0.00     0.010 A 
ATOM     41  C   UNL     1       7.644   0.146   5.832  1.00  0.00    -0.014 A 
BRANCH  41  42
ATOM     42  C   UNL     1       6.965   0.559   7.080  1.00  0.00     0.031 A 
ATOM     43  C   UNL     1       7.690   1.452   8.046  1.00  0.00     0.074 A 
ATOM     44  C   UNL     1       5.678   0.233   7.288  1.00  0.00     0.049 A 
ATOM     45  N   UNL     1       7.278   1.956   9.181  1.00  0.00    -0.248 NA
ATOM     46  C   UNL     1       9.061   1.837   7.677  1.00  0.00     0.031 C 
ATOM     47  C   UNL     1       4.856  -0.567   6.381  1.00  0.00     0.029 A 
ATOM     48  N   UNL     1       4.832   0.550   8.320  1.00  0.00    -0.354 N 
ATOM     49  C   UNL     1       8.341   2.704   9.668  1.00  0.00     0.074 A 
ATOM     50  C   UNL     1       9.422   2.580   8.713  1.00  0.00     0.031 C 
ATOM     51  C   UNL     1       3.620  -0.675   6.896  1.00  0.00     0.029 A 
ATOM     52  C   UNL     1       3.575   0.018   8.181  1.00  0.00     0.049 A 
ATOM     53  H   UNL     1       5.102   1.105   9.088  1.00  0.00     0.167 HD
ATOM     54  C   UNL     1       8.406   3.431  10.809  1.00  0.00     0.037 A 
ATOM     55  C   UNL     1       2.515   0.075   9.009  1.00  0.00     0.037 A 
ATOM     56  C   UNL     1       7.323   3.560  11.748  1.00  0.00     0.049 A 
ATOM     57  C   UNL     1       2.630   0.847  10.296  1.00  0.00     0.074 A 
ATOM     58  C   UNL     1       7.288   4.268  12.937  1.00  0.00     0.029 A 
ATOM     59  N   UNL     1       6.078   2.966  11.599  1.00  0.00    -0.354 N 
ATOM     60  N   UNL     1       3.644   1.537  10.759  1.00  0.00    -0.248 NA
ATOM     61  C   UNL     1       1.452   0.847  11.175  1.00  0.00     0.031 C 
ATOM     62  C   UNL     1       6.034   4.070  13.526  1.00  0.00     0.029 A 
ATOM     63  C   UNL     1       5.273   3.276  12.684  1.00  0.00     0.049 A 
ATOM     64  H   UNL     1       5.806   2.407  10.836  1.00  0.00     0.167 HD
ATOM     65  C   UNL     1       3.226   2.063  11.973  1.00  0.00     0.074 A 
ATOM     66  C   UNL     1       1.856   1.631  12.165  1.00  0.00     0.031 C 
ATOM     67  C   UNL     1       3.913   2.832  12.854  1.00  0.00     0.037 A 
BRANCH  54  68
ATOM     68  C   UNL     1       9.707   4.107  11.121  1.00  0.00     0.064 A 
ATOM     69  C   UNL     1      10.135   5.247  10.425  1.00  0.00     0.173 A 
ATOM     70  C   UNL     1      10.530   3.614  12.145  1.00  0.00     0.173 A 
ATOM     71  F   UNL     1       9.392   5.745   9.425  1.00  0.00    -0.203 F 
ATOM     72  C   UNL     1      11.350   5.856  10.728  1.00  0.00     0.198 A 
ATOM     73  C   UNL     1      11.733   4.239  12.462  1.00  0.00     0.198 A 
ATOM     74  F   UNL     1      10.166   2.527  12.841  1.00  0.00    -0.203 F 
ATOM     75  F   UNL     1      11.761   6.918  10.022  1.00  0.00    -0.200 F 
ATOM     76  C   UNL     1      12.145   5.355  11.749  1.00  0.00     0.200 A 
ATOM     77  F   UNL     1      12.495   3.759  13.454  1.00  0.00    -0.200 F 
ATOM     78  F   UNL     1      13.313   5.944  12.041  1.00  0.00    -0.200 F 
ENDBRANCH  54  68
BRANCH  55  79
ATOM     79  C   UNL     1       1.261  -0.637   8.653  1.00  0.00     0.064 A 
ATOM     80  C   UNL     1       0.095   0.066   8.320  1.00  0.00     0.173 A 
ATOM     81  C   UNL     1       1.204  -2.039   8.643  1.00  0.00     0.173 A 
ATOM     82  F   UNL     1       0.093   1.407   8.341  1.00  0.00    -0.203 F 
ATOM     83  C   UNL     1      -1.083  -0.607   8.002  1.00  0.00     0.198 A 
ATOM     84  C   UNL     1       0.033  -2.710   8.299  1.00  0.00     0.198 A 
ATOM     85  F   UNL     1       2.291  -2.757   8.959  1.00  0.00    -0.203 F 
ATOM     86  F   UNL     1      -2.195   0.089   7.726  1.00  0.00    -0.200 F 
ATOM     87  C   UNL     1      -1.111  -1.993   7.984  1.00  0.00     0.200 A 
ATOM     88  F   UNL     1       0.013  -4.049   8.274  1.00  0.00    -0.200 F 
ATOM     89  F   UNL     1      -2.244  -2.639   7.673  1.00  0.00    -0.200 F 
ENDBRANCH  55  79
BRANCH  67  90
ATOM     90  C   UNL     1       3.186   3.266  14.091  1.00  0.00     0.064 A 
ATOM     91  C   UNL     1       2.910   2.367  15.132  1.00  0.00     0.173 A 
ATOM     92  C   UNL     1       2.782   4.600  14.248  1.00  0.00     0.173 A 
ATOM     93  F   UNL     1       3.263   1.077  15.021  1.00  0.00    -0.203 F 
ATOM     94  C   UNL     1       2.231   2.783  16.274  1.00  0.00     0.198 A 
ATOM     95  C   UNL     1       2.127   5.018  15.403  1.00  0.00     0.198 A 
ATOM     96  F   UNL     1       3.028   5.499  13.284  1.00  0.00    -0.203 F 
ATOM     97  F   UNL     1       1.935   1.897  17.235  1.00  0.00    -0.200 F 
ATOM     98  C   UNL     1       1.845   4.108  16.411  1.00  0.00     0.200 A 
ATOM     99  F   UNL     1       1.763   6.301  15.538  1.00  0.00    -0.200 F 
ATOM    100  F   UNL     1       1.192   4.507  17.511  1.00  0.00    -0.200 F 
ENDBRANCH  67  90
ENDBRANCH  41  42
ENDBRANCH  34  36
ENDBRANCH  33  34
ENDBRANCH  32  33
ENDBRANCH   1  32
TORSDOF 15
