REMARK SMILES Nn1c(Cc2ccc(F)c(F)c2)nnc1SCC(=O)OCCOC(=O)c1ccc(-c2c3nc(c(-c4c(F)c(F)c(F)c(F)c4F)c4ccc([nH]4)c(-c4c(F)c(F)c(F)c(F)c4F)c4nc(c(-c5c(F)c(F)c(F)c(F)c5F)c5ccc2[nH]5)C=C4)C=C3)cc1
REMARK SMILES IDX 21 1 20 2 18 3 19 4 17 5 16 6 15 7 2 8 3 9 13 10 14 11 1 12
REMARK SMILES IDX 4 15 5 16 6 17 12 18 7 19 10 20 8 21 11 22 9 23 22 24 23 25
REMARK SMILES IDX 24 26 25 27 26 28 27 29 88 30 28 31 87 32 29 33 30 34 31 35
REMARK SMILES IDX 81 36 32 37 86 38 80 39 82 40 33 41 85 42 79 43 78 44 34 46
REMARK SMILES IDX 66 47 46 48 65 49 47 50 50 51 64 52 83 53 48 54 49 55 63 57
REMARK SMILES IDX 84 58 51 59 35 60 36 61 44 62 37 63 38 64 42 65 45 66 39 67
REMARK SMILES IDX 40 68 43 69 41 70 67 71 68 72 76 73 69 74 70 75 74 76 77 77
REMARK SMILES IDX 71 78 72 79 75 80 73 81 52 82 53 83 61 84 54 85 55 86 59 87
REMARK SMILES IDX 62 88 56 89 57 90 60 91 58 92
REMARK H PARENT 1 13 1 14 82 45 50 56
REMARK Flexibility Score: inf
ROOT
ATOM      1  C   UNL     1       2.804  -2.361  -3.472  1.00  0.00     0.274 C 
ENDROOT
BRANCH   1   2
ATOM      2  O   UNL     1       1.850  -2.622  -2.424  1.00  0.00    -0.461 OA
BRANCH   2   3
ATOM      3  C   UNL     1       2.367  -2.972  -1.221  1.00  0.00     0.316 C 
ATOM      4  O   UNL     1       3.571  -3.022  -0.977  1.00  0.00    -0.251 OA
BRANCH   3   5
ATOM      5  C   UNL     1       1.354  -3.328  -0.162  1.00  0.00     0.200 C 
BRANCH   5   6
ATOM      6  S   UNL     1      -0.390  -3.217  -0.589  1.00  0.00    -0.073 SA
BRANCH   6   7
ATOM      7  C   UNL     1      -0.702  -1.538  -0.868  1.00  0.00     0.210 A 
ATOM      8  N   UNL     1      -0.298  -0.482  -0.085  1.00  0.00    -0.221 N 
ATOM      9  C   UNL     1      -0.882   0.638  -0.639  1.00  0.00     0.157 A 
ATOM     10  N   UNL     1      -1.633   0.262  -1.657  1.00  0.00    -0.132 NA
ATOM     11  N   UNL     1      -1.518  -1.099  -1.800  1.00  0.00    -0.121 NA
BRANCH   8  12
ATOM     12  N   UNL     1       0.477  -0.526   1.123  1.00  0.00    -0.336 N 
ATOM     13  H   UNL     1       0.702   0.308   1.595  1.00  0.00     0.178 HD
ATOM     14  H   UNL     1       0.783  -1.391   1.480  1.00  0.00     0.178 HD
ENDBRANCH   8  12
BRANCH   9  15
ATOM     15  C   UNL     1      -0.717   2.021  -0.105  1.00  0.00     0.115 C 
BRANCH  15  16
ATOM     16  C   UNL     1      -1.004   3.111  -1.115  1.00  0.00    -0.037 A 
ATOM     17  C   UNL     1      -2.326   3.496  -1.398  1.00  0.00     0.007 A 
ATOM     18  C   UNL     1       0.044   3.720  -1.823  1.00  0.00     0.046 A 
ATOM     19  C   UNL     1      -2.591   4.465  -2.370  1.00  0.00     0.043 A 
ATOM     20  C   UNL     1      -0.229   4.679  -2.793  1.00  0.00     0.159 A 
ATOM     21  C   UNL     1      -1.538   5.049  -3.065  1.00  0.00     0.158 A 
ATOM     22  F   UNL     1       0.788   5.243  -3.461  1.00  0.00    -0.204 F 
ATOM     23  F   UNL     1      -1.798   5.973  -4.001  1.00  0.00    -0.204 F 
ENDBRANCH  15  16
ENDBRANCH   9  15
ENDBRANCH   6   7
ENDBRANCH   5   6
ENDBRANCH   3   5
ENDBRANCH   2   3
ENDBRANCH   1   2
BRANCH   1  24
ATOM     24  C   UNL     1       3.098  -0.870  -3.598  1.00  0.00     0.275 C 
BRANCH  24  25
ATOM     25  O   UNL     1       3.679  -0.368  -2.379  1.00  0.00    -0.458 OA
BRANCH  25  26
ATOM     26  C   UNL     1       3.026   0.673  -1.826  1.00  0.00     0.338 C 
ATOM     27  O   UNL     1       2.027   1.233  -2.242  1.00  0.00    -0.246 OA
BRANCH  26  28
ATOM     28  C   UNL     1       3.652   1.107  -0.569  1.00  0.00     0.060 A 
ATOM     29  C   UNL     1       3.781   0.223   0.503  1.00  0.00     0.016 A 
ATOM     30  C   UNL     1       3.912   2.471  -0.399  1.00  0.00     0.016 A 
ATOM     31  C   UNL     1       4.088   0.722   1.771  1.00  0.00     0.010 A 
ATOM     32  C   UNL     1       4.273   2.958   0.857  1.00  0.00     0.010 A 
ATOM     33  C   UNL     1       4.316   2.095   1.962  1.00  0.00    -0.014 A 
BRANCH  33  34
ATOM     34  C   UNL     1       4.539   2.640   3.325  1.00  0.00     0.031 A 
ATOM     35  C   UNL     1       3.486   3.491   3.985  1.00  0.00     0.074 A 
ATOM     36  C   UNL     1       5.675   2.352   3.986  1.00  0.00     0.049 A 
ATOM     37  N   UNL     1       3.511   4.078   5.155  1.00  0.00    -0.248 NA
ATOM     38  C   UNL     1       2.238   3.708   3.234  1.00  0.00     0.031 C 
ATOM     39  C   UNL     1       6.762   1.520   3.472  1.00  0.00     0.029 A 
ATOM     40  N   UNL     1       6.095   2.720   5.239  1.00  0.00    -0.354 N 
ATOM     41  C   UNL     1       2.300   4.745   5.273  1.00  0.00     0.074 A 
ATOM     42  C   UNL     1       1.560   4.501   4.053  1.00  0.00     0.031 C 
ATOM     43  C   UNL     1       7.709   1.408   4.417  1.00  0.00     0.029 A 
ATOM     44  C   UNL     1       7.314   2.195   5.583  1.00  0.00     0.049 A 
ATOM     45  H   UNL     1       5.571   3.304   5.834  1.00  0.00     0.167 HD
ATOM     46  C   UNL     1       1.842   5.490   6.307  1.00  0.00     0.037 A 
ATOM     47  C   UNL     1       8.040   2.341   6.707  1.00  0.00     0.037 A 
ATOM     48  C   UNL     1       2.556   5.718   7.534  1.00  0.00     0.049 A 
ATOM     49  C   UNL     1       7.539   3.226   7.809  1.00  0.00     0.074 A 
ATOM     50  C   UNL     1       2.145   6.419   8.655  1.00  0.00     0.029 A 
ATOM     51  N   UNL     1       3.832   5.249   7.800  1.00  0.00    -0.354 N 
ATOM     52  N   UNL     1       6.399   3.864   7.900  1.00  0.00    -0.248 NA
ATOM     53  C   UNL     1       8.441   3.435   8.952  1.00  0.00     0.031 C 
ATOM     54  C   UNL     1       3.184   6.394   9.592  1.00  0.00     0.029 A 
ATOM     55  C   UNL     1       4.233   5.665   9.059  1.00  0.00     0.049 A 
ATOM     56  H   UNL     1       4.373   4.702   7.186  1.00  0.00     0.167 HD
ATOM     57  C   UNL     1       6.447   4.556   9.101  1.00  0.00     0.074 A 
ATOM     58  C   UNL     1       7.723   4.250   9.714  1.00  0.00     0.031 C 
ATOM     59  C   UNL     1       5.515   5.376   9.642  1.00  0.00     0.037 A 
BRANCH  46  60
ATOM     60  C   UNL     1       0.494   6.123   6.161  1.00  0.00     0.064 A 
ATOM     61  C   UNL     1       0.379   7.481   5.832  1.00  0.00     0.173 A 
ATOM     62  C   UNL     1      -0.678   5.398   6.410  1.00  0.00     0.173 A 
ATOM     63  F   UNL     1       1.476   8.210   5.582  1.00  0.00    -0.203 F 
ATOM     64  C   UNL     1      -0.869   8.094   5.766  1.00  0.00     0.198 A 
ATOM     65  C   UNL     1      -1.925   6.013   6.334  1.00  0.00     0.198 A 
ATOM     66  F   UNL     1      -0.613   4.093   6.712  1.00  0.00    -0.203 F 
ATOM     67  F   UNL     1      -0.959   9.396   5.460  1.00  0.00    -0.200 F 
ATOM     68  C   UNL     1      -2.019   7.361   6.018  1.00  0.00     0.200 A 
ATOM     69  F   UNL     1      -3.037   5.299   6.561  1.00  0.00    -0.200 F 
ATOM     70  F   UNL     1      -3.220   7.951   5.950  1.00  0.00    -0.200 F 
ENDBRANCH  46  60
BRANCH  47  71
ATOM     71  C   UNL     1       9.331   1.629   6.833  1.00  0.00     0.064 A 
ATOM     72  C   UNL     1      10.479   2.083   6.170  1.00  0.00     0.173 A 
ATOM     73  C   UNL     1       9.425   0.456   7.591  1.00  0.00     0.173 A 
ATOM     74  F   UNL     1      10.430   3.204   5.437  1.00  0.00    -0.203 F 
ATOM     75  C   UNL     1      11.676   1.375   6.248  1.00  0.00     0.198 A 
ATOM     76  C   UNL     1      10.626  -0.245   7.678  1.00  0.00     0.198 A 
ATOM     77  F   UNL     1       8.353  -0.001   8.254  1.00  0.00    -0.203 F 
ATOM     78  F   UNL     1      12.756   1.816   5.590  1.00  0.00    -0.200 F 
ATOM     79  C   UNL     1      11.748   0.212   7.001  1.00  0.00     0.200 A 
ATOM     80  F   UNL     1      10.696  -1.361   8.415  1.00  0.00    -0.200 F 
ATOM     81  F   UNL     1      12.900  -0.468   7.076  1.00  0.00    -0.200 F 
ENDBRANCH  47  71
BRANCH  59  82
ATOM     82  C   UNL     1       5.847   6.021  10.949  1.00  0.00     0.064 A 
ATOM     83  C   UNL     1       5.346   5.507  12.152  1.00  0.00     0.173 A 
ATOM     84  C   UNL     1       6.627   7.185  10.996  1.00  0.00     0.173 A 
ATOM     85  F   UNL     1       4.595   4.396  12.151  1.00  0.00    -0.203 F 
ATOM     86  C   UNL     1       5.610   6.143  13.362  1.00  0.00     0.198 A 
ATOM     87  C   UNL     1       6.897   7.811  12.209  1.00  0.00     0.198 A 
ATOM     88  F   UNL     1       7.136   7.702   9.868  1.00  0.00    -0.203 F 
ATOM     89  F   UNL     1       5.114   5.642  14.502  1.00  0.00    -0.200 F 
ATOM     90  C   UNL     1       6.385   7.293  13.390  1.00  0.00     0.200 A 
ATOM     91  F   UNL     1       7.659   8.914  12.237  1.00  0.00    -0.200 F 
ATOM     92  F   UNL     1       6.644   7.899  14.556  1.00  0.00    -0.200 F 
ENDBRANCH  59  82
ENDBRANCH  33  34
ENDBRANCH  26  28
ENDBRANCH  25  26
ENDBRANCH  24  25
ENDBRANCH   1  24
TORSDOF 16
