REMARK SMILES O=C(/C=C/c1ccc(O)c(O)c1)OCCOC(=O)c1ccc(-c2c3nc(c(-c4c(F)c(F)c(F)c(F)c4F)c4ccc([nH]4)c(-c4c(F)c(F)c(F)c(F)c4F)c4nc(c(-c5c(F)c(F)c(F)c(F)c5F)c5ccc2[nH]5)C=C4)C=C3)cc1
REMARK SMILES IDX 14 1 13 2 2 3 1 4 3 5 4 6 5 7 6 8 12 9 7 10 10 11 8 12 11 13
REMARK SMILES IDX 9 15 15 17 16 18 17 19 18 20 19 21 20 22 81 23 21 24 80 25
REMARK SMILES IDX 22 26 23 27 24 28 74 29 25 30 79 31 73 32 75 33 26 34 78 35
REMARK SMILES IDX 72 36 71 37 27 39 59 40 39 41 58 42 40 43 43 44 57 45 76 46
REMARK SMILES IDX 41 47 42 48 56 50 77 51 44 52 28 53 29 54 37 55 30 56 31 57
REMARK SMILES IDX 35 58 38 59 32 60 33 61 36 62 34 63 60 64 61 65 69 66 62 67
REMARK SMILES IDX 63 68 67 69 70 70 64 71 65 72 68 73 66 74 45 75 46 76 54 77
REMARK SMILES IDX 47 78 48 79 52 80 55 81 49 82 50 83 53 84 51 85
REMARK H PARENT 11 14 9 16 75 38 43 49
REMARK Flexibility Score: inf
ROOT
ATOM      1  C   UNL     1       4.309   1.123  -0.526  1.00  0.00     0.275 C 
ENDROOT
BRANCH   1   2
ATOM      2  O   UNL     1       3.066   0.498  -0.909  1.00  0.00    -0.459 OA
BRANCH   2   3
ATOM      3  C   UNL     1       2.693  -0.795  -0.784  1.00  0.00     0.330 C 
ATOM      4  O   UNL     1       1.655  -1.198  -1.306  1.00  0.00    -0.247 OA
BRANCH   3   5
ATOM      5  C   UNL     1       3.391  -1.709   0.137  1.00  0.00     0.094 C 
ATOM      6  C   UNL     1       4.704  -1.887   0.331  1.00  0.00     0.016 C 
BRANCH   6   7
ATOM      7  C   UNL     1       5.222  -2.681   1.452  1.00  0.00    -0.021 A 
ATOM      8  C   UNL     1       4.785  -3.987   1.722  1.00  0.00     0.012 A 
ATOM      9  C   UNL     1       6.182  -2.091   2.286  1.00  0.00     0.058 A 
ATOM     10  C   UNL     1       5.300  -4.698   2.813  1.00  0.00     0.051 A 
ATOM     11  C   UNL     1       6.680  -2.800   3.369  1.00  0.00     0.157 A 
ATOM     12  C   UNL     1       6.249  -4.096   3.630  1.00  0.00     0.157 A 
BRANCH  11  13
ATOM     13  O   UNL     1       7.599  -2.205   4.186  1.00  0.00    -0.504 OA
ATOM     14  H   UNL     1       7.943  -2.673   4.921  1.00  0.00     0.293 HD
ENDBRANCH  11  13
BRANCH  12  15
ATOM     15  O   UNL     1       6.795  -4.740   4.705  1.00  0.00    -0.504 OA
ATOM     16  H   UNL     1       6.529  -5.615   4.911  1.00  0.00     0.293 HD
ENDBRANCH  12  15
ENDBRANCH   6   7
ENDBRANCH   3   5
ENDBRANCH   2   3
ENDBRANCH   1   2
BRANCH   1  17
ATOM     17  C   UNL     1       4.376   1.640   0.915  1.00  0.00     0.275 C 
BRANCH  17  18
ATOM     18  O   UNL     1       3.980   0.664   1.890  1.00  0.00    -0.458 OA
BRANCH  18  19
ATOM     19  C   UNL     1       2.676   0.732   2.256  1.00  0.00     0.338 C 
ATOM     20  O   UNL     1       1.865   1.569   1.894  1.00  0.00    -0.246 OA
BRANCH  19  21
ATOM     21  C   UNL     1       2.297  -0.442   3.074  1.00  0.00     0.060 A 
ATOM     22  C   UNL     1       1.024  -0.986   2.865  1.00  0.00     0.016 A 
ATOM     23  C   UNL     1       3.138  -0.989   4.048  1.00  0.00     0.016 A 
ATOM     24  C   UNL     1       0.564  -2.028   3.670  1.00  0.00     0.010 A 
ATOM     25  C   UNL     1       2.679  -2.045   4.849  1.00  0.00     0.010 A 
ATOM     26  C   UNL     1       1.370  -2.538   4.698  1.00  0.00    -0.014 A 
BRANCH  26  27
ATOM     27  C   UNL     1       0.765  -3.453   5.704  1.00  0.00     0.031 A 
ATOM     28  C   UNL     1       0.367  -2.901   7.049  1.00  0.00     0.074 A 
ATOM     29  C   UNL     1       0.498  -4.739   5.411  1.00  0.00     0.049 A 
ATOM     30  N   UNL     1      -0.261  -3.488   8.038  1.00  0.00    -0.248 NA
ATOM     31  C   UNL     1       0.728  -1.501   7.316  1.00  0.00     0.031 C 
ATOM     32  C   UNL     1       0.808  -5.400   4.146  1.00  0.00     0.029 A 
ATOM     33  N   UNL     1      -0.113  -5.715   6.161  1.00  0.00    -0.354 N 
ATOM     34  C   UNL     1      -0.374  -2.529   9.037  1.00  0.00     0.074 A 
ATOM     35  C   UNL     1       0.296  -1.340   8.557  1.00  0.00     0.031 C 
ATOM     36  C   UNL     1       0.371  -6.671   4.201  1.00  0.00     0.029 A 
ATOM     37  C   UNL     1      -0.233  -6.919   5.510  1.00  0.00     0.049 A 
ATOM     38  H   UNL     1      -0.435  -5.566   7.080  1.00  0.00     0.167 HD
ATOM     39  C   UNL     1      -0.996  -2.618  10.238  1.00  0.00     0.037 A 
ATOM     40  C   UNL     1      -0.774  -8.083   5.921  1.00  0.00     0.037 A 
ATOM     41  C   UNL     1      -1.668  -3.795  10.725  1.00  0.00     0.049 A 
ATOM     42  C   UNL     1      -1.413  -8.173   7.286  1.00  0.00     0.074 A 
ATOM     43  C   UNL     1      -2.349  -3.968  11.917  1.00  0.00     0.029 A 
ATOM     44  N   UNL     1      -1.734  -5.003  10.049  1.00  0.00    -0.354 N 
ATOM     45  N   UNL     1      -1.566  -7.243   8.197  1.00  0.00    -0.248 NA
ATOM     46  C   UNL     1      -1.970  -9.479   7.670  1.00  0.00     0.031 C 
ATOM     47  C   UNL     1      -2.775  -5.298  11.991  1.00  0.00     0.029 A 
ATOM     48  C   UNL     1      -2.421  -5.935  10.813  1.00  0.00     0.049 A 
ATOM     49  H   UNL     1      -1.351  -5.175   9.158  1.00  0.00     0.167 HD
ATOM     50  C   UNL     1      -2.277  -7.836   9.235  1.00  0.00     0.074 A 
ATOM     51  C   UNL     1      -2.530  -9.204   8.839  1.00  0.00     0.031 C 
ATOM     52  C   UNL     1      -2.688  -7.292  10.408  1.00  0.00     0.037 A 
BRANCH  39  53
ATOM     53  C   UNL     1      -0.959  -1.407  11.126  1.00  0.00     0.064 A 
ATOM     54  C   UNL     1      -1.675  -0.240  10.816  1.00  0.00     0.173 A 
ATOM     55  C   UNL     1      -0.222  -1.426  12.320  1.00  0.00     0.173 A 
ATOM     56  F   UNL     1      -2.386  -0.166   9.681  1.00  0.00    -0.203 F 
ATOM     57  C   UNL     1      -1.626   0.873  11.651  1.00  0.00     0.198 A 
ATOM     58  C   UNL     1      -0.203  -0.323  13.169  1.00  0.00     0.198 A 
ATOM     59  F   UNL     1       0.475  -2.518  12.668  1.00  0.00    -0.203 F 
ATOM     60  F   UNL     1      -2.273   1.996  11.307  1.00  0.00    -0.200 F 
ATOM     61  C   UNL     1      -0.896   0.829  12.830  1.00  0.00     0.200 A 
ATOM     62  F   UNL     1       0.490  -0.374  14.315  1.00  0.00    -0.200 F 
ATOM     63  F   UNL     1      -0.856   1.899  13.636  1.00  0.00    -0.200 F 
ENDBRANCH  39  53
BRANCH  40  64
ATOM     64  C   UNL     1      -0.760  -9.271   5.025  1.00  0.00     0.064 A 
ATOM     65  C   UNL     1      -1.950  -9.803   4.506  1.00  0.00     0.173 A 
ATOM     66  C   UNL     1       0.438  -9.929   4.710  1.00  0.00     0.173 A 
ATOM     67  F   UNL     1      -3.124  -9.227   4.801  1.00  0.00    -0.203 F 
ATOM     68  C   UNL     1      -1.944 -10.962   3.732  1.00  0.00     0.198 A 
ATOM     69  C   UNL     1       0.446 -11.070   3.911  1.00  0.00     0.198 A 
ATOM     70  F   UNL     1       1.605  -9.463   5.182  1.00  0.00    -0.203 F 
ATOM     71  F   UNL     1      -3.101 -11.483   3.302  1.00  0.00    -0.200 F 
ATOM     72  C   UNL     1      -0.746 -11.592   3.432  1.00  0.00     0.200 A 
ATOM     73  F   UNL     1       1.607 -11.669   3.614  1.00  0.00    -0.200 F 
ATOM     74  F   UNL     1      -0.741 -12.710   2.693  1.00  0.00    -0.200 F 
ENDBRANCH  40  64
BRANCH  52  75
ATOM     75  C   UNL     1      -3.514  -8.152  11.326  1.00  0.00     0.064 A 
ATOM     76  C   UNL     1      -2.976  -9.259  11.998  1.00  0.00     0.173 A 
ATOM     77  C   UNL     1      -4.865  -7.843  11.557  1.00  0.00     0.173 A 
ATOM     78  F   UNL     1      -1.694  -9.607  11.808  1.00  0.00    -0.203 F 
ATOM     79  C   UNL     1      -3.766 -10.046  12.834  1.00  0.00     0.198 A 
ATOM     80  C   UNL     1      -5.642  -8.610  12.421  1.00  0.00     0.198 A 
ATOM     81  F   UNL     1      -5.431  -6.789  10.950  1.00  0.00    -0.203 F 
ATOM     82  F   UNL     1      -3.244 -11.135  13.416  1.00  0.00    -0.200 F 
ATOM     83  C   UNL     1      -5.096  -9.717  13.050  1.00  0.00     0.200 A 
ATOM     84  F   UNL     1      -6.922  -8.278  12.642  1.00  0.00    -0.200 F 
ATOM     85  F   UNL     1      -5.853 -10.473  13.856  1.00  0.00    -0.200 F 
ENDBRANCH  52  75
ENDBRANCH  26  27
ENDBRANCH  19  21
ENDBRANCH  18  19
ENDBRANCH  17  18
ENDBRANCH   1  17
TORSDOF 14
