REMARK SMILES CCOc1ccccc1Nc1ccc(C(=O)OCCOC(=O)c2ccc(-c3c4nc(c(-c5c(F)c(F)c(F)c(F)c5F)c5ccc([nH]5)c(-c5c(F)c(F)c(F)c(F)c5F)c5nc(c(-c6c(F)c(F)c(F)c(F)c6F)c6ccc3[nH]6)C=C5)C=C4)cc2)cc1N
REMARK SMILES IDX 18 1 17 2 15 3 16 4 14 5 11 6 12 7 87 8 13 9 86 10 10 11
REMARK SMILES IDX 9 13 4 14 5 15 6 16 8 17 7 18 3 19 2 20 1 21 88 22 19 25
REMARK SMILES IDX 20 26 21 27 22 28 23 29 24 30 85 31 25 32 84 33 26 34 27 35
REMARK SMILES IDX 28 36 78 37 29 38 83 39 77 40 79 41 30 42 82 43 76 44 75 45
REMARK SMILES IDX 31 47 63 48 43 49 62 50 44 51 47 52 61 53 80 54 45 55 46 56
REMARK SMILES IDX 60 58 81 59 48 60 32 61 33 62 41 63 34 64 35 65 39 66 42 67
REMARK SMILES IDX 36 68 37 69 40 70 38 71 64 72 65 73 73 74 66 75 67 76 71 77
REMARK SMILES IDX 74 78 68 79 69 80 72 81 70 82 49 83 50 84 58 85 51 86 52 87
REMARK SMILES IDX 56 88 59 89 53 90 54 91 57 92 55 93
REMARK H PARENT 10 12 88 23 88 24 79 46 47 57
REMARK Flexibility Score: inf
ROOT
ATOM      1  C   UNL     1       7.775   4.080   4.074  1.00  0.00     0.275 C 
ENDROOT
BRANCH   1   2
ATOM      2  O   UNL     1       6.960   3.297   3.178  1.00  0.00    -0.458 OA
BRANCH   2   3
ATOM      3  C   UNL     1       6.476   2.148   3.708  1.00  0.00     0.338 C 
ATOM      4  O   UNL     1       6.672   1.726   4.839  1.00  0.00    -0.246 OA
BRANCH   3   5
ATOM      5  C   UNL     1       5.574   1.460   2.761  1.00  0.00     0.062 A 
ATOM      6  C   UNL     1       3.914  -0.054   1.079  1.00  0.00     0.062 A 
ATOM      7  C   UNL     1       3.667   0.011   2.456  1.00  0.00     0.029 A 
ATOM      8  C   UNL     1       4.979   0.703   0.532  1.00  0.00     0.056 A 
ATOM      9  C   UNL     1       4.500   0.742   3.292  1.00  0.00     0.018 A 
ATOM     10  C   UNL     1       5.807   1.449   1.384  1.00  0.00     0.043 A 
BRANCH   6  11
ATOM     11  N   UNL     1       3.105  -0.934   0.341  1.00  0.00    -0.351 N 
ATOM     12  H   UNL     1       2.143  -0.825   0.519  1.00  0.00     0.167 HD
BRANCH  11  13
ATOM     13  C   UNL     1       3.389  -1.939  -0.600  1.00  0.00     0.081 A 
ATOM     14  C   UNL     1       2.326  -2.474  -1.351  1.00  0.00     0.142 A 
ATOM     15  C   UNL     1       2.535  -3.469  -2.304  1.00  0.00     0.048 A 
ATOM     16  C   UNL     1       3.830  -3.927  -2.541  1.00  0.00     0.004 A 
ATOM     17  C   UNL     1       4.679  -2.412  -0.853  1.00  0.00     0.030 A 
ATOM     18  C   UNL     1       4.900  -3.401  -1.816  1.00  0.00     0.002 A 
BRANCH  14  19
ATOM     19  O   UNL     1       1.038  -2.088  -1.063  1.00  0.00    -0.492 OA
BRANCH  19  20
ATOM     20  C   UNL     1       0.638  -0.944  -1.829  1.00  0.00     0.226 C 
ATOM     21  C   UNL     1       0.223   0.173  -0.883  1.00  0.00     0.049 C 
ENDBRANCH  19  20
ENDBRANCH  14  19
ENDBRANCH  11  13
ENDBRANCH   6  11
BRANCH   8  22
ATOM     22  N   UNL     1       5.263   0.683  -0.830  1.00  0.00    -0.397 N 
ATOM     23  H   UNL     1       4.694   0.165  -1.444  1.00  0.00     0.156 HD
ATOM     24  H   UNL     1       6.034   1.187  -1.179  1.00  0.00     0.156 HD
ENDBRANCH   8  22
ENDBRANCH   3   5
ENDBRANCH   2   3
ENDBRANCH   1   2
BRANCH   1  25
ATOM     25  C   UNL     1       6.943   5.150   4.780  1.00  0.00     0.275 C 
BRANCH  25  26
ATOM     26  O   UNL     1       5.916   4.533   5.578  1.00  0.00    -0.458 OA
BRANCH  26  27
ATOM     27  C   UNL     1       4.702   5.125   5.536  1.00  0.00     0.338 C 
ATOM     28  O   UNL     1       4.406   6.155   4.947  1.00  0.00    -0.246 OA
BRANCH  27  29
ATOM     29  C   UNL     1       3.717   4.354   6.323  1.00  0.00     0.060 A 
ATOM     30  C   UNL     1       3.635   2.968   6.205  1.00  0.00     0.016 A 
ATOM     31  C   UNL     1       2.774   5.034   7.093  1.00  0.00     0.016 A 
ATOM     32  C   UNL     1       2.556   2.273   6.759  1.00  0.00     0.010 A 
ATOM     33  C   UNL     1       1.751   4.323   7.734  1.00  0.00     0.010 A 
ATOM     34  C   UNL     1       1.595   2.939   7.535  1.00  0.00    -0.014 A 
BRANCH  34  35
ATOM     35  C   UNL     1       0.392   2.228   8.074  1.00  0.00     0.031 A 
ATOM     36  C   UNL     1      -0.992   2.746   7.758  1.00  0.00     0.074 A 
ATOM     37  C   UNL     1       0.503   1.116   8.829  1.00  0.00     0.049 A 
ATOM     38  N   UNL     1      -2.142   2.446   8.313  1.00  0.00    -0.248 NA
ATOM     39  C   UNL     1      -1.094   3.748   6.685  1.00  0.00     0.031 C 
ATOM     40  C   UNL     1       1.753   0.444   9.181  1.00  0.00     0.029 A 
ATOM     41  N   UNL     1      -0.465   0.345   9.431  1.00  0.00    -0.354 N 
ATOM     42  C   UNL     1      -3.082   3.278   7.717  1.00  0.00     0.074 A 
ATOM     43  C   UNL     1      -2.375   4.085   6.746  1.00  0.00     0.031 C 
ATOM     44  C   UNL     1       1.475  -0.665   9.884  1.00  0.00     0.029 A 
ATOM     45  C   UNL     1       0.036  -0.734  10.120  1.00  0.00     0.049 A 
ATOM     46  H   UNL     1      -1.427   0.546   9.374  1.00  0.00     0.167 HD
ATOM     47  C   UNL     1      -4.412   3.367   7.962  1.00  0.00     0.037 A 
ATOM     48  C   UNL     1      -0.580  -1.652  10.890  1.00  0.00     0.037 A 
ATOM     49  C   UNL     1      -5.137   2.509   8.862  1.00  0.00     0.049 A 
ATOM     50  C   UNL     1      -2.058  -1.542  11.140  1.00  0.00     0.074 A 
ATOM     51  C   UNL     1      -6.482   2.538   9.192  1.00  0.00     0.029 A 
ATOM     52  N   UNL     1      -4.582   1.439   9.546  1.00  0.00    -0.354 N 
ATOM     53  N   UNL     1      -2.915  -0.669  10.672  1.00  0.00    -0.248 NA
ATOM     54  C   UNL     1      -2.650  -2.531  12.055  1.00  0.00     0.031 C 
ATOM     55  C   UNL     1      -6.740   1.488  10.082  1.00  0.00     0.029 A 
ATOM     56  C   UNL     1      -5.561   0.792  10.284  1.00  0.00     0.049 A 
ATOM     57  H   UNL     1      -3.634   1.177   9.513  1.00  0.00     0.167 HD
ATOM     58  C   UNL     1      -4.141  -1.001  11.232  1.00  0.00     0.074 A 
ATOM     59  C   UNL     1      -3.926  -2.172  12.054  1.00  0.00     0.031 C 
ATOM     60  C   UNL     1      -5.336  -0.379  11.088  1.00  0.00     0.037 A 
BRANCH  47  61
ATOM     61  C   UNL     1      -5.177   4.453   7.265  1.00  0.00     0.064 A 
ATOM     62  C   UNL     1      -5.522   4.366   5.910  1.00  0.00     0.173 A 
ATOM     63  C   UNL     1      -5.614   5.576   7.985  1.00  0.00     0.173 A 
ATOM     64  F   UNL     1      -5.115   3.319   5.176  1.00  0.00    -0.203 F 
ATOM     65  C   UNL     1      -6.262   5.373   5.295  1.00  0.00     0.198 A 
ATOM     66  C   UNL     1      -6.375   6.569   7.374  1.00  0.00     0.198 A 
ATOM     67  F   UNL     1      -5.316   5.703   9.287  1.00  0.00    -0.203 F 
ATOM     68  F   UNL     1      -6.552   5.287   3.990  1.00  0.00    -0.200 F 
ATOM     69  C   UNL     1      -6.694   6.469   6.029  1.00  0.00     0.200 A 
ATOM     70  F   UNL     1      -6.801   7.620   8.087  1.00  0.00    -0.200 F 
ATOM     71  F   UNL     1      -7.415   7.431   5.437  1.00  0.00    -0.200 F 
ENDBRANCH  47  61
BRANCH  48  72
ATOM     72  C   UNL     1       0.210  -2.742  11.519  1.00  0.00     0.064 A 
ATOM     73  C   UNL     1       0.060  -4.070  11.098  1.00  0.00     0.173 A 
ATOM     74  C   UNL     1       1.121  -2.483  12.553  1.00  0.00     0.173 A 
ATOM     75  F   UNL     1      -0.824  -4.372  10.136  1.00  0.00    -0.203 F 
ATOM     76  C   UNL     1       0.789  -5.099  11.690  1.00  0.00     0.198 A 
ATOM     77  C   UNL     1       1.871  -3.508  13.125  1.00  0.00     0.198 A 
ATOM     78  F   UNL     1       1.294  -1.229  12.997  1.00  0.00    -0.203 F 
ATOM     79  F   UNL     1       0.599  -6.366  11.296  1.00  0.00    -0.200 F 
ATOM     80  C   UNL     1       1.700  -4.816  12.697  1.00  0.00     0.200 A 
ATOM     81  F   UNL     1       2.757  -3.228  14.090  1.00  0.00    -0.200 F 
ATOM     82  F   UNL     1       2.407  -5.804  13.261  1.00  0.00    -0.200 F 
ENDBRANCH  48  72
BRANCH  60  83
ATOM     83  C   UNL     1      -6.506  -0.972  11.812  1.00  0.00     0.064 A 
ATOM     84  C   UNL     1      -6.676  -0.796  13.192  1.00  0.00     0.173 A 
ATOM     85  C   UNL     1      -7.478  -1.703  11.114  1.00  0.00     0.173 A 
ATOM     86  F   UNL     1      -5.763  -0.117  13.903  1.00  0.00    -0.203 F 
ATOM     87  C   UNL     1      -7.768  -1.350  13.853  1.00  0.00     0.198 A 
ATOM     88  C   UNL     1      -8.579  -2.240  11.775  1.00  0.00     0.198 A 
ATOM     89  F   UNL     1      -7.359  -1.896   9.792  1.00  0.00    -0.203 F 
ATOM     90  F   UNL     1      -7.892  -1.202  15.180  1.00  0.00    -0.200 F 
ATOM     91  C   UNL     1      -8.720  -2.068  13.144  1.00  0.00     0.200 A 
ATOM     92  F   UNL     1      -9.500  -2.930  11.089  1.00  0.00    -0.200 F 
ATOM     93  F   UNL     1      -9.770  -2.602  13.783  1.00  0.00    -0.200 F 
ENDBRANCH  60  83
ENDBRANCH  34  35
ENDBRANCH  27  29
ENDBRANCH  26  27
ENDBRANCH  25  26
ENDBRANCH   1  25
TORSDOF 16
