REMARK SMILES CC(C)CCOc1ccc(/C=C2\SC(=S)N(CC(=O)OCCOC(=O)c3ccc(-c4c5nc(c(-c6c(F)c(F)c(F)c(F)c6F)c6ccc([nH]6)c(-c6c(F)c(F)c(F)c(F)c6F)c6nc(c(-c7c(F)c(F)c(F)c(F)c7F)c7ccc4[nH]7)C=C6)C=C5)cc3)C2=O)cc1
REMARK SMILES IDX 18 1 19 2 17 3 16 4 11 5 12 6 13 7 89 8 14 9 90 10 15 11
REMARK SMILES IDX 10 12 7 13 8 14 92 15 9 16 91 17 6 18 5 19 4 20 2 21 1 22
REMARK SMILES IDX 3 23 20 24 21 25 22 26 23 27 24 28 25 29 26 30 27 31 88 32
REMARK SMILES IDX 28 33 87 34 29 35 30 36 31 37 81 38 32 39 86 40 80 41 82 42
REMARK SMILES IDX 33 43 85 44 79 45 78 46 34 48 66 49 46 50 65 51 47 52 50 53
REMARK SMILES IDX 64 54 83 55 48 56 49 57 63 59 84 60 51 61 35 62 36 63 44 64
REMARK SMILES IDX 37 65 38 66 42 67 45 68 39 69 40 70 43 71 41 72 67 73 68 74
REMARK SMILES IDX 76 75 69 76 70 77 74 78 77 79 71 80 72 81 75 82 73 83 52 84
REMARK SMILES IDX 53 85 61 86 54 87 55 88 59 89 62 90 56 91 57 92 60 93 58 94
REMARK H PARENT 82 47 50 58
REMARK Flexibility Score: inf
ROOT
ATOM      1  C   UNL     1       8.849  -5.271  -4.929  1.00  0.00     0.326 C 
ATOM      2  O   UNL     1      10.055  -5.464  -5.024  1.00  0.00    -0.250 OA
ENDROOT
BRANCH   1   3
ATOM      3  C   UNL     1       8.113  -5.343  -3.595  1.00  0.00     0.250 C 
BRANCH   3   4
ATOM      4  N   UNL     1       6.706  -4.979  -3.717  1.00  0.00    -0.282 N 
ATOM      5  C   UNL     1       4.260  -2.323  -3.556  1.00  0.00     0.029 C 
ATOM      6  C   UNL     1       4.886  -3.491  -3.764  1.00  0.00     0.081 C 
ATOM      7  S   UNL     1       4.185  -5.009  -4.176  1.00  0.00    -0.054 SA
ATOM      8  C   UNL     1       6.351  -3.649  -3.574  1.00  0.00     0.266 C 
ATOM      9  C   UNL     1       5.701  -5.869  -4.019  1.00  0.00     0.148 C 
ATOM     10  O   UNL     1       7.110  -2.741  -3.266  1.00  0.00    -0.268 OA
ATOM     11  S   UNL     1       5.815  -7.520  -4.218  1.00  0.00    -0.052 S 
BRANCH   5  12
ATOM     12  C   UNL     1       2.803  -2.133  -3.480  1.00  0.00    -0.024 A 
ATOM     13  C   UNL     1       0.088  -1.643  -3.059  1.00  0.00     0.119 A 
ATOM     14  C   UNL     1       0.817  -0.801  -3.897  1.00  0.00     0.047 A 
ATOM     15  C   UNL     1       0.672  -2.775  -2.508  1.00  0.00     0.047 A 
ATOM     16  C   UNL     1       2.180  -1.047  -4.107  1.00  0.00     0.012 A 
ATOM     17  C   UNL     1       2.035  -2.984  -2.672  1.00  0.00     0.012 A 
BRANCH  13  18
ATOM     18  O   UNL     1      -1.212  -1.373  -2.740  1.00  0.00    -0.494 OA
BRANCH  18  19
ATOM     19  C   UNL     1      -1.305  -0.440  -1.645  1.00  0.00     0.230 C 
BRANCH  19  20
ATOM     20  C   UNL     1      -1.040  -1.083  -0.270  1.00  0.00     0.044 C 
BRANCH  20  21
ATOM     21  C   UNL     1       0.405  -0.910   0.254  1.00  0.00    -0.014 C 
ATOM     22  C   UNL     1       0.686   0.522   0.709  1.00  0.00     0.007 C 
ATOM     23  C   UNL     1       0.676  -1.885   1.403  1.00  0.00     0.007 C 
ENDBRANCH  20  21
ENDBRANCH  19  20
ENDBRANCH  18  19
ENDBRANCH  13  18
ENDBRANCH   5  12
ENDBRANCH   3   4
ENDBRANCH   1   3
BRANCH   1  24
ATOM     24  O   UNL     1       8.018  -4.980  -5.969  1.00  0.00    -0.461 OA
BRANCH  24  25
ATOM     25  C   UNL     1       8.631  -4.842  -7.264  1.00  0.00     0.274 C 
BRANCH  25  26
ATOM     26  C   UNL     1       8.752  -3.366  -7.633  1.00  0.00     0.275 C 
BRANCH  26  27
ATOM     27  O   UNL     1       9.545  -2.688  -6.642  1.00  0.00    -0.458 OA
BRANCH  27  28
ATOM     28  C   UNL     1       8.905  -1.727  -5.936  1.00  0.00     0.338 C 
ATOM     29  O   UNL     1       7.764  -1.327  -6.082  1.00  0.00    -0.246 OA
BRANCH  28  30
ATOM     30  C   UNL     1       9.841  -1.183  -4.940  1.00  0.00     0.060 A 
ATOM     31  C   UNL     1      10.188  -1.940  -3.820  1.00  0.00     0.016 A 
ATOM     32  C   UNL     1      10.316   0.119  -5.089  1.00  0.00     0.016 A 
ATOM     33  C   UNL     1      10.977  -1.382  -2.816  1.00  0.00     0.010 A 
ATOM     34  C   UNL     1      11.155   0.657  -4.111  1.00  0.00     0.010 A 
ATOM     35  C   UNL     1      11.475  -0.080  -2.955  1.00  0.00    -0.014 A 
BRANCH  35  36
ATOM     36  C   UNL     1      12.297   0.537  -1.884  1.00  0.00     0.031 A 
ATOM     37  C   UNL     1      11.767   1.720  -1.124  1.00  0.00     0.074 A 
ATOM     38  C   UNL     1      13.521   0.053  -1.604  1.00  0.00     0.049 A 
ATOM     39  N   UNL     1      12.386   2.518  -0.292  1.00  0.00    -0.248 NA
ATOM     40  C   UNL     1      10.349   2.053  -1.337  1.00  0.00     0.031 C 
ATOM     41  C   UNL     1      14.133  -1.117  -2.235  1.00  0.00     0.029 A 
ATOM     42  N   UNL     1      14.479   0.498  -0.726  1.00  0.00    -0.354 N 
ATOM     43  C   UNL     1      11.447   3.466   0.092  1.00  0.00     0.074 A 
ATOM     44  C   UNL     1      10.218   3.152  -0.607  1.00  0.00     0.031 C 
ATOM     45  C   UNL     1      15.364  -1.294  -1.729  1.00  0.00     0.029 A 
ATOM     46  C   UNL     1      15.650  -0.215  -0.788  1.00  0.00     0.049 A 
ATOM     47  H   UNL     1      14.338   1.255  -0.112  1.00  0.00     0.167 HD
ATOM     48  C   UNL     1      11.598   4.500   0.953  1.00  0.00     0.037 A 
ATOM     49  C   UNL     1      16.837   0.003  -0.190  1.00  0.00     0.037 A 
ATOM     50  C   UNL     1      12.815   4.793   1.665  1.00  0.00     0.049 A 
ATOM     51  C   UNL     1      16.996   1.189   0.721  1.00  0.00     0.074 A 
ATOM     52  C   UNL     1      13.069   5.821   2.557  1.00  0.00     0.029 A 
ATOM     53  N   UNL     1      13.981   4.049   1.571  1.00  0.00    -0.354 N 
ATOM     54  N   UNL     1      16.115   2.101   1.053  1.00  0.00    -0.248 NA
ATOM     55  C   UNL     1      18.318   1.382   1.333  1.00  0.00     0.031 C 
ATOM     56  C   UNL     1      14.399   5.716   2.978  1.00  0.00     0.029 A 
ATOM     57  C   UNL     1      14.961   4.600   2.381  1.00  0.00     0.049 A 
ATOM     58  H   UNL     1      14.096   3.247   1.010  1.00  0.00     0.167 HD
ATOM     59  C   UNL     1      16.767   2.963   1.924  1.00  0.00     0.074 A 
ATOM     60  C   UNL     1      18.114   2.457   2.082  1.00  0.00     0.031 C 
ATOM     61  C   UNL     1      16.293   4.076   2.535  1.00  0.00     0.037 A 
BRANCH  48  62
ATOM     62  C   UNL     1      10.423   5.410   1.158  1.00  0.00     0.064 A 
ATOM     63  C   UNL     1       9.300   5.008   1.897  1.00  0.00     0.173 A 
ATOM     64  C   UNL     1      10.438   6.715   0.643  1.00  0.00     0.173 A 
ATOM     65  F   UNL     1       9.232   3.766   2.399  1.00  0.00    -0.203 F 
ATOM     66  C   UNL     1       8.227   5.873   2.095  1.00  0.00     0.198 A 
ATOM     67  C   UNL     1       9.375   7.586   0.865  1.00  0.00     0.198 A 
ATOM     68  F   UNL     1      11.491   7.150  -0.066  1.00  0.00    -0.203 F 
ATOM     69  F   UNL     1       7.147   5.455   2.770  1.00  0.00    -0.200 F 
ATOM     70  C   UNL     1       8.268   7.163   1.585  1.00  0.00     0.200 A 
ATOM     71  F   UNL     1       9.421   8.835   0.382  1.00  0.00    -0.200 F 
ATOM     72  F   UNL     1       7.238   7.996   1.784  1.00  0.00    -0.200 F 
ENDBRANCH  48  62
BRANCH  49  73
ATOM     73  C   UNL     1      17.982  -0.902  -0.469  1.00  0.00     0.064 A 
ATOM     74  C   UNL     1      18.483  -1.759   0.520  1.00  0.00     0.173 A 
ATOM     75  C   UNL     1      18.600  -0.924  -1.728  1.00  0.00     0.173 A 
ATOM     76  F   UNL     1      17.942  -1.754   1.747  1.00  0.00    -0.203 F 
ATOM     77  C   UNL     1      19.569  -2.593   0.264  1.00  0.00     0.198 A 
ATOM     78  C   UNL     1      19.667  -1.780  -1.991  1.00  0.00     0.198 A 
ATOM     79  F   UNL     1      18.159  -0.122  -2.708  1.00  0.00    -0.203 F 
ATOM     80  F   UNL     1      20.058  -3.371   1.240  1.00  0.00    -0.200 F 
ATOM     81  C   UNL     1      20.156  -2.608  -0.993  1.00  0.00     0.200 A 
ATOM     82  F   UNL     1      20.222  -1.799  -3.211  1.00  0.00    -0.200 F 
ATOM     83  F   UNL     1      21.197  -3.414  -1.239  1.00  0.00    -0.200 F 
ENDBRANCH  49  73
BRANCH  61  84
ATOM     84  C   UNL     1      17.226   4.800   3.459  1.00  0.00     0.064 A 
ATOM     85  C   UNL     1      18.283   5.581   2.971  1.00  0.00     0.173 A 
ATOM     86  C   UNL     1      17.033   4.743   4.848  1.00  0.00     0.173 A 
ATOM     87  F   UNL     1      18.517   5.652   1.652  1.00  0.00    -0.203 F 
ATOM     88  C   UNL     1      19.128   6.263   3.843  1.00  0.00     0.198 A 
ATOM     89  C   UNL     1      17.864   5.447   5.714  1.00  0.00     0.198 A 
ATOM     90  F   UNL     1      16.032   4.013   5.362  1.00  0.00    -0.203 F 
ATOM     91  F   UNL     1      20.157   6.971   3.358  1.00  0.00    -0.200 F 
ATOM     92  C   UNL     1      18.914   6.201   5.212  1.00  0.00     0.200 A 
ATOM     93  F   UNL     1      17.651   5.394   7.036  1.00  0.00    -0.200 F 
ATOM     94  F   UNL     1      19.724   6.864   6.048  1.00  0.00    -0.200 F 
ENDBRANCH  61  84
ENDBRANCH  35  36
ENDBRANCH  28  30
ENDBRANCH  27  28
ENDBRANCH  26  27
ENDBRANCH  25  26
ENDBRANCH  24  25
ENDBRANCH   1  24
TORSDOF 17
