REMARK SMILES COc1ccc(F)c(Nc2ccc(C(=O)OCCOC(=O)c3ccc(-c4c5nc(c(-c6c(F)c(F)c(F)c(F)c6F)c6ccc([nH]6)c(-c6c(F)c(F)c(F)c(F)c6F)c6nc(c(-c7c(F)c(F)c(F)c(F)c7F)c7ccc4[nH]7)C=C6)C=C5)cc3)cc2)c1
REMARK SMILES IDX 17 1 16 2 14 3 15 4 13 5 10 6 11 7 86 8 12 9 85 10 9 11 8 13
REMARK SMILES IDX 3 14 4 15 87 16 5 17 6 18 7 19 2 20 1 21 18 22 19 23 20 24
REMARK SMILES IDX 21 25 22 26 23 27 84 28 24 29 83 30 25 31 26 32 27 33 77 34
REMARK SMILES IDX 28 35 82 36 76 37 78 38 29 39 81 40 75 41 74 42 30 44 62 45
REMARK SMILES IDX 42 46 61 47 43 48 46 49 60 50 79 51 44 52 45 53 59 55 80 56
REMARK SMILES IDX 47 57 31 58 32 59 40 60 33 61 34 62 38 63 41 64 35 65 36 66
REMARK SMILES IDX 39 67 37 68 63 69 64 70 72 71 65 72 66 73 70 74 73 75 67 76
REMARK SMILES IDX 68 77 71 78 69 79 48 80 49 81 57 82 50 83 51 84 55 85 58 86
REMARK SMILES IDX 52 87 53 88 56 89 54 90
REMARK H PARENT 9 12 78 43 46 54
REMARK Flexibility Score: inf
ROOT
ATOM      1  C   UNL     1      -7.987  -1.704  -3.070  1.00  0.00     0.275 C 
ENDROOT
BRANCH   1   2
ATOM      2  O   UNL     1      -6.681  -1.329  -3.553  1.00  0.00    -0.458 OA
BRANCH   2   3
ATOM      3  C   UNL     1      -5.730  -2.293  -3.461  1.00  0.00     0.338 C 
ATOM      4  O   UNL     1      -5.865  -3.407  -2.993  1.00  0.00    -0.246 OA
BRANCH   3   5
ATOM      5  C   UNL     1      -4.469  -1.847  -4.097  1.00  0.00     0.060 A 
ATOM      6  C   UNL     1      -1.921  -1.209  -5.076  1.00  0.00     0.039 A 
ATOM      7  C   UNL     1      -2.494  -2.440  -5.383  1.00  0.00     0.027 A 
ATOM      8  C   UNL     1      -2.659  -0.278  -4.326  1.00  0.00     0.027 A 
ATOM      9  C   UNL     1      -3.740  -2.768  -4.860  1.00  0.00     0.018 A 
ATOM     10  C   UNL     1      -3.940  -0.582  -3.853  1.00  0.00     0.018 A 
BRANCH   6  11
ATOM     11  N   UNL     1      -0.555  -1.018  -5.331  1.00  0.00    -0.353 N 
ATOM     12  H   UNL     1      -0.286  -0.921  -6.273  1.00  0.00     0.167 HD
BRANCH  11  13
ATOM     13  C   UNL     1       0.473  -0.953  -4.362  1.00  0.00     0.078 A 
ATOM     14  C   UNL     1       1.239  -0.908  -2.052  1.00  0.00     0.121 A 
ATOM     15  C   UNL     1       2.549  -0.683  -2.470  1.00  0.00     0.049 A 
ATOM     16  C   UNL     1       0.216  -1.060  -2.988  1.00  0.00     0.075 A 
ATOM     17  C   UNL     1       2.827  -0.588  -3.834  1.00  0.00     0.045 A 
ATOM     18  C   UNL     1       1.794  -0.716  -4.761  1.00  0.00     0.146 A 
ATOM     19  F   UNL     1       2.084  -0.632  -6.069  1.00  0.00    -0.205 F 
BRANCH  14  20
ATOM     20  O   UNL     1       0.897  -1.068  -0.737  1.00  0.00    -0.497 OA
ATOM     21  C   UNL     1       1.226   0.077   0.046  1.00  0.00     0.278 C 
ENDBRANCH  14  20
ENDBRANCH  11  13
ENDBRANCH   6  11
ENDBRANCH   3   5
ENDBRANCH   2   3
ENDBRANCH   1   2
BRANCH   1  22
ATOM     22  C   UNL     1      -8.922  -2.047  -4.230  1.00  0.00     0.275 C 
BRANCH  22  23
ATOM     23  O   UNL     1      -8.471  -3.239  -4.900  1.00  0.00    -0.458 OA
BRANCH  23  24
ATOM     24  C   UNL     1      -8.007  -3.068  -6.158  1.00  0.00     0.338 C 
ATOM     25  O   UNL     1      -7.980  -2.037  -6.812  1.00  0.00    -0.246 OA
BRANCH  24  26
ATOM     26  C   UNL     1      -7.455  -4.334  -6.663  1.00  0.00     0.060 A 
ATOM     27  C   UNL     1      -6.332  -4.863  -6.041  1.00  0.00     0.016 A 
ATOM     28  C   UNL     1      -7.942  -4.923  -7.827  1.00  0.00     0.016 A 
ATOM     29  C   UNL     1      -5.614  -5.892  -6.636  1.00  0.00     0.010 A 
ATOM     30  C   UNL     1      -7.308  -6.065  -8.339  1.00  0.00     0.010 A 
ATOM     31  C   UNL     1      -6.121  -6.553  -7.762  1.00  0.00    -0.014 A 
BRANCH  31  32
ATOM     32  C   UNL     1      -5.436  -7.772  -8.286  1.00  0.00     0.031 A 
ATOM     33  C   UNL     1      -5.023  -7.871  -9.731  1.00  0.00     0.074 A 
ATOM     34  C   UNL     1      -5.182  -8.806  -7.453  1.00  0.00     0.049 A 
ATOM     35  N   UNL     1      -4.603  -8.916 -10.400  1.00  0.00    -0.248 NA
ATOM     36  C   UNL     1      -5.098  -6.641 -10.535  1.00  0.00     0.031 C 
ATOM     37  C   UNL     1      -5.482  -8.832  -6.019  1.00  0.00     0.029 A 
ATOM     38  N   UNL     1      -4.608 -10.034  -7.684  1.00  0.00    -0.354 N 
ATOM     39  C   UNL     1      -4.410  -8.483 -11.706  1.00  0.00     0.074 A 
ATOM     40  C   UNL     1      -4.761  -7.080 -11.741  1.00  0.00     0.031 C 
ATOM     41  C   UNL     1      -5.042  -9.981  -5.491  1.00  0.00     0.029 A 
ATOM     42  C   UNL     1      -4.549 -10.831  -6.565  1.00  0.00     0.049 A 
ATOM     43  H   UNL     1      -4.271 -10.315  -8.565  1.00  0.00     0.167 HD
ATOM     44  C   UNL     1      -3.981  -9.199 -12.773  1.00  0.00     0.037 A 
ATOM     45  C   UNL     1      -4.204 -12.125  -6.415  1.00  0.00     0.037 A 
ATOM     46  C   UNL     1      -3.586 -10.584 -12.714  1.00  0.00     0.049 A 
ATOM     47  C   UNL     1      -3.809 -12.915  -7.626  1.00  0.00     0.074 A 
ATOM     48  C   UNL     1      -3.114 -11.387 -13.739  1.00  0.00     0.029 A 
ATOM     49  N   UNL     1      -3.608 -11.367 -11.570  1.00  0.00    -0.354 N 
ATOM     50  N   UNL     1      -3.681 -12.510  -8.866  1.00  0.00    -0.248 NA
ATOM     51  C   UNL     1      -3.542 -14.346  -7.430  1.00  0.00     0.031 C 
ATOM     52  C   UNL     1      -2.899 -12.668 -13.226  1.00  0.00     0.029 A 
ATOM     53  C   UNL     1      -3.186 -12.653 -11.871  1.00  0.00     0.049 A 
ATOM     54  H   UNL     1      -3.881 -11.057 -10.677  1.00  0.00     0.167 HD
ATOM     55  C   UNL     1      -3.318 -13.631  -9.596  1.00  0.00     0.074 A 
ATOM     56  C   UNL     1      -3.222 -14.730  -8.658  1.00  0.00     0.031 C 
ATOM     57  C   UNL     1      -3.096 -13.737 -10.928  1.00  0.00     0.037 A 
BRANCH  44  58
ATOM     58  C   UNL     1      -3.925  -8.523 -14.113  1.00  0.00     0.064 A 
ATOM     59  C   UNL     1      -4.818  -8.903 -15.129  1.00  0.00     0.173 A 
ATOM     60  C   UNL     1      -2.928  -7.591 -14.432  1.00  0.00     0.173 A 
ATOM     61  F   UNL     1      -5.784  -9.800 -14.880  1.00  0.00    -0.203 F 
ATOM     62  C   UNL     1      -4.699  -8.391 -16.419  1.00  0.00     0.198 A 
ATOM     63  C   UNL     1      -2.829  -7.061 -15.717  1.00  0.00     0.198 A 
ATOM     64  F   UNL     1      -2.055  -7.190 -13.496  1.00  0.00    -0.203 F 
ATOM     65  F   UNL     1      -5.535  -8.803 -17.382  1.00  0.00    -0.200 F 
ATOM     66  C   UNL     1      -3.705  -7.470 -16.711  1.00  0.00     0.200 A 
ATOM     67  F   UNL     1      -1.878  -6.158 -15.995  1.00  0.00    -0.200 F 
ATOM     68  F   UNL     1      -3.589  -6.980 -17.953  1.00  0.00    -0.200 F 
ENDBRANCH  44  58
BRANCH  45  69
ATOM     69  C   UNL     1      -4.285 -12.754  -5.069  1.00  0.00     0.064 A 
ATOM     70  C   UNL     1      -5.516 -12.920  -4.413  1.00  0.00     0.173 A 
ATOM     71  C   UNL     1      -3.128 -13.159  -4.391  1.00  0.00     0.173 A 
ATOM     72  F   UNL     1      -6.655 -12.551  -5.018  1.00  0.00    -0.203 F 
ATOM     73  C   UNL     1      -5.582 -13.426  -3.118  1.00  0.00     0.198 A 
ATOM     74  C   UNL     1      -3.198 -13.699  -3.108  1.00  0.00     0.198 A 
ATOM     75  F   UNL     1      -1.931 -13.047  -4.985  1.00  0.00    -0.203 F 
ATOM     76  F   UNL     1      -6.765 -13.520  -2.496  1.00  0.00    -0.200 F 
ATOM     77  C   UNL     1      -4.423 -13.819  -2.467  1.00  0.00     0.200 A 
ATOM     78  F   UNL     1      -2.079 -14.105  -2.493  1.00  0.00    -0.200 F 
ATOM     79  F   UNL     1      -4.486 -14.316  -1.224  1.00  0.00    -0.200 F 
ENDBRANCH  45  69
BRANCH  57  80
ATOM     80  C   UNL     1      -2.719 -15.086 -11.462  1.00  0.00     0.064 A 
ATOM     81  C   UNL     1      -1.417 -15.331 -11.922  1.00  0.00     0.173 A 
ATOM     82  C   UNL     1      -3.672 -16.104 -11.602  1.00  0.00     0.173 A 
ATOM     83  F   UNL     1      -0.472 -14.384 -11.814  1.00  0.00    -0.203 F 
ATOM     84  C   UNL     1      -1.089 -16.540 -12.527  1.00  0.00     0.198 A 
ATOM     85  C   UNL     1      -3.334 -17.322 -12.184  1.00  0.00     0.198 A 
ATOM     86  F   UNL     1      -4.926 -15.921 -11.161  1.00  0.00    -0.203 F 
ATOM     87  F   UNL     1       0.150 -16.737 -12.998  1.00  0.00    -0.200 F 
ATOM     88  C   UNL     1      -2.047 -17.534 -12.657  1.00  0.00     0.200 A 
ATOM     89  F   UNL     1      -4.254 -18.291 -12.288  1.00  0.00    -0.200 F 
ATOM     90  F   UNL     1      -1.730 -18.699 -13.239  1.00  0.00    -0.200 F 
ENDBRANCH  57  80
ENDBRANCH  31  32
ENDBRANCH  24  26
ENDBRANCH  23  24
ENDBRANCH  22  23
ENDBRANCH   1  22
TORSDOF 14
