REMARK SMILES O=C(OCCOC(=O)[C@H](CCSc1ccccc1)Cc1ccccc1Br)c1ccc(-c2c3nc(c(-c4c(F)c(F)c(F)c(F)c4F)c4ccc([nH]4)c(-c4c(F)c(F)c(F)c(F)c4F)c4nc(c(-c5c(F)c(F)c(F)c(F)c5F)c5ccc2[nH]5)C=C4)C=C3)cc1
REMARK SMILES IDX 5 1 4 2 3 3 2 4 1 5 27 6 28 7 89 8 29 9 88 10 30 11 31 12
REMARK SMILES IDX 32 13 82 14 33 15 87 16 81 17 83 18 34 19 86 20 80 21 79 22
REMARK SMILES IDX 35 24 67 25 47 26 66 27 48 28 51 29 65 30 84 31 49 32 50 33
REMARK SMILES IDX 64 35 85 36 52 37 36 38 37 39 45 40 38 41 39 42 43 43 46 44
REMARK SMILES IDX 40 45 41 46 44 47 42 48 68 49 69 50 77 51 70 52 71 53 75 54
REMARK SMILES IDX 78 55 72 56 73 57 76 58 74 59 53 60 54 61 62 62 55 63 56 64
REMARK SMILES IDX 60 65 63 66 57 67 58 68 61 69 59 70 6 71 7 72 8 73 9 74
REMARK SMILES IDX 19 75 20 76 21 77 25 78 22 79 24 80 26 81 23 82 10 83 11 84
REMARK SMILES IDX 12 85 13 86 14 87 18 88 15 89 17 90 16 91
REMARK H PARENT 83 23 51 34
REMARK Flexibility Score: inf
ROOT
ATOM      1  C   UNL     1       3.901  -4.683   1.288  1.00  0.00     0.274 C 
ENDROOT
BRANCH   1   2
ATOM      2  C   UNL     1       3.746  -4.832  -0.230  1.00  0.00     0.275 C 
BRANCH   2   3
ATOM      3  O   UNL     1       3.684  -3.605  -0.967  1.00  0.00    -0.458 OA
BRANCH   3   4
ATOM      4  C   UNL     1       2.650  -2.750  -1.113  1.00  0.00     0.338 C 
ATOM      5  O   UNL     1       2.809  -1.748  -1.809  1.00  0.00    -0.246 OA
BRANCH   4   6
ATOM      6  C   UNL     1       1.353  -2.880  -0.373  1.00  0.00     0.060 A 
ATOM      7  C   UNL     1       0.751  -4.049   0.102  1.00  0.00     0.016 A 
ATOM      8  C   UNL     1       0.673  -1.680  -0.153  1.00  0.00     0.016 A 
ATOM      9  C   UNL     1      -0.442  -4.017   0.850  1.00  0.00     0.010 A 
ATOM     10  C   UNL     1      -0.493  -1.645   0.615  1.00  0.00     0.010 A 
ATOM     11  C   UNL     1      -1.070  -2.812   1.148  1.00  0.00    -0.014 A 
BRANCH  11  12
ATOM     12  C   UNL     1      -2.345  -2.714   1.929  1.00  0.00     0.031 A 
ATOM     13  C   UNL     1      -3.476  -1.903   1.341  1.00  0.00     0.074 A 
ATOM     14  C   UNL     1      -2.474  -3.205   3.187  1.00  0.00     0.049 A 
ATOM     15  N   UNL     1      -4.564  -1.456   1.914  1.00  0.00    -0.248 NA
ATOM     16  C   UNL     1      -3.362  -1.538  -0.086  1.00  0.00     0.031 C 
ATOM     17  C   UNL     1      -1.502  -4.031   3.915  1.00  0.00     0.029 A 
ATOM     18  N   UNL     1      -3.426  -2.923   4.150  1.00  0.00    -0.354 N 
ATOM     19  C   UNL     1      -5.287  -0.852   0.896  1.00  0.00     0.074 A 
ATOM     20  C   UNL     1      -4.424  -0.769  -0.258  1.00  0.00     0.031 C 
ATOM     21  C   UNL     1      -1.788  -3.998   5.232  1.00  0.00     0.029 A 
ATOM     22  C   UNL     1      -2.988  -3.198   5.433  1.00  0.00     0.049 A 
ATOM     23  H   UNL     1      -4.319  -2.565   3.944  1.00  0.00     0.167 HD
ATOM     24  C   UNL     1      -6.608  -0.559   0.867  1.00  0.00     0.037 A 
ATOM     25  C   UNL     1      -3.470  -2.784   6.623  1.00  0.00     0.037 A 
ATOM     26  C   UNL     1      -7.470  -0.669   2.006  1.00  0.00     0.049 A 
ATOM     27  C   UNL     1      -4.827  -2.152   6.657  1.00  0.00     0.074 A 
ATOM     28  C   UNL     1      -8.845  -0.549   2.078  1.00  0.00     0.029 A 
ATOM     29  N   UNL     1      -7.018  -0.912   3.293  1.00  0.00    -0.354 N 
ATOM     30  N   UNL     1      -5.575  -1.743   5.665  1.00  0.00    -0.248 NA
ATOM     31  C   UNL     1      -5.457  -2.046   7.980  1.00  0.00     0.031 C 
ATOM     32  C   UNL     1      -9.222  -0.685   3.420  1.00  0.00     0.029 A 
ATOM     33  C   UNL     1      -8.085  -0.927   4.173  1.00  0.00     0.049 A 
ATOM     34  H   UNL     1      -6.077  -1.052   3.545  1.00  0.00     0.167 HD
ATOM     35  C   UNL     1      -6.808  -1.454   6.226  1.00  0.00     0.074 A 
ATOM     36  C   UNL     1      -6.679  -1.651   7.655  1.00  0.00     0.031 C 
ATOM     37  C   UNL     1      -7.962  -1.138   5.591  1.00  0.00     0.037 A 
BRANCH  24  38
ATOM     38  C   UNL     1      -7.197  -0.256  -0.479  1.00  0.00     0.064 A 
ATOM     39  C   UNL     1      -7.238  -1.252  -1.473  1.00  0.00     0.173 A 
ATOM     40  C   UNL     1      -7.725   1.002  -0.790  1.00  0.00     0.173 A 
ATOM     41  F   UNL     1      -6.739  -2.474  -1.228  1.00  0.00    -0.203 F 
ATOM     42  C   UNL     1      -7.740  -0.984  -2.741  1.00  0.00     0.198 A 
ATOM     43  C   UNL     1      -8.258   1.256  -2.053  1.00  0.00     0.198 A 
ATOM     44  F   UNL     1      -7.717   1.984   0.122  1.00  0.00    -0.203 F 
ATOM     45  F   UNL     1      -7.704  -1.933  -3.688  1.00  0.00    -0.200 F 
ATOM     46  C   UNL     1      -8.254   0.269  -3.029  1.00  0.00     0.200 A 
ATOM     47  F   UNL     1      -8.766   2.465  -2.332  1.00  0.00    -0.200 F 
ATOM     48  F   UNL     1      -8.739   0.527  -4.251  1.00  0.00    -0.200 F 
ENDBRANCH  24  38
BRANCH  25  49
ATOM     49  C   UNL     1      -2.729  -2.950   7.903  1.00  0.00     0.064 A 
ATOM     50  C   UNL     1      -2.838  -4.102   8.688  1.00  0.00     0.173 A 
ATOM     51  C   UNL     1      -2.007  -1.872   8.437  1.00  0.00     0.173 A 
ATOM     52  F   UNL     1      -3.602  -5.121   8.272  1.00  0.00    -0.203 F 
ATOM     53  C   UNL     1      -2.230  -4.176   9.943  1.00  0.00     0.198 A 
ATOM     54  C   UNL     1      -1.353  -1.964   9.664  1.00  0.00     0.198 A 
ATOM     55  F   UNL     1      -1.989  -0.699   7.790  1.00  0.00    -0.203 F 
ATOM     56  F   UNL     1      -2.410  -5.261  10.707  1.00  0.00    -0.200 F 
ATOM     57  C   UNL     1      -1.472  -3.116  10.422  1.00  0.00     0.200 A 
ATOM     58  F   UNL     1      -0.640  -0.926  10.124  1.00  0.00    -0.200 F 
ATOM     59  F   UNL     1      -0.893  -3.189  11.628  1.00  0.00    -0.200 F 
ENDBRANCH  25  49
BRANCH  37  60
ATOM     60  C   UNL     1      -9.207  -1.132   6.420  1.00  0.00     0.064 A 
ATOM     61  C   UNL     1      -9.473  -0.140   7.371  1.00  0.00     0.173 A 
ATOM     62  C   UNL     1     -10.147  -2.164   6.260  1.00  0.00     0.173 A 
ATOM     63  F   UNL     1      -8.587   0.845   7.584  1.00  0.00    -0.203 F 
ATOM     64  C   UNL     1     -10.621  -0.195   8.154  1.00  0.00     0.198 A 
ATOM     65  C   UNL     1     -11.312  -2.194   7.016  1.00  0.00     0.198 A 
ATOM     66  F   UNL     1      -9.932  -3.143   5.368  1.00  0.00    -0.203 F 
ATOM     67  F   UNL     1     -10.823   0.725   9.107  1.00  0.00    -0.200 F 
ATOM     68  C   UNL     1     -11.543  -1.216   7.970  1.00  0.00     0.200 A 
ATOM     69  F   UNL     1     -12.204  -3.176   6.828  1.00  0.00    -0.200 F 
ATOM     70  F   UNL     1     -12.650  -1.265   8.724  1.00  0.00    -0.200 F 
ENDBRANCH  37  60
ENDBRANCH  11  12
ENDBRANCH   4   6
ENDBRANCH   3   4
ENDBRANCH   2   3
ENDBRANCH   1   2
BRANCH   1  71
ATOM     71  O   UNL     1       3.249  -3.533   1.866  1.00  0.00    -0.462 OA
BRANCH  71  72
ATOM     72  C   UNL     1       4.050  -2.432   2.002  1.00  0.00     0.309 C 
ATOM     73  O   UNL     1       5.201  -2.376   1.605  1.00  0.00    -0.252 OA
BRANCH  72  74
ATOM     74  C   UNL     1       3.363  -1.281   2.769  1.00  0.00     0.104 C 
BRANCH  74  75
ATOM     75  C   UNL     1       4.094  -1.323   4.150  1.00  0.00     0.052 C 
BRANCH  75  76
ATOM     76  C   UNL     1       3.993  -0.225   5.188  1.00  0.00    -0.033 A 
ATOM     77  C   UNL     1       4.315   1.095   4.835  1.00  0.00     0.005 A 
ATOM     78  C   UNL     1       3.721  -0.460   6.551  1.00  0.00     0.021 A 
ATOM     79  C   UNL     1       4.210   2.157   5.738  1.00  0.00     0.000 A 
ATOM     80  C   UNL     1       3.650   0.602   7.471  1.00  0.00     0.016 A 
ATOM     81  Br  UNL     1       3.440  -2.199   7.277  1.00  0.00    -0.051 Br
ATOM     82  C   UNL     1       3.859   1.913   7.056  1.00  0.00     0.001 A 
ENDBRANCH  75  76
ENDBRANCH  74  75
BRANCH  74  83
ATOM     83  C   UNL     1       3.492  -0.020   1.872  1.00  0.00     0.027 C 
BRANCH  83  84
ATOM     84  C   UNL     1       2.321   0.979   1.688  1.00  0.00     0.076 C 
BRANCH  84  85
ATOM     85  S   UNL     1       1.745   2.177   2.969  1.00  0.00    -0.126 SA
BRANCH  85  86
ATOM     86  C   UNL     1       0.833   1.146   4.095  1.00  0.00     0.007 A 
ATOM     87  C   UNL     1       0.215   0.001   3.640  1.00  0.00     0.015 A 
ATOM     88  C   UNL     1       0.844   1.384   5.469  1.00  0.00     0.015 A 
ATOM     89  C   UNL     1      -0.062  -1.028   4.514  1.00  0.00     0.001 A 
ATOM     90  C   UNL     1       0.477   0.373   6.362  1.00  0.00     0.001 A 
ATOM     91  C   UNL     1       0.112  -0.870   5.872  1.00  0.00     0.000 A 
ENDBRANCH  85  86
ENDBRANCH  84  85
ENDBRANCH  83  84
ENDBRANCH  74  83
ENDBRANCH  72  74
ENDBRANCH  71  72
ENDBRANCH   1  71
TORSDOF 17
