REMARK SMILES NC(=O)CC[C@H](NC(=O)CC1CC1)C(=O)OCCOC(=O)c1ccc(-c2c3nc(c(-c4c(F)c(F)c(F)c(F)c4F)c4ccc([nH]4)c(-c4c(F)c(F)c(F)c(F)c4F)c4nc(c(-c5c(F)c(F)c(F)c(F)c5F)c5ccc2[nH]5)C=C4)C=C3)cc1
REMARK SMILES IDX 17 1 16 2 14 3 15 4 6 5 5 6 4 7 2 8 1 9 3 12 7 13 8 14 9 16
REMARK SMILES IDX 10 17 11 18 12 19 13 20 18 21 19 22 20 23 21 24 22 25 23 26
REMARK SMILES IDX 84 27 24 28 83 29 25 30 26 31 27 32 77 33 28 34 82 35 76 36
REMARK SMILES IDX 78 37 29 38 81 39 75 40 74 41 30 43 62 44 42 45 61 46 43 47
REMARK SMILES IDX 46 48 60 49 79 50 44 51 45 52 59 54 80 55 47 56 31 57 32 58
REMARK SMILES IDX 40 59 33 60 34 61 38 62 41 63 35 64 36 65 39 66 37 67 63 68
REMARK SMILES IDX 64 69 72 70 65 71 66 72 70 73 73 74 67 75 68 76 71 77 69 78
REMARK SMILES IDX 48 79 49 80 57 81 50 82 51 83 55 84 58 85 52 86 53 87 56 88
REMARK SMILES IDX 54 89
REMARK H PARENT 1 10 1 11 7 15 78 42 46 53
REMARK Flexibility Score: inf
ROOT
ATOM      1  C   UNL     1       4.620   5.226   0.545  1.00  0.00     0.274 C 
ENDROOT
BRANCH   1   2
ATOM      2  O   UNL     1       3.804   4.276  -0.173  1.00  0.00    -0.461 OA
BRANCH   2   3
ATOM      3  C   UNL     1       3.910   2.978   0.218  1.00  0.00     0.328 C 
ATOM      4  O   UNL     1       4.647   2.576   1.115  1.00  0.00    -0.250 OA
BRANCH   3   5
ATOM      5  C   UNL     1       3.157   2.006  -0.700  1.00  0.00     0.192 C 
BRANCH   5   6
ATOM      6  C   UNL     1       4.176   1.226  -1.557  1.00  0.00     0.047 C 
BRANCH   6   7
ATOM      7  C   UNL     1       5.114   2.109  -2.390  1.00  0.00     0.102 C 
BRANCH   7   8
ATOM      8  C   UNL     1       6.566   2.168  -1.946  1.00  0.00     0.217 C 
ATOM      9  N   UNL     1       6.844   2.150  -0.617  1.00  0.00    -0.370 N 
ATOM     10  H   UNL     1       7.779   2.188  -0.310  1.00  0.00     0.159 HD
ATOM     11  H   UNL     1       6.112   2.101   0.039  1.00  0.00     0.159 HD
ATOM     12  O   UNL     1       7.482   2.306  -2.752  1.00  0.00    -0.275 OA
ENDBRANCH   7   8
ENDBRANCH   6   7
ENDBRANCH   5   6
BRANCH   5  13
ATOM     13  N   UNL     1       2.132   2.624  -1.540  1.00  0.00    -0.343 N 
ATOM     14  C   UNL     1       0.823   2.279  -1.715  1.00  0.00     0.220 C 
ATOM     15  H   UNL     1       2.431   3.406  -2.058  1.00  0.00     0.164 HD
ATOM     16  O   UNL     1       0.153   2.926  -2.521  1.00  0.00    -0.275 OA
BRANCH  14  17
ATOM     17  C   UNL     1       0.195   1.161  -0.896  1.00  0.00     0.103 C 
BRANCH  17  18
ATOM     18  C   UNL     1       0.738  -0.219  -1.151  1.00  0.00    -0.002 C 
ATOM     19  C   UNL     1       0.736  -1.233  -0.029  1.00  0.00     0.004 C 
ATOM     20  C   UNL     1      -0.188  -1.411  -1.195  1.00  0.00     0.004 C 
ENDBRANCH  17  18
ENDBRANCH  14  17
ENDBRANCH   5  13
ENDBRANCH   3   5
ENDBRANCH   2   3
ENDBRANCH   1   2
BRANCH   1  21
ATOM     21  C   UNL     1       3.819   6.010   1.587  1.00  0.00     0.275 C 
BRANCH  21  22
ATOM     22  O   UNL     1       3.275   5.149   2.605  1.00  0.00    -0.458 OA
BRANCH  22  23
ATOM     23  C   UNL     1       2.053   4.656   2.304  1.00  0.00     0.338 C 
ATOM     24  O   UNL     1       1.389   4.886   1.306  1.00  0.00    -0.246 OA
BRANCH  23  25
ATOM     25  C   UNL     1       1.642   3.637   3.277  1.00  0.00     0.060 A 
ATOM     26  C   UNL     1       1.333   2.375   2.768  1.00  0.00     0.016 A 
ATOM     27  C   UNL     1       1.386   3.947   4.611  1.00  0.00     0.016 A 
ATOM     28  C   UNL     1       0.690   1.435   3.559  1.00  0.00     0.010 A 
ATOM     29  C   UNL     1       0.747   2.998   5.416  1.00  0.00     0.010 A 
ATOM     30  C   UNL     1       0.353   1.758   4.876  1.00  0.00    -0.014 A 
BRANCH  30  31
ATOM     31  C   UNL     1      -0.563   0.859   5.614  1.00  0.00     0.031 A 
ATOM     32  C   UNL     1      -2.011   1.242   5.741  1.00  0.00     0.074 A 
ATOM     33  C   UNL     1      -0.127  -0.321   6.086  1.00  0.00     0.049 A 
ATOM     34  N   UNL     1      -2.974   0.645   6.395  1.00  0.00    -0.248 NA
ATOM     35  C   UNL     1      -2.431   2.461   5.031  1.00  0.00     0.031 C 
ATOM     36  C   UNL     1       1.234  -0.836   5.945  1.00  0.00     0.029 A 
ATOM     37  N   UNL     1      -0.791  -1.305   6.772  1.00  0.00    -0.354 N 
ATOM     38  C   UNL     1      -4.103   1.430   6.201  1.00  0.00     0.074 A 
ATOM     39  C   UNL     1      -3.708   2.548   5.373  1.00  0.00     0.031 C 
ATOM     40  C   UNL     1       1.304  -2.045   6.526  1.00  0.00     0.029 A 
ATOM     41  C   UNL     1       0.007  -2.366   7.116  1.00  0.00     0.049 A 
ATOM     42  H   UNL     1      -1.749  -1.255   6.995  1.00  0.00     0.167 HD
ATOM     43  C   UNL     1      -5.356   1.233   6.674  1.00  0.00     0.037 A 
ATOM     44  C   UNL     1      -0.276  -3.460   7.848  1.00  0.00     0.037 A 
ATOM     45  C   UNL     1      -5.749   0.105   7.475  1.00  0.00     0.049 A 
ATOM     46  C   UNL     1      -1.666  -3.636   8.397  1.00  0.00     0.074 A 
ATOM     47  C   UNL     1      -6.985  -0.176   8.029  1.00  0.00     0.029 A 
ATOM     48  N   UNL     1      -4.905  -0.939   7.825  1.00  0.00    -0.354 N 
ATOM     49  N   UNL     1      -2.715  -2.862   8.256  1.00  0.00    -0.248 NA
ATOM     50  C   UNL     1      -1.910  -4.836   9.210  1.00  0.00     0.031 C 
ATOM     51  C   UNL     1      -6.883  -1.380   8.736  1.00  0.00     0.029 A 
ATOM     52  C   UNL     1      -5.593  -1.866   8.590  1.00  0.00     0.049 A 
ATOM     53  H   UNL     1      -3.958  -1.011   7.567  1.00  0.00     0.167 HD
ATOM     54  C   UNL     1      -3.747  -3.488   8.942  1.00  0.00     0.074 A 
ATOM     55  C   UNL     1      -3.201  -4.714   9.489  1.00  0.00     0.031 C 
ATOM     56  C   UNL     1      -5.030  -3.085   9.109  1.00  0.00     0.037 A 
BRANCH  43  57
ATOM     57  C   UNL     1      -6.381   2.283   6.366  1.00  0.00     0.064 A 
ATOM     58  C   UNL     1      -6.947   2.412   5.090  1.00  0.00     0.173 A 
ATOM     59  C   UNL     1      -6.811   3.164   7.370  1.00  0.00     0.173 A 
ATOM     60  F   UNL     1      -6.552   1.607   4.092  1.00  0.00    -0.203 F 
ATOM     61  C   UNL     1      -7.892   3.400   4.824  1.00  0.00     0.198 A 
ATOM     62  C   UNL     1      -7.773   4.135   7.106  1.00  0.00     0.198 A 
ATOM     63  F   UNL     1      -6.299   3.081   8.607  1.00  0.00    -0.203 F 
ATOM     64  F   UNL     1      -8.389   3.534   3.587  1.00  0.00    -0.200 F 
ATOM     65  C   UNL     1      -8.308   4.257   5.833  1.00  0.00     0.200 A 
ATOM     66  F   UNL     1      -8.178   4.957   8.084  1.00  0.00    -0.200 F 
ATOM     67  F   UNL     1      -9.218   5.206   5.576  1.00  0.00    -0.200 F 
ENDBRANCH  43  57
BRANCH  44  68
ATOM     68  C   UNL     1       0.785  -4.462   8.120  1.00  0.00     0.064 A 
ATOM     69  C   UNL     1       0.742  -5.736   7.538  1.00  0.00     0.173 A 
ATOM     70  C   UNL     1       1.862  -4.166   8.968  1.00  0.00     0.173 A 
ATOM     71  F   UNL     1      -0.280  -6.074   6.739  1.00  0.00    -0.203 F 
ATOM     72  C   UNL     1       1.732  -6.681   7.805  1.00  0.00     0.198 A 
ATOM     73  C   UNL     1       2.864  -5.102   9.213  1.00  0.00     0.198 A 
ATOM     74  F   UNL     1       1.947  -2.960   9.549  1.00  0.00    -0.203 F 
ATOM     75  F   UNL     1       1.648  -7.905   7.267  1.00  0.00    -0.200 F 
ATOM     76  C   UNL     1       2.795  -6.361   8.637  1.00  0.00     0.200 A 
ATOM     77  F   UNL     1       3.894  -4.784  10.008  1.00  0.00    -0.200 F 
ATOM     78  F   UNL     1       3.748  -7.267   8.888  1.00  0.00    -0.200 F 
ENDBRANCH  44  68
BRANCH  56  79
ATOM     79  C   UNL     1      -5.937  -3.996   9.879  1.00  0.00     0.064 A 
ATOM     80  C   UNL     1      -5.858  -4.101  11.275  1.00  0.00     0.173 A 
ATOM     81  C   UNL     1      -6.920  -4.743   9.214  1.00  0.00     0.173 A 
ATOM     82  F   UNL     1      -4.924  -3.416  11.951  1.00  0.00    -0.203 F 
ATOM     83  C   UNL     1      -6.719  -4.941  11.976  1.00  0.00     0.198 A 
ATOM     84  C   UNL     1      -7.793  -5.564   9.921  1.00  0.00     0.198 A 
ATOM     85  F   UNL     1      -7.037  -4.671   7.880  1.00  0.00    -0.203 F 
ATOM     86  F   UNL     1      -6.601  -5.058  13.306  1.00  0.00    -0.200 F 
ATOM     87  C   UNL     1      -7.688  -5.667  11.300  1.00  0.00     0.200 A 
ATOM     88  F   UNL     1      -8.735  -6.259   9.267  1.00  0.00    -0.200 F 
ATOM     89  F   UNL     1      -8.517  -6.474  11.977  1.00  0.00    -0.200 F 
ENDBRANCH  56  79
ENDBRANCH  30  31
ENDBRANCH  23  25
ENDBRANCH  22  23
ENDBRANCH  21  22
ENDBRANCH   1  21
TORSDOF 17
