REMARK SMILES Cc1nsc(N(C)C(=O)[C@@H](C)CCC[C@H](C)[NH3+])c1C(=O)OCCOC(=O)c1ccc(-c2c3nc(c(-c4c(F)c(F)c(F)c(F)c4F)c4ccc([nH]4)c(-c4c(F)c(F)c(F)c(F)c4F)c4nc(c(-c5c(F)c(F)c(F)c(F)c5F)c5ccc2[nH]5)C=C4)C=C3)cc1
REMARK SMILES IDX 1 1 2 2 3 3 4 4 5 5 18 6 19 7 20 8 21 9 22 10 23 11 24 12
REMARK SMILES IDX 25 13 26 14 27 15 28 16 89 17 29 18 88 19 30 20 31 21 32 22
REMARK SMILES IDX 82 23 33 24 87 25 81 26 83 27 34 28 86 29 80 30 79 31 35 33
REMARK SMILES IDX 67 34 47 35 66 36 48 37 51 38 65 39 84 40 49 41 50 42 64 44
REMARK SMILES IDX 85 45 52 46 36 47 37 48 45 49 38 50 39 51 43 52 46 53 40 54
REMARK SMILES IDX 41 55 44 56 42 57 68 58 69 59 77 60 70 61 71 62 75 63 78 64
REMARK SMILES IDX 72 65 73 66 76 67 74 68 53 69 54 70 62 71 55 72 56 73 60 74
REMARK SMILES IDX 63 75 57 76 58 77 61 78 59 79 6 80 7 81 8 82 9 83 10 84
REMARK SMILES IDX 11 85 12 86 13 87 14 88 15 89 16 90 17 91
REMARK H PARENT 83 32 51 43 17 92 17 93 17 94
REMARK Flexibility Score: inf
ROOT
ATOM      1  C   UNL     1     -13.023  -8.654   4.688  1.00  0.00     0.069 C 
ATOM      2  C   UNL     1     -13.234  -7.273   4.158  1.00  0.00     0.068 A 
ATOM      3  N   UNL     1     -14.358  -6.657   4.509  1.00  0.00    -0.195 NA
ATOM      4  S   UNL     1     -14.413  -5.201   3.771  1.00  0.00    -0.017 S 
ATOM      5  C   UNL     1     -12.915  -5.315   2.912  1.00  0.00     0.133 A 
ATOM      6  C   UNL     1     -12.319  -6.519   3.310  1.00  0.00     0.117 A 
ENDROOT
BRANCH   6   7
ATOM      7  C   UNL     1     -11.001  -7.028   2.954  1.00  0.00     0.343 C 
ATOM      8  O   UNL     1      -9.965  -6.370   3.019  1.00  0.00    -0.246 OA
BRANCH   7   9
ATOM      9  O   UNL     1     -11.055  -8.347   2.616  1.00  0.00    -0.458 OA
BRANCH   9  10
ATOM     10  C   UNL     1     -10.002  -8.881   1.805  1.00  0.00     0.275 C 
BRANCH  10  11
ATOM     11  C   UNL     1     -10.620  -9.411   0.518  1.00  0.00     0.275 C 
BRANCH  11  12
ATOM     12  O   UNL     1     -11.115  -8.334  -0.272  1.00  0.00    -0.458 OA
BRANCH  12  13
ATOM     13  C   UNL     1     -12.400  -7.960  -0.070  1.00  0.00     0.338 C 
ATOM     14  O   UNL     1     -13.166  -8.346   0.795  1.00  0.00    -0.246 OA
BRANCH  13  15
ATOM     15  C   UNL     1     -12.807  -7.128  -1.214  1.00  0.00     0.060 A 
ATOM     16  C   UNL     1     -14.106  -6.608  -1.235  1.00  0.00     0.016 A 
ATOM     17  C   UNL     1     -11.964  -7.047  -2.332  1.00  0.00     0.016 A 
ATOM     18  C   UNL     1     -14.616  -6.152  -2.435  1.00  0.00     0.010 A 
ATOM     19  C   UNL     1     -12.479  -6.628  -3.529  1.00  0.00     0.010 A 
ATOM     20  C   UNL     1     -13.816  -6.247  -3.577  1.00  0.00    -0.014 A 
BRANCH  20  21
ATOM     21  C   UNL     1     -14.372  -5.907  -4.865  1.00  0.00     0.031 A 
ATOM     22  C   UNL     1     -14.410  -4.451  -5.150  1.00  0.00     0.074 A 
ATOM     23  C   UNL     1     -14.634  -6.872  -5.767  1.00  0.00     0.049 A 
ATOM     24  N   UNL     1     -15.441  -3.722  -5.419  1.00  0.00    -0.248 NA
ATOM     25  C   UNL     1     -13.161  -3.682  -5.001  1.00  0.00     0.031 C 
ATOM     26  C   UNL     1     -14.329  -8.305  -5.692  1.00  0.00     0.029 A 
ATOM     27  N   UNL     1     -15.148  -6.737  -7.015  1.00  0.00    -0.354 N 
ATOM     28  C   UNL     1     -14.956  -2.437  -5.649  1.00  0.00     0.074 A 
ATOM     29  C   UNL     1     -13.578  -2.439  -5.238  1.00  0.00     0.031 C 
ATOM     30  C   UNL     1     -14.459  -8.854  -6.922  1.00  0.00     0.029 A 
ATOM     31  C   UNL     1     -14.979  -7.848  -7.830  1.00  0.00     0.049 A 
ATOM     32  H   UNL     1     -15.604  -5.919  -7.317  1.00  0.00     0.167 HD
ATOM     33  C   UNL     1     -15.678  -1.533  -6.366  1.00  0.00     0.037 A 
ATOM     34  C   UNL     1     -15.164  -7.863  -9.174  1.00  0.00     0.037 A 
ATOM     35  C   UNL     1     -17.072  -1.895  -6.396  1.00  0.00     0.049 A 
ATOM     36  C   UNL     1     -16.021  -6.689  -9.509  1.00  0.00     0.074 A 
ATOM     37  C   UNL     1     -18.035  -2.074  -5.420  1.00  0.00     0.029 A 
ATOM     38  N   UNL     1     -17.564  -2.522  -7.516  1.00  0.00    -0.354 N 
ATOM     39  N   UNL     1     -17.265  -6.577  -9.125  1.00  0.00    -0.248 NA
ATOM     40  C   UNL     1     -15.345  -5.434  -9.812  1.00  0.00     0.031 C 
ATOM     41  C   UNL     1     -18.767  -3.224  -5.839  1.00  0.00     0.029 A 
ATOM     42  C   UNL     1     -18.262  -3.620  -7.078  1.00  0.00     0.049 A 
ATOM     43  H   UNL     1     -17.439  -2.239  -8.450  1.00  0.00     0.167 HD
ATOM     44  C   UNL     1     -17.403  -5.249  -8.743  1.00  0.00     0.074 A 
ATOM     45  C   UNL     1     -16.198  -4.582  -9.235  1.00  0.00     0.031 C 
ATOM     46  C   UNL     1     -18.321  -4.864  -7.807  1.00  0.00     0.037 A 
BRANCH  33  47
ATOM     47  C   UNL     1     -15.077  -0.540  -7.329  1.00  0.00     0.064 A 
ATOM     48  C   UNL     1     -15.922   0.399  -7.955  1.00  0.00     0.173 A 
ATOM     49  C   UNL     1     -13.790  -0.670  -7.895  1.00  0.00     0.173 A 
ATOM     50  F   UNL     1     -17.169   0.604  -7.504  1.00  0.00    -0.203 F 
ATOM     51  C   UNL     1     -15.543   1.074  -9.117  1.00  0.00     0.198 A 
ATOM     52  C   UNL     1     -13.397   0.044  -9.025  1.00  0.00     0.198 A 
ATOM     53  F   UNL     1     -12.901  -1.566  -7.453  1.00  0.00    -0.203 F 
ATOM     54  F   UNL     1     -16.429   1.853  -9.752  1.00  0.00    -0.200 F 
ATOM     55  C   UNL     1     -14.284   0.887  -9.658  1.00  0.00     0.200 A 
ATOM     56  F   UNL     1     -12.177  -0.161  -9.541  1.00  0.00    -0.200 F 
ATOM     57  F   UNL     1     -13.943   1.478 -10.810  1.00  0.00    -0.200 F 
ENDBRANCH  33  47
BRANCH  34  58
ATOM     58  C   UNL     1     -14.317  -8.563 -10.172  1.00  0.00     0.064 A 
ATOM     59  C   UNL     1     -14.756  -8.773 -11.488  1.00  0.00     0.173 A 
ATOM     60  C   UNL     1     -12.952  -8.817  -9.923  1.00  0.00     0.173 A 
ATOM     61  F   UNL     1     -16.025  -8.502 -11.825  1.00  0.00    -0.203 F 
ATOM     62  C   UNL     1     -13.881  -9.208 -12.493  1.00  0.00     0.198 A 
ATOM     63  C   UNL     1     -12.083  -9.256 -10.922  1.00  0.00     0.198 A 
ATOM     64  F   UNL     1     -12.410  -8.556  -8.724  1.00  0.00    -0.203 F 
ATOM     65  F   UNL     1     -14.324  -9.351 -13.750  1.00  0.00    -0.200 F 
ATOM     66  C   UNL     1     -12.545  -9.443 -12.210  1.00  0.00     0.200 A 
ATOM     67  F   UNL     1     -10.785  -9.440 -10.640  1.00  0.00    -0.200 F 
ATOM     68  F   UNL     1     -11.697  -9.809 -13.181  1.00  0.00    -0.200 F 
ENDBRANCH  34  58
BRANCH  46  69
ATOM     69  C   UNL     1     -19.317  -5.882  -7.321  1.00  0.00     0.064 A 
ATOM     70  C   UNL     1     -18.965  -7.055  -6.630  1.00  0.00     0.173 A 
ATOM     71  C   UNL     1     -20.680  -5.569  -7.394  1.00  0.00     0.173 A 
ATOM     72  F   UNL     1     -17.682  -7.369  -6.416  1.00  0.00    -0.203 F 
ATOM     73  C   UNL     1     -19.932  -7.894  -6.078  1.00  0.00     0.198 A 
ATOM     74  C   UNL     1     -21.644  -6.388  -6.810  1.00  0.00     0.198 A 
ATOM     75  F   UNL     1     -21.076  -4.430  -7.982  1.00  0.00    -0.203 F 
ATOM     76  F   UNL     1     -19.565  -9.008  -5.426  1.00  0.00    -0.200 F 
ATOM     77  C   UNL     1     -21.271  -7.555  -6.162  1.00  0.00     0.200 A 
ATOM     78  F   UNL     1     -22.933  -6.026  -6.846  1.00  0.00    -0.200 F 
ATOM     79  F   UNL     1     -22.201  -8.334  -5.591  1.00  0.00    -0.200 F 
ENDBRANCH  46  69
ENDBRANCH  20  21
ENDBRANCH  13  15
ENDBRANCH  12  13
ENDBRANCH  11  12
ENDBRANCH  10  11
ENDBRANCH   9  10
ENDBRANCH   7   9
ENDBRANCH   6   7
BRANCH   5  80
ATOM     80  N   UNL     1     -12.620  -4.248   2.001  1.00  0.00    -0.305 N 
ATOM     81  C   UNL     1     -13.453  -3.039   1.968  1.00  0.00     0.154 C 
BRANCH  80  82
ATOM     82  C   UNL     1     -11.676  -4.479   0.994  1.00  0.00     0.230 C 
ATOM     83  O   UNL     1     -11.175  -5.585   0.776  1.00  0.00    -0.274 OA
BRANCH  82  84
ATOM     84  C   UNL     1     -11.215  -3.357   0.039  1.00  0.00     0.076 C 
ATOM     85  C   UNL     1     -12.291  -2.813  -0.901  1.00  0.00     0.018 C 
BRANCH  84  86
ATOM     86  C   UNL     1     -10.370  -2.269   0.723  1.00  0.00     0.013 C 
BRANCH  86  87
ATOM     87  C   UNL     1      -9.053  -2.767   1.349  1.00  0.00     0.007 C 
BRANCH  87  88
ATOM     88  C   UNL     1      -8.146  -3.653   0.482  1.00  0.00     0.064 C 
BRANCH  88  89
ATOM     89  C   UNL     1      -7.324  -2.987  -0.639  1.00  0.00     0.177 C 
ATOM     90  C   UNL     1      -6.102  -2.247  -0.099  1.00  0.00     0.075 C 
BRANCH  89  91
ATOM     91  N   UNL     1      -8.081  -2.089  -1.508  1.00  0.00    -0.355 N 
ATOM     92  H   UNL     1      -8.398  -1.283  -0.970  1.00  0.00     0.344 HD
ATOM     93  H   UNL     1      -8.888  -2.583  -1.887  1.00  0.00     0.344 HD
ATOM     94  H   UNL     1      -7.485  -1.774  -2.273  1.00  0.00     0.344 HD
ENDBRANCH  89  91
ENDBRANCH  88  89
ENDBRANCH  87  88
ENDBRANCH  86  87
ENDBRANCH  84  86
ENDBRANCH  82  84
ENDBRANCH  80  82
ENDBRANCH   5  80
TORSDOF 19
