REMARK SMILES CSc1nc2nnc(C(=O)OCCOC(=O)c3ccc(-c4c5nc(c(-c6c(F)c(F)c(F)c(F)c6F)c6ccc([nH]6)c(-c6c(F)c(F)c(F)c(F)c6F)c6nc(c(-c7c(F)c(F)c(F)c(F)c7F)c7ccc4[nH]7)C=C6)C=C5)cc3)c(O)n2n1
REMARK SMILES IDX 13 1 12 2 11 3 9 4 10 5 8 6 3 7 4 8 83 9 5 10 82 11 6 12
REMARK SMILES IDX 80 13 7 14 2 15 1 16 81 17 14 19 15 20 16 21 17 22 18 23
REMARK SMILES IDX 79 24 19 25 78 26 20 27 21 28 22 29 72 30 23 31 77 32 71 33
REMARK SMILES IDX 73 34 24 35 76 36 70 37 69 38 25 40 57 41 37 42 56 43 38 44
REMARK SMILES IDX 41 45 55 46 74 47 39 48 40 49 54 51 75 52 42 53 26 54 27 55
REMARK SMILES IDX 35 56 28 57 29 58 33 59 36 60 30 61 31 62 34 63 32 64 58 65
REMARK SMILES IDX 59 66 67 67 60 68 61 69 65 70 68 71 62 72 63 73 66 74 64 75
REMARK SMILES IDX 43 76 44 77 52 78 45 79 46 80 50 81 53 82 47 83 48 84 51 85
REMARK SMILES IDX 49 86
REMARK H PARENT 81 18 73 39 41 50
REMARK Flexibility Score: inf
ROOT
ATOM      1  C   UNL     1       1.184 -11.389   0.817  1.00  0.00     0.275 C 
ENDROOT
BRANCH   1   2
ATOM      2  C   UNL     1       0.753 -10.938  -0.578  1.00  0.00     0.275 C 
BRANCH   2   3
ATOM      3  O   UNL     1       1.099  -9.566  -0.840  1.00  0.00    -0.457 OA
BRANCH   3   4
ATOM      4  C   UNL     1       0.156  -8.656  -0.486  1.00  0.00     0.364 C 
ATOM      5  O   UNL     1      -0.982  -8.920  -0.111  1.00  0.00    -0.244 OA
BRANCH   4   6
ATOM      6  C   UNL     1       0.700  -7.272  -0.446  1.00  0.00     0.232 A 
ATOM      7  C   UNL     1       1.134  -3.107   0.714  1.00  0.00     0.210 A 
ATOM      8  N   UNL     1       2.020  -3.517  -0.239  1.00  0.00    -0.182 NA
ATOM      9  N   UNL     1       0.304  -4.041   1.170  1.00  0.00    -0.134 NA
ATOM     10  C   UNL     1       1.733  -4.796  -0.385  1.00  0.00     0.275 A 
ATOM     11  N   UNL     1       0.665  -5.123   0.442  1.00  0.00    -0.159 N 
ATOM     12  N   UNL     1       2.276  -5.755  -1.195  1.00  0.00    -0.108 NA
ATOM     13  C   UNL     1       0.112  -6.402   0.406  1.00  0.00     0.251 A 
ATOM     14  N   UNL     1       1.796  -6.927  -1.220  1.00  0.00    -0.134 NA
BRANCH   7  15
ATOM     15  S   UNL     1       1.038  -1.479   1.322  1.00  0.00    -0.088 SA
ATOM     16  C   UNL     1       1.340  -0.549  -0.192  1.00  0.00     0.094 C 
ENDBRANCH   7  15
BRANCH  13  17
ATOM     17  O   UNL     1      -0.974  -6.684   1.227  1.00  0.00    -0.491 OA
ATOM     18  H   UNL     1      -1.360  -7.538   1.217  1.00  0.00     0.295 HD
ENDBRANCH  13  17
ENDBRANCH   4   6
ENDBRANCH   3   4
ENDBRANCH   2   3
ENDBRANCH   1   2
BRANCH   1  19
ATOM     19  O   UNL     1       0.443 -10.771   1.877  1.00  0.00    -0.458 OA
BRANCH  19  20
ATOM     20  C   UNL     1       0.998  -9.640   2.364  1.00  0.00     0.338 C 
ATOM     21  O   UNL     1       1.804  -8.913   1.795  1.00  0.00    -0.246 OA
BRANCH  20  22
ATOM     22  C   UNL     1       0.641  -9.451   3.772  1.00  0.00     0.060 A 
ATOM     23  C   UNL     1       0.848  -8.186   4.331  1.00  0.00     0.016 A 
ATOM     24  C   UNL     1       0.351 -10.564   4.571  1.00  0.00     0.016 A 
ATOM     25  C   UNL     1       0.884  -8.058   5.707  1.00  0.00     0.010 A 
ATOM     26  C   UNL     1       0.383 -10.432   5.947  1.00  0.00     0.010 A 
ATOM     27  C   UNL     1       0.713  -9.195   6.505  1.00  0.00    -0.014 A 
BRANCH  27  28
ATOM     28  C   UNL     1       0.853  -9.044   7.947  1.00  0.00     0.031 A 
ATOM     29  C   UNL     1      -0.211  -8.255   8.624  1.00  0.00     0.074 A 
ATOM     30  C   UNL     1       1.793  -9.705   8.651  1.00  0.00     0.049 A 
ATOM     31  N   UNL     1      -0.088  -7.276   9.462  1.00  0.00    -0.248 NA
ATOM     32  C   UNL     1      -1.605  -8.586   8.284  1.00  0.00     0.031 C 
ATOM     33  C   UNL     1       2.707 -10.746   8.171  1.00  0.00     0.029 A 
ATOM     34  N   UNL     1       2.041  -9.663   9.991  1.00  0.00    -0.354 N 
ATOM     35  C   UNL     1      -1.382  -6.951   9.859  1.00  0.00     0.074 A 
ATOM     36  C   UNL     1      -2.280  -7.727   9.044  1.00  0.00     0.031 C 
ATOM     37  C   UNL     1       3.245 -11.384   9.233  1.00  0.00     0.029 A 
ATOM     38  C   UNL     1       2.813 -10.718  10.450  1.00  0.00     0.049 A 
ATOM     39  H   UNL     1       1.703  -8.949  10.578  1.00  0.00     0.167 HD
ATOM     40  C   UNL     1      -1.645  -6.192  10.955  1.00  0.00     0.037 A 
ATOM     41  C   UNL     1       3.009 -11.065  11.743  1.00  0.00     0.037 A 
ATOM     42  C   UNL     1      -0.521  -5.399  11.358  1.00  0.00     0.049 A 
ATOM     43  C   UNL     1       2.673  -9.896  12.588  1.00  0.00     0.074 A 
ATOM     44  C   UNL     1       0.182  -4.352  10.800  1.00  0.00     0.029 A 
ATOM     45  N   UNL     1       0.234  -5.843  12.411  1.00  0.00    -0.354 N 
ATOM     46  N   UNL     1       3.366  -8.794  12.642  1.00  0.00    -0.248 NA
ATOM     47  C   UNL     1       1.342  -9.824  13.174  1.00  0.00     0.031 C 
ATOM     48  C   UNL     1       1.517  -4.493  11.278  1.00  0.00     0.029 A 
ATOM     49  C   UNL     1       1.550  -5.621  12.100  1.00  0.00     0.049 A 
ATOM     50  H   UNL     1      -0.107  -6.249  13.240  1.00  0.00     0.167 HD
ATOM     51  C   UNL     1       2.433  -7.803  12.897  1.00  0.00     0.074 A 
ATOM     52  C   UNL     1       1.247  -8.507  13.362  1.00  0.00     0.031 C 
ATOM     53  C   UNL     1       2.619  -6.532  12.438  1.00  0.00     0.037 A 
BRANCH  40  54
ATOM     54  C   UNL     1      -2.846  -6.402  11.833  1.00  0.00     0.064 A 
ATOM     55  C   UNL     1      -3.236  -5.411  12.752  1.00  0.00     0.173 A 
ATOM     56  C   UNL     1      -3.462  -7.663  11.988  1.00  0.00     0.173 A 
ATOM     57  F   UNL     1      -2.673  -4.194  12.722  1.00  0.00    -0.203 F 
ATOM     58  C   UNL     1      -4.157  -5.676  13.770  1.00  0.00     0.198 A 
ATOM     59  C   UNL     1      -4.418  -7.908  12.970  1.00  0.00     0.198 A 
ATOM     60  F   UNL     1      -3.081  -8.724  11.263  1.00  0.00    -0.203 F 
ATOM     61  F   UNL     1      -4.426  -4.735  14.685  1.00  0.00    -0.200 F 
ATOM     62  C   UNL     1      -4.749  -6.922  13.876  1.00  0.00     0.200 A 
ATOM     63  F   UNL     1      -4.961  -9.130  13.074  1.00  0.00    -0.200 F 
ATOM     64  F   UNL     1      -5.598  -7.189  14.876  1.00  0.00    -0.200 F 
ENDBRANCH  40  54
BRANCH  41  65
ATOM     65  C   UNL     1       3.203 -12.419  12.310  1.00  0.00     0.064 A 
ATOM     66  C   UNL     1       3.706 -12.588  13.610  1.00  0.00     0.173 A 
ATOM     67  C   UNL     1       2.648 -13.562  11.700  1.00  0.00     0.173 A 
ATOM     68  F   UNL     1       4.213 -11.542  14.278  1.00  0.00    -0.203 F 
ATOM     69  C   UNL     1       3.630 -13.817  14.271  1.00  0.00     0.198 A 
ATOM     70  C   UNL     1       2.587 -14.791  12.355  1.00  0.00     0.198 A 
ATOM     71  F   UNL     1       2.067 -13.488  10.494  1.00  0.00    -0.203 F 
ATOM     72  F   UNL     1       4.056 -13.921  15.538  1.00  0.00    -0.200 F 
ATOM     73  C   UNL     1       3.062 -14.915  13.647  1.00  0.00     0.200 A 
ATOM     74  F   UNL     1       2.006 -15.837  11.750  1.00  0.00    -0.200 F 
ATOM     75  F   UNL     1       2.934 -16.077  14.301  1.00  0.00    -0.200 F 
ENDBRANCH  41  65
BRANCH  53  76
ATOM     76  C   UNL     1       4.000  -6.159  11.984  1.00  0.00     0.064 A 
ATOM     77  C   UNL     1       4.632  -6.730  10.867  1.00  0.00     0.173 A 
ATOM     78  C   UNL     1       4.652  -5.098  12.626  1.00  0.00     0.173 A 
ATOM     79  F   UNL     1       4.025  -7.679  10.143  1.00  0.00    -0.203 F 
ATOM     80  C   UNL     1       5.885  -6.290  10.445  1.00  0.00     0.198 A 
ATOM     81  C   UNL     1       5.887  -4.636  12.180  1.00  0.00     0.198 A 
ATOM     82  F   UNL     1       4.067  -4.477  13.663  1.00  0.00    -0.203 F 
ATOM     83  F   UNL     1       6.478  -6.863   9.387  1.00  0.00    -0.200 F 
ATOM     84  C   UNL     1       6.508  -5.239  11.098  1.00  0.00     0.200 A 
ATOM     85  F   UNL     1       6.464  -3.587  12.783  1.00  0.00    -0.200 F 
ATOM     86  F   UNL     1       7.696  -4.790  10.668  1.00  0.00    -0.200 F 
ENDBRANCH  53  76
ENDBRANCH  27  28
ENDBRANCH  20  22
ENDBRANCH  19  20
ENDBRANCH   1  19
TORSDOF 13
