REMARK SMILES C[C@](NC(=O)/C=C/c1ccco1)(C(=O)OCCOC(=O)c1ccc(-c2c3nc(c(-c4c(F)c(F)c(F)c(F)c4F)c4ccc([nH]4)c(-c4c(F)c(F)c(F)c(F)c4F)c4nc(c(-c5c(F)c(F)c(F)c(F)c5F)c5ccc2[nH]5)C=C4)C=C3)cc1)C(F)(F)F
REMARK SMILES IDX 16 1 15 2 13 3 14 4 2 5 1 6 84 7 85 8 86 9 87 10 3 11 4 12
REMARK SMILES IDX 5 14 6 15 7 16 8 17 9 18 12 19 10 20 11 21 17 22 18 23 19 24
REMARK SMILES IDX 20 25 21 26 22 27 83 28 23 29 82 30 24 31 25 32 26 33 76 34
REMARK SMILES IDX 27 35 81 36 75 37 77 38 28 39 80 40 74 41 73 42 29 44 61 45
REMARK SMILES IDX 41 46 60 47 42 48 45 49 59 50 78 51 43 52 44 53 58 55 79 56
REMARK SMILES IDX 46 57 30 58 31 59 39 60 32 61 33 62 37 63 40 64 34 65 35 66
REMARK SMILES IDX 38 67 36 68 62 69 63 70 71 71 64 72 65 73 69 74 72 75 66 76
REMARK SMILES IDX 67 77 70 78 68 79 47 80 48 81 56 82 49 83 50 84 54 85 57 86
REMARK SMILES IDX 51 87 52 88 55 89 53 90
REMARK H PARENT 3 13 77 43 45 54
REMARK Flexibility Score: inf
ROOT
ATOM      1  C   UNL     1      -2.602  -1.137  -0.831  1.00  0.00     0.274 C 
ENDROOT
BRANCH   1   2
ATOM      2  O   UNL     1      -1.200  -0.860  -0.608  1.00  0.00    -0.460 OA
BRANCH   2   3
ATOM      3  C   UNL     1      -0.356  -0.908  -1.680  1.00  0.00     0.341 C 
ATOM      4  O   UNL     1      -0.729  -1.096  -2.832  1.00  0.00    -0.249 OA
BRANCH   3   5
ATOM      5  C   UNL     1       1.115  -0.710  -1.280  1.00  0.00     0.231 C 
ATOM      6  C   UNL     1       1.973  -1.785  -1.966  1.00  0.00     0.058 C 
BRANCH   5   7
ATOM      7  C   UNL     1       1.520   0.644  -1.880  1.00  0.00     0.422 C 
ATOM      8  F   UNL     1       0.830   1.660  -1.313  1.00  0.00    -0.168 F 
ATOM      9  F   UNL     1       2.834   0.895  -1.651  1.00  0.00    -0.168 F 
ATOM     10  F   UNL     1       1.341   0.718  -3.216  1.00  0.00    -0.168 F 
ENDBRANCH   5   7
BRANCH   5  11
ATOM     11  N   UNL     1       1.264  -0.666   0.216  1.00  0.00    -0.329 N 
ATOM     12  C   UNL     1       1.298  -1.646   1.154  1.00  0.00     0.245 C 
ATOM     13  H   UNL     1       1.353   0.243   0.584  1.00  0.00     0.165 HD
ATOM     14  O   UNL     1       1.252  -1.382   2.349  1.00  0.00    -0.270 OA
BRANCH  12  15
ATOM     15  C   UNL     1       1.437  -3.028   0.693  1.00  0.00     0.075 C 
ATOM     16  C   UNL     1       0.343  -3.755   0.436  1.00  0.00     0.053 C 
BRANCH  16  17
ATOM     17  C   UNL     1       0.504  -5.037  -0.144  1.00  0.00     0.126 A 
ATOM     18  C   UNL     1       0.022  -6.265   0.281  1.00  0.00     0.050 A 
ATOM     19  O   UNL     1       1.214  -5.246  -1.305  1.00  0.00    -0.465 OA
ATOM     20  C   UNL     1       0.465  -7.244  -0.641  1.00  0.00     0.042 A 
ATOM     21  C   UNL     1       1.171  -6.566  -1.601  1.00  0.00     0.195 A 
ENDBRANCH  16  17
ENDBRANCH  12  15
ENDBRANCH   5  11
ENDBRANCH   3   5
ENDBRANCH   2   3
ENDBRANCH   1   2
BRANCH   1  22
ATOM     22  C   UNL     1      -3.448   0.084  -0.485  1.00  0.00     0.275 C 
BRANCH  22  23
ATOM     23  O   UNL     1      -3.225   1.090  -1.486  1.00  0.00    -0.458 OA
BRANCH  23  24
ATOM     24  C   UNL     1      -2.488   2.152  -1.097  1.00  0.00     0.338 C 
ATOM     25  O   UNL     1      -2.085   2.422   0.018  1.00  0.00    -0.246 OA
BRANCH  24  26
ATOM     26  C   UNL     1      -2.153   2.932  -2.293  1.00  0.00     0.060 A 
ATOM     27  C   UNL     1      -1.291   2.372  -3.235  1.00  0.00     0.016 A 
ATOM     28  C   UNL     1      -2.598   4.244  -2.429  1.00  0.00     0.016 A 
ATOM     29  C   UNL     1      -0.784   3.149  -4.267  1.00  0.00     0.010 A 
ATOM     30  C   UNL     1      -2.171   4.990  -3.529  1.00  0.00     0.010 A 
ATOM     31  C   UNL     1      -1.236   4.460  -4.440  1.00  0.00    -0.014 A 
BRANCH  31  32
ATOM     32  C   UNL     1      -0.718   5.302  -5.547  1.00  0.00     0.031 A 
ATOM     33  C   UNL     1      -0.039   6.601  -5.229  1.00  0.00     0.074 A 
ATOM     34  C   UNL     1      -0.883   4.926  -6.829  1.00  0.00     0.049 A 
ATOM     35  N   UNL     1       0.202   7.624  -6.007  1.00  0.00    -0.248 NA
ATOM     36  C   UNL     1       0.409   6.779  -3.839  1.00  0.00     0.031 C 
ATOM     37  C   UNL     1      -1.460   3.659  -7.276  1.00  0.00     0.029 A 
ATOM     38  N   UNL     1      -0.595   5.591  -7.995  1.00  0.00    -0.354 N 
ATOM     39  C   UNL     1       0.752   8.598  -5.185  1.00  0.00     0.074 A 
ATOM     40  C   UNL     1       0.833   8.035  -3.853  1.00  0.00     0.031 C 
ATOM     41  C   UNL     1      -1.481   3.634  -8.616  1.00  0.00     0.029 A 
ATOM     42  C   UNL     1      -1.012   4.920  -9.117  1.00  0.00     0.049 A 
ATOM     43  H   UNL     1      -0.135   6.461  -8.023  1.00  0.00     0.167 HD
ATOM     44  C   UNL     1       1.132   9.854  -5.518  1.00  0.00     0.037 A 
ATOM     45  C   UNL     1      -1.077   5.321 -10.400  1.00  0.00     0.037 A 
ATOM     46  C   UNL     1       1.106  10.371  -6.861  1.00  0.00     0.049 A 
ATOM     47  C   UNL     1      -0.652   6.716 -10.753  1.00  0.00     0.074 A 
ATOM     48  C   UNL     1       1.490  11.619  -7.316  1.00  0.00     0.029 A 
ATOM     49  N   UNL     1       0.685   9.651  -7.971  1.00  0.00    -0.354 N 
ATOM     50  N   UNL     1      -0.215   7.667  -9.964  1.00  0.00    -0.248 NA
ATOM     51  C   UNL     1      -0.752   7.102 -12.166  1.00  0.00     0.031 C 
ATOM     52  C   UNL     1       1.278  11.664  -8.699  1.00  0.00     0.029 A 
ATOM     53  C   UNL     1       0.795  10.431  -9.110  1.00  0.00     0.049 A 
ATOM     54  H   UNL     1       0.358   8.723  -7.951  1.00  0.00     0.167 HD
ATOM     55  C   UNL     1       0.016   8.763 -10.781  1.00  0.00     0.074 A 
ATOM     56  C   UNL     1      -0.316   8.354 -12.131  1.00  0.00     0.031 C 
ATOM     57  C   UNL     1       0.457   9.999 -10.442  1.00  0.00     0.037 A 
BRANCH  44  58
ATOM     58  C   UNL     1       1.549  10.766  -4.404  1.00  0.00     0.064 A 
ATOM     59  C   UNL     1       2.774  10.624  -3.738  1.00  0.00     0.173 A 
ATOM     60  C   UNL     1       0.699  11.809  -4.001  1.00  0.00     0.173 A 
ATOM     61  F   UNL     1       3.613   9.632  -4.072  1.00  0.00    -0.203 F 
ATOM     62  C   UNL     1       3.120  11.473  -2.689  1.00  0.00     0.198 A 
ATOM     63  C   UNL     1       1.060  12.672  -2.971  1.00  0.00     0.198 A 
ATOM     64  F   UNL     1      -0.484  11.990  -4.608  1.00  0.00    -0.203 F 
ATOM     65  F   UNL     1       4.273  11.288  -2.032  1.00  0.00    -0.200 F 
ATOM     66  C   UNL     1       2.266  12.499  -2.310  1.00  0.00     0.200 A 
ATOM     67  F   UNL     1       0.236  13.667  -2.612  1.00  0.00    -0.200 F 
ATOM     68  F   UNL     1       2.600  13.314  -1.300  1.00  0.00    -0.200 F 
ENDBRANCH  44  58
BRANCH  45  69
ATOM     69  C   UNL     1      -1.631   4.393 -11.418  1.00  0.00     0.064 A 
ATOM     70  C   UNL     1      -0.798   3.767 -12.352  1.00  0.00     0.173 A 
ATOM     71  C   UNL     1      -2.995   4.062 -11.429  1.00  0.00     0.173 A 
ATOM     72  F   UNL     1       0.508   4.068 -12.393  1.00  0.00    -0.203 F 
ATOM     73  C   UNL     1      -1.308   2.836 -13.255  1.00  0.00     0.198 A 
ATOM     74  C   UNL     1      -3.498   3.114 -12.315  1.00  0.00     0.198 A 
ATOM     75  F   UNL     1      -3.832   4.634 -10.550  1.00  0.00    -0.203 F 
ATOM     76  F   UNL     1      -0.494   2.260 -14.150  1.00  0.00    -0.200 F 
ATOM     77  C   UNL     1      -2.654   2.501 -13.228  1.00  0.00     0.200 A 
ATOM     78  F   UNL     1      -4.796   2.781 -12.272  1.00  0.00    -0.200 F 
ATOM     79  F   UNL     1      -3.137   1.587 -14.081  1.00  0.00    -0.200 F 
ENDBRANCH  45  69
BRANCH  57  80
ATOM     80  C   UNL     1       0.626  10.989 -11.553  1.00  0.00     0.064 A 
ATOM     81  C   UNL     1      -0.474  11.648 -12.117  1.00  0.00     0.173 A 
ATOM     82  C   UNL     1       1.907  11.315 -12.022  1.00  0.00     0.173 A 
ATOM     83  F   UNL     1      -1.718  11.354 -11.709  1.00  0.00    -0.203 F 
ATOM     84  C   UNL     1      -0.299  12.593 -13.123  1.00  0.00     0.198 A 
ATOM     85  C   UNL     1       2.079  12.274 -13.015  1.00  0.00     0.198 A 
ATOM     86  F   UNL     1       2.989  10.710 -11.509  1.00  0.00    -0.203 F 
ATOM     87  F   UNL     1      -1.366  13.192 -13.671  1.00  0.00    -0.200 F 
ATOM     88  C   UNL     1       0.977  12.910 -13.566  1.00  0.00     0.200 A 
ATOM     89  F   UNL     1       3.313  12.584 -13.437  1.00  0.00    -0.200 F 
ATOM     90  F   UNL     1       1.144  13.825 -14.531  1.00  0.00    -0.200 F 
ENDBRANCH  57  80
ENDBRANCH  31  32
ENDBRANCH  24  26
ENDBRANCH  23  24
ENDBRANCH  22  23
ENDBRANCH   1  22
TORSDOF 15
