REMARK SMILES CC[NH2+][C@@]1(C(=O)OCCOC(=O)c2ccc(-c3c4nc(c(-c5c(F)c(F)c(F)c(F)c5F)c5ccc([nH]5)c(-c5c(F)c(F)c(F)c(F)c5F)c5nc(c(-c6c(F)c(F)c(F)c(F)c6F)c6ccc3[nH]6)C=C5)C=C4)cc2)CC[C@@H]([NH+]2CC[NH+](C(C)C)CC2)C1
REMARK SMILES IDX 8 1 7 2 5 3 6 4 4 5 76 6 88 7 77 8 78 9 3 10 2 13 1 14 79 15
REMARK SMILES IDX 80 16 87 17 81 19 86 20 82 21 83 23 84 24 85 25 9 26 10 27
REMARK SMILES IDX 11 28 12 29 13 30 14 31 75 32 15 33 74 34 16 35 17 36 18 37
REMARK SMILES IDX 68 38 19 39 73 40 67 41 69 42 20 43 72 44 66 45 65 46 21 48
REMARK SMILES IDX 53 49 33 50 52 51 34 52 37 53 51 54 70 55 35 56 36 57 50 59
REMARK SMILES IDX 71 60 38 61 22 62 23 63 31 64 24 65 25 66 29 67 32 68 26 69
REMARK SMILES IDX 27 70 30 71 28 72 54 73 55 74 63 75 56 76 57 77 61 78 64 79
REMARK SMILES IDX 58 80 59 81 62 82 60 83 39 84 40 85 48 86 41 87 42 88 46 89
REMARK SMILES IDX 49 90 43 91 44 92 47 93 45 94
REMARK H PARENT 3 11 3 12 79 18 82 22 69 47 37 58
REMARK Flexibility Score: inf
ROOT
ATOM      1  C   UNL     1      -1.458  -3.872   5.175  1.00  0.00     0.274 C 
ENDROOT
BRANCH   1   2
ATOM      2  O   UNL     1      -0.976  -4.165   3.849  1.00  0.00    -0.457 OA
BRANCH   2   3
ATOM      3  C   UNL     1      -1.034  -3.154   2.935  1.00  0.00     0.368 C 
ATOM      4  O   UNL     1      -1.659  -2.112   3.106  1.00  0.00    -0.245 OA
BRANCH   3   5
ATOM      5  C   UNL     1      -0.217  -3.497   1.642  1.00  0.00     0.200 C 
ATOM      6  C   UNL     1      -1.163  -4.192   0.653  1.00  0.00     0.087 C 
ATOM      7  C   UNL     1       0.887  -4.539   1.929  1.00  0.00     0.146 C 
ATOM      8  C   UNL     1      -1.098  -5.663   1.035  1.00  0.00     0.072 C 
ATOM      9  C   UNL     1       0.353  -5.912   1.486  1.00  0.00     0.191 C 
BRANCH   5  10
ATOM     10  N   UNL     1       0.429  -2.238   1.189  1.00  0.00    -0.332 N 
ATOM     11  H   UNL     1       0.238  -1.528   1.896  1.00  0.00     0.347 HD
ATOM     12  H   UNL     1       1.410  -2.487   1.063  1.00  0.00     0.347 HD
BRANCH  10  13
ATOM     13  C   UNL     1       0.029  -1.687  -0.094  1.00  0.00     0.257 C 
ATOM     14  C   UNL     1       0.685  -0.325  -0.283  1.00  0.00     0.071 C 
ENDBRANCH  10  13
ENDBRANCH   5  10
BRANCH   9  15
ATOM     15  N   UNL     1       1.146  -6.665   0.502  1.00  0.00    -0.323 N 
ATOM     16  C   UNL     1       1.365  -6.076  -0.824  1.00  0.00     0.324 C 
ATOM     17  C   UNL     1       2.420  -7.183   1.026  1.00  0.00     0.324 C 
ATOM     18  H   UNL     1       0.495  -7.433   0.337  1.00  0.00     0.348 HD
ATOM     19  C   UNL     1       2.564  -5.109  -0.976  1.00  0.00     0.324 C 
ATOM     20  C   UNL     1       3.634  -6.231   0.933  1.00  0.00     0.324 C 
ATOM     21  N   UNL     1       3.825  -5.510  -0.337  1.00  0.00    -0.324 N 
ATOM     22  H   UNL     1       4.250  -4.616  -0.091  1.00  0.00     0.348 HD
BRANCH  21  23
ATOM     23  C   UNL     1       4.849  -6.096  -1.214  1.00  0.00     0.178 C 
ATOM     24  C   UNL     1       4.416  -7.350  -1.974  1.00  0.00     0.075 C 
ATOM     25  C   UNL     1       5.390  -5.041  -2.190  1.00  0.00     0.075 C 
ENDBRANCH  21  23
ENDBRANCH   9  15
ENDBRANCH   3   5
ENDBRANCH   2   3
ENDBRANCH   1   2
BRANCH   1  26
ATOM     26  C   UNL     1      -0.267  -3.560   6.079  1.00  0.00     0.275 C 
BRANCH  26  27
ATOM     27  O   UNL     1       0.295  -2.294   5.688  1.00  0.00    -0.458 OA
BRANCH  27  28
ATOM     28  C   UNL     1       1.634  -2.256   5.522  1.00  0.00     0.338 C 
ATOM     29  O   UNL     1       2.439  -3.154   5.715  1.00  0.00    -0.246 OA
BRANCH  28  30
ATOM     30  C   UNL     1       2.019  -0.915   5.055  1.00  0.00     0.060 A 
ATOM     31  C   UNL     1       1.560  -0.459   3.822  1.00  0.00     0.016 A 
ATOM     32  C   UNL     1       2.910  -0.144   5.800  1.00  0.00     0.016 A 
ATOM     33  C   UNL     1       2.046   0.733   3.290  1.00  0.00     0.010 A 
ATOM     34  C   UNL     1       3.326   1.097   5.305  1.00  0.00     0.010 A 
ATOM     35  C   UNL     1       2.923   1.536   4.030  1.00  0.00    -0.014 A 
BRANCH  35  36
ATOM     36  C   UNL     1       3.454   2.805   3.460  1.00  0.00     0.031 A 
ATOM     37  C   UNL     1       4.936   2.976   3.268  1.00  0.00     0.074 A 
ATOM     38  C   UNL     1       2.623   3.802   3.098  1.00  0.00     0.049 A 
ATOM     39  N   UNL     1       5.620   4.059   2.998  1.00  0.00    -0.248 NA
ATOM     40  C   UNL     1       5.759   1.764   3.407  1.00  0.00     0.031 C 
ATOM     41  C   UNL     1       1.162   3.755   3.156  1.00  0.00     0.029 A 
ATOM     42  N   UNL     1       2.893   5.056   2.603  1.00  0.00    -0.354 N 
ATOM     43  C   UNL     1       6.954   3.672   2.998  1.00  0.00     0.074 A 
ATOM     44  C   UNL     1       6.985   2.253   3.283  1.00  0.00     0.031 C 
ATOM     45  C   UNL     1       0.664   4.910   2.688  1.00  0.00     0.029 A 
ATOM     46  C   UNL     1       1.769   5.812   2.377  1.00  0.00     0.049 A 
ATOM     47  H   UNL     1       3.806   5.380   2.427  1.00  0.00     0.167 HD
ATOM     48  C   UNL     1       8.053   4.437   2.789  1.00  0.00     0.037 A 
ATOM     49  C   UNL     1       1.639   7.100   2.006  1.00  0.00     0.037 A 
ATOM     50  C   UNL     1       8.018   5.835   2.449  1.00  0.00     0.049 A 
ATOM     51  C   UNL     1       2.872   7.936   1.803  1.00  0.00     0.074 A 
ATOM     52  C   UNL     1       9.077   6.700   2.232  1.00  0.00     0.029 A 
ATOM     53  N   UNL     1       6.857   6.567   2.252  1.00  0.00    -0.354 N 
ATOM     54  N   UNL     1       4.132   7.588   1.899  1.00  0.00    -0.248 NA
ATOM     55  C   UNL     1       2.664   9.352   1.466  1.00  0.00     0.031 C 
ATOM     56  C   UNL     1       8.556   7.962   1.924  1.00  0.00     0.029 A 
ATOM     57  C   UNL     1       7.173   7.874   1.917  1.00  0.00     0.049 A 
ATOM     58  H   UNL     1       5.943   6.211   2.337  1.00  0.00     0.167 HD
ATOM     59  C   UNL     1       4.865   8.734   1.629  1.00  0.00     0.074 A 
ATOM     60  C   UNL     1       3.911   9.786   1.345  1.00  0.00     0.031 C 
ATOM     61  C   UNL     1       6.210   8.903   1.628  1.00  0.00     0.037 A 
BRANCH  48  62
ATOM     62  C   UNL     1       9.391   3.785   2.966  1.00  0.00     0.064 A 
ATOM     63  C   UNL     1       9.920   2.905   2.012  1.00  0.00     0.173 A 
ATOM     64  C   UNL     1      10.167   4.072   4.100  1.00  0.00     0.173 A 
ATOM     65  F   UNL     1       9.209   2.587   0.920  1.00  0.00    -0.203 F 
ATOM     66  C   UNL     1      11.169   2.318   2.198  1.00  0.00     0.198 A 
ATOM     67  C   UNL     1      11.425   3.502   4.271  1.00  0.00     0.198 A 
ATOM     68  F   UNL     1       9.706   4.912   5.040  1.00  0.00    -0.203 F 
ATOM     69  F   UNL     1      11.640   1.448   1.294  1.00  0.00    -0.200 F 
ATOM     70  C   UNL     1      11.923   2.621   3.323  1.00  0.00     0.200 A 
ATOM     71  F   UNL     1      12.155   3.803   5.354  1.00  0.00    -0.200 F 
ATOM     72  F   UNL     1      13.126   2.058   3.497  1.00  0.00    -0.200 F 
ENDBRANCH  48  62
BRANCH  49  73
ATOM     73  C   UNL     1       0.285   7.691   1.849  1.00  0.00     0.064 A 
ATOM     74  C   UNL     1      -0.203   8.045   0.584  1.00  0.00     0.173 A 
ATOM     75  C   UNL     1      -0.547   7.912   2.956  1.00  0.00     0.173 A 
ATOM     76  F   UNL     1       0.568   7.881  -0.501  1.00  0.00    -0.203 F 
ATOM     77  C   UNL     1      -1.472   8.601   0.433  1.00  0.00     0.198 A 
ATOM     78  C   UNL     1      -1.825   8.443   2.801  1.00  0.00     0.198 A 
ATOM     79  F   UNL     1      -0.123   7.596   4.189  1.00  0.00    -0.203 F 
ATOM     80  F   UNL     1      -1.901   8.966  -0.783  1.00  0.00    -0.200 F 
ATOM     81  C   UNL     1      -2.285   8.792   1.541  1.00  0.00     0.200 A 
ATOM     82  F   UNL     1      -2.611   8.616   3.873  1.00  0.00    -0.200 F 
ATOM     83  F   UNL     1      -3.507   9.320   1.394  1.00  0.00    -0.200 F 
ENDBRANCH  49  73
BRANCH  61  84
ATOM     84  C   UNL     1       6.727  10.266   1.284  1.00  0.00     0.064 A 
ATOM     85  C   UNL     1       6.680  11.320   2.207  1.00  0.00     0.173 A 
ATOM     86  C   UNL     1       7.310  10.509   0.032  1.00  0.00     0.173 A 
ATOM     87  F   UNL     1       6.117  11.138   3.411  1.00  0.00    -0.203 F 
ATOM     88  C   UNL     1       7.185  12.575   1.882  1.00  0.00     0.198 A 
ATOM     89  C   UNL     1       7.832  11.760  -0.282  1.00  0.00     0.198 A 
ATOM     90  F   UNL     1       7.380   9.530  -0.883  1.00  0.00    -0.203 F 
ATOM     91  F   UNL     1       7.100  13.579   2.766  1.00  0.00    -0.200 F 
ATOM     92  C   UNL     1       7.765  12.793   0.641  1.00  0.00     0.200 A 
ATOM     93  F   UNL     1       8.398  11.967  -1.479  1.00  0.00    -0.200 F 
ATOM     94  F   UNL     1       8.254  14.002   0.331  1.00  0.00    -0.200 F 
ENDBRANCH  61  84
ENDBRANCH  35  36
ENDBRANCH  28  30
ENDBRANCH  27  28
ENDBRANCH  26  27
ENDBRANCH   1  26
TORSDOF 15
