REMARK SMILES CC(=O)N[C@@H](CSCc1ccnc2ccccc12)C(=O)OCCOC(=O)c1ccc(-c2c3nc(c(-c4c(F)c(F)c(F)c(F)c4F)c4ccc([nH]4)c(-c4c(F)c(F)c(F)c(F)c4F)c4nc(c(-c5c(F)c(F)c(F)c(F)c5F)c5ccc2[nH]5)C=C4)C=C3)cc1
REMARK SMILES IDX 22 1 21 2 19 3 20 4 5 5 4 6 1 7 2 8 3 9 6 11 7 12 8 13 9 14
REMARK SMILES IDX 10 15 18 16 11 17 13 18 17 19 12 20 14 21 16 22 15 23 23 24
REMARK SMILES IDX 24 25 25 26 26 27 27 28 28 29 89 30 29 31 88 32 30 33 31 34
REMARK SMILES IDX 32 35 82 36 33 37 87 38 81 39 83 40 34 41 86 42 80 43 79 44
REMARK SMILES IDX 35 46 67 47 47 48 66 49 48 50 51 51 65 52 84 53 49 54 50 55
REMARK SMILES IDX 64 57 85 58 52 59 36 60 37 61 45 62 38 63 39 64 43 65 46 66
REMARK SMILES IDX 40 67 41 68 44 69 42 70 68 71 69 72 77 73 70 74 71 75 75 76
REMARK SMILES IDX 78 77 72 78 73 79 76 80 74 81 53 82 54 83 62 84 55 85 56 86
REMARK SMILES IDX 60 87 63 88 57 89 58 90 61 91 59 92
REMARK H PARENT 4 10 83 45 51 56
REMARK Flexibility Score: inf
ROOT
ATOM      1  C   UNL     1      -0.516   2.583   5.884  1.00  0.00     0.274 C 
ENDROOT
BRANCH   1   2
ATOM      2  O   UNL     1       0.082   2.711   4.583  1.00  0.00    -0.461 OA
BRANCH   2   3
ATOM      3  C   UNL     1       1.303   2.134   4.408  1.00  0.00     0.329 C 
ATOM      4  O   UNL     1       2.006   1.673   5.298  1.00  0.00    -0.250 OA
BRANCH   3   5
ATOM      5  C   UNL     1       1.713   2.129   2.929  1.00  0.00     0.202 C 
BRANCH   5   6
ATOM      6  N   UNL     1       0.548   2.387   2.075  1.00  0.00    -0.342 N 
ATOM      7  C   UNL     1       0.540   0.390   0.582  1.00  0.00     0.114 C 
ATOM      8  C   UNL     1      -0.038   1.689   1.068  1.00  0.00     0.217 C 
ATOM      9  O   UNL     1      -1.037   2.169   0.534  1.00  0.00    -0.275 OA
ATOM     10  H   UNL     1       0.099   3.241   2.273  1.00  0.00     0.164 HD
ENDBRANCH   5   6
BRANCH   5  11
ATOM     11  C   UNL     1       2.910   3.080   2.718  1.00  0.00     0.106 C 
BRANCH  11  12
ATOM     12  S   UNL     1       2.579   4.878   2.573  1.00  0.00    -0.154 SA
BRANCH  12  13
ATOM     13  C   UNL     1       1.780   5.029   0.942  1.00  0.00     0.105 C 
BRANCH  13  14
ATOM     14  C   UNL     1       2.697   5.188  -0.249  1.00  0.00    -0.027 A 
ATOM     15  C   UNL     1       3.013   6.491  -0.654  1.00  0.00     0.025 A 
ATOM     16  C   UNL     1       3.171   4.102  -1.038  1.00  0.00     0.004 A 
ATOM     17  C   UNL     1       3.738   6.671  -1.814  1.00  0.00     0.112 A 
ATOM     18  C   UNL     1       3.922   4.404  -2.197  1.00  0.00     0.070 A 
ATOM     19  C   UNL     1       2.925   2.741  -0.758  1.00  0.00     0.010 A 
ATOM     20  N   UNL     1       4.192   5.661  -2.580  1.00  0.00    -0.256 NA
ATOM     21  C   UNL     1       4.394   3.363  -2.989  1.00  0.00     0.029 A 
ATOM     22  C   UNL     1       3.432   1.709  -1.545  1.00  0.00     0.001 A 
ATOM     23  C   UNL     1       4.169   2.022  -2.671  1.00  0.00     0.002 A 
ENDBRANCH  13  14
ENDBRANCH  12  13
ENDBRANCH  11  12
ENDBRANCH   5  11
ENDBRANCH   3   5
ENDBRANCH   2   3
ENDBRANCH   1   2
BRANCH   1  24
ATOM     24  C   UNL     1      -1.671   1.587   5.804  1.00  0.00     0.275 C 
BRANCH  24  25
ATOM     25  O   UNL     1      -1.169   0.294   5.410  1.00  0.00    -0.458 OA
BRANCH  25  26
ATOM     26  C   UNL     1      -1.579  -0.146   4.200  1.00  0.00     0.338 C 
ATOM     27  O   UNL     1      -2.342   0.400   3.420  1.00  0.00    -0.246 OA
BRANCH  26  28
ATOM     28  C   UNL     1      -0.924  -1.423   3.892  1.00  0.00     0.060 A 
ATOM     29  C   UNL     1       0.411  -1.423   3.494  1.00  0.00     0.016 A 
ATOM     30  C   UNL     1      -1.667  -2.600   3.868  1.00  0.00     0.016 A 
ATOM     31  C   UNL     1       0.994  -2.588   3.000  1.00  0.00     0.010 A 
ATOM     32  C   UNL     1      -1.052  -3.790   3.464  1.00  0.00     0.010 A 
ATOM     33  C   UNL     1       0.278  -3.793   3.007  1.00  0.00    -0.014 A 
BRANCH  33  34
ATOM     34  C   UNL     1       0.923  -5.056   2.559  1.00  0.00     0.031 A 
ATOM     35  C   UNL     1       0.355  -5.836   1.405  1.00  0.00     0.074 A 
ATOM     36  C   UNL     1       2.013  -5.518   3.204  1.00  0.00     0.049 A 
ATOM     37  N   UNL     1       0.645  -7.048   1.002  1.00  0.00    -0.248 NA
ATOM     38  C   UNL     1      -0.680  -5.168   0.601  1.00  0.00     0.031 C 
ATOM     39  C   UNL     1       2.692  -4.840   4.310  1.00  0.00     0.029 A 
ATOM     40  N   UNL     1       2.738  -6.670   3.027  1.00  0.00    -0.354 N 
ATOM     41  C   UNL     1      -0.205  -7.307  -0.065  1.00  0.00     0.074 A 
ATOM     42  C   UNL     1      -1.018  -6.124  -0.254  1.00  0.00     0.031 C 
ATOM     43  C   UNL     1       3.744  -5.575   4.698  1.00  0.00     0.029 A 
ATOM     44  C   UNL     1       3.761  -6.816   3.932  1.00  0.00     0.049 A 
ATOM     45  H   UNL     1       2.543  -7.328   2.321  1.00  0.00     0.167 HD
ATOM     46  C   UNL     1      -0.300  -8.434  -0.811  1.00  0.00     0.037 A 
ATOM     47  C   UNL     1       4.588  -7.853   4.161  1.00  0.00     0.037 A 
ATOM     48  C   UNL     1       0.541  -9.592  -0.645  1.00  0.00     0.049 A 
ATOM     49  C   UNL     1       4.434  -9.106   3.349  1.00  0.00     0.074 A 
ATOM     50  C   UNL     1       0.535 -10.775  -1.365  1.00  0.00     0.029 A 
ATOM     51  N   UNL     1       1.546  -9.709   0.303  1.00  0.00    -0.354 N 
ATOM     52  N   UNL     1       3.593  -9.362   2.378  1.00  0.00    -0.248 NA
ATOM     53  C   UNL     1       5.329 -10.223   3.682  1.00  0.00     0.031 C 
ATOM     54  C   UNL     1       1.514 -11.620  -0.830  1.00  0.00     0.029 A 
ATOM     55  C   UNL     1       2.156 -10.948   0.197  1.00  0.00     0.049 A 
ATOM     56  H   UNL     1       1.790  -9.013   0.956  1.00  0.00     0.167 HD
ATOM     57  C   UNL     1       3.858 -10.664   1.980  1.00  0.00     0.074 A 
ATOM     58  C   UNL     1       4.954 -11.138   2.799  1.00  0.00     0.031 C 
ATOM     59  C   UNL     1       3.242 -11.404   1.026  1.00  0.00     0.037 A 
BRANCH  46  60
ATOM     60  C   UNL     1      -1.373  -8.489  -1.857  1.00  0.00     0.064 A 
ATOM     61  C   UNL     1      -1.272  -7.780  -3.062  1.00  0.00     0.173 A 
ATOM     62  C   UNL     1      -2.500  -9.305  -1.668  1.00  0.00     0.173 A 
ATOM     63  F   UNL     1      -0.221  -6.977  -3.286  1.00  0.00    -0.203 F 
ATOM     64  C   UNL     1      -2.269  -7.870  -4.032  1.00  0.00     0.198 A 
ATOM     65  C   UNL     1      -3.483  -9.411  -2.648  1.00  0.00     0.198 A 
ATOM     66  F   UNL     1      -2.642 -10.008  -0.534  1.00  0.00    -0.203 F 
ATOM     67  F   UNL     1      -2.169  -7.157  -5.162  1.00  0.00    -0.200 F 
ATOM     68  C   UNL     1      -3.369  -8.691  -3.827  1.00  0.00     0.200 A 
ATOM     69  F   UNL     1      -4.539 -10.213  -2.453  1.00  0.00    -0.200 F 
ATOM     70  F   UNL     1      -4.322  -8.782  -4.765  1.00  0.00    -0.200 F 
ENDBRANCH  46  60
BRANCH  47  71
ATOM     71  C   UNL     1       5.600  -7.761   5.245  1.00  0.00     0.064 A 
ATOM     72  C   UNL     1       6.966  -7.680   4.948  1.00  0.00     0.173 A 
ATOM     73  C   UNL     1       5.220  -7.735   6.595  1.00  0.00     0.173 A 
ATOM     74  F   UNL     1       7.378  -7.727   3.673  1.00  0.00    -0.203 F 
ATOM     75  C   UNL     1       7.916  -7.581   5.963  1.00  0.00     0.198 A 
ATOM     76  C   UNL     1       6.168  -7.606   7.607  1.00  0.00     0.198 A 
ATOM     77  F   UNL     1       3.923  -7.809   6.930  1.00  0.00    -0.203 F 
ATOM     78  F   UNL     1       9.219  -7.538   5.655  1.00  0.00    -0.200 F 
ATOM     79  C   UNL     1       7.516  -7.535   7.290  1.00  0.00     0.200 A 
ATOM     80  F   UNL     1       5.775  -7.546   8.886  1.00  0.00    -0.200 F 
ATOM     81  F   UNL     1       8.429  -7.426   8.264  1.00  0.00    -0.200 F 
ENDBRANCH  47  71
BRANCH  59  82
ATOM     82  C   UNL     1       3.756 -12.795   0.810  1.00  0.00     0.064 A 
ATOM     83  C   UNL     1       3.474 -13.826   1.717  1.00  0.00     0.173 A 
ATOM     84  C   UNL     1       4.519 -13.104  -0.325  1.00  0.00     0.173 A 
ATOM     85  F   UNL     1       2.764 -13.573   2.827  1.00  0.00    -0.203 F 
ATOM     86  C   UNL     1       3.958 -15.114   1.506  1.00  0.00     0.198 A 
ATOM     87  C   UNL     1       4.981 -14.398  -0.545  1.00  0.00     0.198 A 
ATOM     88  F   UNL     1       4.813 -12.150  -1.222  1.00  0.00    -0.203 F 
ATOM     89  F   UNL     1       3.714 -16.076   2.408  1.00  0.00    -0.200 F 
ATOM     90  C   UNL     1       4.706 -15.400   0.374  1.00  0.00     0.200 A 
ATOM     91  F   UNL     1       5.699 -14.675  -1.643  1.00  0.00    -0.200 F 
ATOM     92  F   UNL     1       5.170 -16.641   0.172  1.00  0.00    -0.200 F 
ENDBRANCH  59  82
ENDBRANCH  33  34
ENDBRANCH  26  28
ENDBRANCH  25  26
ENDBRANCH  24  25
ENDBRANCH   1  24
TORSDOF 16
