REMARK SMILES O=C(OCCOC(=O)c1cc(SCC(=O)N2CCOCC2)ccn1)c1ccc(-c2c3nc(c(-c4c(F)c(F)c(F)c(F)c4F)c4ccc([nH]4)c(-c4c(F)c(F)c(F)c(F)c4F)c4nc(c(-c5c(F)c(F)c(F)c(F)c5F)c5ccc2[nH]5)C=C4)C=C3)cc1
REMARK SMILES IDX 5 1 4 2 3 3 2 4 1 5 25 6 26 7 87 8 27 9 86 10 28 11 29 12
REMARK SMILES IDX 30 13 80 14 31 15 85 16 79 17 81 18 32 19 84 20 78 21 77 22
REMARK SMILES IDX 33 24 65 25 45 26 64 27 46 28 49 29 63 30 82 31 47 32 48 33
REMARK SMILES IDX 62 35 83 36 50 37 34 38 35 39 43 40 36 41 37 42 41 43 44 44
REMARK SMILES IDX 38 45 39 46 42 47 40 48 66 49 67 50 75 51 68 52 69 53 73 54
REMARK SMILES IDX 76 55 70 56 71 57 74 58 72 59 51 60 52 61 60 62 53 63 54 64
REMARK SMILES IDX 58 65 61 66 55 67 56 68 59 69 57 70 6 71 7 72 8 73 9 74
REMARK SMILES IDX 10 75 24 76 11 77 23 78 22 79 12 80 13 81 14 82 15 83 16 84
REMARK SMILES IDX 17 85 21 86 18 87 20 88 19 89
REMARK H PARENT 81 23 49 34
REMARK Flexibility Score: inf
ROOT
ATOM      1  C   UNL     1       4.062   0.302  -2.484  1.00  0.00     0.275 C 
ENDROOT
BRANCH   1   2
ATOM      2  C   UNL     1       3.987  -0.996  -1.673  1.00  0.00     0.275 C 
BRANCH   2   3
ATOM      3  O   UNL     1       2.720  -1.135  -0.996  1.00  0.00    -0.458 OA
BRANCH   3   4
ATOM      4  C   UNL     1       2.514  -1.170   0.344  1.00  0.00     0.338 C 
ATOM      5  O   UNL     1       1.716  -1.974   0.822  1.00  0.00    -0.246 OA
BRANCH   4   6
ATOM      6  C   UNL     1       3.078  -0.125   1.257  1.00  0.00     0.060 A 
ATOM      7  C   UNL     1       4.367   0.386   1.173  1.00  0.00     0.016 A 
ATOM      8  C   UNL     1       2.273   0.296   2.342  1.00  0.00     0.016 A 
ATOM      9  C   UNL     1       4.834   1.275   2.137  1.00  0.00     0.010 A 
ATOM     10  C   UNL     1       2.743   1.202   3.313  1.00  0.00     0.010 A 
ATOM     11  C   UNL     1       4.037   1.694   3.214  1.00  0.00    -0.014 A 
BRANCH  11  12
ATOM     12  C   UNL     1       4.730   2.502   4.223  1.00  0.00     0.031 A 
ATOM     13  C   UNL     1       5.605   1.848   5.306  1.00  0.00     0.074 A 
ATOM     14  C   UNL     1       4.979   3.802   3.973  1.00  0.00     0.049 A 
ATOM     15  N   UNL     1       6.475   2.404   6.126  1.00  0.00    -0.248 NA
ATOM     16  C   UNL     1       5.406   0.426   5.575  1.00  0.00     0.031 C 
ATOM     17  C   UNL     1       3.955   5.306   3.409  1.00  0.00     0.029 A 
ATOM     18  N   UNL     1       6.494   4.510   4.566  1.00  0.00    -0.354 N 
ATOM     19  C   UNL     1       6.904   1.460   7.040  1.00  0.00     0.074 A 
ATOM     20  C   UNL     1       6.196   0.241   6.631  1.00  0.00     0.031 C 
ATOM     21  C   UNL     1       4.785   6.739   3.553  1.00  0.00     0.029 A 
ATOM     22  C   UNL     1       6.537   6.454   4.386  1.00  0.00     0.049 A 
ATOM     23  H   UNL     1       7.233   3.980   4.945  1.00  0.00     0.167 HD
ATOM     24  C   UNL     1       7.727   1.566   8.135  1.00  0.00     0.037 A 
ATOM     25  C   UNL     1       7.267   7.546   4.864  1.00  0.00     0.037 A 
ATOM     26  C   UNL     1       8.468   2.709   8.719  1.00  0.00     0.049 A 
ATOM     27  C   UNL     1       8.309   7.606   6.022  1.00  0.00     0.074 A 
ATOM     28  C   UNL     1       9.139   2.741   9.942  1.00  0.00     0.029 A 
ATOM     29  N   UNL     1       8.722   3.975   8.180  1.00  0.00    -0.354 N 
ATOM     30  N   UNL     1       8.523   6.670   6.894  1.00  0.00    -0.248 NA
ATOM     31  C   UNL     1       9.133   8.783   6.340  1.00  0.00     0.031 C 
ATOM     32  C   UNL     1       9.718   4.010  10.147  1.00  0.00     0.029 A 
ATOM     33  C   UNL     1       9.455   4.808   9.046  1.00  0.00     0.049 A 
ATOM     34  H   UNL     1       8.418   4.255   7.287  1.00  0.00     0.167 HD
ATOM     35  C   UNL     1       9.464   7.011   7.794  1.00  0.00     0.074 A 
ATOM     36  C   UNL     1       9.814   8.372   7.425  1.00  0.00     0.031 C 
ATOM     37  C   UNL     1       9.892   6.199   8.796  1.00  0.00     0.037 A 
BRANCH  24  38
ATOM     38  C   UNL     1       7.790   0.286   8.934  1.00  0.00     0.064 A 
ATOM     39  C   UNL     1       8.577  -0.803   8.529  1.00  0.00     0.173 A 
ATOM     40  C   UNL     1       7.008   0.144  10.094  1.00  0.00     0.173 A 
ATOM     41  F   UNL     1       9.310  -0.725   7.409  1.00  0.00    -0.203 F 
ATOM     42  C   UNL     1       8.554  -2.001   9.239  1.00  0.00     0.198 A 
ATOM     43  C   UNL     1       7.011  -1.046  10.816  1.00  0.00     0.198 A 
ATOM     44  F   UNL     1       6.236   1.156  10.517  1.00  0.00    -0.203 F 
ATOM     45  F   UNL     1       9.262  -3.051   8.801  1.00  0.00    -0.200 F 
ATOM     46  C   UNL     1       7.774  -2.120  10.382  1.00  0.00     0.200 A 
ATOM     47  F   UNL     1       6.260  -1.158  11.921  1.00  0.00    -0.200 F 
ATOM     48  F   UNL     1       7.745  -3.278  11.056  1.00  0.00    -0.200 F 
ENDBRANCH  24  38
BRANCH  25  49
ATOM     49  C   UNL     1       7.146   8.788   4.059  1.00  0.00     0.064 A 
ATOM     50  C   UNL     1       8.164   9.074   3.131  1.00  0.00     0.173 A 
ATOM     51  C   UNL     1       6.101   9.704   4.187  1.00  0.00     0.173 A 
ATOM     52  F   UNL     1       9.205   8.236   3.004  1.00  0.00    -0.203 F 
ATOM     53  C   UNL     1       8.135  10.231   2.359  1.00  0.00     0.198 A 
ATOM     54  C   UNL     1       6.056  10.848   3.390  1.00  0.00     0.198 A 
ATOM     55  F   UNL     1       5.118   9.480   5.071  1.00  0.00    -0.203 F 
ATOM     56  F   UNL     1       9.139  10.491   1.510  1.00  0.00    -0.200 F 
ATOM     57  C   UNL     1       7.074  11.113   2.482  1.00  0.00     0.200 A 
ATOM     58  F   UNL     1       5.024  11.697   3.503  1.00  0.00    -0.200 F 
ATOM     59  F   UNL     1       7.035  12.222   1.731  1.00  0.00    -0.200 F 
ENDBRANCH  25  49
BRANCH  37  60
ATOM     60  C   UNL     1      10.851   6.825   9.750  1.00  0.00     0.064 A 
ATOM     61  C   UNL     1      10.412   7.758  10.701  1.00  0.00     0.173 A 
ATOM     62  C   UNL     1      12.203   6.460   9.756  1.00  0.00     0.173 A 
ATOM     63  F   UNL     1       9.126   8.141  10.728  1.00  0.00    -0.203 F 
ATOM     64  C   UNL     1      11.297   8.315  11.618  1.00  0.00     0.198 A 
ATOM     65  C   UNL     1      13.084   7.011  10.682  1.00  0.00     0.198 A 
ATOM     66  F   UNL     1      12.668   5.571   8.865  1.00  0.00    -0.203 F 
ATOM     67  F   UNL     1      10.861   9.221  12.504  1.00  0.00    -0.200 F 
ATOM     68  C   UNL     1      12.632   7.938  11.611  1.00  0.00     0.200 A 
ATOM     69  F   UNL     1      14.374   6.646  10.677  1.00  0.00    -0.200 F 
ATOM     70  F   UNL     1      13.484   8.474  12.495  1.00  0.00    -0.200 F 
ENDBRANCH  37  60
ENDBRANCH  11  12
ENDBRANCH   4   6
ENDBRANCH   3   4
ENDBRANCH   2   3
ENDBRANCH   1   2
BRANCH   1  71
ATOM     71  O   UNL     1       3.757   1.453  -1.681  1.00  0.00    -0.457 OA
BRANCH  71  72
ATOM     72  C   UNL     1       2.448   1.824  -1.709  1.00  0.00     0.357 C 
ATOM     73  O   UNL     1       1.577   1.338  -2.414  1.00  0.00    -0.244 OA
BRANCH  72  74
ATOM     74  C   UNL     1       2.194   2.882  -0.695  1.00  0.00     0.149 A 
ATOM     75  C   UNL     1       3.031   3.991  -0.582  1.00  0.00     0.051 A 
ATOM     76  N   UNL     1       1.043   2.719   0.012  1.00  0.00    -0.249 NA
ATOM     77  C   UNL     1       2.639   5.008   0.282  1.00  0.00     0.012 A 
ATOM     78  C   UNL     1       0.693   3.710   0.843  1.00  0.00     0.113 A 
ATOM     79  C   UNL     1       1.433   4.869   0.984  1.00  0.00     0.035 A 
BRANCH  77  80
ATOM     80  S   UNL     1       3.487   6.575   0.451  1.00  0.00    -0.116 SA
BRANCH  80  81
ATOM     81  C   UNL     1       5.255   6.178   0.732  1.00  0.00     0.175 C 
BRANCH  81  82
ATOM     82  C   UNL     1       5.577   4.989   1.648  1.00  0.00     0.233 C 
ATOM     83  O   UNL     1       5.791   3.889   1.121  1.00  0.00    -0.274 OA
ATOM     84  N   UNL     1       5.985   5.282   3.065  1.00  0.00    -0.337 N 
ATOM     85  C   UNL     1       5.117   5.478   5.064  1.00  0.00     0.148 C 
ATOM     86  C   UNL     1       7.740   4.977   2.978  1.00  0.00     0.148 C 
ATOM     87  C   UNL     1       6.403   5.269   6.447  1.00  0.00     0.181 C 
ATOM     88  C   UNL     1       8.647   4.993   4.486  1.00  0.00     0.181 C 
ATOM     89  O   UNL     1       7.962   4.708   5.931  1.00  0.00    -0.378 OA
ENDBRANCH  81  82
ENDBRANCH  80  81
ENDBRANCH  77  80
ENDBRANCH  72  74
ENDBRANCH  71  72
ENDBRANCH   1  71
TORSDOF 14
