REMARK SMILES CC[C@H](C)[C@@H](Nc1ccc(Cl)c(Br)c1)C(=O)OCCOC(=O)c1ccc(-c2c3nc(c(-c4c(F)c(F)c(F)c(F)c4F)c4ccc([nH]4)c(-c4c(F)c(F)c(F)c(F)c4F)c4nc(c(-c5c(F)c(F)c(F)c(F)c5F)c5ccc2[nH]5)C=C4)C=C3)cc1
REMARK SMILES IDX 18 1 17 2 15 3 16 4 5 5 3 6 4 7 2 8 1 9 6 10 7 12 8 13 14 14
REMARK SMILES IDX 9 15 12 16 10 17 13 18 11 19 19 20 20 21 21 22 22 23 23 24
REMARK SMILES IDX 24 25 85 26 25 27 84 28 26 29 27 30 28 31 78 32 29 33 83 34
REMARK SMILES IDX 77 35 79 36 30 37 82 38 76 39 75 40 31 42 63 43 43 44 62 45
REMARK SMILES IDX 44 46 47 47 61 48 80 49 45 50 46 51 60 53 81 54 48 55 32 56
REMARK SMILES IDX 33 57 41 58 34 59 35 60 39 61 42 62 36 63 37 64 40 65 38 66
REMARK SMILES IDX 64 67 65 68 73 69 66 70 67 71 71 72 74 73 68 74 69 75 72 76
REMARK SMILES IDX 70 77 49 78 50 79 58 80 51 81 52 82 56 83 59 84 53 85 54 86
REMARK SMILES IDX 57 87 55 88
REMARK H PARENT 6 11 79 41 47 52
REMARK Flexibility Score: inf
ROOT
ATOM      1  C   UNL     1       2.703   5.365  -3.030  1.00  0.00     0.274 C 
ENDROOT
BRANCH   1   2
ATOM      2  O   UNL     1       2.319   4.420  -2.009  1.00  0.00    -0.461 OA
BRANCH   2   3
ATOM      3  C   UNL     1       1.132   4.683  -1.397  1.00  0.00     0.328 C 
ATOM      4  O   UNL     1       0.367   5.585  -1.732  1.00  0.00    -0.250 OA
BRANCH   3   5
ATOM      5  C   UNL     1       0.859   3.799  -0.161  1.00  0.00     0.192 C 
BRANCH   5   6
ATOM      6  C   UNL     1       1.164   2.275  -0.347  1.00  0.00     0.019 C 
ATOM      7  C   UNL     1       0.578   1.482   0.841  1.00  0.00     0.010 C 
BRANCH   6   8
ATOM      8  C   UNL     1       0.671   1.721  -1.700  1.00  0.00     0.002 C 
ATOM      9  C   UNL     1       0.903   0.230  -1.921  1.00  0.00     0.004 C 
ENDBRANCH   6   8
ENDBRANCH   5   6
BRANCH   5  10
ATOM     10  N   UNL     1       1.537   4.280   1.069  1.00  0.00    -0.372 N 
ATOM     11  H   UNL     1       1.496   3.704   1.867  1.00  0.00     0.161 HD
BRANCH  10  12
ATOM     12  C   UNL     1       2.221   5.475   1.178  1.00  0.00     0.036 A 
ATOM     13  C   UNL     1       1.699   6.696   0.746  1.00  0.00     0.027 A 
ATOM     14  C   UNL     1       3.542   5.450   1.636  1.00  0.00     0.043 A 
ATOM     15  C   UNL     1       2.490   7.848   0.708  1.00  0.00     0.024 A 
ATOM     16  C   UNL     1       4.342   6.599   1.611  1.00  0.00     0.038 A 
ATOM     17  C   UNL     1       3.819   7.799   1.127  1.00  0.00     0.055 A 
ATOM     18  Br  UNL     1       6.133   6.426   2.218  1.00  0.00    -0.049 Br
ATOM     19  Cl  UNL     1       4.753   9.245   1.001  1.00  0.00    -0.083 Cl
ENDBRANCH  10  12
ENDBRANCH   5  10
ENDBRANCH   3   5
ENDBRANCH   2   3
ENDBRANCH   1   2
BRANCH   1  20
ATOM     20  C   UNL     1       2.144   5.018  -4.415  1.00  0.00     0.275 C 
BRANCH  20  21
ATOM     21  O   UNL     1       0.717   5.203  -4.463  1.00  0.00    -0.458 OA
BRANCH  21  22
ATOM     22  C   UNL     1      -0.028   4.079  -4.566  1.00  0.00     0.338 C 
ATOM     23  O   UNL     1       0.362   2.936  -4.727  1.00  0.00    -0.246 OA
BRANCH  22  24
ATOM     24  C   UNL     1      -1.444   4.415  -4.358  1.00  0.00     0.060 A 
ATOM     25  C   UNL     1      -2.217   4.878  -5.419  1.00  0.00     0.016 A 
ATOM     26  C   UNL     1      -2.024   4.176  -3.108  1.00  0.00     0.016 A 
ATOM     27  C   UNL     1      -3.578   5.118  -5.215  1.00  0.00     0.010 A 
ATOM     28  C   UNL     1      -3.381   4.407  -2.904  1.00  0.00     0.010 A 
ATOM     29  C   UNL     1      -4.166   4.882  -3.958  1.00  0.00    -0.014 A 
BRANCH  29  30
ATOM     30  C   UNL     1      -5.620   5.075  -3.769  1.00  0.00     0.031 A 
ATOM     31  C   UNL     1      -6.147   6.286  -3.062  1.00  0.00     0.074 A 
ATOM     32  C   UNL     1      -6.462   4.141  -4.250  1.00  0.00     0.049 A 
ATOM     33  N   UNL     1      -7.385   6.692  -2.941  1.00  0.00    -0.248 NA
ATOM     34  C   UNL     1      -5.161   7.151  -2.396  1.00  0.00     0.031 C 
ATOM     35  C   UNL     1      -6.051   2.892  -4.892  1.00  0.00     0.029 A 
ATOM     36  N   UNL     1      -7.832   4.106  -4.291  1.00  0.00    -0.354 N 
ATOM     37  C   UNL     1      -7.324   7.877  -2.222  1.00  0.00     0.074 A 
ATOM     38  C   UNL     1      -5.936   8.092  -1.873  1.00  0.00     0.031 C 
ATOM     39  C   UNL     1      -7.145   2.232  -5.304  1.00  0.00     0.029 A 
ATOM     40  C   UNL     1      -8.330   3.010  -4.951  1.00  0.00     0.049 A 
ATOM     41  H   UNL     1      -8.403   4.798  -3.886  1.00  0.00     0.167 HD
ATOM     42  C   UNL     1      -8.337   8.721  -1.915  1.00  0.00     0.037 A 
ATOM     43  C   UNL     1      -9.599   2.689  -5.264  1.00  0.00     0.037 A 
ATOM     44  C   UNL     1      -9.716   8.489  -2.257  1.00  0.00     0.049 A 
ATOM     45  C   UNL     1     -10.705   3.639  -4.893  1.00  0.00     0.074 A 
ATOM     46  C   UNL     1     -10.812   9.299  -2.018  1.00  0.00     0.029 A 
ATOM     47  N   UNL     1     -10.187   7.358  -2.907  1.00  0.00    -0.354 N 
ATOM     48  N   UNL     1     -10.628   4.805  -4.301  1.00  0.00    -0.248 NA
ATOM     49  C   UNL     1     -12.072   3.233  -5.248  1.00  0.00     0.031 C 
ATOM     50  C   UNL     1     -11.952   8.642  -2.493  1.00  0.00     0.029 A 
ATOM     51  C   UNL     1     -11.561   7.441  -3.062  1.00  0.00     0.049 A 
ATOM     52  H   UNL     1      -9.628   6.607  -3.213  1.00  0.00     0.167 HD
ATOM     53  C   UNL     1     -11.928   5.284  -4.233  1.00  0.00     0.074 A 
ATOM     54  C   UNL     1     -12.774   4.290  -4.860  1.00  0.00     0.031 C 
ATOM     55  C   UNL     1     -12.382   6.443  -3.696  1.00  0.00     0.037 A 
BRANCH  42  56
ATOM     56  C   UNL     1      -7.996   9.998  -1.207  1.00  0.00     0.064 A 
ATOM     57  C   UNL     1      -7.369  11.052  -1.889  1.00  0.00     0.173 A 
ATOM     58  C   UNL     1      -8.385  10.213   0.122  1.00  0.00     0.173 A 
ATOM     59  F   UNL     1      -6.974  10.893  -3.161  1.00  0.00    -0.203 F 
ATOM     60  C   UNL     1      -7.141  12.274  -1.263  1.00  0.00     0.198 A 
ATOM     61  C   UNL     1      -8.173  11.444   0.739  1.00  0.00     0.198 A 
ATOM     62  F   UNL     1      -8.995   9.239   0.815  1.00  0.00    -0.203 F 
ATOM     63  F   UNL     1      -6.527  13.262  -1.929  1.00  0.00    -0.200 F 
ATOM     64  C   UNL     1      -7.552  12.473   0.046  1.00  0.00     0.200 A 
ATOM     65  F   UNL     1      -8.584  11.640   2.000  1.00  0.00    -0.200 F 
ATOM     66  F   UNL     1      -7.352  13.657   0.640  1.00  0.00    -0.200 F 
ENDBRANCH  42  56
BRANCH  43  67
ATOM     67  C   UNL     1      -9.881   1.449  -6.030  1.00  0.00     0.064 A 
ATOM     68  C   UNL     1     -10.301   1.514  -7.366  1.00  0.00     0.173 A 
ATOM     69  C   UNL     1      -9.731   0.181  -5.451  1.00  0.00     0.173 A 
ATOM     70  F   UNL     1     -10.473   2.705  -7.956  1.00  0.00    -0.203 F 
ATOM     71  C   UNL     1     -10.578   0.356  -8.089  1.00  0.00     0.198 A 
ATOM     72  C   UNL     1      -9.985  -0.977  -6.184  1.00  0.00     0.198 A 
ATOM     73  F   UNL     1      -9.326   0.067  -4.178  1.00  0.00    -0.203 F 
ATOM     74  F   UNL     1     -11.015   0.447  -9.353  1.00  0.00    -0.200 F 
ATOM     75  C   UNL     1     -10.415  -0.888  -7.499  1.00  0.00     0.200 A 
ATOM     76  F   UNL     1      -9.815  -2.178  -5.614  1.00  0.00    -0.200 F 
ATOM     77  F   UNL     1     -10.678  -2.002  -8.197  1.00  0.00    -0.200 F 
ENDBRANCH  43  67
BRANCH  55  78
ATOM     78  C   UNL     1     -13.856   6.707  -3.771  1.00  0.00     0.064 A 
ATOM     79  C   UNL     1     -14.761   6.024  -2.948  1.00  0.00     0.173 A 
ATOM     80  C   UNL     1     -14.358   7.700  -4.625  1.00  0.00     0.173 A 
ATOM     81  F   UNL     1     -14.328   5.057  -2.125  1.00  0.00    -0.203 F 
ATOM     82  C   UNL     1     -16.121   6.316  -2.986  1.00  0.00     0.198 A 
ATOM     83  C   UNL     1     -15.716   8.008  -4.642  1.00  0.00     0.198 A 
ATOM     84  F   UNL     1     -13.530   8.386  -5.426  1.00  0.00    -0.203 F 
ATOM     85  F   UNL     1     -16.974   5.629  -2.214  1.00  0.00    -0.200 F 
ATOM     86  C   UNL     1     -16.596   7.313  -3.826  1.00  0.00     0.200 A 
ATOM     87  F   UNL     1     -16.171   8.980  -5.444  1.00  0.00    -0.200 F 
ATOM     88  F   UNL     1     -17.904   7.603  -3.851  1.00  0.00    -0.200 F 
ENDBRANCH  55  78
ENDBRANCH  29  30
ENDBRANCH  22  24
ENDBRANCH  21  22
ENDBRANCH  20  21
ENDBRANCH   1  20
TORSDOF 15
