REMARK SMILES Cc1cccc(-n2ncc(C(=O)Nc3cccc(C(=O)OCCOC(=O)c4ccc(-c5c6nc(c(-c7c(F)c(F)c(F)c(F)c7F)c7ccc([nH]7)c(-c7c(F)c(F)c(F)c(F)c7F)c7nc(c(-c8c(F)c(F)c(F)c(F)c8F)c8ccc5[nH]8)C=C7)C=C6)cc4)c3C)c2C)c1
REMARK SMILES IDX 22 1 21 2 19 3 20 4 18 5 14 6 15 7 90 8 16 9 91 10 17 11
REMARK SMILES IDX 13 12 11 13 12 14 10 16 7 17 8 18 92 19 9 20 93 21 6 22 1 23
REMARK SMILES IDX 2 24 3 25 94 26 4 27 5 28 23 29 24 30 25 31 26 32 27 33
REMARK SMILES IDX 28 34 89 35 29 36 88 37 30 38 31 39 32 40 82 41 33 42 87 43
REMARK SMILES IDX 81 44 83 45 34 46 86 47 80 48 79 49 35 51 67 52 47 53 66 54
REMARK SMILES IDX 48 55 51 56 65 57 84 58 49 59 50 60 64 62 85 63 52 64 36 65
REMARK SMILES IDX 37 66 45 67 38 68 39 69 43 70 46 71 40 72 41 73 44 74 42 75
REMARK SMILES IDX 68 76 69 77 77 78 70 79 71 80 75 81 78 82 72 83 73 84 76 85
REMARK SMILES IDX 74 86 53 87 54 88 62 89 55 90 56 91 60 92 63 93 57 94 58 95
REMARK SMILES IDX 61 96 59 97
REMARK H PARENT 13 15 83 50 51 61
REMARK Flexibility Score: inf
ROOT
ATOM      1  C   UNL     1      -3.011  11.053  -4.201  1.00  0.00     0.275 C 
ENDROOT
BRANCH   1   2
ATOM      2  O   UNL     1      -3.155   9.888  -3.383  1.00  0.00    -0.458 OA
BRANCH   2   3
ATOM      3  C   UNL     1      -4.415   9.480  -3.078  1.00  0.00     0.338 C 
ATOM      4  O   UNL     1      -5.439  10.080  -3.253  1.00  0.00    -0.246 OA
BRANCH   3   5
ATOM      5  C   UNL     1      -4.316   8.071  -2.611  1.00  0.00     0.065 A 
ATOM      6  C   UNL     1      -4.561   6.257  -1.022  1.00  0.00     0.045 A 
ATOM      7  C   UNL     1      -4.199   5.356  -2.032  1.00  0.00     0.026 A 
ATOM      8  C   UNL     1      -4.720   7.630  -1.331  1.00  0.00    -0.013 A 
ATOM      9  C   UNL     1      -3.814   5.805  -3.291  1.00  0.00     0.003 A 
ATOM     10  C   UNL     1      -5.290   8.571  -0.301  1.00  0.00     0.047 C 
ATOM     11  C   UNL     1      -3.836   7.163  -3.568  1.00  0.00     0.016 A 
BRANCH   6  12
ATOM     12  N   UNL     1      -4.797   5.810   0.294  1.00  0.00    -0.322 N 
ATOM     13  C   UNL     1      -4.329   4.719   1.000  1.00  0.00     0.259 C 
ATOM     14  O   UNL     1      -4.920   4.426   2.041  1.00  0.00    -0.269 OA
ATOM     15  H   UNL     1      -5.411   6.384   0.806  1.00  0.00     0.170 HD
BRANCH  13  16
ATOM     16  C   UNL     1      -3.131   3.994   0.584  1.00  0.00     0.081 A 
ATOM     17  N   UNL     1      -1.611   2.389   0.289  1.00  0.00    -0.237 N 
ATOM     18  N   UNL     1      -1.085   3.484  -0.317  1.00  0.00    -0.175 NA
ATOM     19  C   UNL     1      -2.752   2.721   1.006  1.00  0.00     0.054 A 
ATOM     20  C   UNL     1      -2.012   4.426  -0.159  1.00  0.00     0.149 A 
ATOM     21  C   UNL     1      -3.320   1.898   2.112  1.00  0.00     0.068 C 
BRANCH  17  22
ATOM     22  C   UNL     1      -0.962   1.133   0.155  1.00  0.00     0.065 A 
ATOM     23  C   UNL     1       2.608  -0.155  -0.145  1.00  0.00     0.044 C 
ATOM     24  C   UNL     1       1.110  -0.118  -0.074  1.00  0.00    -0.049 A 
ATOM     25  C   UNL     1       0.379  -1.311  -0.026  1.00  0.00     0.003 A 
ATOM     26  C   UNL     1       0.429   1.104  -0.019  1.00  0.00     0.031 A 
ATOM     27  C   UNL     1      -1.013  -1.284   0.086  1.00  0.00     0.002 A 
ATOM     28  C   UNL     1      -1.685  -0.065   0.185  1.00  0.00     0.028 A 
ENDBRANCH  17  22
ENDBRANCH  13  16
ENDBRANCH   6  12
ENDBRANCH   3   5
ENDBRANCH   2   3
ENDBRANCH   1   2
BRANCH   1  29
ATOM     29  C   UNL     1      -3.545  12.416  -3.713  1.00  0.00     0.275 C 
BRANCH  29  30
ATOM     30  O   UNL     1      -4.196  12.557  -2.421  1.00  0.00    -0.458 OA
BRANCH  30  31
ATOM     31  C   UNL     1      -3.773  12.189  -1.189  1.00  0.00     0.338 C 
ATOM     32  O   UNL     1      -4.465  12.272  -0.185  1.00  0.00    -0.246 OA
BRANCH  31  33
ATOM     33  C   UNL     1      -2.451  11.576  -1.109  1.00  0.00     0.060 A 
ATOM     34  C   UNL     1      -2.313  10.342  -0.454  1.00  0.00     0.016 A 
ATOM     35  C   UNL     1      -1.403  12.165  -1.800  1.00  0.00     0.016 A 
ATOM     36  C   UNL     1      -1.136   9.632  -0.573  1.00  0.00     0.010 A 
ATOM     37  C   UNL     1      -0.300  11.404  -2.060  1.00  0.00     0.010 A 
ATOM     38  C   UNL     1      -0.147  10.187  -1.379  1.00  0.00    -0.014 A 
BRANCH  38  39
ATOM     39  C   UNL     1       1.240   9.810  -1.244  1.00  0.00     0.031 A 
ATOM     40  C   UNL     1       1.772   8.654  -1.954  1.00  0.00     0.074 A 
ATOM     41  C   UNL     1       1.914  10.715  -0.501  1.00  0.00     0.049 A 
ATOM     42  N   UNL     1       2.774   7.968  -1.541  1.00  0.00    -0.248 NA
ATOM     43  C   UNL     1       1.180   8.130  -3.182  1.00  0.00     0.031 C 
ATOM     44  C   UNL     1       3.324  10.939  -0.275  1.00  0.00     0.029 A 
ATOM     45  N   UNL     1       1.285  11.623   0.379  1.00  0.00    -0.354 N 
ATOM     46  C   UNL     1       3.193   7.204  -2.608  1.00  0.00     0.074 A 
ATOM     47  C   UNL     1       2.076   7.195  -3.524  1.00  0.00     0.031 C 
ATOM     48  C   UNL     1       3.451  11.637   0.875  1.00  0.00     0.029 A 
ATOM     49  C   UNL     1       2.124  11.746   1.484  1.00  0.00     0.049 A 
ATOM     50  H   UNL     1       0.423  12.078   0.239  1.00  0.00     0.167 HD
ATOM     51  C   UNL     1       4.519   6.885  -2.679  1.00  0.00     0.037 A 
ATOM     52  C   UNL     1       1.693  11.133   2.628  1.00  0.00     0.037 A 
ATOM     53  C   UNL     1       5.217   7.424  -1.503  1.00  0.00     0.049 A 
ATOM     54  C   UNL     1       2.510   9.896   2.948  1.00  0.00     0.074 A 
ATOM     55  C   UNL     1       5.936   8.588  -1.281  1.00  0.00     0.029 A 
ATOM     56  N   UNL     1       4.862   6.959  -0.249  1.00  0.00    -0.354 N 
ATOM     57  N   UNL     1       3.340   9.325   2.117  1.00  0.00    -0.248 NA
ATOM     58  C   UNL     1       2.390   9.165   4.205  1.00  0.00     0.031 C 
ATOM     59  C   UNL     1       5.971   8.830   0.126  1.00  0.00     0.029 A 
ATOM     60  C   UNL     1       5.277   7.814   0.757  1.00  0.00     0.049 A 
ATOM     61  H   UNL     1       4.372   6.120  -0.091  1.00  0.00     0.167 HD
ATOM     62  C   UNL     1       3.904   8.234   2.707  1.00  0.00     0.074 A 
ATOM     63  C   UNL     1       3.221   8.134   3.987  1.00  0.00     0.031 C 
ATOM     64  C   UNL     1       4.899   7.498   2.126  1.00  0.00     0.037 A 
BRANCH  51  65
ATOM     65  C   UNL     1       5.232   6.412  -3.929  1.00  0.00     0.064 A 
ATOM     66  C   UNL     1       6.610   6.673  -4.103  1.00  0.00     0.173 A 
ATOM     67  C   UNL     1       4.627   5.732  -5.004  1.00  0.00     0.173 A 
ATOM     68  F   UNL     1       7.348   7.221  -3.129  1.00  0.00    -0.203 F 
ATOM     69  C   UNL     1       7.292   6.382  -5.287  1.00  0.00     0.198 A 
ATOM     70  C   UNL     1       5.301   5.472  -6.205  1.00  0.00     0.198 A 
ATOM     71  F   UNL     1       3.383   5.247  -4.914  1.00  0.00    -0.203 F 
ATOM     72  F   UNL     1       8.597   6.673  -5.390  1.00  0.00    -0.200 F 
ATOM     73  C   UNL     1       6.631   5.808  -6.351  1.00  0.00     0.200 A 
ATOM     74  F   UNL     1       4.649   4.889  -7.222  1.00  0.00    -0.200 F 
ATOM     75  F   UNL     1       7.277   5.556  -7.497  1.00  0.00    -0.200 F 
ENDBRANCH  51  65
BRANCH  52  76
ATOM     76  C   UNL     1       0.213  11.276   2.893  1.00  0.00     0.064 A 
ATOM     77  C   UNL     1      -0.391  12.554   2.797  1.00  0.00     0.173 A 
ATOM     78  C   UNL     1      -0.662  10.188   3.011  1.00  0.00     0.173 A 
ATOM     79  F   UNL     1       0.373  13.653   2.681  1.00  0.00    -0.203 F 
ATOM     80  C   UNL     1      -1.777  12.720   2.739  1.00  0.00     0.198 A 
ATOM     81  C   UNL     1      -2.052  10.360   2.986  1.00  0.00     0.198 A 
ATOM     82  F   UNL     1      -0.194   8.935   3.078  1.00  0.00    -0.203 F 
ATOM     83  F   UNL     1      -2.296  13.941   2.543  1.00  0.00    -0.200 F 
ATOM     84  C   UNL     1      -2.608  11.620   2.831  1.00  0.00     0.200 A 
ATOM     85  F   UNL     1      -2.855   9.287   3.034  1.00  0.00    -0.200 F 
ATOM     86  F   UNL     1      -3.938  11.762   2.740  1.00  0.00    -0.200 F 
ENDBRANCH  52  76
BRANCH  64  87
ATOM     87  C   UNL     1       5.598   6.382   2.845  1.00  0.00     0.064 A 
ATOM     88  C   UNL     1       5.916   6.460   4.210  1.00  0.00     0.173 A 
ATOM     89  C   UNL     1       6.061   5.232   2.171  1.00  0.00     0.173 A 
ATOM     90  F   UNL     1       5.666   7.572   4.918  1.00  0.00    -0.203 F 
ATOM     91  C   UNL     1       6.524   5.402   4.882  1.00  0.00     0.198 A 
ATOM     92  C   UNL     1       6.730   4.207   2.830  1.00  0.00     0.198 A 
ATOM     93  F   UNL     1       5.869   5.049   0.858  1.00  0.00    -0.203 F 
ATOM     94  F   UNL     1       6.715   5.482   6.206  1.00  0.00    -0.200 F 
ATOM     95  C   UNL     1       6.929   4.275   4.192  1.00  0.00     0.200 A 
ATOM     96  F   UNL     1       7.167   3.148   2.134  1.00  0.00    -0.200 F 
ATOM     97  F   UNL     1       7.519   3.261   4.836  1.00  0.00    -0.200 F 
ENDBRANCH  64  87
ENDBRANCH  38  39
ENDBRANCH  31  33
ENDBRANCH  30  31
ENDBRANCH  29  30
ENDBRANCH   1  29
TORSDOF 14
