REMARK SMILES Nc1c(C(=O)OCC2c3ccccc3-c3ccccc32)ccc(F)c1C(=O)OCCOC(=O)c1ccc(-c2c3nc(c(-c4c(F)c(F)c(F)c(F)c4F)c4ccc([nH]4)c(-c4c(F)c(F)c(F)c(F)c4F)c4nc(c(-c5c(F)c(F)c(F)c(F)c5F)c5ccc2[nH]5)C=C4)C=C3)cc1
REMARK SMILES IDX 29 1 28 2 26 3 27 4 25 5 2 6 3 7 21 8 23 9 22 10 24 11 1 12
REMARK SMILES IDX 4 15 5 16 6 17 7 18 8 19 9 20 20 21 10 22 14 23 15 24 19 25
REMARK SMILES IDX 11 26 13 27 16 28 18 29 12 30 17 31 30 32 31 33 32 34 33 35
REMARK SMILES IDX 34 36 35 37 96 38 36 39 95 40 37 41 38 42 39 43 89 44 40 45
REMARK SMILES IDX 94 46 88 47 90 48 41 49 93 50 87 51 86 52 42 54 74 55 54 56
REMARK SMILES IDX 73 57 55 58 58 59 72 60 91 61 56 62 57 63 71 65 92 66 59 67
REMARK SMILES IDX 43 68 44 69 52 70 45 71 46 72 50 73 53 74 47 75 48 76 51 77
REMARK SMILES IDX 49 78 75 79 76 80 84 81 77 82 78 83 82 84 85 85 79 86 80 87
REMARK SMILES IDX 83 88 81 89 60 90 61 91 69 92 62 93 63 94 67 95 70 96 64 97
REMARK SMILES IDX 65 98 68 99 66 100
REMARK H PARENT 1 13 1 14 90 53 58 64
REMARK Flexibility Score: inf
ROOT
ATOM      1  C   UNL     1       0.773   4.457   0.234  1.00  0.00     0.275 C 
ENDROOT
BRANCH   1   2
ATOM      2  O   UNL     1       0.928   3.039   0.020  1.00  0.00    -0.458 OA
BRANCH   2   3
ATOM      3  C   UNL     1       0.259   2.199   0.854  1.00  0.00     0.343 C 
ATOM      4  O   UNL     1      -0.469   2.533   1.772  1.00  0.00    -0.246 OA
BRANCH   3   5
ATOM      5  C   UNL     1       0.472   0.794   0.423  1.00  0.00     0.119 A 
ATOM      6  C   UNL     1       1.713   0.337  -0.074  1.00  0.00     0.064 A 
ATOM      7  C   UNL     1       1.802  -1.024  -0.453  1.00  0.00     0.084 A 
ATOM      8  C   UNL     1       0.678  -1.869  -0.419  1.00  0.00     0.021 A 
ATOM      9  C   UNL     1      -0.608  -0.095   0.542  1.00  0.00     0.139 A 
ATOM     10  C   UNL     1      -0.524  -1.405   0.091  1.00  0.00     0.041 A 
ATOM     11  F   UNL     1      -1.766   0.283   1.099  1.00  0.00    -0.206 F 
BRANCH   6  12
ATOM     12  N   UNL     1       2.839   1.165  -0.064  1.00  0.00    -0.397 N 
ATOM     13  H   UNL     1       3.697   0.832  -0.413  1.00  0.00     0.156 HD
ATOM     14  H   UNL     1       2.774   2.080   0.293  1.00  0.00     0.156 HD
ENDBRANCH   6  12
BRANCH   7  15
ATOM     15  C   UNL     1       3.075  -1.678  -0.840  1.00  0.00     0.340 C 
ATOM     16  O   UNL     1       3.143  -2.608  -1.626  1.00  0.00    -0.246 OA
BRANCH  15  17
ATOM     17  O   UNL     1       4.074  -1.192  -0.059  1.00  0.00    -0.461 OA
BRANCH  17  18
ATOM     18  C   UNL     1       5.256  -1.996   0.011  1.00  0.00     0.246 C 
BRANCH  18  19
ATOM     19  C   UNL     1       5.357  -2.729   1.363  1.00  0.00     0.088 C 
ATOM     20  C   UNL     1       4.115  -3.535   1.732  1.00  0.00    -0.029 A 
ATOM     21  C   UNL     1       6.402  -3.831   1.234  1.00  0.00    -0.029 A 
ATOM     22  C   UNL     1       2.877  -3.071   2.154  1.00  0.00     0.005 A 
ATOM     23  C   UNL     1       4.379  -4.916   1.625  1.00  0.00    -0.014 A 
ATOM     24  C   UNL     1       5.784  -5.098   1.327  1.00  0.00    -0.014 A 
ATOM     25  C   UNL     1       7.761  -3.698   0.992  1.00  0.00     0.005 A 
ATOM     26  C   UNL     1       1.862  -4.002   2.377  1.00  0.00     0.000 A 
ATOM     27  C   UNL     1       3.370  -5.840   1.840  1.00  0.00     0.009 A 
ATOM     28  C   UNL     1       6.531  -6.251   1.162  1.00  0.00     0.009 A 
ATOM     29  C   UNL     1       8.510  -4.862   0.826  1.00  0.00     0.000 A 
ATOM     30  C   UNL     1       2.101  -5.374   2.202  1.00  0.00     0.001 A 
ATOM     31  C   UNL     1       7.900  -6.126   0.905  1.00  0.00     0.001 A 
ENDBRANCH  18  19
ENDBRANCH  17  18
ENDBRANCH  15  17
ENDBRANCH   7  15
ENDBRANCH   3   5
ENDBRANCH   2   3
ENDBRANCH   1   2
BRANCH   1  32
ATOM     32  C   UNL     1       0.124   5.100  -0.991  1.00  0.00     0.275 C 
BRANCH  32  33
ATOM     33  O   UNL     1      -1.251   4.686  -1.081  1.00  0.00    -0.458 OA
BRANCH  33  34
ATOM     34  C   UNL     1      -1.513   3.739  -2.009  1.00  0.00     0.338 C 
ATOM     35  O   UNL     1      -0.753   3.266  -2.836  1.00  0.00    -0.246 OA
BRANCH  34  36
ATOM     36  C   UNL     1      -2.874   3.231  -1.800  1.00  0.00     0.060 A 
ATOM     37  C   UNL     1      -3.051   2.257  -0.824  1.00  0.00     0.016 A 
ATOM     38  C   UNL     1      -3.928   3.588  -2.634  1.00  0.00     0.016 A 
ATOM     39  C   UNL     1      -4.251   1.561  -0.732  1.00  0.00     0.010 A 
ATOM     40  C   UNL     1      -5.168   2.954  -2.475  1.00  0.00     0.010 A 
ATOM     41  C   UNL     1      -5.335   1.906  -1.547  1.00  0.00    -0.014 A 
BRANCH  41  42
ATOM     42  C   UNL     1      -6.614   1.142  -1.462  1.00  0.00     0.031 A 
ATOM     43  C   UNL     1      -7.162   0.450  -2.683  1.00  0.00     0.074 A 
ATOM     44  C   UNL     1      -7.278   1.037  -0.293  1.00  0.00     0.049 A 
ATOM     45  N   UNL     1      -8.337  -0.097  -2.873  1.00  0.00    -0.248 NA
ATOM     46  C   UNL     1      -6.272   0.371  -3.852  1.00  0.00     0.031 C 
ATOM     47  C   UNL     1      -6.841   1.598   0.986  1.00  0.00     0.029 A 
ATOM     48  N   UNL     1      -8.466   0.414   0.011  1.00  0.00    -0.354 N 
ATOM     49  C   UNL     1      -8.348  -0.527  -4.194  1.00  0.00     0.074 A 
ATOM     50  C   UNL     1      -7.064  -0.177  -4.763  1.00  0.00     0.031 C 
ATOM     51  C   UNL     1      -7.725   1.268   1.940  1.00  0.00     0.029 A 
ATOM     52  C   UNL     1      -8.840   0.557   1.326  1.00  0.00     0.049 A 
ATOM     53  H   UNL     1      -8.998  -0.086  -0.649  1.00  0.00     0.167 HD
ATOM     54  C   UNL     1      -9.340  -1.157  -4.869  1.00  0.00     0.037 A 
ATOM     55  C   UNL     1      -9.975   0.204   1.961  1.00  0.00     0.037 A 
ATOM     56  C   UNL     1     -10.594  -1.558  -4.284  1.00  0.00     0.049 A 
ATOM     57  C   UNL     1     -11.077  -0.458   1.181  1.00  0.00     0.074 A 
ATOM     58  C   UNL     1     -11.660  -2.206  -4.884  1.00  0.00     0.029 A 
ATOM     59  N   UNL     1     -10.942  -1.367  -2.955  1.00  0.00    -0.354 N 
ATOM     60  N   UNL     1     -11.106  -0.798  -0.084  1.00  0.00    -0.248 NA
ATOM     61  C   UNL     1     -12.313  -0.767   1.913  1.00  0.00     0.031 C 
ATOM     62  C   UNL     1     -12.667  -2.374  -3.928  1.00  0.00     0.029 A 
ATOM     63  C   UNL     1     -12.210  -1.875  -2.720  1.00  0.00     0.049 A 
ATOM     64  H   UNL     1     -10.372  -0.934  -2.278  1.00  0.00     0.167 HD
ATOM     65  C   UNL     1     -12.351  -1.372  -0.297  1.00  0.00     0.074 A 
ATOM     66  C   UNL     1     -13.041  -1.357   0.976  1.00  0.00     0.031 C 
ATOM     67  C   UNL     1     -12.880  -1.860  -1.445  1.00  0.00     0.037 A 
BRANCH  54  68
ATOM     68  C   UNL     1      -9.130  -1.427  -6.332  1.00  0.00     0.064 A 
ATOM     69  C   UNL     1      -8.243  -2.412  -6.788  1.00  0.00     0.173 A 
ATOM     70  C   UNL     1      -9.873  -0.720  -7.291  1.00  0.00     0.173 A 
ATOM     71  F   UNL     1      -7.500  -3.108  -5.914  1.00  0.00    -0.203 F 
ATOM     72  C   UNL     1      -8.090  -2.663  -8.150  1.00  0.00     0.198 A 
ATOM     73  C   UNL     1      -9.740  -0.994  -8.650  1.00  0.00     0.198 A 
ATOM     74  F   UNL     1     -10.742   0.229  -6.909  1.00  0.00    -0.203 F 
ATOM     75  F   UNL     1      -7.206  -3.581  -8.565  1.00  0.00    -0.200 F 
ATOM     76  C   UNL     1      -8.845  -1.961  -9.078  1.00  0.00     0.200 A 
ATOM     77  F   UNL     1     -10.482  -0.325  -9.543  1.00  0.00    -0.200 F 
ATOM     78  F   UNL     1      -8.706  -2.214 -10.387  1.00  0.00    -0.200 F 
ENDBRANCH  54  68
BRANCH  55  79
ATOM     79  C   UNL     1     -10.150   0.523   3.404  1.00  0.00     0.064 A 
ATOM     80  C   UNL     1     -10.237  -0.491   4.367  1.00  0.00     0.173 A 
ATOM     81  C   UNL     1     -10.246   1.851   3.848  1.00  0.00     0.173 A 
ATOM     82  F   UNL     1     -10.182  -1.778   3.990  1.00  0.00    -0.203 F 
ATOM     83  C   UNL     1     -10.426  -0.191   5.715  1.00  0.00     0.198 A 
ATOM     84  C   UNL     1     -10.399   2.152   5.200  1.00  0.00     0.198 A 
ATOM     85  F   UNL     1     -10.175   2.861   2.969  1.00  0.00    -0.203 F 
ATOM     86  F   UNL     1     -10.557  -1.182   6.607  1.00  0.00    -0.200 F 
ATOM     87  C   UNL     1     -10.498   1.130   6.131  1.00  0.00     0.200 A 
ATOM     88  F   UNL     1     -10.452   3.430   5.598  1.00  0.00    -0.200 F 
ATOM     89  F   UNL     1     -10.673   1.418   7.428  1.00  0.00    -0.200 F 
ENDBRANCH  55  79
BRANCH  67  90
ATOM     90  C   UNL     1     -14.256  -2.452  -1.368  1.00  0.00     0.064 A 
ATOM     91  C   UNL     1     -15.395  -1.649  -1.209  1.00  0.00     0.173 A 
ATOM     92  C   UNL     1     -14.439  -3.839  -1.483  1.00  0.00     0.173 A 
ATOM     93  F   UNL     1     -15.270  -0.320  -1.078  1.00  0.00    -0.203 F 
ATOM     94  C   UNL     1     -16.665  -2.216  -1.141  1.00  0.00     0.198 A 
ATOM     95  C   UNL     1     -15.712  -4.399  -1.443  1.00  0.00     0.198 A 
ATOM     96  F   UNL     1     -13.382  -4.650  -1.642  1.00  0.00    -0.203 F 
ATOM     97  F   UNL     1     -17.735  -1.434  -0.938  1.00  0.00    -0.200 F 
ATOM     98  C   UNL     1     -16.823  -3.588  -1.264  1.00  0.00     0.200 A 
ATOM     99  F   UNL     1     -15.865  -5.724  -1.575  1.00  0.00    -0.200 F 
ATOM    100  F   UNL     1     -18.047  -4.131  -1.202  1.00  0.00    -0.200 F 
ENDBRANCH  67  90
ENDBRANCH  41  42
ENDBRANCH  34  36
ENDBRANCH  33  34
ENDBRANCH  32  33
ENDBRANCH   1  32
TORSDOF 16
