REMARK SMILES CCCCNC(=O)c1c(Cl)c(Cl)c(Cl)c(Cl)c1C(=O)OCCOC(=O)c1ccc(-c2c3nc(c(-c4c(F)c(F)c(F)c(F)c4F)c4ccc([nH]4)c(-c4c(F)c(F)c(F)c(F)c4F)c4nc(c(-c5c(F)c(F)c(F)c(F)c5F)c5ccc2[nH]5)C=C4)C=C3)cc1
REMARK SMILES IDX 21 1 20 2 18 3 19 4 17 5 8 6 9 7 10 8 11 9 15 10 12 11 13 12
REMARK SMILES IDX 16 13 14 14 6 15 5 16 7 18 4 19 3 20 2 21 1 22 22 23 23 24
REMARK SMILES IDX 24 25 25 26 26 27 27 28 88 29 28 30 87 31 29 32 30 33 31 34
REMARK SMILES IDX 81 35 32 36 86 37 80 38 82 39 33 40 85 41 79 42 78 43 34 45
REMARK SMILES IDX 66 46 46 47 65 48 47 49 50 50 64 51 83 52 48 53 49 54 63 56
REMARK SMILES IDX 84 57 51 58 35 59 36 60 44 61 37 62 38 63 42 64 45 65 39 66
REMARK SMILES IDX 40 67 43 68 41 69 67 70 68 71 76 72 69 73 70 74 74 75 77 76
REMARK SMILES IDX 71 77 72 78 75 79 73 80 52 81 53 82 61 83 54 84 55 85 59 86
REMARK SMILES IDX 62 87 56 88 57 89 60 90 58 91
REMARK H PARENT 5 17 82 44 50 55
REMARK Flexibility Score: inf
ROOT
ATOM      1  C   UNL     1      -4.031  -0.505  -5.684  1.00  0.00     0.275 C 
ENDROOT
BRANCH   1   2
ATOM      2  O   UNL     1      -2.807  -1.264  -5.536  1.00  0.00    -0.458 OA
BRANCH   2   3
ATOM      3  C   UNL     1      -2.915  -2.605  -5.741  1.00  0.00     0.340 C 
ATOM      4  O   UNL     1      -3.888  -3.190  -6.170  1.00  0.00    -0.246 OA
BRANCH   3   5
ATOM      5  C   UNL     1      -1.610  -3.271  -5.470  1.00  0.00     0.094 A 
ATOM      6  C   UNL     1      -0.966  -3.139  -4.225  1.00  0.00     0.076 A 
ATOM      7  C   UNL     1       0.205  -3.877  -3.975  1.00  0.00     0.074 A 
ATOM      8  Cl  UNL     1       0.702  -4.226  -2.342  1.00  0.00    -0.082 Cl
ATOM      9  C   UNL     1       0.906  -4.462  -5.040  1.00  0.00     0.080 A 
ATOM     10  C   UNL     1      -1.025  -4.092  -6.455  1.00  0.00     0.076 A 
ATOM     11  Cl  UNL     1       2.506  -5.094  -4.789  1.00  0.00    -0.081 Cl
ATOM     12  C   UNL     1       0.296  -4.546  -6.295  1.00  0.00     0.080 A 
ATOM     13  Cl  UNL     1      -1.940  -4.694  -7.809  1.00  0.00    -0.082 Cl
ATOM     14  Cl  UNL     1       1.163  -5.210  -7.652  1.00  0.00    -0.081 Cl
BRANCH   6  15
ATOM     15  C   UNL     1      -1.586  -2.325  -3.158  1.00  0.00     0.253 C 
ATOM     16  N   UNL     1      -0.866  -1.342  -2.517  1.00  0.00    -0.352 N 
ATOM     17  H   UNL     1      -1.386  -0.778  -1.900  1.00  0.00     0.163 HD
ATOM     18  O   UNL     1      -2.763  -2.520  -2.875  1.00  0.00    -0.269 OA
BRANCH  16  19
ATOM     19  C   UNL     1       0.549  -1.008  -2.615  1.00  0.00     0.116 C 
BRANCH  19  20
ATOM     20  C   UNL     1       0.871   0.464  -2.385  1.00  0.00     0.021 C 
BRANCH  20  21
ATOM     21  C   UNL     1       0.462   1.027  -1.022  1.00  0.00    -0.002 C 
ATOM     22  C   UNL     1       1.027   0.265   0.167  1.00  0.00     0.004 C 
ENDBRANCH  20  21
ENDBRANCH  19  20
ENDBRANCH  16  19
ENDBRANCH   6  15
ENDBRANCH   3   5
ENDBRANCH   2   3
ENDBRANCH   1   2
BRANCH   1  23
ATOM     23  C   UNL     1      -3.804   0.761  -6.514  1.00  0.00     0.275 C 
BRANCH  23  24
ATOM     24  O   UNL     1      -3.422   0.419  -7.859  1.00  0.00    -0.458 OA
BRANCH  24  25
ATOM     25  C   UNL     1      -2.089   0.413  -8.088  1.00  0.00     0.338 C 
ATOM     26  O   UNL     1      -1.193   0.733  -7.327  1.00  0.00    -0.246 OA
BRANCH  25  27
ATOM     27  C   UNL     1      -1.834  -0.265  -9.364  1.00  0.00     0.060 A 
ATOM     28  C   UNL     1      -1.599  -1.633  -9.296  1.00  0.00     0.016 A 
ATOM     29  C   UNL     1      -1.715   0.410 -10.574  1.00  0.00     0.016 A 
ATOM     30  C   UNL     1      -1.213  -2.345 -10.426  1.00  0.00     0.010 A 
ATOM     31  C   UNL     1      -1.377  -0.316 -11.726  1.00  0.00     0.010 A 
ATOM     32  C   UNL     1      -1.115  -1.700 -11.662  1.00  0.00    -0.014 A 
BRANCH  32  33
ATOM     33  C   UNL     1      -0.712  -2.469 -12.871  1.00  0.00     0.031 A 
ATOM     34  C   UNL     1       0.563  -2.126 -13.588  1.00  0.00     0.074 A 
ATOM     35  C   UNL     1      -1.474  -3.486 -13.320  1.00  0.00     0.049 A 
ATOM     36  N   UNL     1       0.995  -2.528 -14.756  1.00  0.00    -0.248 NA
ATOM     37  C   UNL     1       1.475  -1.203 -12.895  1.00  0.00     0.031 C 
ATOM     38  C   UNL     1      -2.686  -3.989 -12.671  1.00  0.00     0.029 A 
ATOM     39  N   UNL     1      -1.343  -4.280 -14.435  1.00  0.00    -0.354 N 
ATOM     40  C   UNL     1       2.204  -1.874 -14.959  1.00  0.00     0.074 A 
ATOM     41  C   UNL     1       2.436  -1.046 -13.795  1.00  0.00     0.031 C 
ATOM     42  C   UNL     1      -3.181  -5.007 -13.391  1.00  0.00     0.029 A 
ATOM     43  C   UNL     1      -2.380  -5.168 -14.599  1.00  0.00     0.049 A 
ATOM     44  H   UNL     1      -0.582  -4.219 -15.056  1.00  0.00     0.167 HD
ATOM     45  C   UNL     1       3.036  -1.958 -16.025  1.00  0.00     0.037 A 
ATOM     46  C   UNL     1      -2.688  -5.976 -15.632  1.00  0.00     0.037 A 
ATOM     47  C   UNL     1       2.809  -2.812 -17.163  1.00  0.00     0.049 A 
ATOM     48  C   UNL     1      -1.804  -5.974 -16.850  1.00  0.00     0.074 A 
ATOM     49  C   UNL     1       3.596  -2.975 -18.290  1.00  0.00     0.029 A 
ATOM     50  N   UNL     1       1.714  -3.650 -17.317  1.00  0.00    -0.354 N 
ATOM     51  N   UNL     1      -0.689  -5.319 -17.061  1.00  0.00    -0.248 NA
ATOM     52  C   UNL     1      -2.233  -6.807 -17.983  1.00  0.00     0.031 C 
ATOM     53  C   UNL     1       2.948  -3.865 -19.152  1.00  0.00     0.029 A 
ATOM     54  C   UNL     1       1.787  -4.305 -18.536  1.00  0.00     0.049 A 
ATOM     55  H   UNL     1       0.992  -3.763 -16.658  1.00  0.00     0.167 HD
ATOM     56  C   UNL     1      -0.274  -5.671 -18.338  1.00  0.00     0.074 A 
ATOM     57  C   UNL     1      -1.247  -6.614 -18.848  1.00  0.00     0.031 C 
ATOM     58  C   UNL     1       0.813  -5.246 -19.028  1.00  0.00     0.037 A 
BRANCH  45  59
ATOM     59  C   UNL     1       4.244  -1.065 -16.041  1.00  0.00     0.064 A 
ATOM     60  C   UNL     1       5.336  -1.268 -15.185  1.00  0.00     0.173 A 
ATOM     61  C   UNL     1       4.321  -0.005 -16.959  1.00  0.00     0.173 A 
ATOM     62  F   UNL     1       5.310  -2.258 -14.280  1.00  0.00    -0.203 F 
ATOM     63  C   UNL     1       6.447  -0.428 -15.230  1.00  0.00     0.198 A 
ATOM     64  C   UNL     1       5.446   0.812 -17.024  1.00  0.00     0.198 A 
ATOM     65  F   UNL     1       3.307   0.231 -17.806  1.00  0.00    -0.203 F 
ATOM     66  F   UNL     1       7.458  -0.611 -14.369  1.00  0.00    -0.200 F 
ATOM     67  C   UNL     1       6.505   0.605 -16.153  1.00  0.00     0.200 A 
ATOM     68  F   UNL     1       5.505   1.800 -17.927  1.00  0.00    -0.200 F 
ATOM     69  F   UNL     1       7.578   1.407 -16.199  1.00  0.00    -0.200 F 
ENDBRANCH  45  59
BRANCH  46  70
ATOM     70  C   UNL     1      -3.926  -6.801 -15.589  1.00  0.00     0.064 A 
ATOM     71  C   UNL     1      -3.865  -8.201 -15.571  1.00  0.00     0.173 A 
ATOM     72  C   UNL     1      -5.198  -6.206 -15.577  1.00  0.00     0.173 A 
ATOM     73  F   UNL     1      -2.676  -8.820 -15.614  1.00  0.00    -0.203 F 
ATOM     74  C   UNL     1      -5.026  -8.973 -15.554  1.00  0.00     0.198 A 
ATOM     75  C   UNL     1      -6.357  -6.978 -15.523  1.00  0.00     0.198 A 
ATOM     76  F   UNL     1      -5.316  -4.870 -15.602  1.00  0.00    -0.203 F 
ATOM     77  F   UNL     1      -4.940 -10.309 -15.589  1.00  0.00    -0.200 F 
ATOM     78  C   UNL     1      -6.271  -8.361 -15.521  1.00  0.00     0.200 A 
ATOM     79  F   UNL     1      -7.555  -6.380 -15.478  1.00  0.00    -0.200 F 
ATOM     80  F   UNL     1      -7.386  -9.103 -15.498  1.00  0.00    -0.200 F 
ENDBRANCH  46  70
BRANCH  58  81
ATOM     81  C   UNL     1       1.028  -5.820 -20.399  1.00  0.00     0.064 A 
ATOM     82  C   UNL     1       0.219  -5.454 -21.485  1.00  0.00     0.173 A 
ATOM     83  C   UNL     1       2.092  -6.702 -20.640  1.00  0.00     0.173 A 
ATOM     84  F   UNL     1      -0.821  -4.627 -21.303  1.00  0.00    -0.203 F 
ATOM     85  C   UNL     1       0.458  -5.964 -22.758  1.00  0.00     0.198 A 
ATOM     86  C   UNL     1       2.347  -7.185 -21.920  1.00  0.00     0.198 A 
ATOM     87  F   UNL     1       2.898  -7.080 -19.637  1.00  0.00    -0.203 F 
ATOM     88  F   UNL     1      -0.353  -5.633 -23.773  1.00  0.00    -0.200 F 
ATOM     89  C   UNL     1       1.527  -6.820 -22.977  1.00  0.00     0.200 A 
ATOM     90  F   UNL     1       3.389  -8.000 -22.132  1.00  0.00    -0.200 F 
ATOM     91  F   UNL     1       1.764  -7.298 -24.206  1.00  0.00    -0.200 F 
ENDBRANCH  58  81
ENDBRANCH  32  33
ENDBRANCH  25  27
ENDBRANCH  24  25
ENDBRANCH  23  24
ENDBRANCH   1  23
TORSDOF 15
