REMARK SMILES CCOc1cc(C(=O)OCCOC(=O)c2ccc(-c3c4nc(c(-c5c(F)c(F)c(F)c(F)c5F)c5ccc([nH]5)c(-c5c(F)c(F)c(F)c(F)c5F)c5nc(c(-c6c(F)c(F)c(F)c(F)c6F)c6ccc3[nH]6)C=C5)C=C4)cc2)cc(I)c1OCC
REMARK SMILES IDX 10 1 9 2 7 3 8 4 6 5 4 6 5 7 81 8 79 9 78 10 80 11 3 12 2 13
REMARK SMILES IDX 1 14 82 15 83 16 84 17 11 18 12 19 13 20 14 21 15 22 16 23
REMARK SMILES IDX 77 24 17 25 76 26 18 27 19 28 20 29 70 30 21 31 75 32 69 33
REMARK SMILES IDX 71 34 22 35 74 36 68 37 67 38 23 40 55 41 35 42 54 43 36 44
REMARK SMILES IDX 39 45 53 46 72 47 37 48 38 49 52 51 73 52 40 53 24 54 25 55
REMARK SMILES IDX 33 56 26 57 27 58 31 59 34 60 28 61 29 62 32 63 30 64 56 65
REMARK SMILES IDX 57 66 65 67 58 68 59 69 63 70 66 71 60 72 61 73 64 74 62 75
REMARK SMILES IDX 41 76 42 77 50 78 43 79 44 80 48 81 51 82 45 83 46 84 49 85
REMARK SMILES IDX 47 86
REMARK H PARENT 71 39 39 50
REMARK Flexibility Score: inf
ROOT
ATOM      1  C   UNL     1       7.678  -0.729  -1.331  1.00  0.00     0.275 C 
ENDROOT
BRANCH   1   2
ATOM      2  O   UNL     1       6.851   0.437  -1.525  1.00  0.00    -0.458 OA
BRANCH   2   3
ATOM      3  C   UNL     1       5.652   0.219  -2.115  1.00  0.00     0.338 C 
ATOM      4  O   UNL     1       5.211  -0.850  -2.510  1.00  0.00    -0.246 OA
BRANCH   3   5
ATOM      5  C   UNL     1       4.867   1.471  -2.149  1.00  0.00     0.065 A 
ATOM      6  C   UNL     1       2.736   2.577  -2.019  1.00  0.00     0.163 A 
ATOM      7  C   UNL     1       3.490   1.405  -1.983  1.00  0.00     0.066 A 
ATOM      8  C   UNL     1       3.306   3.842  -2.306  1.00  0.00     0.174 A 
ATOM      9  C   UNL     1       4.693   3.879  -2.538  1.00  0.00     0.060 A 
ATOM     10  C   UNL     1       5.466   2.700  -2.422  1.00  0.00     0.034 A 
ATOM     11  I   UNL     1       5.857   5.508  -3.214  1.00  0.00    -0.040 I 
BRANCH   6  12
ATOM     12  O   UNL     1       1.373   2.417  -1.896  1.00  0.00    -0.490 OA
BRANCH  12  13
ATOM     13  C   UNL     1       0.912   2.660  -0.560  1.00  0.00     0.226 C 
ATOM     14  C   UNL     1       0.691   1.339   0.156  1.00  0.00     0.049 C 
ENDBRANCH  12  13
ENDBRANCH   6  12
BRANCH   8  15
ATOM     15  O   UNL     1       2.355   4.818  -2.341  1.00  0.00    -0.489 OA
BRANCH  15  16
ATOM     16  C   UNL     1       2.613   6.210  -2.380  1.00  0.00     0.226 C 
ATOM     17  C   UNL     1       3.127   6.747  -1.056  1.00  0.00     0.049 C 
ENDBRANCH  15  16
ENDBRANCH   8  15
ENDBRANCH   3   5
ENDBRANCH   2   3
ENDBRANCH   1   2
BRANCH   1  18
ATOM     18  C   UNL     1       7.548  -1.246   0.101  1.00  0.00     0.275 C 
BRANCH  18  19
ATOM     19  O   UNL     1       6.216  -1.750   0.306  1.00  0.00    -0.458 OA
BRANCH  19  20
ATOM     20  C   UNL     1       5.577  -1.316   1.413  1.00  0.00     0.338 C 
ATOM     21  O   UNL     1       6.021  -0.595   2.295  1.00  0.00    -0.246 OA
BRANCH  20  22
ATOM     22  C   UNL     1       4.198  -1.837   1.429  1.00  0.00     0.060 A 
ATOM     23  C   UNL     1       3.373  -1.665   0.321  1.00  0.00     0.016 A 
ATOM     24  C   UNL     1       3.678  -2.389   2.600  1.00  0.00     0.016 A 
ATOM     25  C   UNL     1       2.010  -1.945   0.412  1.00  0.00     0.010 A 
ATOM     26  C   UNL     1       2.328  -2.759   2.655  1.00  0.00     0.010 A 
ATOM     27  C   UNL     1       1.460  -2.492   1.581  1.00  0.00    -0.014 A 
BRANCH  27  28
ATOM     28  C   UNL     1      -0.017  -2.700   1.710  1.00  0.00     0.031 A 
ATOM     29  C   UNL     1      -0.771  -2.089   2.867  1.00  0.00     0.074 A 
ATOM     30  C   UNL     1      -0.715  -3.392   0.785  1.00  0.00     0.049 A 
ATOM     31  N   UNL     1      -1.992  -2.326   3.283  1.00  0.00    -0.248 NA
ATOM     32  C   UNL     1      -0.053  -1.091   3.675  1.00  0.00     0.031 C 
ATOM     33  C   UNL     1      -0.159  -3.998  -0.423  1.00  0.00     0.029 A 
ATOM     34  N   UNL     1      -2.058  -3.682   0.710  1.00  0.00    -0.354 N 
ATOM     35  C   UNL     1      -2.151  -1.581   4.445  1.00  0.00     0.074 A 
ATOM     36  C   UNL     1      -0.911  -0.866   4.660  1.00  0.00     0.031 C 
ATOM     37  C   UNL     1      -1.155  -4.520  -1.154  1.00  0.00     0.029 A 
ATOM     38  C   UNL     1      -2.408  -4.385  -0.418  1.00  0.00     0.049 A 
ATOM     39  H   UNL     1      -2.707  -3.411   1.399  1.00  0.00     0.167 HD
ATOM     40  C   UNL     1      -3.230  -1.508   5.263  1.00  0.00     0.037 A 
ATOM     41  C   UNL     1      -3.590  -4.903  -0.803  1.00  0.00     0.037 A 
ATOM     42  C   UNL     1      -4.499  -2.136   5.001  1.00  0.00     0.049 A 
ATOM     43  C   UNL     1      -4.783  -4.787   0.104  1.00  0.00     0.074 A 
ATOM     44  C   UNL     1      -5.649  -2.117   5.772  1.00  0.00     0.029 A 
ATOM     45  N   UNL     1      -4.797  -2.864   3.860  1.00  0.00    -0.354 N 
ATOM     46  N   UNL     1      -4.882  -4.193   1.267  1.00  0.00    -0.248 NA
ATOM     47  C   UNL     1      -6.019  -5.450  -0.339  1.00  0.00     0.031 C 
ATOM     48  C   UNL     1      -6.639  -2.846   5.105  1.00  0.00     0.029 A 
ATOM     49  C   UNL     1      -6.115  -3.292   3.903  1.00  0.00     0.049 A 
ATOM     50  H   UNL     1      -4.167  -3.049   3.127  1.00  0.00     0.167 HD
ATOM     51  C   UNL     1      -6.181  -4.419   1.700  1.00  0.00     0.074 A 
ATOM     52  C   UNL     1      -6.846  -5.174   0.659  1.00  0.00     0.031 C 
ATOM     53  C   UNL     1      -6.763  -4.050   2.866  1.00  0.00     0.037 A 
BRANCH  40  54
ATOM     54  C   UNL     1      -3.080  -0.748   6.548  1.00  0.00     0.064 A 
ATOM     55  C   UNL     1      -3.053   0.652   6.590  1.00  0.00     0.173 A 
ATOM     56  C   UNL     1      -3.015  -1.444   7.767  1.00  0.00     0.173 A 
ATOM     57  F   UNL     1      -3.097   1.361   5.452  1.00  0.00    -0.203 F 
ATOM     58  C   UNL     1      -2.947   1.329   7.803  1.00  0.00     0.198 A 
ATOM     59  C   UNL     1      -2.936  -0.764   8.979  1.00  0.00     0.198 A 
ATOM     60  F   UNL     1      -3.044  -2.785   7.782  1.00  0.00    -0.203 F 
ATOM     61  F   UNL     1      -2.885   2.668   7.817  1.00  0.00    -0.200 F 
ATOM     62  C   UNL     1      -2.897   0.622   8.995  1.00  0.00     0.200 A 
ATOM     63  F   UNL     1      -2.900  -1.449  10.130  1.00  0.00    -0.200 F 
ATOM     64  F   UNL     1      -2.806   1.276  10.161  1.00  0.00    -0.200 F 
ENDBRANCH  40  54
BRANCH  41  65
ATOM     65  C   UNL     1      -3.690  -5.627  -2.097  1.00  0.00     0.064 A 
ATOM     66  C   UNL     1      -4.412  -5.087  -3.170  1.00  0.00     0.173 A 
ATOM     67  C   UNL     1      -3.053  -6.861  -2.293  1.00  0.00     0.173 A 
ATOM     68  F   UNL     1      -5.066  -3.926  -3.020  1.00  0.00    -0.203 F 
ATOM     69  C   UNL     1      -4.493  -5.755  -4.390  1.00  0.00     0.198 A 
ATOM     70  C   UNL     1      -3.109  -7.513  -3.522  1.00  0.00     0.198 A 
ATOM     71  F   UNL     1      -2.356  -7.423  -1.294  1.00  0.00    -0.203 F 
ATOM     72  F   UNL     1      -5.219  -5.236  -5.389  1.00  0.00    -0.200 F 
ATOM     73  C   UNL     1      -3.832  -6.962  -4.568  1.00  0.00     0.200 A 
ATOM     74  F   UNL     1      -2.458  -8.671  -3.693  1.00  0.00    -0.200 F 
ATOM     75  F   UNL     1      -3.898  -7.596  -5.747  1.00  0.00    -0.200 F 
ENDBRANCH  41  65
BRANCH  53  76
ATOM     76  C   UNL     1      -8.190  -4.457   3.077  1.00  0.00     0.064 A 
ATOM     77  C   UNL     1      -8.529  -5.779   3.399  1.00  0.00     0.173 A 
ATOM     78  C   UNL     1      -9.224  -3.514   2.985  1.00  0.00     0.173 A 
ATOM     79  F   UNL     1      -7.575  -6.719   3.483  1.00  0.00    -0.203 F 
ATOM     80  C   UNL     1      -9.856  -6.148   3.600  1.00  0.00     0.198 A 
ATOM     81  C   UNL     1     -10.548  -3.882   3.207  1.00  0.00     0.198 A 
ATOM     82  F   UNL     1      -8.948  -2.236   2.683  1.00  0.00    -0.203 F 
ATOM     83  F   UNL     1     -10.162  -7.425   3.869  1.00  0.00    -0.200 F 
ATOM     84  C   UNL     1     -10.863  -5.199   3.509  1.00  0.00     0.200 A 
ATOM     85  F   UNL     1     -11.520  -2.963   3.125  1.00  0.00    -0.200 F 
ATOM     86  F   UNL     1     -12.140  -5.555   3.703  1.00  0.00    -0.200 F 
ENDBRANCH  53  76
ENDBRANCH  27  28
ENDBRANCH  20  22
ENDBRANCH  19  20
ENDBRANCH  18  19
ENDBRANCH   1  18
TORSDOF 15
