REMARK SMILES CCOc1cc(OCC)cc(-c2ccc([C@@H](C)C(=O)OCCOC(=O)c3ccc(-c4c5nc(c(-c6c(F)c(F)c(F)c(F)c6F)c6ccc([nH]6)c(-c6c(F)c(F)c(F)c(F)c6F)c6nc(c(-c7c(F)c(F)c(F)c(F)c7F)c7ccc4[nH]7)C=C6)C=C5)cc3)cc2)c1
REMARK SMILES IDX 21 1 20 2 18 3 19 4 16 5 17 6 15 7 12 8 13 9 90 10 14 11
REMARK SMILES IDX 89 12 11 13 4 14 5 15 91 16 6 17 10 18 3 19 2 20 1 21 7 22
REMARK SMILES IDX 8 23 9 24 22 25 23 26 24 27 25 28 26 29 27 30 88 31 28 32
REMARK SMILES IDX 87 33 29 34 30 35 31 36 81 37 32 38 86 39 80 40 82 41 33 42
REMARK SMILES IDX 85 43 79 44 78 45 34 47 66 48 46 49 65 50 47 51 50 52 64 53
REMARK SMILES IDX 83 54 48 55 49 56 63 58 84 59 51 60 35 61 36 62 44 63 37 64
REMARK SMILES IDX 38 65 42 66 45 67 39 68 40 69 43 70 41 71 67 72 68 73 76 74
REMARK SMILES IDX 69 75 70 76 74 77 77 78 71 79 72 80 75 81 73 82 52 83 53 84
REMARK SMILES IDX 61 85 54 86 55 87 59 88 62 89 56 90 57 91 60 92 58 93
REMARK H PARENT 82 46 50 57
REMARK Flexibility Score: inf
ROOT
ATOM      1  C   UNL     1       8.798   2.709   3.248  1.00  0.00     0.274 C 
ENDROOT
BRANCH   1   2
ATOM      2  O   UNL     1       8.675   1.329   2.854  1.00  0.00    -0.462 OA
BRANCH   2   3
ATOM      3  C   UNL     1       8.811   0.393   3.830  1.00  0.00     0.313 C 
ATOM      4  O   UNL     1       9.092   0.646   4.997  1.00  0.00    -0.252 OA
BRANCH   3   5
ATOM      5  C   UNL     1       8.635  -1.037   3.331  1.00  0.00     0.126 C 
ATOM      6  C   UNL     1       9.988  -1.628   2.942  1.00  0.00     0.025 C 
BRANCH   5   7
ATOM      7  C   UNL     1       7.587  -1.229   2.246  1.00  0.00    -0.034 A 
ATOM      8  C   UNL     1       5.632  -1.655   0.235  1.00  0.00    -0.018 A 
ATOM      9  C   UNL     1       6.812  -0.947  -0.038  1.00  0.00     0.009 A 
ATOM     10  C   UNL     1       5.433  -2.127   1.537  1.00  0.00     0.009 A 
ATOM     11  C   UNL     1       7.778  -0.743   0.948  1.00  0.00     0.005 A 
ATOM     12  C   UNL     1       6.400  -1.925   2.526  1.00  0.00     0.005 A 
BRANCH   8  13
ATOM     13  C   UNL     1       4.674  -1.943  -0.840  1.00  0.00    -0.011 A 
ATOM     14  C   UNL     1       2.443  -1.907  -1.784  1.00  0.00     0.123 A 
ATOM     15  C   UNL     1       2.910  -2.517  -2.948  1.00  0.00     0.092 A 
ATOM     16  C   UNL     1       3.313  -1.639  -0.727  1.00  0.00     0.055 A 
ATOM     17  C   UNL     1       4.258  -2.853  -3.070  1.00  0.00     0.123 A 
ATOM     18  C   UNL     1       5.126  -2.560  -2.019  1.00  0.00     0.055 A 
BRANCH  14  19
ATOM     19  O   UNL     1       1.097  -1.692  -1.663  1.00  0.00    -0.494 OA
BRANCH  19  20
ATOM     20  C   UNL     1       0.743  -0.304  -1.647  1.00  0.00     0.226 C 
ATOM     21  C   UNL     1       0.516   0.189  -0.227  1.00  0.00     0.049 C 
ENDBRANCH  19  20
ENDBRANCH  14  19
BRANCH  17  22
ATOM     22  O   UNL     1       4.627  -3.438  -4.252  1.00  0.00    -0.494 OA
BRANCH  22  23
ATOM     23  C   UNL     1       5.870  -4.145  -4.282  1.00  0.00     0.226 C 
ATOM     24  C   UNL     1       7.012  -3.244  -4.726  1.00  0.00     0.049 C 
ENDBRANCH  22  23
ENDBRANCH  17  22
ENDBRANCH   8  13
ENDBRANCH   5   7
ENDBRANCH   3   5
ENDBRANCH   2   3
ENDBRANCH   1   2
BRANCH   1  25
ATOM     25  C   UNL     1       7.425   3.359   3.434  1.00  0.00     0.275 C 
BRANCH  25  26
ATOM     26  O   UNL     1       6.751   2.815   4.584  1.00  0.00    -0.458 OA
BRANCH  26  27
ATOM     27  C   UNL     1       5.810   1.885   4.308  1.00  0.00     0.338 C 
ATOM     28  O   UNL     1       5.426   1.514   3.213  1.00  0.00    -0.246 OA
BRANCH  27  29
ATOM     29  C   UNL     1       5.352   1.260   5.556  1.00  0.00     0.060 A 
ATOM     30  C   UNL     1       5.669  -0.082   5.768  1.00  0.00     0.016 A 
ATOM     31  C   UNL     1       4.522   1.942   6.446  1.00  0.00     0.016 A 
ATOM     32  C   UNL     1       5.125  -0.769   6.847  1.00  0.00     0.010 A 
ATOM     33  C   UNL     1       3.985   1.256   7.540  1.00  0.00     0.010 A 
ATOM     34  C   UNL     1       4.260  -0.111   7.729  1.00  0.00    -0.014 A 
BRANCH  34  35
ATOM     35  C   UNL     1       3.578  -0.890   8.789  1.00  0.00     0.031 A 
ATOM     36  C   UNL     1       2.130  -1.256   8.624  1.00  0.00     0.074 A 
ATOM     37  C   UNL     1       4.264  -1.312   9.866  1.00  0.00     0.049 A 
ATOM     38  N   UNL     1       1.339  -1.904   9.442  1.00  0.00    -0.248 NA
ATOM     39  C   UNL     1       1.486  -0.838   7.370  1.00  0.00     0.031 C 
ATOM     40  C   UNL     1       5.683  -1.059  10.113  1.00  0.00     0.029 A 
ATOM     41  N   UNL     1       3.859  -2.050  10.949  1.00  0.00    -0.354 N 
ATOM     42  C   UNL     1       0.103  -1.954   8.812  1.00  0.00     0.074 A 
ATOM     43  C   UNL     1       0.242  -1.257   7.551  1.00  0.00     0.031 C 
ATOM     44  C   UNL     1       6.033  -1.638  11.274  1.00  0.00     0.029 A 
ATOM     45  C   UNL     1       4.856  -2.271  11.865  1.00  0.00     0.049 A 
ATOM     46  H   UNL     1       2.941  -2.388  11.058  1.00  0.00     0.167 HD
ATOM     47  C   UNL     1      -1.042  -2.532   9.246  1.00  0.00     0.037 A 
ATOM     48  C   UNL     1       4.819  -2.901  13.054  1.00  0.00     0.037 A 
ATOM     49  C   UNL     1      -1.175  -3.240  10.493  1.00  0.00     0.049 A 
ATOM     50  C   UNL     1       3.526  -3.512  13.525  1.00  0.00     0.074 A 
ATOM     51  C   UNL     1      -2.295  -3.853  11.025  1.00  0.00     0.029 A 
ATOM     52  N   UNL     1      -0.144  -3.434  11.400  1.00  0.00    -0.354 N 
ATOM     53  N   UNL     1       2.360  -3.542  12.929  1.00  0.00    -0.248 NA
ATOM     54  C   UNL     1       3.549  -4.180  14.834  1.00  0.00     0.031 C 
ATOM     55  C   UNL     1      -1.950  -4.394  12.268  1.00  0.00     0.029 A 
ATOM     56  C   UNL     1      -0.604  -4.152  12.492  1.00  0.00     0.049 A 
ATOM     57  H   UNL     1       0.778  -3.109  11.286  1.00  0.00     0.167 HD
ATOM     58  C   UNL     1       1.517  -4.250  13.774  1.00  0.00     0.074 A 
ATOM     59  C   UNL     1       2.310  -4.644  14.920  1.00  0.00     0.031 C 
ATOM     60  C   UNL     1       0.204  -4.547  13.617  1.00  0.00     0.037 A 
BRANCH  47  61
ATOM     61  C   UNL     1      -2.254  -2.399   8.373  1.00  0.00     0.064 A 
ATOM     62  C   UNL     1      -2.390  -3.131   7.185  1.00  0.00     0.173 A 
ATOM     63  C   UNL     1      -3.303  -1.545   8.744  1.00  0.00     0.173 A 
ATOM     64  F   UNL     1      -1.406  -3.949   6.780  1.00  0.00    -0.203 F 
ATOM     65  C   UNL     1      -3.524  -2.997   6.388  1.00  0.00     0.198 A 
ATOM     66  C   UNL     1      -4.446  -1.430   7.957  1.00  0.00     0.198 A 
ATOM     67  F   UNL     1      -3.222  -0.824   9.872  1.00  0.00    -0.203 F 
ATOM     68  F   UNL     1      -3.615  -3.674   5.236  1.00  0.00    -0.200 F 
ATOM     69  C   UNL     1      -4.553  -2.151   6.777  1.00  0.00     0.200 A 
ATOM     70  F   UNL     1      -5.442  -0.619   8.338  1.00  0.00    -0.200 F 
ATOM     71  F   UNL     1      -5.645  -2.025   6.011  1.00  0.00    -0.200 F 
ENDBRANCH  47  61
BRANCH  48  72
ATOM     72  C   UNL     1       6.046  -2.986  13.885  1.00  0.00     0.064 A 
ATOM     73  C   UNL     1       6.710  -4.206  14.070  1.00  0.00     0.173 A 
ATOM     74  C   UNL     1       6.576  -1.850  14.515  1.00  0.00     0.173 A 
ATOM     75  F   UNL     1       6.226  -5.323  13.507  1.00  0.00    -0.203 F 
ATOM     76  C   UNL     1       7.849  -4.290  14.867  1.00  0.00     0.198 A 
ATOM     77  C   UNL     1       7.729  -1.931  15.291  1.00  0.00     0.198 A 
ATOM     78  F   UNL     1       5.975  -0.660  14.370  1.00  0.00    -0.203 F 
ATOM     79  F   UNL     1       8.442  -5.476  15.062  1.00  0.00    -0.200 F 
ATOM     80  C   UNL     1       8.362  -3.152  15.472  1.00  0.00     0.200 A 
ATOM     81  F   UNL     1       8.226  -0.827  15.866  1.00  0.00    -0.200 F 
ATOM     82  F   UNL     1       9.459  -3.233  16.236  1.00  0.00    -0.200 F 
ENDBRANCH  48  72
BRANCH  60  83
ATOM     83  C   UNL     1      -0.445  -5.370  14.689  1.00  0.00     0.064 A 
ATOM     84  C   UNL     1      -0.764  -4.827  15.941  1.00  0.00     0.173 A 
ATOM     85  C   UNL     1      -0.774  -6.713  14.449  1.00  0.00     0.173 A 
ATOM     86  F   UNL     1      -0.456  -3.552  16.223  1.00  0.00    -0.203 F 
ATOM     87  C   UNL     1      -1.367  -5.606  16.925  1.00  0.00     0.198 A 
ATOM     88  C   UNL     1      -1.398  -7.482  15.426  1.00  0.00     0.198 A 
ATOM     89  F   UNL     1      -0.493  -7.277  13.265  1.00  0.00    -0.203 F 
ATOM     90  F   UNL     1      -1.623  -5.080  18.131  1.00  0.00    -0.200 F 
ATOM     91  C   UNL     1      -1.688  -6.931  16.665  1.00  0.00     0.200 A 
ATOM     92  F   UNL     1      -1.716  -8.759  15.171  1.00  0.00    -0.200 F 
ATOM     93  F   UNL     1      -2.269  -7.679  17.613  1.00  0.00    -0.200 F 
ENDBRANCH  60  83
ENDBRANCH  34  35
ENDBRANCH  27  29
ENDBRANCH  26  27
ENDBRANCH  25  26
ENDBRANCH   1  25
TORSDOF 17
