REMARK SMILES CCSc1cccc(-c2ccc([C@@H](C)C(=O)OCCOC(=O)c3ccc(-c4c5nc(c(-c6c(F)c(F)c(F)c(F)c6F)c6ccc([nH]6)c(-c6c(F)c(F)c(F)c(F)c6F)c6nc(c(-c7c(F)c(F)c(F)c(F)c7F)c7ccc4[nH]7)C=C6)C=C5)cc3)cc2)c1
REMARK SMILES IDX 18 1 17 2 15 3 16 4 13 5 14 6 12 7 9 8 10 9 87 10 11 11
REMARK SMILES IDX 86 12 8 13 4 14 5 15 88 16 6 17 7 18 3 19 2 20 1 21 19 22
REMARK SMILES IDX 20 23 21 24 22 25 23 26 24 27 85 28 25 29 84 30 26 31 27 32
REMARK SMILES IDX 28 33 78 34 29 35 83 36 77 37 79 38 30 39 82 40 76 41 75 42
REMARK SMILES IDX 31 44 63 45 43 46 62 47 44 48 47 49 61 50 80 51 45 52 46 53
REMARK SMILES IDX 60 55 81 56 48 57 32 58 33 59 41 60 34 61 35 62 39 63 42 64
REMARK SMILES IDX 36 65 37 66 40 67 38 68 64 69 65 70 73 71 66 72 67 73 71 74
REMARK SMILES IDX 74 75 68 76 69 77 72 78 70 79 49 80 50 81 58 82 51 83 52 84
REMARK SMILES IDX 56 85 59 86 53 87 54 88 57 89 55 90
REMARK H PARENT 79 43 47 54
REMARK Flexibility Score: inf
ROOT
ATOM      1  C   UNL     1       7.916   6.595  -0.050  1.00  0.00     0.274 C 
ENDROOT
BRANCH   1   2
ATOM      2  O   UNL     1       8.070   5.612   0.993  1.00  0.00    -0.462 OA
BRANCH   2   3
ATOM      3  C   UNL     1       8.345   6.079   2.239  1.00  0.00     0.313 C 
ATOM      4  O   UNL     1       8.511   7.264   2.512  1.00  0.00    -0.252 OA
BRANCH   3   5
ATOM      5  C   UNL     1       8.495   4.981   3.286  1.00  0.00     0.126 C 
ATOM      6  C   UNL     1       9.969   4.607   3.438  1.00  0.00     0.025 C 
BRANCH   5   7
ATOM      7  C   UNL     1       7.597   3.767   3.109  1.00  0.00    -0.034 A 
ATOM      8  C   UNL     1       5.911   1.489   2.851  1.00  0.00    -0.018 A 
ATOM      9  C   UNL     1       6.975   1.710   1.965  1.00  0.00     0.009 A 
ATOM     10  C   UNL     1       5.697   2.435   3.863  1.00  0.00     0.009 A 
ATOM     11  C   UNL     1       7.806   2.829   2.091  1.00  0.00     0.005 A 
ATOM     12  C   UNL     1       6.531   3.550   3.995  1.00  0.00     0.005 A 
BRANCH   8  13
ATOM     13  C   UNL     1       5.063   0.290   2.743  1.00  0.00    -0.017 A 
ATOM     14  C   UNL     1       2.859  -0.758   2.623  1.00  0.00     0.008 A 
ATOM     15  C   UNL     1       3.457  -2.019   2.582  1.00  0.00     0.015 A 
ATOM     16  C   UNL     1       3.661   0.386   2.712  1.00  0.00     0.023 A 
ATOM     17  C   UNL     1       4.845  -2.136   2.612  1.00  0.00     0.002 A 
ATOM     18  C   UNL     1       5.639  -0.990   2.690  1.00  0.00     0.009 A 
BRANCH  14  19
ATOM     19  S   UNL     1       1.083  -0.593   2.607  1.00  0.00    -0.126 SA
BRANCH  19  20
ATOM     20  C   UNL     1       0.737  -1.054   0.876  1.00  0.00     0.071 C 
ATOM     21  C   UNL     1       1.133   0.051  -0.088  1.00  0.00     0.016 C 
ENDBRANCH  19  20
ENDBRANCH  14  19
ENDBRANCH   8  13
ENDBRANCH   5   7
ENDBRANCH   3   5
ENDBRANCH   2   3
ENDBRANCH   1   2
BRANCH   1  22
ATOM     22  C   UNL     1       6.441   6.879  -0.338  1.00  0.00     0.275 C 
BRANCH  22  23
ATOM     23  O   UNL     1       5.823   7.563   0.768  1.00  0.00    -0.458 OA
BRANCH  23  24
ATOM     24  C   UNL     1       5.067   6.783   1.573  1.00  0.00     0.338 C 
ATOM     25  O   UNL     1       4.796   5.604   1.432  1.00  0.00    -0.246 OA
BRANCH  24  26
ATOM     26  C   UNL     1       4.685   7.543   2.772  1.00  0.00     0.060 A 
ATOM     27  C   UNL     1       5.257   7.166   3.987  1.00  0.00     0.016 A 
ATOM     28  C   UNL     1       3.708   8.537   2.725  1.00  0.00     0.016 A 
ATOM     29  C   UNL     1       4.836   7.758   5.172  1.00  0.00     0.010 A 
ATOM     30  C   UNL     1       3.292   9.144   3.917  1.00  0.00     0.010 A 
ATOM     31  C   UNL     1       3.839   8.742   5.148  1.00  0.00    -0.014 A 
BRANCH  31  32
ATOM     32  C   UNL     1       3.343   9.291   6.432  1.00  0.00     0.031 A 
ATOM     33  C   UNL     1       2.021   8.838   6.981  1.00  0.00     0.074 A 
ATOM     34  C   UNL     1       4.110  10.146   7.134  1.00  0.00     0.049 A 
ATOM     35  N   UNL     1       1.421   9.188   8.091  1.00  0.00    -0.248 NA
ATOM     36  C   UNL     1       1.275   7.859   6.176  1.00  0.00     0.031 C 
ATOM     37  C   UNL     1       5.426  10.630   6.720  1.00  0.00     0.029 A 
ATOM     38  N   UNL     1       3.896  10.745   8.349  1.00  0.00    -0.354 N 
ATOM     39  C   UNL     1       0.225   8.484   8.113  1.00  0.00     0.074 A 
ATOM     40  C   UNL     1       0.173   7.701   6.896  1.00  0.00     0.031 C 
ATOM     41  C   UNL     1       5.911  11.442   7.673  1.00  0.00     0.029 A 
ATOM     42  C   UNL     1       4.928  11.559   8.747  1.00  0.00     0.049 A 
ATOM     43  H   UNL     1       3.082  10.606   8.884  1.00  0.00     0.167 HD
ATOM     44  C   UNL     1      -0.738   8.487   9.065  1.00  0.00     0.037 A 
ATOM     45  C   UNL     1       5.059  12.318   9.851  1.00  0.00     0.037 A 
ATOM     46  C   UNL     1      -0.681   9.253  10.282  1.00  0.00     0.049 A 
ATOM     47  C   UNL     1       3.961  12.322  10.879  1.00  0.00     0.074 A 
ATOM     48  C   UNL     1      -1.607   9.317  11.309  1.00  0.00     0.029 A 
ATOM     49  N   UNL     1       0.368  10.088  10.638  1.00  0.00    -0.354 N 
ATOM     50  N   UNL     1       2.834  11.655  10.889  1.00  0.00    -0.248 NA
ATOM     51  C   UNL     1       4.157  13.187  12.051  1.00  0.00     0.031 C 
ATOM     52  C   UNL     1      -1.133  10.215  12.272  1.00  0.00     0.029 A 
ATOM     53  C   UNL     1       0.105  10.682  11.862  1.00  0.00     0.049 A 
ATOM     54  H   UNL     1       1.179  10.237  10.100  1.00  0.00     0.167 HD
ATOM     55  C   UNL     1       2.193  12.005  12.068  1.00  0.00     0.074 A 
ATOM     56  C   UNL     1       3.067  12.930  12.760  1.00  0.00     0.031 C 
ATOM     57  C   UNL     1       0.986  11.601  12.535  1.00  0.00     0.037 A 
BRANCH  44  58
ATOM     58  C   UNL     1      -1.955   7.647   8.814  1.00  0.00     0.064 A 
ATOM     59  C   UNL     1      -1.922   6.251   8.937  1.00  0.00     0.173 A 
ATOM     60  C   UNL     1      -3.175   8.251   8.477  1.00  0.00     0.173 A 
ATOM     61  F   UNL     1      -0.774   5.627   9.243  1.00  0.00    -0.203 F 
ATOM     62  C   UNL     1      -3.064   5.487   8.711  1.00  0.00     0.198 A 
ATOM     63  C   UNL     1      -4.320   7.486   8.275  1.00  0.00     0.198 A 
ATOM     64  F   UNL     1      -3.258   9.584   8.351  1.00  0.00    -0.203 F 
ATOM     65  F   UNL     1      -3.003   4.151   8.798  1.00  0.00    -0.200 F 
ATOM     66  C   UNL     1      -4.263   6.105   8.386  1.00  0.00     0.200 A 
ATOM     67  F   UNL     1      -5.480   8.085   7.969  1.00  0.00    -0.200 F 
ATOM     68  F   UNL     1      -5.362   5.368   8.175  1.00  0.00    -0.200 F 
ENDBRANCH  44  58
BRANCH  45  69
ATOM     69  C   UNL     1       6.282  13.138  10.040  1.00  0.00     0.064 A 
ATOM     70  C   UNL     1       7.229  12.806  11.018  1.00  0.00     0.173 A 
ATOM     71  C   UNL     1       6.524  14.270   9.250  1.00  0.00     0.173 A 
ATOM     72  F   UNL     1       7.025  11.747  11.815  1.00  0.00    -0.203 F 
ATOM     73  C   UNL     1       8.368  13.585  11.207  1.00  0.00     0.198 A 
ATOM     74  C   UNL     1       7.676  15.034   9.423  1.00  0.00     0.198 A 
ATOM     75  F   UNL     1       5.645  14.629   8.303  1.00  0.00    -0.203 F 
ATOM     76  F   UNL     1       9.239  13.270  12.175  1.00  0.00    -0.200 F 
ATOM     77  C   UNL     1       8.594  14.694  10.406  1.00  0.00     0.200 A 
ATOM     78  F   UNL     1       7.894  16.100   8.642  1.00  0.00    -0.200 F 
ATOM     79  F   UNL     1       9.692  15.441  10.586  1.00  0.00    -0.200 F 
ENDBRANCH  45  69
BRANCH  57  80
ATOM     80  C   UNL     1       0.552  12.147  13.863  1.00  0.00     0.064 A 
ATOM     81  C   UNL     1       0.117  13.473  14.002  1.00  0.00     0.173 A 
ATOM     82  C   UNL     1       0.554  11.330  15.003  1.00  0.00     0.173 A 
ATOM     83  F   UNL     1       0.114  14.296  12.943  1.00  0.00    -0.203 F 
ATOM     84  C   UNL     1      -0.277  13.969  15.241  1.00  0.00     0.198 A 
ATOM     85  C   UNL     1       0.137  11.823  16.236  1.00  0.00     0.198 A 
ATOM     86  F   UNL     1       0.958  10.053  14.920  1.00  0.00    -0.203 F 
ATOM     87  F   UNL     1      -0.646  15.252  15.361  1.00  0.00    -0.200 F 
ATOM     88  C   UNL     1      -0.271  13.143  16.356  1.00  0.00     0.200 A 
ATOM     89  F   UNL     1       0.136  11.023  17.311  1.00  0.00    -0.200 F 
ATOM     90  F   UNL     1      -0.650  13.623  17.548  1.00  0.00    -0.200 F 
ENDBRANCH  57  80
ENDBRANCH  31  32
ENDBRANCH  24  26
ENDBRANCH  23  24
ENDBRANCH  22  23
ENDBRANCH   1  22
TORSDOF 15
