REMARK SMILES CCC[C@H]1CCc2c(sc(NC(=O)[C@H]3[C@@H](C(=O)OCCOC(=O)c4ccc(-c5c6nc(c(-c7c(F)c(F)c(F)c(F)c7F)c7ccc([nH]7)c(-c7c(F)c(F)c(F)c(F)c7F)c7nc(c(-c8c(F)c(F)c(F)c(F)c8F)c8ccc5[nH]8)C=C7)C=C6)cc4)[C@H]4CC[C@@H]3O4)c2C(N)=O)C1
REMARK SMILES IDX 19 1 18 2 16 3 17 4 15 5 14 6 90 7 87 8 89 9 91 10 88 11
REMARK SMILES IDX 12 12 11 13 13 15 10 16 4 17 5 18 96 19 6 20 8 21 7 22 9 23
REMARK SMILES IDX 92 24 3 25 2 26 1 27 93 28 94 29 95 30 20 33 21 34 22 35
REMARK SMILES IDX 23 36 24 37 25 38 86 39 26 40 85 41 27 42 28 43 29 44 79 45
REMARK SMILES IDX 30 46 84 47 78 48 80 49 31 50 83 51 77 52 76 53 32 55 64 56
REMARK SMILES IDX 44 57 63 58 45 59 48 60 62 61 81 62 46 63 47 64 61 66 82 67
REMARK SMILES IDX 49 68 33 69 34 70 42 71 35 72 36 73 40 74 43 75 37 76 38 77
REMARK SMILES IDX 41 78 39 79 65 80 66 81 74 82 67 83 68 84 72 85 75 86 69 87
REMARK SMILES IDX 70 88 73 89 71 90 50 91 51 92 59 93 52 94 53 95 57 96 60 97
REMARK SMILES IDX 54 98 55 99 58 100 56 101
REMARK H PARENT 11 14 94 31 94 32 80 54 48 65
REMARK Flexibility Score: inf
ROOT
ATOM      1  C   UNL     1       3.461  -4.397   0.019  1.00  0.00     0.274 C 
ENDROOT
BRANCH   1   2
ATOM      2  O   UNL     1       3.581  -4.564  -1.432  1.00  0.00    -0.462 OA
BRANCH   2   3
ATOM      3  C   UNL     1       2.718  -3.845  -2.228  1.00  0.00     0.312 C 
ATOM      4  O   UNL     1       1.738  -3.264  -1.785  1.00  0.00    -0.252 OA
BRANCH   3   5
ATOM      5  C   UNL     1       3.167  -3.803  -3.709  1.00  0.00     0.143 C 
ATOM      6  C   UNL     1       3.612  -2.427  -4.241  1.00  0.00     0.124 C 
ATOM      7  C   UNL     1       2.464  -2.024  -5.151  1.00  0.00     0.132 C 
ATOM      8  C   UNL     1       2.118  -4.155  -4.797  1.00  0.00     0.133 C 
ATOM      9  C   UNL     1       1.047  -2.075  -4.570  1.00  0.00     0.035 C 
ATOM     10  O   UNL     1       2.476  -3.266  -5.918  1.00  0.00    -0.373 OA
ATOM     11  C   UNL     1       0.741  -3.577  -4.558  1.00  0.00     0.036 C 
BRANCH   6  12
ATOM     12  C   UNL     1       4.176  -1.370  -3.324  1.00  0.00     0.231 C 
ATOM     13  N   UNL     1       5.566  -1.361  -3.196  1.00  0.00    -0.317 N 
ATOM     14  H   UNL     1       6.043  -0.520  -3.008  1.00  0.00     0.170 HD
ATOM     15  O   UNL     1       3.491  -0.530  -2.751  1.00  0.00    -0.274 OA
BRANCH  13  16
ATOM     16  C   UNL     1       6.268  -2.547  -3.336  1.00  0.00     0.108 A 
ATOM     17  C   UNL     1       8.036  -7.010  -2.606  1.00  0.00    -0.006 C 
ATOM     18  C   UNL     1       7.795  -7.016  -4.137  1.00  0.00     0.009 C 
ATOM     19  C   UNL     1       6.963  -6.128  -1.952  1.00  0.00     0.050 C 
ATOM     20  C   UNL     1       7.980  -5.606  -4.762  1.00  0.00     0.038 C 
ATOM     21  C   UNL     1       6.864  -4.828  -2.679  1.00  0.00     0.011 A 
ATOM     22  C   UNL     1       7.314  -4.536  -3.946  1.00  0.00    -0.019 A 
ATOM     23  S   UNL     1       6.102  -3.521  -2.003  1.00  0.00    -0.122 S 
ATOM     24  C   UNL     1       7.064  -3.132  -4.304  1.00  0.00     0.077 A 
BRANCH  17  25
ATOM     25  C   UNL     1       8.015  -8.424  -1.986  1.00  0.00     0.004 C 
BRANCH  25  26
ATOM     26  C   UNL     1       9.196  -8.695  -1.042  1.00  0.00    -0.003 C 
ATOM     27  C   UNL     1       9.192  -7.861   0.230  1.00  0.00     0.004 C 
ENDBRANCH  25  26
ENDBRANCH  17  25
BRANCH  24  28
ATOM     28  C   UNL     1       7.587  -2.478  -5.493  1.00  0.00     0.251 C 
ATOM     29  N   UNL     1       6.865  -1.430  -5.984  1.00  0.00    -0.365 N 
ATOM     30  O   UNL     1       8.625  -2.829  -6.037  1.00  0.00    -0.269 OA
ATOM     31  H   UNL     1       6.031  -1.156  -5.539  1.00  0.00     0.159 HD
ATOM     32  H   UNL     1       7.177  -0.949  -6.784  1.00  0.00     0.159 HD
ENDBRANCH  24  28
ENDBRANCH  13  16
ENDBRANCH   6  12
ENDBRANCH   3   5
ENDBRANCH   2   3
ENDBRANCH   1   2
BRANCH   1  33
ATOM     33  C   UNL     1       4.752  -4.786   0.825  1.00  0.00     0.275 C 
BRANCH  33  34
ATOM     34  O   UNL     1       5.793  -3.755   0.820  1.00  0.00    -0.458 OA
BRANCH  34  35
ATOM     35  C   UNL     1       7.053  -4.142   1.217  1.00  0.00     0.338 C 
ATOM     36  O   UNL     1       7.296  -5.175   1.824  1.00  0.00    -0.246 OA
BRANCH  35  37
ATOM     37  C   UNL     1       8.156  -3.260   0.654  1.00  0.00     0.060 A 
ATOM     38  C   UNL     1       7.876  -2.085  -0.036  1.00  0.00     0.016 A 
ATOM     39  C   UNL     1       9.495  -3.688   0.657  1.00  0.00     0.016 A 
ATOM     40  C   UNL     1       8.848  -1.486  -0.862  1.00  0.00     0.010 A 
ATOM     41  C   UNL     1      10.510  -2.961  -0.023  1.00  0.00     0.010 A 
ATOM     42  C   UNL     1      10.207  -1.836  -0.807  1.00  0.00    -0.014 A 
BRANCH  42  43
ATOM     43  C   UNL     1      11.271  -0.957  -1.439  1.00  0.00     0.031 A 
ATOM     44  C   UNL     1      12.456  -1.506  -2.219  1.00  0.00     0.074 A 
ATOM     45  C   UNL     1      11.228   0.389  -1.277  1.00  0.00     0.049 A 
ATOM     46  N   UNL     1      13.601  -0.926  -2.512  1.00  0.00    -0.248 NA
ATOM     47  C   UNL     1      12.338  -2.872  -2.747  1.00  0.00     0.031 C 
ATOM     48  C   UNL     1      10.155   1.140  -0.622  1.00  0.00     0.029 A 
ATOM     49  N   UNL     1      12.126   1.377  -1.636  1.00  0.00    -0.354 N 
ATOM     50  C   UNL     1      14.363  -1.873  -3.196  1.00  0.00     0.074 A 
ATOM     51  C   UNL     1      13.533  -3.058  -3.300  1.00  0.00     0.031 C 
ATOM     52  C   UNL     1      10.426   2.447  -0.661  1.00  0.00     0.029 A 
ATOM     53  C   UNL     1      11.767   2.629  -1.190  1.00  0.00     0.049 A 
ATOM     54  H   UNL     1      12.941   1.202  -2.160  1.00  0.00     0.167 HD
ATOM     55  C   UNL     1      15.633  -1.768  -3.675  1.00  0.00     0.037 A 
ATOM     56  C   UNL     1      12.443   3.790  -1.100  1.00  0.00     0.037 A 
ATOM     57  C   UNL     1      16.445  -0.569  -3.636  1.00  0.00     0.049 A 
ATOM     58  C   UNL     1      13.868   3.866  -1.548  1.00  0.00     0.074 A 
ATOM     59  C   UNL     1      17.742  -0.385  -4.095  1.00  0.00     0.029 A 
ATOM     60  N   UNL     1      16.036   0.654  -3.128  1.00  0.00    -0.354 N 
ATOM     61  N   UNL     1      14.616   2.932  -2.076  1.00  0.00    -0.248 NA
ATOM     62  C   UNL     1      14.549   5.155  -1.366  1.00  0.00     0.031 C 
ATOM     63  C   UNL     1      18.131   0.933  -3.824  1.00  0.00     0.029 A 
ATOM     64  C   UNL     1      17.059   1.588  -3.247  1.00  0.00     0.049 A 
ATOM     65  H   UNL     1      15.150   0.836  -2.740  1.00  0.00     0.167 HD
ATOM     66  C   UNL     1      15.849   3.522  -2.307  1.00  0.00     0.074 A 
ATOM     67  C   UNL     1      15.744   4.901  -1.878  1.00  0.00     0.031 C 
ATOM     68  C   UNL     1      16.966   2.962  -2.828  1.00  0.00     0.037 A 
BRANCH  55  69
ATOM     69  C   UNL     1      16.284  -3.004  -4.245  1.00  0.00     0.064 A 
ATOM     70  C   UNL     1      15.947  -3.523  -5.503  1.00  0.00     0.173 A 
ATOM     71  C   UNL     1      17.341  -3.621  -3.550  1.00  0.00     0.173 A 
ATOM     72  F   UNL     1      14.956  -2.970  -6.217  1.00  0.00    -0.203 F 
ATOM     73  C   UNL     1      16.620  -4.627  -6.029  1.00  0.00     0.198 A 
ATOM     74  C   UNL     1      18.030  -4.704  -4.091  1.00  0.00     0.198 A 
ATOM     75  F   UNL     1      17.728  -3.150  -2.355  1.00  0.00    -0.203 F 
ATOM     76  F   UNL     1      16.258  -5.127  -7.219  1.00  0.00    -0.200 F 
ATOM     77  C   UNL     1      17.664  -5.211  -5.327  1.00  0.00     0.200 A 
ATOM     78  F   UNL     1      19.055  -5.248  -3.421  1.00  0.00    -0.200 F 
ATOM     79  F   UNL     1      18.318  -6.263  -5.841  1.00  0.00    -0.200 F 
ENDBRANCH  55  69
BRANCH  56  80
ATOM     80  C   UNL     1      11.787   4.965  -0.462  1.00  0.00     0.064 A 
ATOM     81  C   UNL     1      11.439   6.093  -1.215  1.00  0.00     0.173 A 
ATOM     82  C   UNL     1      11.470   4.967   0.906  1.00  0.00     0.173 A 
ATOM     83  F   UNL     1      11.749   6.150  -2.518  1.00  0.00    -0.203 F 
ATOM     84  C   UNL     1      10.798   7.180  -0.623  1.00  0.00     0.198 A 
ATOM     85  C   UNL     1      10.794   6.036   1.487  1.00  0.00     0.198 A 
ATOM     86  F   UNL     1      11.780   3.909   1.670  1.00  0.00    -0.203 F 
ATOM     87  F   UNL     1      10.508   8.263  -1.356  1.00  0.00    -0.200 F 
ATOM     88  C   UNL     1      10.464   7.144   0.723  1.00  0.00     0.200 A 
ATOM     89  F   UNL     1      10.452   5.986   2.782  1.00  0.00    -0.200 F 
ATOM     90  F   UNL     1       9.826   8.180   1.285  1.00  0.00    -0.200 F 
ENDBRANCH  56  80
BRANCH  68  91
ATOM     91  C   UNL     1      18.153   3.862  -3.015  1.00  0.00     0.064 A 
ATOM     92  C   UNL     1      18.904   4.331  -1.927  1.00  0.00     0.173 A 
ATOM     93  C   UNL     1      18.531   4.279  -4.300  1.00  0.00     0.173 A 
ATOM     94  F   UNL     1      18.568   3.983  -0.675  1.00  0.00    -0.203 F 
ATOM     95  C   UNL     1      19.968   5.210  -2.116  1.00  0.00     0.198 A 
ATOM     96  C   UNL     1      19.613   5.136  -4.488  1.00  0.00     0.198 A 
ATOM     97  F   UNL     1      17.845   3.863  -5.375  1.00  0.00    -0.203 F 
ATOM     98  F   UNL     1      20.632   5.694  -1.056  1.00  0.00    -0.200 F 
ATOM     99  C   UNL     1      20.324   5.609  -3.396  1.00  0.00     0.200 A 
ATOM    100  F   UNL     1      19.957   5.517  -5.726  1.00  0.00    -0.200 F 
ATOM    101  F   UNL     1      21.343   6.461  -3.575  1.00  0.00    -0.200 F 
ENDBRANCH  68  91
ENDBRANCH  42  43
ENDBRANCH  35  37
ENDBRANCH  34  35
ENDBRANCH  33  34
ENDBRANCH   1  33
TORSDOF 16
