REMARK SMILES O=C(CCCN1C(=O)/C(=C/c2cc(Br)ccc2O)SC1=S)OCCOC(=O)c1ccc(-c2c3nc(c(-c4c(F)c(F)c(F)c(F)c4F)c4ccc([nH]4)c(-c4c(F)c(F)c(F)c(F)c4F)c4nc(c(-c5c(F)c(F)c(F)c(F)c5F)c5ccc2[nH]5)C=C4)C=C3)cc1
REMARK SMILES IDX 22 1 2 2 1 3 3 4 4 5 5 6 6 7 7 8 20 9 8 10 9 11 19 12 21 13
REMARK SMILES IDX 10 14 11 15 12 16 17 17 13 18 16 19 14 20 15 21 18 22 23 24
REMARK SMILES IDX 24 25 25 26 26 27 27 28 28 29 29 30 90 31 30 32 89 33 31 34
REMARK SMILES IDX 32 35 33 36 83 37 34 38 88 39 82 40 84 41 35 42 87 43 81 44
REMARK SMILES IDX 80 45 36 47 68 48 48 49 67 50 49 51 52 52 66 53 85 54 50 55
REMARK SMILES IDX 51 56 65 58 86 59 53 60 37 61 38 62 46 63 39 64 40 65 44 66
REMARK SMILES IDX 47 67 41 68 42 69 45 70 43 71 69 72 70 73 78 74 71 75 72 76
REMARK SMILES IDX 76 77 79 78 73 79 74 80 77 81 75 82 54 83 55 84 63 85 56 86
REMARK SMILES IDX 57 87 61 88 64 89 58 90 59 91 62 92 60 93
REMARK H PARENT 18 23 84 46 52 57
REMARK Flexibility Score: inf
ROOT
ATOM      1  O   UNL     1       2.401  -0.382   0.630  1.00  0.00    -0.462 OA
ENDROOT
BRANCH   1   2
ATOM      2  C   UNL     1       2.562   0.955   0.477  1.00  0.00     0.305 C 
ATOM      3  O   UNL     1       1.785   1.741   1.012  1.00  0.00    -0.252 OA
BRANCH   2   4
ATOM      4  C   UNL     1       3.646   1.455  -0.456  1.00  0.00     0.124 C 
BRANCH   4   5
ATOM      5  C   UNL     1       4.637   2.409   0.206  1.00  0.00     0.034 C 
BRANCH   5   6
ATOM      6  C   UNL     1       5.806   1.743   0.952  1.00  0.00     0.128 C 
BRANCH   6   7
ATOM      7  N   UNL     1       6.597   0.747   0.207  1.00  0.00    -0.293 N 
ATOM      8  C   UNL     1       7.032   1.012  -1.083  1.00  0.00     0.266 C 
ATOM      9  C   UNL     1       7.087  -0.420   0.769  1.00  0.00     0.148 C 
ATOM     10  O   UNL     1       6.877   2.055  -1.702  1.00  0.00    -0.268 OA
ATOM     11  C   UNL     1       7.740  -0.170  -1.646  1.00  0.00     0.081 C 
ATOM     12  S   UNL     1       7.882  -1.396  -0.457  1.00  0.00    -0.054 SA
ATOM     13  S   UNL     1       6.973  -0.943   2.351  1.00  0.00    -0.052 S 
ATOM     14  C   UNL     1       8.142  -0.220  -2.923  1.00  0.00     0.033 C 
BRANCH  14  15
ATOM     15  C   UNL     1       8.711  -1.407  -3.575  1.00  0.00     0.019 A 
ATOM     16  C   UNL     1      10.078  -1.691  -3.469  1.00  0.00     0.027 A 
ATOM     17  C   UNL     1       7.886  -2.281  -4.299  1.00  0.00     0.122 A 
ATOM     18  C   UNL     1      10.598  -2.833  -4.082  1.00  0.00     0.018 A 
ATOM     19  C   UNL     1       8.409  -3.420  -4.912  1.00  0.00     0.048 A 
ATOM     20  Br  UNL     1      12.444  -3.220  -3.934  1.00  0.00    -0.051 Br
ATOM     21  C   UNL     1       9.772  -3.696  -4.801  1.00  0.00     0.019 A 
BRANCH  17  22
ATOM     22  O   UNL     1       6.546  -2.009  -4.396  1.00  0.00    -0.507 OA
ATOM     23  H   UNL     1       6.193  -1.245  -3.986  1.00  0.00     0.293 HD
ENDBRANCH  17  22
ENDBRANCH  14  15
ENDBRANCH   6   7
ENDBRANCH   5   6
ENDBRANCH   4   5
ENDBRANCH   2   4
ENDBRANCH   1   2
BRANCH   1  24
ATOM     24  C   UNL     1       3.502  -1.307   0.563  1.00  0.00     0.274 C 
BRANCH  24  25
ATOM     25  C   UNL     1       3.447  -2.216  -0.664  1.00  0.00     0.275 C 
BRANCH  25  26
ATOM     26  O   UNL     1       3.309  -1.431  -1.858  1.00  0.00    -0.458 OA
BRANCH  26  27
ATOM     27  C   UNL     1       2.026  -1.296  -2.284  1.00  0.00     0.338 C 
ATOM     28  O   UNL     1       1.058  -1.915  -1.892  1.00  0.00    -0.246 OA
BRANCH  27  29
ATOM     29  C   UNL     1       1.926  -0.135  -3.194  1.00  0.00     0.060 A 
ATOM     30  C   UNL     1       0.810   0.698  -3.045  1.00  0.00     0.016 A 
ATOM     31  C   UNL     1       2.886   0.139  -4.173  1.00  0.00     0.016 A 
ATOM     32  C   UNL     1       0.627   1.782  -3.901  1.00  0.00     0.010 A 
ATOM     33  C   UNL     1       2.696   1.224  -5.037  1.00  0.00     0.010 A 
ATOM     34  C   UNL     1       1.553   2.034  -4.921  1.00  0.00    -0.014 A 
BRANCH  34  35
ATOM     35  C   UNL     1       1.266   3.082  -5.930  1.00  0.00     0.031 A 
ATOM     36  C   UNL     1       0.643   2.687  -7.239  1.00  0.00     0.074 A 
ATOM     37  C   UNL     1       1.547   4.373  -5.677  1.00  0.00     0.049 A 
ATOM     38  N   UNL     1       0.336   3.432  -8.270  1.00  0.00    -0.248 NA
ATOM     39  C   UNL     1       0.320   1.261  -7.409  1.00  0.00     0.031 C 
ATOM     40  C   UNL     1       2.125   4.883  -4.435  1.00  0.00     0.029 A 
ATOM     41  N   UNL     1       1.395   5.489  -6.463  1.00  0.00    -0.354 N 
ATOM     42  C   UNL     1      -0.209   2.569  -9.210  1.00  0.00     0.074 A 
ATOM     43  C   UNL     1      -0.176   1.240  -8.639  1.00  0.00     0.031 C 
ATOM     44  C   UNL     1       2.303   6.210  -4.552  1.00  0.00     0.029 A 
ATOM     45  C   UNL     1       1.879   6.637  -5.885  1.00  0.00     0.049 A 
ATOM     46  H   UNL     1       0.980   5.468  -7.355  1.00  0.00     0.167 HD
ATOM     47  C   UNL     1      -0.699   2.863 -10.438  1.00  0.00     0.037 A 
ATOM     48  C   UNL     1       1.993   7.882  -6.388  1.00  0.00     0.037 A 
ATOM     49  C   UNL     1      -0.744   4.186 -11.000  1.00  0.00     0.049 A 
ATOM     50  C   UNL     1       1.507   8.163  -7.788  1.00  0.00     0.074 A 
ATOM     51  C   UNL     1      -1.284   4.589 -12.209  1.00  0.00     0.029 A 
ATOM     52  N   UNL     1      -0.215   5.317 -10.400  1.00  0.00    -0.354 N 
ATOM     53  N   UNL     1       0.928   7.355  -8.643  1.00  0.00    -0.248 NA
ATOM     54  C   UNL     1       1.693   9.532  -8.295  1.00  0.00     0.031 C 
ATOM     55  C   UNL     1      -1.027   5.954 -12.369  1.00  0.00     0.029 A 
ATOM     56  C   UNL     1      -0.372   6.410 -11.237  1.00  0.00     0.049 A 
ATOM     57  H   UNL     1       0.209   5.341  -9.512  1.00  0.00     0.167 HD
ATOM     58  C   UNL     1       0.664   8.118  -9.773  1.00  0.00     0.074 A 
ATOM     59  C   UNL     1       1.127   9.459  -9.491  1.00  0.00     0.031 C 
ATOM     60  C   UNL     1       0.092   7.741 -10.943  1.00  0.00     0.037 A 
BRANCH  47  61
ATOM     61  C   UNL     1      -1.208   1.733 -11.280  1.00  0.00     0.064 A 
ATOM     62  C   UNL     1      -2.441   1.118 -11.021  1.00  0.00     0.173 A 
ATOM     63  C   UNL     1      -0.488   1.319 -12.411  1.00  0.00     0.173 A 
ATOM     64  F   UNL     1      -3.160   1.473  -9.946  1.00  0.00    -0.203 F 
ATOM     65  C   UNL     1      -2.932   0.122 -11.861  1.00  0.00     0.198 A 
ATOM     66  C   UNL     1      -0.993   0.340 -13.261  1.00  0.00     0.198 A 
ATOM     67  F   UNL     1       0.695   1.881 -12.702  1.00  0.00    -0.203 F 
ATOM     68  F   UNL     1      -4.102  -0.470 -11.584  1.00  0.00    -0.200 F 
ATOM     69  C   UNL     1      -2.213  -0.259 -12.985  1.00  0.00     0.200 A 
ATOM     70  F   UNL     1      -0.302  -0.019 -14.352  1.00  0.00    -0.200 F 
ATOM     71  F   UNL     1      -2.695  -1.205 -13.802  1.00  0.00    -0.200 F 
ENDBRANCH  47  61
BRANCH  48  72
ATOM     72  C   UNL     1       2.639   8.956  -5.588  1.00  0.00     0.064 A 
ATOM     73  C   UNL     1       1.914  10.070  -5.144  1.00  0.00     0.173 A 
ATOM     74  C   UNL     1       4.012   8.916  -5.303  1.00  0.00     0.173 A 
ATOM     75  F   UNL     1       0.605  10.170  -5.420  1.00  0.00    -0.203 F 
ATOM     76  C   UNL     1       2.542  11.116  -4.470  1.00  0.00     0.198 A 
ATOM     77  C   UNL     1       4.633   9.947  -4.602  1.00  0.00     0.198 A 
ATOM     78  F   UNL     1       4.754   7.877  -5.712  1.00  0.00    -0.203 F 
ATOM     79  F   UNL     1       1.838  12.198  -4.113  1.00  0.00    -0.200 F 
ATOM     80  C   UNL     1       3.900  11.052  -4.196  1.00  0.00     0.200 A 
ATOM     81  F   UNL     1       5.944   9.878  -4.334  1.00  0.00    -0.200 F 
ATOM     82  F   UNL     1       4.506  12.062  -3.557  1.00  0.00    -0.200 F 
ENDBRANCH  48  72
BRANCH  60  83
ATOM     83  C   UNL     1      -0.077   8.788 -12.004  1.00  0.00     0.064 A 
ATOM     84  C   UNL     1       1.018   9.274 -12.732  1.00  0.00     0.173 A 
ATOM     85  C   UNL     1      -1.354   9.266 -12.338  1.00  0.00     0.173 A 
ATOM     86  F   UNL     1       2.260   8.860 -12.440  1.00  0.00    -0.203 F 
ATOM     87  C   UNL     1       0.843  10.211 -13.747  1.00  0.00     0.198 A 
ATOM     88  C   UNL     1      -1.528  10.181 -13.372  1.00  0.00     0.198 A 
ATOM     89  F   UNL     1      -2.435   8.827 -11.677  1.00  0.00    -0.203 F 
ATOM     90  F   UNL     1       1.908  10.689 -14.406  1.00  0.00    -0.200 F 
ATOM     91  C   UNL     1      -0.430  10.657 -14.072  1.00  0.00     0.200 A 
ATOM     92  F   UNL     1      -2.760  10.599 -13.695  1.00  0.00    -0.200 F 
ATOM     93  F   UNL     1      -0.597  11.548 -15.059  1.00  0.00    -0.200 F 
ENDBRANCH  60  83
ENDBRANCH  34  35
ENDBRANCH  27  29
ENDBRANCH  26  27
ENDBRANCH  25  26
ENDBRANCH  24  25
ENDBRANCH   1  24
TORSDOF 16
