REMARK SMILES Cc1c(CC(=O)OCCOC(=O)c2ccc(-c3c4nc(c(-c5c(F)c(F)c(F)c(F)c5F)c5ccc([nH]5)c(-c5c(F)c(F)c(F)c(F)c5F)c5nc(c(-c6c(F)c(F)c(F)c(F)c6F)c6ccc3[nH]6)C=C5)C=C4)cc2)cc(-c2ccc(S(C)(=O)=O)cc2)n1-c1cccc(F)c1
REMARK SMILES IDX 8 1 7 2 5 3 6 4 4 5 3 6 1 7 2 8 88 9 76 10 77 11 89 12 90 13
REMARK SMILES IDX 95 14 91 15 93 16 92 17 94 18 78 19 79 20 87 21 80 22 86 23
REMARK SMILES IDX 81 24 82 25 83 26 84 27 85 28 9 29 10 30 11 31 12 32 13 33
REMARK SMILES IDX 14 34 75 35 15 36 74 37 16 38 17 39 18 40 68 41 19 42 73 43
REMARK SMILES IDX 67 44 69 45 20 46 72 47 66 48 65 49 21 51 53 52 33 53 52 54
REMARK SMILES IDX 34 55 37 56 51 57 70 58 35 59 36 60 50 62 71 63 38 64 22 65
REMARK SMILES IDX 23 66 31 67 24 68 25 69 29 70 32 71 26 72 27 73 30 74 28 75
REMARK SMILES IDX 54 76 55 77 63 78 56 79 57 80 61 81 64 82 58 83 59 84 62 85
REMARK SMILES IDX 60 86 39 87 40 88 48 89 41 90 42 91 46 92 49 93 43 94 44 95
REMARK SMILES IDX 47 96 45 97
REMARK H PARENT 69 50 37 61
REMARK Flexibility Score: inf
ROOT
ATOM      1  C   UNL     1       4.080  -2.211   0.121  1.00  0.00     0.274 C 
ENDROOT
BRANCH   1   2
ATOM      2  O   UNL     1       2.801  -1.913  -0.505  1.00  0.00    -0.462 OA
BRANCH   2   3
ATOM      3  C   UNL     1       1.988  -2.964  -0.800  1.00  0.00     0.310 C 
ATOM      4  O   UNL     1       2.269  -4.131  -0.534  1.00  0.00    -0.252 OA
BRANCH   3   5
ATOM      5  C   UNL     1       0.653  -2.604  -1.441  1.00  0.00     0.160 C 
BRANCH   5   6
ATOM      6  C   UNL     1       0.454  -1.226  -2.018  1.00  0.00    -0.015 A 
ATOM      7  C   UNL     1       0.742   0.238   0.102  1.00  0.00     0.065 C 
ATOM      8  C   UNL     1       0.502  -0.010  -1.352  1.00  0.00     0.024 A 
ATOM      9  N   UNL     1       0.198   1.006  -2.250  1.00  0.00    -0.313 N 
ATOM     10  C   UNL     1       0.007  -0.929  -3.342  1.00  0.00     0.033 A 
ATOM     11  C   UNL     1      -0.173   0.441  -3.467  1.00  0.00     0.053 A 
BRANCH   9  12
ATOM     12  C   UNL     1       0.237   2.392  -1.955  1.00  0.00     0.049 A 
ATOM     13  C   UNL     1      -0.898   3.187  -2.156  1.00  0.00     0.027 A 
ATOM     14  C   UNL     1       1.427   2.951  -1.480  1.00  0.00     0.065 A 
ATOM     15  C   UNL     1      -0.843   4.551  -1.866  1.00  0.00     0.005 A 
ATOM     16  C   UNL     1       1.469   4.314  -1.225  1.00  0.00     0.125 A 
ATOM     17  C   UNL     1       0.346   5.117  -1.407  1.00  0.00     0.039 A 
ATOM     18  F   UNL     1       2.615   4.869  -0.807  1.00  0.00    -0.207 F 
ENDBRANCH   9  12
BRANCH  11  19
ATOM     19  C   UNL     1      -0.563   1.202  -4.663  1.00  0.00    -0.001 A 
ATOM     20  C   UNL     1       0.342   2.083  -5.275  1.00  0.00     0.011 A 
ATOM     21  C   UNL     1      -1.844   1.055  -5.214  1.00  0.00     0.011 A 
ATOM     22  C   UNL     1      -0.024   2.812  -6.410  1.00  0.00     0.021 A 
ATOM     23  C   UNL     1      -2.221   1.786  -6.347  1.00  0.00     0.021 A 
ATOM     24  C   UNL     1      -1.308   2.664  -6.938  1.00  0.00     0.067 A 
BRANCH  24  25
ATOM     25  S   UNL     1      -1.739   3.542  -8.424  1.00  0.00     0.175 S 
ATOM     26  C   UNL     1      -1.683   5.255  -7.966  1.00  0.00     0.163 C 
ATOM     27  O   UNL     1      -0.688   3.293  -9.382  1.00  0.00    -0.224 OA
ATOM     28  O   UNL     1      -3.127   3.225  -8.735  1.00  0.00    -0.224 OA
ENDBRANCH  24  25
ENDBRANCH  11  19
ENDBRANCH   5   6
ENDBRANCH   3   5
ENDBRANCH   2   3
ENDBRANCH   1   2
BRANCH   1  29
ATOM     29  C   UNL     1       4.536  -1.039   1.032  1.00  0.00     0.275 C 
BRANCH  29  30
ATOM     30  O   UNL     1       4.654  -1.258   2.486  1.00  0.00    -0.458 OA
BRANCH  30  31
ATOM     31  C   UNL     1       3.574  -0.997   3.283  1.00  0.00     0.338 C 
ATOM     32  O   UNL     1       2.429  -0.908   2.861  1.00  0.00    -0.246 OA
BRANCH  31  33
ATOM     33  C   UNL     1       3.906  -0.843   4.777  1.00  0.00     0.060 A 
ATOM     34  C   UNL     1       3.338  -1.715   5.698  1.00  0.00     0.016 A 
ATOM     35  C   UNL     1       4.582   0.258   5.347  1.00  0.00     0.016 A 
ATOM     36  C   UNL     1       3.495  -1.524   7.118  1.00  0.00     0.010 A 
ATOM     37  C   UNL     1       4.680   0.484   6.800  1.00  0.00     0.010 A 
ATOM     38  C   UNL     1       4.146  -0.407   7.753  1.00  0.00    -0.014 A 
BRANCH  38  39
ATOM     39  C   UNL     1       3.737  -0.093   9.294  1.00  0.00     0.031 A 
ATOM     40  C   UNL     1       2.244  -0.169   9.251  1.00  0.00     0.074 A 
ATOM     41  C   UNL     1       4.258   0.251  10.551  1.00  0.00     0.049 A 
ATOM     42  N   UNL     1       1.540   0.617   8.481  1.00  0.00    -0.248 NA
ATOM     43  C   UNL     1       1.535  -1.353   9.744  1.00  0.00     0.031 C 
ATOM     44  C   UNL     1       5.659   0.541  10.903  1.00  0.00     0.029 A 
ATOM     45  N   UNL     1       3.658   0.412  11.855  1.00  0.00    -0.354 N 
ATOM     46  C   UNL     1       0.237   0.186   8.598  1.00  0.00     0.074 A 
ATOM     47  C   UNL     1       0.342  -1.146   9.180  1.00  0.00     0.031 C 
ATOM     48  C   UNL     1       5.832   0.694  12.252  1.00  0.00     0.029 A 
ATOM     49  C   UNL     1       4.563   0.588  12.973  1.00  0.00     0.049 A 
ATOM     50  H   UNL     1       2.681   0.402  11.978  1.00  0.00     0.167 HD
ATOM     51  C   UNL     1      -0.684   1.137   8.924  1.00  0.00     0.037 A 
ATOM     52  C   UNL     1       4.346   0.709  14.349  1.00  0.00     0.037 A 
ATOM     53  C   UNL     1      -0.960   1.160  10.333  1.00  0.00     0.049 A 
ATOM     54  C   UNL     1       2.954   1.130  14.547  1.00  0.00     0.074 A 
ATOM     55  C   UNL     1      -1.235   0.169  11.252  1.00  0.00     0.029 A 
ATOM     56  N   UNL     1      -0.513   2.253  11.044  1.00  0.00    -0.354 N 
ATOM     57  N   UNL     1       2.581   2.361  14.386  1.00  0.00    -0.248 NA
ATOM     58  C   UNL     1       1.930   0.225  15.061  1.00  0.00     0.031 C 
ATOM     59  C   UNL     1      -0.462   0.510  12.380  1.00  0.00     0.029 A 
ATOM     60  C   UNL     1      -0.079   1.842  12.282  1.00  0.00     0.049 A 
ATOM     61  H   UNL     1      -0.507   3.182  10.718  1.00  0.00     0.167 HD
ATOM     62  C   UNL     1       1.238   2.240  14.226  1.00  0.00     0.074 A 
ATOM     63  C   UNL     1       0.871   1.026  14.929  1.00  0.00     0.031 C 
ATOM     64  C   UNL     1       0.761   2.720  13.052  1.00  0.00     0.037 A 
BRANCH  51  65
ATOM     65  C   UNL     1      -0.671   2.368   8.076  1.00  0.00     0.064 A 
ATOM     66  C   UNL     1      -1.784   2.638   7.275  1.00  0.00     0.173 A 
ATOM     67  C   UNL     1       0.415   3.260   8.005  1.00  0.00     0.173 A 
ATOM     68  F   UNL     1      -2.877   1.863   7.357  1.00  0.00    -0.203 F 
ATOM     69  C   UNL     1      -1.788   3.719   6.396  1.00  0.00     0.198 A 
ATOM     70  C   UNL     1       0.433   4.303   7.087  1.00  0.00     0.198 A 
ATOM     71  F   UNL     1       1.440   3.168   8.868  1.00  0.00    -0.203 F 
ATOM     72  F   UNL     1      -2.878   3.980   5.662  1.00  0.00    -0.200 F 
ATOM     73  C   UNL     1      -0.668   4.530   6.279  1.00  0.00     0.200 A 
ATOM     74  F   UNL     1       1.508   5.099   7.004  1.00  0.00    -0.200 F 
ATOM     75  F   UNL     1      -0.661   5.551   5.412  1.00  0.00    -0.200 F 
ENDBRANCH  51  65
BRANCH  52  76
ATOM     76  C   UNL     1       5.047   0.703  15.742  1.00  0.00     0.064 A 
ATOM     77  C   UNL     1       4.532   1.476  16.845  1.00  0.00     0.173 A 
ATOM     78  C   UNL     1       5.905  -0.329  16.144  1.00  0.00     0.173 A 
ATOM     79  F   UNL     1       3.720   2.523  16.644  1.00  0.00    -0.203 F 
ATOM     80  C   UNL     1       4.756   1.167  18.199  1.00  0.00     0.198 A 
ATOM     81  C   UNL     1       6.160  -0.616  17.512  1.00  0.00     0.198 A 
ATOM     82  F   UNL     1       6.439  -1.145  15.227  1.00  0.00    -0.203 F 
ATOM     83  F   UNL     1       4.128   1.858  19.166  1.00  0.00    -0.200 F 
ATOM     84  C   UNL     1       5.560   0.105  18.534  1.00  0.00     0.200 A 
ATOM     85  F   UNL     1       6.942  -1.655  17.841  1.00  0.00    -0.200 F 
ATOM     86  F   UNL     1       5.726  -0.241  19.821  1.00  0.00    -0.200 F 
ENDBRANCH  52  76
BRANCH  64  87
ATOM     87  C   UNL     1       1.313   4.059  12.602  1.00  0.00     0.064 A 
ATOM     88  C   UNL     1       2.676   4.410  12.449  1.00  0.00     0.173 A 
ATOM     89  C   UNL     1       0.386   5.093  12.412  1.00  0.00     0.173 A 
ATOM     90  F   UNL     1       3.655   3.496  12.492  1.00  0.00    -0.203 F 
ATOM     91  C   UNL     1       3.075   5.731  12.221  1.00  0.00     0.198 A 
ATOM     92  C   UNL     1       0.784   6.399  12.132  1.00  0.00     0.198 A 
ATOM     93  F   UNL     1      -0.928   4.831  12.488  1.00  0.00    -0.203 F 
ATOM     94  F   UNL     1       4.379   6.039  12.154  1.00  0.00    -0.200 F 
ATOM     95  C   UNL     1       2.127   6.724  12.063  1.00  0.00     0.200 A 
ATOM     96  F   UNL     1      -0.144   7.344  11.930  1.00  0.00    -0.200 F 
ATOM     97  F   UNL     1       2.505   7.989  11.828  1.00  0.00    -0.200 F 
ENDBRANCH  64  87
ENDBRANCH  38  39
ENDBRANCH  31  33
ENDBRANCH  30  31
ENDBRANCH  29  30
ENDBRANCH   1  29
TORSDOF 15
