REMARK SMILES Cc1occc1C(=O)N1[C@@H](C(=O)OCCOC(=O)c2ccc(-c3c4nc(c(-c5c(F)c(F)c(F)c(F)c5F)c5ccc([nH]5)c(-c5c(F)c(F)c(F)c(F)c5F)c5nc(c(-c6c(F)c(F)c(F)c(F)c6F)c6ccc3[nH]6)C=C5)C=C4)cc2)C[C@@H]2CCCC[C@H]21
REMARK SMILES IDX 14 1 13 2 11 3 12 4 10 5 9 6 88 7 82 8 83 9 87 10 84 11
REMARK SMILES IDX 86 12 85 13 7 14 8 15 6 16 1 17 2 18 3 19 4 20 5 21 15 22
REMARK SMILES IDX 16 23 17 24 18 25 19 26 20 27 81 28 21 29 80 30 22 31 23 32
REMARK SMILES IDX 24 33 74 34 25 35 79 36 73 37 75 38 26 39 78 40 72 41 71 42
REMARK SMILES IDX 27 44 59 45 39 46 58 47 40 48 43 49 57 50 76 51 41 52 42 53
REMARK SMILES IDX 56 55 77 56 44 57 28 58 29 59 37 60 30 61 31 62 35 63 38 64
REMARK SMILES IDX 32 65 33 66 36 67 34 68 60 69 61 70 69 71 62 72 63 73 67 74
REMARK SMILES IDX 70 75 64 76 65 77 68 78 66 79 45 80 46 81 54 82 47 83 48 84
REMARK SMILES IDX 52 85 55 86 49 87 50 88 53 89 51 90
REMARK H PARENT 75 43 43 54
REMARK Flexibility Score: inf
ROOT
ATOM      1  C   UNL     1       0.536  -3.083  -4.022  1.00  0.00     0.274 C 
ENDROOT
BRANCH   1   2
ATOM      2  O   UNL     1       0.787  -3.085  -2.601  1.00  0.00    -0.461 OA
BRANCH   2   3
ATOM      3  C   UNL     1       1.699  -3.993  -2.162  1.00  0.00     0.329 C 
ATOM      4  O   UNL     1       2.294  -4.785  -2.888  1.00  0.00    -0.250 OA
BRANCH   3   5
ATOM      5  C   UNL     1       1.825  -4.029  -0.634  1.00  0.00     0.196 C 
ATOM      6  N   UNL     1       1.450  -2.837   0.170  1.00  0.00    -0.321 N 
ATOM      7  C   UNL     1       2.319  -2.850   1.347  1.00  0.00     0.089 C 
ATOM      8  C   UNL     1       3.269  -4.376  -0.198  1.00  0.00     0.043 C 
ATOM      9  C   UNL     1       3.655  -3.213   0.706  1.00  0.00     0.014 C 
ATOM     10  C   UNL     1       2.476  -1.643   2.261  1.00  0.00     0.025 C 
ATOM     11  C   UNL     1       4.761  -3.481   1.711  1.00  0.00     0.006 C 
ATOM     12  C   UNL     1       3.582  -1.899   3.298  1.00  0.00     0.002 C 
ATOM     13  C   UNL     1       4.912  -2.271   2.634  1.00  0.00     0.000 C 
BRANCH   6  14
ATOM     14  C   UNL     1       0.093  -2.549   0.251  1.00  0.00     0.258 C 
ATOM     15  O   UNL     1      -0.738  -3.454   0.149  1.00  0.00    -0.269 OA
BRANCH  14  16
ATOM     16  C   UNL     1      -0.350  -1.158   0.357  1.00  0.00     0.081 A 
ATOM     17  C   UNL     1       1.669   0.510  -0.161  1.00  0.00     0.088 C 
ATOM     18  C   UNL     1       0.307   0.055   0.183  1.00  0.00     0.113 A 
ATOM     19  O   UNL     1      -0.567   1.095   0.342  1.00  0.00    -0.469 OA
ATOM     20  C   UNL     1      -1.794   0.575   0.555  1.00  0.00     0.196 A 
ATOM     21  C   UNL     1      -1.724  -0.792   0.572  1.00  0.00     0.056 A 
ENDBRANCH  14  16
ENDBRANCH   6  14
ENDBRANCH   3   5
ENDBRANCH   2   3
ENDBRANCH   1   2
BRANCH   1  22
ATOM     22  C   UNL     1       1.011  -1.767  -4.623  1.00  0.00     0.275 C 
BRANCH  22  23
ATOM     23  O   UNL     1       2.378  -1.558  -4.230  1.00  0.00    -0.458 OA
BRANCH  23  24
ATOM     24  C   UNL     1       2.628  -0.396  -3.592  1.00  0.00     0.338 C 
ATOM     25  O   UNL     1       1.869   0.558  -3.472  1.00  0.00    -0.246 OA
BRANCH  24  26
ATOM     26  C   UNL     1       3.988  -0.407  -3.019  1.00  0.00     0.060 A 
ATOM     27  C   UNL     1       4.565  -1.581  -2.529  1.00  0.00     0.016 A 
ATOM     28  C   UNL     1       4.673   0.804  -2.901  1.00  0.00     0.016 A 
ATOM     29  C   UNL     1       5.809  -1.536  -1.894  1.00  0.00     0.010 A 
ATOM     30  C   UNL     1       5.954   0.831  -2.343  1.00  0.00     0.010 A 
ATOM     31  C   UNL     1       6.537  -0.338  -1.827  1.00  0.00    -0.014 A 
BRANCH  31  32
ATOM     32  C   UNL     1       7.920  -0.297  -1.274  1.00  0.00     0.031 A 
ATOM     33  C   UNL     1       8.270   0.630  -0.142  1.00  0.00     0.074 A 
ATOM     34  C   UNL     1       8.888  -1.054  -1.828  1.00  0.00     0.049 A 
ATOM     35  N   UNL     1       9.450   0.994   0.295  1.00  0.00    -0.248 NA
ATOM     36  C   UNL     1       7.147   1.237   0.588  1.00  0.00     0.031 C 
ATOM     37  C   UNL     1       8.694  -2.023  -2.908  1.00  0.00     0.029 A 
ATOM     38  N   UNL     1      10.235  -1.120  -1.565  1.00  0.00    -0.354 N 
ATOM     39  C   UNL     1       9.215   1.911   1.310  1.00  0.00     0.074 A 
ATOM     40  C   UNL     1       7.778   2.042   1.434  1.00  0.00     0.031 C 
ATOM     41  C   UNL     1       9.866  -2.609  -3.191  1.00  0.00     0.029 A 
ATOM     42  C   UNL     1      10.911  -1.988  -2.386  1.00  0.00     0.049 A 
ATOM     43  H   UNL     1      10.673  -0.595  -0.857  1.00  0.00     0.167 HD
ATOM     44  C   UNL     1      10.118   2.586   2.062  1.00  0.00     0.037 A 
ATOM     45  C   UNL     1      12.229  -2.224  -2.526  1.00  0.00     0.037 A 
ATOM     46  C   UNL     1      11.547   2.422   1.969  1.00  0.00     0.049 A 
ATOM     47  C   UNL     1      13.211  -1.431  -1.715  1.00  0.00     0.074 A 
ATOM     48  C   UNL     1      12.539   3.048   2.706  1.00  0.00     0.029 A 
ATOM     49  N   UNL     1      12.188   1.560   1.093  1.00  0.00    -0.354 N 
ATOM     50  N   UNL     1      12.982  -0.513  -0.809  1.00  0.00    -0.248 NA
ATOM     51  C   UNL     1      14.636  -1.681  -1.973  1.00  0.00     0.031 C 
ATOM     52  C   UNL     1      13.781   2.586   2.256  1.00  0.00     0.029 A 
ATOM     53  C   UNL     1      13.561   1.647   1.262  1.00  0.00     0.049 A 
ATOM     54  H   UNL     1      11.735   0.971   0.447  1.00  0.00     0.167 HD
ATOM     55  C   UNL     1      14.229  -0.073  -0.391  1.00  0.00     0.074 A 
ATOM     56  C   UNL     1      15.213  -0.842  -1.125  1.00  0.00     0.031 C 
ATOM     57  C   UNL     1      14.529   0.888   0.514  1.00  0.00     0.037 A 
BRANCH  44  58
ATOM     58  C   UNL     1       9.597   3.595   3.042  1.00  0.00     0.064 A 
ATOM     59  C   UNL     1       9.011   3.212   4.256  1.00  0.00     0.173 A 
ATOM     60  C   UNL     1       9.751   4.968   2.789  1.00  0.00     0.173 A 
ATOM     61  F   UNL     1       8.831   1.913   4.538  1.00  0.00    -0.203 F 
ATOM     62  C   UNL     1       8.586   4.167   5.177  1.00  0.00     0.198 A 
ATOM     63  C   UNL     1       9.345   5.919   3.721  1.00  0.00     0.198 A 
ATOM     64  F   UNL     1      10.312   5.385   1.644  1.00  0.00    -0.203 F 
ATOM     65  F   UNL     1       8.003   3.780   6.320  1.00  0.00    -0.200 F 
ATOM     66  C   UNL     1       8.760   5.518   4.912  1.00  0.00     0.200 A 
ATOM     67  F   UNL     1       9.524   7.223   3.468  1.00  0.00    -0.200 F 
ATOM     68  F   UNL     1       8.361   6.434   5.806  1.00  0.00    -0.200 F 
ENDBRANCH  44  58
BRANCH  45  69
ATOM     69  C   UNL     1      12.690  -3.227  -3.518  1.00  0.00     0.064 A 
ATOM     70  C   UNL     1      13.220  -4.454  -3.101  1.00  0.00     0.173 A 
ATOM     71  C   UNL     1      12.575  -2.995  -4.897  1.00  0.00     0.173 A 
ATOM     72  F   UNL     1      13.373  -4.707  -1.793  1.00  0.00    -0.203 F 
ATOM     73  C   UNL     1      13.613  -5.417  -4.028  1.00  0.00     0.198 A 
ATOM     74  C   UNL     1      12.942  -3.969  -5.821  1.00  0.00     0.198 A 
ATOM     75  F   UNL     1      12.074  -1.834  -5.343  1.00  0.00    -0.203 F 
ATOM     76  F   UNL     1      14.138  -6.575  -3.605  1.00  0.00    -0.200 F 
ATOM     77  C   UNL     1      13.463  -5.178  -5.386  1.00  0.00     0.200 A 
ATOM     78  F   UNL     1      12.782  -3.740  -7.132  1.00  0.00    -0.200 F 
ATOM     79  F   UNL     1      13.823  -6.113  -6.276  1.00  0.00    -0.200 F 
ENDBRANCH  45  69
BRANCH  57  80
ATOM     80  C   UNL     1      15.981   1.158   0.761  1.00  0.00     0.064 A 
ATOM     81  C   UNL     1      16.750   1.891  -0.154  1.00  0.00     0.173 A 
ATOM     82  C   UNL     1      16.604   0.697   1.929  1.00  0.00     0.173 A 
ATOM     83  F   UNL     1      16.201   2.335  -1.294  1.00  0.00    -0.203 F 
ATOM     84  C   UNL     1      18.100   2.137   0.084  1.00  0.00     0.198 A 
ATOM     85  C   UNL     1      17.949   0.962   2.173  1.00  0.00     0.198 A 
ATOM     86  F   UNL     1      15.908  -0.008   2.834  1.00  0.00    -0.203 F 
ATOM     87  F   UNL     1      18.827   2.806  -0.821  1.00  0.00    -0.200 F 
ATOM     88  C   UNL     1      18.697   1.676   1.249  1.00  0.00     0.200 A 
ATOM     89  F   UNL     1      18.524   0.520   3.300  1.00  0.00    -0.200 F 
ATOM     90  F   UNL     1      19.996   1.912   1.476  1.00  0.00    -0.200 F 
ENDBRANCH  57  80
ENDBRANCH  31  32
ENDBRANCH  24  26
ENDBRANCH  23  24
ENDBRANCH  22  23
ENDBRANCH   1  22
TORSDOF 13
