REMARK SMILES C[NH2+][C@]1(C(=O)OCCOC(=O)c2ccc(-c3c4nc(c(-c5c(F)c(F)c(F)c(F)c5F)c5ccc([nH]5)c(-c5c(F)c(F)c(F)c(F)c5F)c5nc(c(-c6c(F)c(F)c(F)c(F)c6F)c6ccc3[nH]6)C=C5)C=C4)cc2)CCC[C@@H](Sc2nncs2)C1
REMARK SMILES IDX 7 1 6 2 4 3 5 4 3 5 75 6 85 7 76 8 78 9 77 10 2 11 1 12
REMARK SMILES IDX 79 15 80 16 81 17 84 18 82 19 83 20 8 21 9 22 10 23 11 24
REMARK SMILES IDX 12 25 13 26 74 27 14 28 73 29 15 30 16 31 17 32 67 33 18 34
REMARK SMILES IDX 72 35 66 36 68 37 19 38 71 39 65 40 64 41 20 43 52 44 32 45
REMARK SMILES IDX 51 46 33 47 36 48 50 49 69 50 34 51 35 52 49 54 70 55 37 56
REMARK SMILES IDX 21 57 22 58 30 59 23 60 24 61 28 62 31 63 25 64 26 65 29 66
REMARK SMILES IDX 27 67 53 68 54 69 62 70 55 71 56 72 60 73 63 74 57 75 58 76
REMARK SMILES IDX 61 77 59 78 38 79 39 80 47 81 40 82 41 83 45 84 48 85 42 86
REMARK SMILES IDX 43 87 46 88 44 89
REMARK H PARENT 2 13 2 14 68 42 36 53
REMARK Flexibility Score: inf
ROOT
ATOM      1  C   UNL     1       2.420   1.137   0.392  1.00  0.00     0.274 C 
ENDROOT
BRANCH   1   2
ATOM      2  O   UNL     1       0.988   0.964   0.402  1.00  0.00    -0.457 OA
BRANCH   2   3
ATOM      3  C   UNL     1       0.257   1.809  -0.381  1.00  0.00     0.368 C 
ATOM      4  O   UNL     1       0.750   2.711  -1.051  1.00  0.00    -0.245 OA
BRANCH   3   5
ATOM      5  C   UNL     1      -1.285   1.532  -0.277  1.00  0.00     0.195 C 
ATOM      6  C   UNL     1      -1.565   0.158   0.399  1.00  0.00     0.081 C 
ATOM      7  C   UNL     1      -1.868   2.649   0.617  1.00  0.00     0.096 C 
ATOM      8  C   UNL     1      -3.036  -0.067   0.760  1.00  0.00     0.008 C 
ATOM      9  C   UNL     1      -3.347   2.432   0.950  1.00  0.00     0.061 C 
ATOM     10  C   UNL     1      -3.586   1.073   1.617  1.00  0.00     0.015 C 
BRANCH   5  11
ATOM     11  N   UNL     1      -1.879   1.471  -1.647  1.00  0.00    -0.335 N 
ATOM     12  C   UNL     1      -2.066   2.744  -2.332  1.00  0.00     0.331 C 
ATOM     13  H   UNL     1      -1.267   0.896  -2.225  1.00  0.00     0.347 HD
ATOM     14  H   UNL     1      -2.818   1.094  -1.518  1.00  0.00     0.347 HD
ENDBRANCH   5  11
BRANCH   9  15
ATOM     15  S   UNL     1      -4.082   3.810   1.904  1.00  0.00    -0.090 SA
BRANCH  15  16
ATOM     16  C   UNL     1      -3.206   3.756   3.412  1.00  0.00     0.174 A 
ATOM     17  N   UNL     1      -1.897   3.866   3.478  1.00  0.00    -0.132 NA
ATOM     18  S   UNL     1      -3.975   3.590   4.935  1.00  0.00    -0.094 S 
ATOM     19  N   UNL     1      -1.427   3.782   4.773  1.00  0.00    -0.146 NA
ATOM     20  C   UNL     1      -2.411   3.644   5.635  1.00  0.00     0.203 A 
ENDBRANCH  15  16
ENDBRANCH   9  15
ENDBRANCH   3   5
ENDBRANCH   2   3
ENDBRANCH   1   2
BRANCH   1  21
ATOM     21  C   UNL     1       3.076   0.032  -0.429  1.00  0.00     0.275 C 
BRANCH  21  22
ATOM     22  O   UNL     1       2.658   0.162  -1.798  1.00  0.00    -0.458 OA
BRANCH  22  23
ATOM     23  C   UNL     1       2.123  -0.941  -2.367  1.00  0.00     0.338 C 
ATOM     24  O   UNL     1       2.047  -2.064  -1.903  1.00  0.00    -0.246 OA
BRANCH  23  25
ATOM     25  C   UNL     1       1.605  -0.576  -3.694  1.00  0.00     0.060 A 
ATOM     26  C   UNL     1       0.557   0.338  -3.785  1.00  0.00     0.016 A 
ATOM     27  C   UNL     1       2.090  -1.206  -4.837  1.00  0.00     0.016 A 
ATOM     28  C   UNL     1      -0.051   0.590  -5.011  1.00  0.00     0.010 A 
ATOM     29  C   UNL     1       1.525  -0.901  -6.080  1.00  0.00     0.010 A 
ATOM     30  C   UNL     1       0.430  -0.021  -6.174  1.00  0.00    -0.014 A 
BRANCH  30  31
ATOM     31  C   UNL     1      -0.256   0.203  -7.473  1.00  0.00     0.031 A 
ATOM     32  C   UNL     1      -0.937  -0.946  -8.162  1.00  0.00     0.074 A 
ATOM     33  C   UNL     1      -0.303   1.432  -8.022  1.00  0.00     0.049 A 
ATOM     34  N   UNL     1      -1.440  -1.010  -9.369  1.00  0.00    -0.248 NA
ATOM     35  C   UNL     1      -1.063  -2.192  -7.391  1.00  0.00     0.031 C 
ATOM     36  C   UNL     1       0.253   2.647  -7.428  1.00  0.00     0.029 A 
ATOM     37  N   UNL     1      -0.854   1.861  -9.205  1.00  0.00    -0.354 N 
ATOM     38  C   UNL     1      -1.891  -2.314  -9.521  1.00  0.00     0.074 A 
ATOM     39  C   UNL     1      -1.610  -3.008  -8.282  1.00  0.00     0.031 C 
ATOM     40  C   UNL     1      -0.006   3.688  -8.235  1.00  0.00     0.029 A 
ATOM     41  C   UNL     1      -0.680   3.203  -9.436  1.00  0.00     0.049 A 
ATOM     42  H   UNL     1      -1.327   1.263  -9.828  1.00  0.00     0.167 HD
ATOM     43  C   UNL     1      -2.480  -2.881 -10.600  1.00  0.00     0.037 A 
ATOM     44  C   UNL     1      -0.994   3.951 -10.510  1.00  0.00     0.037 A 
ATOM     45  C   UNL     1      -2.804  -2.178 -11.812  1.00  0.00     0.049 A 
ATOM     46  C   UNL     1      -1.626   3.295 -11.706  1.00  0.00     0.074 A 
ATOM     47  C   UNL     1      -3.391  -2.667 -12.967  1.00  0.00     0.029 A 
ATOM     48  N   UNL     1      -2.587  -0.823 -12.017  1.00  0.00    -0.354 N 
ATOM     49  N   UNL     1      -1.974   2.043 -11.874  1.00  0.00    -0.248 NA
ATOM     50  C   UNL     1      -1.888   4.152 -12.871  1.00  0.00     0.031 C 
ATOM     51  C   UNL     1      -3.509  -1.611 -13.879  1.00  0.00     0.029 A 
ATOM     52  C   UNL     1      -3.025  -0.460 -13.280  1.00  0.00     0.049 A 
ATOM     53  H   UNL     1      -2.181  -0.211 -11.362  1.00  0.00     0.167 HD
ATOM     54  C   UNL     1      -2.494   1.960 -13.158  1.00  0.00     0.074 A 
ATOM     55  C   UNL     1      -2.441   3.295 -13.718  1.00  0.00     0.031 C 
ATOM     56  C   UNL     1      -2.963   0.874 -13.818  1.00  0.00     0.037 A 
BRANCH  43  57
ATOM     57  C   UNL     1      -2.777  -4.348 -10.531  1.00  0.00     0.064 A 
ATOM     58  C   UNL     1      -3.849  -4.852  -9.781  1.00  0.00     0.173 A 
ATOM     59  C   UNL     1      -1.986  -5.260 -11.248  1.00  0.00     0.173 A 
ATOM     60  F   UNL     1      -4.621  -4.022  -9.066  1.00  0.00    -0.203 F 
ATOM     61  C   UNL     1      -4.107  -6.220  -9.736  1.00  0.00     0.198 A 
ATOM     62  C   UNL     1      -2.261  -6.624 -11.218  1.00  0.00     0.198 A 
ATOM     63  F   UNL     1      -0.950  -4.826 -11.981  1.00  0.00    -0.203 F 
ATOM     64  F   UNL     1      -5.113  -6.686  -8.983  1.00  0.00    -0.200 F 
ATOM     65  C   UNL     1      -3.317  -7.103 -10.458  1.00  0.00     0.200 A 
ATOM     66  F   UNL     1      -1.502  -7.475 -11.922  1.00  0.00    -0.200 F 
ATOM     67  F   UNL     1      -3.570  -8.419 -10.415  1.00  0.00    -0.200 F 
ENDBRANCH  43  57
BRANCH  44  68
ATOM     68  C   UNL     1      -0.675   5.402 -10.518  1.00  0.00     0.064 A 
ATOM     69  C   UNL     1      -1.691   6.364 -10.455  1.00  0.00     0.173 A 
ATOM     70  C   UNL     1       0.651   5.854 -10.582  1.00  0.00     0.173 A 
ATOM     71  F   UNL     1      -2.976   5.979 -10.422  1.00  0.00    -0.203 F 
ATOM     72  C   UNL     1      -1.393   7.725 -10.462  1.00  0.00     0.198 A 
ATOM     73  C   UNL     1       0.950   7.214 -10.562  1.00  0.00     0.198 A 
ATOM     74  F   UNL     1       1.659   4.971 -10.650  1.00  0.00    -0.203 F 
ATOM     75  F   UNL     1      -2.385   8.626 -10.437  1.00  0.00    -0.200 F 
ATOM     76  C   UNL     1      -0.073   8.149 -10.507  1.00  0.00     0.200 A 
ATOM     77  F   UNL     1       2.227   7.618 -10.597  1.00  0.00    -0.200 F 
ATOM     78  F   UNL     1       0.213   9.458 -10.505  1.00  0.00    -0.200 F 
ENDBRANCH  44  68
BRANCH  56  79
ATOM     79  C   UNL     1      -3.466   1.088 -15.212  1.00  0.00     0.064 A 
ATOM     80  C   UNL     1      -2.583   1.259 -16.287  1.00  0.00     0.173 A 
ATOM     81  C   UNL     1      -4.843   1.088 -15.480  1.00  0.00     0.173 A 
ATOM     82  F   UNL     1      -1.258   1.282 -16.075  1.00  0.00    -0.203 F 
ATOM     83  C   UNL     1      -3.061   1.438 -17.582  1.00  0.00     0.198 A 
ATOM     84  C   UNL     1      -5.316   1.248 -16.779  1.00  0.00     0.198 A 
ATOM     85  F   UNL     1      -5.726   0.925 -14.484  1.00  0.00    -0.203 F 
ATOM     86  F   UNL     1      -2.201   1.635 -18.591  1.00  0.00    -0.200 F 
ATOM     87  C   UNL     1      -4.426   1.428 -17.827  1.00  0.00     0.200 A 
ATOM     88  F   UNL     1      -6.635   1.231 -17.017  1.00  0.00    -0.200 F 
ATOM     89  F   UNL     1      -4.885   1.599 -19.075  1.00  0.00    -0.200 F 
ENDBRANCH  56  79
ENDBRANCH  30  31
ENDBRANCH  23  25
ENDBRANCH  22  23
ENDBRANCH  21  22
ENDBRANCH   1  21
TORSDOF 14
