REMARK SMILES O=C(OCCOC(=O)c1cc(-c2cccc(Cl)c2)ccc1Cl)c1ccc(-c2c3nc(c(-c4c(F)c(F)c(F)c(F)c4F)c4ccc([nH]4)c(-c4c(F)c(F)c(F)c(F)c4F)c4nc(c(-c5c(F)c(F)c(F)c(F)c5F)c5ccc2[nH]5)C=C4)C=C3)cc1
REMARK SMILES IDX 4 1 3 2 2 3 1 4 23 5 24 6 85 7 25 8 84 9 26 10 27 11 28 12
REMARK SMILES IDX 78 13 29 14 83 15 77 16 79 17 30 18 82 19 76 20 75 21 31 23
REMARK SMILES IDX 63 24 43 25 62 26 44 27 47 28 61 29 80 30 45 31 46 32 60 34
REMARK SMILES IDX 81 35 48 36 32 37 33 38 41 39 34 40 35 41 39 42 42 43 36 44
REMARK SMILES IDX 37 45 40 46 38 47 64 48 65 49 73 50 66 51 67 52 71 53 74 54
REMARK SMILES IDX 68 55 69 56 72 57 70 58 49 59 50 60 58 61 51 62 52 63 56 64
REMARK SMILES IDX 59 65 53 66 54 67 57 68 55 69 5 70 6 71 7 72 8 73 9 74 10 75
REMARK SMILES IDX 21 76 11 77 20 78 22 79 19 80 12 81 13 82 18 83 14 84 16 85
REMARK SMILES IDX 15 86 17 87
REMARK H PARENT 79 22 47 33
REMARK Flexibility Score: inf
ROOT
ATOM      1  C   UNL     1       4.174  -1.749  -0.199  1.00  0.00     0.275 C 
ENDROOT
BRANCH   1   2
ATOM      2  O   UNL     1       3.304  -1.086   0.732  1.00  0.00    -0.458 OA
BRANCH   2   3
ATOM      3  C   UNL     1       3.243   0.220   1.071  1.00  0.00     0.338 C 
ATOM      4  O   UNL     1       2.537   0.550   2.023  1.00  0.00    -0.246 OA
BRANCH   3   5
ATOM      5  C   UNL     1       3.873   1.321   0.276  1.00  0.00     0.060 A 
ATOM      6  C   UNL     1       5.084   1.278  -0.419  1.00  0.00     0.016 A 
ATOM      7  C   UNL     1       3.170   2.536   0.281  1.00  0.00     0.016 A 
ATOM      8  C   UNL     1       5.553   2.396  -1.127  1.00  0.00     0.010 A 
ATOM      9  C   UNL     1       3.615   3.645  -0.441  1.00  0.00     0.010 A 
ATOM     10  C   UNL     1       4.827   3.589  -1.135  1.00  0.00    -0.014 A 
BRANCH  10  11
ATOM     11  C   UNL     1       5.400   4.837  -1.691  1.00  0.00     0.031 A 
ATOM     12  C   UNL     1       5.872   5.891  -0.729  1.00  0.00     0.074 A 
ATOM     13  C   UNL     1       5.468   5.050  -3.017  1.00  0.00     0.049 A 
ATOM     14  N   UNL     1       6.351   7.083  -0.969  1.00  0.00    -0.248 NA
ATOM     15  C   UNL     1       5.787   5.551   0.701  1.00  0.00     0.031 C 
ATOM     16  C   UNL     1       5.075   4.093  -4.045  1.00  0.00     0.029 A 
ATOM     17  N   UNL     1       5.865   6.155  -3.727  1.00  0.00    -0.354 N 
ATOM     18  C   UNL     1       6.642   7.623   0.276  1.00  0.00     0.074 A 
ATOM     19  C   UNL     1       6.203   6.670   1.270  1.00  0.00     0.031 C 
ATOM     20  C   UNL     1       5.184   4.671  -5.253  1.00  0.00     0.029 A 
ATOM     21  C   UNL     1       5.668   6.038  -5.081  1.00  0.00     0.049 A 
ATOM     22  H   UNL     1       6.253   6.956  -3.305  1.00  0.00     0.167 HD
ATOM     23  C   UNL     1       7.264   8.789   0.566  1.00  0.00     0.037 A 
ATOM     24  C   UNL     1       5.852   6.939  -6.065  1.00  0.00     0.037 A 
ATOM     25  C   UNL     1       7.691   9.734  -0.427  1.00  0.00     0.049 A 
ATOM     26  C   UNL     1       6.456   8.275  -5.722  1.00  0.00     0.074 A 
ATOM     27  C   UNL     1       8.355  10.934  -0.255  1.00  0.00     0.029 A 
ATOM     28  N   UNL     1       7.481   9.581  -1.791  1.00  0.00    -0.354 N 
ATOM     29  N   UNL     1       6.801   8.746  -4.547  1.00  0.00    -0.248 NA
ATOM     30  C   UNL     1       6.734   9.188  -6.839  1.00  0.00     0.031 C 
ATOM     31  C   UNL     1       8.513  11.525  -1.514  1.00  0.00     0.029 A 
ATOM     32  C   UNL     1       7.986  10.673  -2.473  1.00  0.00     0.049 A 
ATOM     33  H   UNL     1       7.037   8.809  -2.210  1.00  0.00     0.167 HD
ATOM     34  C   UNL     1       7.390   9.979  -4.787  1.00  0.00     0.074 A 
ATOM     35  C   UNL     1       7.337  10.194  -6.219  1.00  0.00     0.031 C 
ATOM     36  C   UNL     1       7.945  10.846  -3.904  1.00  0.00     0.037 A 
BRANCH  23  37
ATOM     37  C   UNL     1       7.510   9.075   2.018  1.00  0.00     0.064 A 
ATOM     38  C   UNL     1       8.431   8.318   2.763  1.00  0.00     0.173 A 
ATOM     39  C   UNL     1       6.784  10.069   2.687  1.00  0.00     0.173 A 
ATOM     40  F   UNL     1       9.136   7.341   2.172  1.00  0.00    -0.203 F 
ATOM     41  C   UNL     1       8.574   8.511   4.133  1.00  0.00     0.198 A 
ATOM     42  C   UNL     1       6.953  10.280   4.053  1.00  0.00     0.198 A 
ATOM     43  F   UNL     1       5.895  10.821   2.022  1.00  0.00    -0.203 F 
ATOM     44  F   UNL     1       9.400   7.723   4.836  1.00  0.00    -0.200 F 
ATOM     45  C   UNL     1       7.836   9.492   4.778  1.00  0.00     0.200 A 
ATOM     46  F   UNL     1       6.244  11.232   4.675  1.00  0.00    -0.200 F 
ATOM     47  F   UNL     1       7.962   9.665   6.100  1.00  0.00    -0.200 F 
ENDBRANCH  23  37
BRANCH  24  48
ATOM     48  C   UNL     1       5.494   6.591  -7.465  1.00  0.00     0.064 A 
ATOM     49  C   UNL     1       6.480   6.344  -8.429  1.00  0.00     0.173 A 
ATOM     50  C   UNL     1       4.153   6.494  -7.865  1.00  0.00     0.173 A 
ATOM     51  F   UNL     1       7.776   6.441  -8.099  1.00  0.00    -0.203 F 
ATOM     52  C   UNL     1       6.140   6.030  -9.744  1.00  0.00     0.198 A 
ATOM     53  C   UNL     1       3.813   6.162  -9.175  1.00  0.00     0.198 A 
ATOM     54  F   UNL     1       3.170   6.713  -6.979  1.00  0.00    -0.203 F 
ATOM     55  F   UNL     1       7.104   5.832 -10.653  1.00  0.00    -0.200 F 
ATOM     56  C   UNL     1       4.807   5.936 -10.116  1.00  0.00     0.200 A 
ATOM     57  F   UNL     1       2.524   6.061  -9.527  1.00  0.00    -0.200 F 
ATOM     58  F   UNL     1       4.481   5.632 -11.379  1.00  0.00    -0.200 F 
ENDBRANCH  24  48
BRANCH  36  59
ATOM     59  C   UNL     1       8.604  12.071  -4.461  1.00  0.00     0.064 A 
ATOM     60  C   UNL     1       7.862  13.155  -4.946  1.00  0.00     0.173 A 
ATOM     61  C   UNL     1      10.003  12.183  -4.441  1.00  0.00     0.173 A 
ATOM     62  F   UNL     1       6.523  13.086  -5.000  1.00  0.00    -0.203 F 
ATOM     63  C   UNL     1       8.498  14.307  -5.402  1.00  0.00     0.198 A 
ATOM     64  C   UNL     1      10.634  13.346  -4.872  1.00  0.00     0.198 A 
ATOM     65  F   UNL     1      10.756  11.172  -3.981  1.00  0.00    -0.203 F 
ATOM     66  F   UNL     1       7.771  15.321  -5.892  1.00  0.00    -0.200 F 
ATOM     67  C   UNL     1       9.881  14.405  -5.355  1.00  0.00     0.200 A 
ATOM     68  F   UNL     1      11.969  13.443  -4.814  1.00  0.00    -0.200 F 
ATOM     69  F   UNL     1      10.489  15.521  -5.779  1.00  0.00    -0.200 F 
ENDBRANCH  36  59
ENDBRANCH  10  11
ENDBRANCH   3   5
ENDBRANCH   2   3
ENDBRANCH   1   2
BRANCH   1  70
ATOM     70  C   UNL     1       3.655  -1.767  -1.635  1.00  0.00     0.275 C 
BRANCH  70  71
ATOM     71  O   UNL     1       3.228  -0.475  -2.091  1.00  0.00    -0.458 OA
BRANCH  71  72
ATOM     72  C   UNL     1       1.886  -0.287  -2.172  1.00  0.00     0.339 C 
ATOM     73  O   UNL     1       1.016  -1.072  -1.834  1.00  0.00    -0.246 OA
BRANCH  72  74
ATOM     74  C   UNL     1       1.594   1.083  -2.635  1.00  0.00     0.079 A 
ATOM     75  C   UNL     1       0.726   1.869  -1.848  1.00  0.00     0.026 A 
ATOM     76  C   UNL     1       2.123   1.599  -3.820  1.00  0.00     0.055 A 
ATOM     77  C   UNL     1       0.428   3.196  -2.205  1.00  0.00    -0.017 A 
ATOM     78  C   UNL     1       1.824   2.911  -4.188  1.00  0.00     0.022 A 
ATOM     79  Cl  UNL     1       3.110   0.677  -4.898  1.00  0.00    -0.083 Cl
ATOM     80  C   UNL     1       1.005   3.704  -3.381  1.00  0.00     0.010 A 
BRANCH  77  81
ATOM     81  C   UNL     1      -0.458   4.055  -1.399  1.00  0.00    -0.017 A 
ATOM     82  C   UNL     1      -1.615   4.614  -1.967  1.00  0.00     0.009 A 
ATOM     83  C   UNL     1      -0.153   4.399  -0.074  1.00  0.00     0.029 A 
ATOM     84  C   UNL     1      -2.425   5.496  -1.244  1.00  0.00     0.002 A 
ATOM     85  C   UNL     1      -0.955   5.289   0.644  1.00  0.00     0.041 A 
ATOM     86  C   UNL     1      -2.091   5.840   0.063  1.00  0.00     0.020 A 
ATOM     87  Cl  UNL     1      -0.516   5.724   2.250  1.00  0.00    -0.084 Cl
ENDBRANCH  77  81
ENDBRANCH  72  74
ENDBRANCH  71  72
ENDBRANCH  70  71
ENDBRANCH   1  70
TORSDOF 12
