REMARK SMILES Cc1c(CC(=O)OCCOC(=O)c2ccc(-c3c4nc(c(-c5c(F)c(F)c(F)c(F)c5F)c5ccc([nH]5)c(-c5c(F)c(F)c(F)c(F)c5F)c5nc(c(-c6c(F)c(F)c(F)c(F)c6F)c6ccc3[nH]6)C=C5)C=C4)cc2)c2ccccc2n1C(=O)c1ccc(Cl)cc1
REMARK SMILES IDX 8 1 7 2 5 3 6 4 4 5 3 6 1 7 2 8 82 9 76 10 81 11 77 12 80 13
REMARK SMILES IDX 78 14 79 15 83 16 84 17 85 18 86 19 91 20 87 21 90 22 88 23
REMARK SMILES IDX 89 24 9 25 10 26 11 27 12 28 13 29 14 30 75 31 15 32 74 33
REMARK SMILES IDX 16 34 17 35 18 36 68 37 19 38 73 39 67 40 69 41 20 42 72 43
REMARK SMILES IDX 66 44 65 45 21 47 53 48 33 49 52 50 34 51 37 52 51 53 70 54
REMARK SMILES IDX 35 55 36 56 50 58 71 59 38 60 22 61 23 62 31 63 24 64 25 65
REMARK SMILES IDX 29 66 32 67 26 68 27 69 30 70 28 71 54 72 55 73 63 74 56 75
REMARK SMILES IDX 57 76 61 77 64 78 58 79 59 80 62 81 60 82 39 83 40 84 48 85
REMARK SMILES IDX 41 86 42 87 46 88 49 89 43 90 44 91 47 92 45 93
REMARK H PARENT 69 46 37 57
REMARK Flexibility Score: inf
ROOT
ATOM      1  C   UNL     1       4.077  -3.224   3.275  1.00  0.00     0.274 C 
ENDROOT
BRANCH   1   2
ATOM      2  O   UNL     1       2.984  -2.400   2.809  1.00  0.00    -0.462 OA
BRANCH   2   3
ATOM      3  C   UNL     1       2.384  -2.827   1.674  1.00  0.00     0.310 C 
ATOM      4  O   UNL     1       2.699  -3.852   1.071  1.00  0.00    -0.252 OA
BRANCH   3   5
ATOM      5  C   UNL     1       1.345  -1.907   1.106  1.00  0.00     0.160 C 
BRANCH   5   6
ATOM      6  C   UNL     1       0.815  -0.716   1.856  1.00  0.00    -0.008 A 
ATOM      7  C   UNL     1       0.869   0.848  -0.208  1.00  0.00     0.065 C 
ATOM      8  C   UNL     1       0.621   0.509   1.229  1.00  0.00     0.028 A 
ATOM      9  N   UNL     1       0.164   1.429   2.166  1.00  0.00    -0.280 N 
ATOM     10  C   UNL     1       0.206  -0.600   3.149  1.00  0.00     0.004 A 
ATOM     11  C   UNL     1      -0.317   0.698   3.259  1.00  0.00     0.056 A 
ATOM     12  C   UNL     1      -0.016  -1.477   4.234  1.00  0.00     0.010 A 
ATOM     13  C   UNL     1      -1.138   1.062   4.353  1.00  0.00     0.027 A 
ATOM     14  C   UNL     1      -0.832  -1.120   5.315  1.00  0.00     0.001 A 
ATOM     15  C   UNL     1      -1.395   0.140   5.367  1.00  0.00     0.002 A 
BRANCH   9  16
ATOM     16  C   UNL     1       0.181   2.839   2.018  1.00  0.00     0.262 C 
ATOM     17  O   UNL     1       0.638   3.330   0.988  1.00  0.00    -0.268 OA
BRANCH  16  18
ATOM     18  C   UNL     1      -0.295   3.786   3.030  1.00  0.00     0.040 A 
ATOM     19  C   UNL     1       0.386   3.928   4.244  1.00  0.00     0.015 A 
ATOM     20  C   UNL     1      -1.469   4.496   2.765  1.00  0.00     0.015 A 
ATOM     21  C   UNL     1      -0.155   4.755   5.229  1.00  0.00     0.021 A 
ATOM     22  C   UNL     1      -1.999   5.323   3.752  1.00  0.00     0.021 A 
ATOM     23  C   UNL     1      -1.347   5.440   4.982  1.00  0.00     0.041 A 
ATOM     24  Cl  UNL     1      -2.033   6.423   6.215  1.00  0.00    -0.084 Cl
ENDBRANCH  16  18
ENDBRANCH   9  16
ENDBRANCH   5   6
ENDBRANCH   3   5
ENDBRANCH   2   3
ENDBRANCH   1   2
BRANCH   1  25
ATOM     25  C   UNL     1       3.629  -4.120   4.433  1.00  0.00     0.275 C 
BRANCH  25  26
ATOM     26  O   UNL     1       2.768  -5.150   3.921  1.00  0.00    -0.458 OA
BRANCH  26  27
ATOM     27  C   UNL     1       1.473  -5.127   4.318  1.00  0.00     0.338 C 
ATOM     28  O   UNL     1       1.003  -4.585   5.303  1.00  0.00    -0.246 OA
BRANCH  27  29
ATOM     29  C   UNL     1       0.697  -5.554   3.140  1.00  0.00     0.060 A 
ATOM     30  C   UNL     1       1.088  -6.666   2.393  1.00  0.00     0.016 A 
ATOM     31  C   UNL     1      -0.256  -4.658   2.646  1.00  0.00     0.016 A 
ATOM     32  C   UNL     1       0.630  -6.787   1.089  1.00  0.00     0.010 A 
ATOM     33  C   UNL     1      -0.661  -4.745   1.329  1.00  0.00     0.010 A 
ATOM     34  C   UNL     1      -0.172  -5.777   0.540  1.00  0.00    -0.014 A 
BRANCH  34  35
ATOM     35  C   UNL     1      -0.675  -5.929  -0.809  1.00  0.00     0.031 A 
ATOM     36  C   UNL     1      -1.890  -6.766  -0.890  1.00  0.00     0.074 A 
ATOM     37  C   UNL     1      -0.243  -5.309  -1.920  1.00  0.00     0.049 A 
ATOM     38  N   UNL     1      -1.965  -7.972  -1.339  1.00  0.00    -0.248 NA
ATOM     39  C   UNL     1      -3.137  -6.248  -0.316  1.00  0.00     0.031 C 
ATOM     40  C   UNL     1       0.680  -4.191  -2.083  1.00  0.00     0.029 A 
ATOM     41  N   UNL     1      -0.648  -5.570  -3.194  1.00  0.00    -0.354 N 
ATOM     42  C   UNL     1      -3.296  -8.343  -1.218  1.00  0.00     0.074 A 
ATOM     43  C   UNL     1      -3.948  -7.295  -0.472  1.00  0.00     0.031 C 
ATOM     44  C   UNL     1       0.620  -3.752  -3.366  1.00  0.00     0.029 A 
ATOM     45  C   UNL     1      -0.227  -4.652  -4.137  1.00  0.00     0.049 A 
ATOM     46  H   UNL     1      -1.198  -6.353  -3.426  1.00  0.00     0.167 HD
ATOM     47  C   UNL     1      -3.793  -9.417  -1.886  1.00  0.00     0.037 A 
ATOM     48  C   UNL     1      -0.604  -4.636  -5.440  1.00  0.00     0.037 A 
ATOM     49  C   UNL     1      -2.742 -10.259  -2.398  1.00  0.00     0.049 A 
ATOM     50  C   UNL     1      -1.051  -6.014  -5.792  1.00  0.00     0.074 A 
ATOM     51  C   UNL     1      -1.686 -10.932  -1.810  1.00  0.00     0.029 A 
ATOM     52  N   UNL     1      -2.424 -10.183  -3.734  1.00  0.00    -0.354 N 
ATOM     53  N   UNL     1      -0.255  -7.045  -5.872  1.00  0.00    -0.248 NA
ATOM     54  C   UNL     1      -2.465  -6.333  -5.645  1.00  0.00     0.031 C 
ATOM     55  C   UNL     1      -0.589 -10.747  -2.704  1.00  0.00     0.029 A 
ATOM     56  C   UNL     1      -1.062 -10.021  -3.797  1.00  0.00     0.049 A 
ATOM     57  H   UNL     1      -3.049 -10.234  -4.493  1.00  0.00     0.167 HD
ATOM     58  C   UNL     1      -0.993  -8.105  -5.366  1.00  0.00     0.074 A 
ATOM     59  C   UNL     1      -2.372  -7.628  -5.335  1.00  0.00     0.031 C 
ATOM     60  C   UNL     1      -0.394  -9.171  -4.757  1.00  0.00     0.037 A 
BRANCH  47  61
ATOM     61  C   UNL     1      -5.224  -9.556  -2.308  1.00  0.00     0.064 A 
ATOM     62  C   UNL     1      -5.704 -10.808  -2.731  1.00  0.00     0.173 A 
ATOM     63  C   UNL     1      -6.068  -8.454  -2.558  1.00  0.00     0.173 A 
ATOM     64  F   UNL     1      -4.962 -11.914  -2.570  1.00  0.00    -0.203 F 
ATOM     65  C   UNL     1      -6.921 -10.938  -3.401  1.00  0.00     0.198 A 
ATOM     66  C   UNL     1      -7.308  -8.595  -3.174  1.00  0.00     0.198 A 
ATOM     67  F   UNL     1      -5.678  -7.195  -2.316  1.00  0.00    -0.203 F 
ATOM     68  F   UNL     1      -7.288 -12.131  -3.887  1.00  0.00    -0.200 F 
ATOM     69  C   UNL     1      -7.723  -9.832  -3.621  1.00  0.00     0.200 A 
ATOM     70  F   UNL     1      -8.061  -7.508  -3.397  1.00  0.00    -0.200 F 
ATOM     71  F   UNL     1      -8.867  -9.947  -4.307  1.00  0.00    -0.200 F 
ENDBRANCH  47  61
BRANCH  48  72
ATOM     72  C   UNL     1      -0.872  -3.464  -6.307  1.00  0.00     0.064 A 
ATOM     73  C   UNL     1      -1.056  -3.616  -7.692  1.00  0.00     0.173 A 
ATOM     74  C   UNL     1      -1.231  -2.214  -5.765  1.00  0.00     0.173 A 
ATOM     75  F   UNL     1      -0.782  -4.787  -8.286  1.00  0.00    -0.203 F 
ATOM     76  C   UNL     1      -1.597  -2.593  -8.479  1.00  0.00     0.198 A 
ATOM     77  C   UNL     1      -1.761  -1.191  -6.553  1.00  0.00     0.198 A 
ATOM     78  F   UNL     1      -1.167  -1.989  -4.446  1.00  0.00    -0.203 F 
ATOM     79  F   UNL     1      -1.823  -2.802  -9.784  1.00  0.00    -0.200 F 
ATOM     80  C   UNL     1      -1.960  -1.386  -7.907  1.00  0.00     0.200 A 
ATOM     81  F   UNL     1      -2.140  -0.040  -5.979  1.00  0.00    -0.200 F 
ATOM     82  F   UNL     1      -2.537  -0.429  -8.647  1.00  0.00    -0.200 F 
ENDBRANCH  48  72
BRANCH  60  83
ATOM     83  C   UNL     1       1.100  -9.316  -4.857  1.00  0.00     0.064 A 
ATOM     84  C   UNL     1       2.014  -8.362  -4.378  1.00  0.00     0.173 A 
ATOM     85  C   UNL     1       1.623 -10.545  -5.288  1.00  0.00     0.173 A 
ATOM     86  F   UNL     1       1.594  -7.205  -3.851  1.00  0.00    -0.203 F 
ATOM     87  C   UNL     1       3.385  -8.614  -4.366  1.00  0.00     0.198 A 
ATOM     88  C   UNL     1       2.990 -10.809  -5.238  1.00  0.00     0.198 A 
ATOM     89  F   UNL     1       0.798 -11.518  -5.707  1.00  0.00    -0.203 F 
ATOM     90  F   UNL     1       4.236  -7.683  -3.907  1.00  0.00    -0.200 F 
ATOM     91  C   UNL     1       3.871  -9.841  -4.785  1.00  0.00     0.200 A 
ATOM     92  F   UNL     1       3.449 -12.016  -5.596  1.00  0.00    -0.200 F 
ATOM     93  F   UNL     1       5.184 -10.103  -4.723  1.00  0.00    -0.200 F 
ENDBRANCH  60  83
ENDBRANCH  34  35
ENDBRANCH  27  29
ENDBRANCH  26  27
ENDBRANCH  25  26
ENDBRANCH   1  25
TORSDOF 14
