REMARK SMILES Cc1ccnc(C(=O)c2[nH]c3cc(F)ccc3c2CC(=O)OCCOC(=O)c2ccc(-c3c4nc(c(-c5c(F)c(F)c(F)c(F)c5F)c5ccc([nH]5)c(-c5c(F)c(F)c(F)c(F)c5F)c5nc(c(-c6c(F)c(F)c(F)c(F)c6F)c6ccc3[nH]6)C=C5)C=C4)cc2)c1
REMARK SMILES IDX 23 1 22 2 20 3 21 4 19 5 18 6 9 7 10 8 11 9 17 11 12 12
REMARK SMILES IDX 16 13 13 14 15 15 14 16 7 17 8 18 6 19 1 20 2 21 3 22 91 23
REMARK SMILES IDX 4 24 5 25 24 26 25 27 26 28 27 29 28 30 29 31 90 32 30 33
REMARK SMILES IDX 89 34 31 35 32 36 33 37 83 38 34 39 88 40 82 41 84 42 35 43
REMARK SMILES IDX 87 44 81 45 80 46 36 48 68 49 48 50 67 51 49 52 52 53 66 54
REMARK SMILES IDX 85 55 50 56 51 57 65 59 86 60 53 61 37 62 38 63 46 64 39 65
REMARK SMILES IDX 40 66 44 67 47 68 41 69 42 70 45 71 43 72 69 73 70 74 78 75
REMARK SMILES IDX 71 76 72 77 76 78 79 79 73 80 74 81 77 82 75 83 54 84 55 85
REMARK SMILES IDX 63 86 56 87 57 88 61 89 64 90 58 91 59 92 62 93 60 94
REMARK H PARENT 10 10 84 47 52 58
REMARK Flexibility Score: inf
ROOT
ATOM      1  C   UNL     1       5.206  -5.320   0.717  1.00  0.00     0.274 C 
ENDROOT
BRANCH   1   2
ATOM      2  O   UNL     1       3.768  -5.260   0.579  1.00  0.00    -0.462 OA
BRANCH   2   3
ATOM      3  C   UNL     1       3.069  -5.055   1.721  1.00  0.00     0.310 C 
ATOM      4  O   UNL     1       3.580  -5.040   2.841  1.00  0.00    -0.252 OA
BRANCH   3   5
ATOM      5  C   UNL     1       1.609  -4.703   1.548  1.00  0.00     0.161 C 
BRANCH   5   6
ATOM      6  C   UNL     1       0.890  -5.026   0.275  1.00  0.00     0.000 A 
ATOM      7  C   UNL     1       0.744  -4.242  -0.871  1.00  0.00     0.093 A 
ATOM      8  N   UNL     1      -0.061  -4.941  -1.739  1.00  0.00    -0.351 N 
ATOM      9  C   UNL     1      -0.571  -6.062  -1.144  1.00  0.00     0.049 A 
ATOM     10  H   UNL     1      -0.246  -4.670  -2.667  1.00  0.00     0.167 HD
ATOM     11  C   UNL     1       0.061  -6.190   0.090  1.00  0.00     0.004 A 
ATOM     12  C   UNL     1      -1.529  -6.966  -1.612  1.00  0.00     0.066 A 
ATOM     13  C   UNL     1      -0.248  -7.318   0.885  1.00  0.00     0.013 A 
ATOM     14  C   UNL     1      -1.828  -8.050  -0.793  1.00  0.00     0.125 A 
ATOM     15  C   UNL     1      -1.196  -8.242   0.428  1.00  0.00     0.040 A 
ATOM     16  F   UNL     1      -2.752  -8.932  -1.197  1.00  0.00    -0.207 F 
BRANCH   7  17
ATOM     17  C   UNL     1       1.288  -2.962  -1.303  1.00  0.00     0.227 C 
ATOM     18  O   UNL     1       2.053  -2.916  -2.266  1.00  0.00    -0.285 OA
BRANCH  17  19
ATOM     19  C   UNL     1       0.694  -1.673  -0.780  1.00  0.00     0.113 A 
ATOM     20  C   UNL     1      -2.620  -0.269   0.438  1.00  0.00     0.044 C 
ATOM     21  C   UNL     1      -1.199  -0.384  -0.028  1.00  0.00    -0.047 A 
ATOM     22  C   UNL     1      -0.485   0.773  -0.341  1.00  0.00     0.023 A 
ATOM     23  C   UNL     1      -0.590  -1.631  -0.234  1.00  0.00     0.036 A 
ATOM     24  C   UNL     1       0.794   0.643  -0.849  1.00  0.00     0.112 A 
ATOM     25  N   UNL     1       1.392  -0.541  -1.077  1.00  0.00    -0.253 NA
ENDBRANCH  17  19
ENDBRANCH   7  17
ENDBRANCH   5   6
ENDBRANCH   3   5
ENDBRANCH   2   3
ENDBRANCH   1   2
BRANCH   1  26
ATOM     26  C   UNL     1       5.888  -4.003   0.308  1.00  0.00     0.275 C 
BRANCH  26  27
ATOM     27  O   UNL     1       5.630  -2.916   1.227  1.00  0.00    -0.458 OA
BRANCH  27  28
ATOM     28  C   UNL     1       4.480  -2.267   0.970  1.00  0.00     0.338 C 
ATOM     29  O   UNL     1       3.662  -2.554   0.102  1.00  0.00    -0.246 OA
BRANCH  28  30
ATOM     30  C   UNL     1       4.157  -1.214   1.926  1.00  0.00     0.060 A 
ATOM     31  C   UNL     1       3.087  -1.459   2.787  1.00  0.00     0.016 A 
ATOM     32  C   UNL     1       4.677   0.073   1.788  1.00  0.00     0.016 A 
ATOM     33  C   UNL     1       2.475  -0.408   3.450  1.00  0.00     0.010 A 
ATOM     34  C   UNL     1       4.109   1.123   2.521  1.00  0.00     0.010 A 
ATOM     35  C   UNL     1       2.985   0.892   3.333  1.00  0.00    -0.014 A 
BRANCH  35  36
ATOM     36  C   UNL     1       2.337   1.964   4.124  1.00  0.00     0.031 A 
ATOM     37  C   UNL     1       1.503   3.026   3.472  1.00  0.00     0.074 A 
ATOM     38  C   UNL     1       2.428   1.899   5.465  1.00  0.00     0.049 A 
ATOM     39  N   UNL     1       0.780   3.965   4.030  1.00  0.00    -0.248 NA
ATOM     40  C   UNL     1       1.460   3.033   2.003  1.00  0.00     0.031 C 
ATOM     41  C   UNL     1       3.184   0.887   6.206  1.00  0.00     0.029 A 
ATOM     42  N   UNL     1       1.861   2.674   6.442  1.00  0.00    -0.354 N 
ATOM     43  C   UNL     1       0.180   4.656   2.987  1.00  0.00     0.074 A 
ATOM     44  C   UNL     1       0.648   4.054   1.757  1.00  0.00     0.031 C 
ATOM     45  C   UNL     1       3.008   1.082   7.520  1.00  0.00     0.029 A 
ATOM     46  C   UNL     1       2.173   2.262   7.713  1.00  0.00     0.049 A 
ATOM     47  H   UNL     1       1.286   3.450   6.251  1.00  0.00     0.167 HD
ATOM     48  C   UNL     1      -0.689   5.694   3.056  1.00  0.00     0.037 A 
ATOM     49  C   UNL     1       1.841   2.789   8.904  1.00  0.00     0.037 A 
ATOM     50  C   UNL     1      -1.117   6.319   4.281  1.00  0.00     0.049 A 
ATOM     51  C   UNL     1       0.967   4.007   8.941  1.00  0.00     0.074 A 
ATOM     52  C   UNL     1      -1.974   7.393   4.453  1.00  0.00     0.029 A 
ATOM     53  N   UNL     1      -0.703   5.934   5.548  1.00  0.00    -0.354 N 
ATOM     54  N   UNL     1       0.394   4.643   7.949  1.00  0.00    -0.248 NA
ATOM     55  C   UNL     1       0.704   4.587  10.264  1.00  0.00     0.031 C 
ATOM     56  C   UNL     1      -2.045   7.684   5.821  1.00  0.00     0.029 A 
ATOM     57  C   UNL     1      -1.263   6.768   6.504  1.00  0.00     0.049 A 
ATOM     58  H   UNL     1      -0.101   5.179   5.740  1.00  0.00     0.167 HD
ATOM     59  C   UNL     1      -0.301   5.695   8.524  1.00  0.00     0.074 A 
ATOM     60  C   UNL     1      -0.099   5.595   9.956  1.00  0.00     0.031 C 
ATOM     61  C   UNL     1      -1.034   6.662   7.921  1.00  0.00     0.037 A 
BRANCH  48  62
ATOM     62  C   UNL     1      -1.229   6.234   1.766  1.00  0.00     0.064 A 
ATOM     63  C   UNL     1      -2.239   5.561   1.063  1.00  0.00     0.173 A 
ATOM     64  C   UNL     1      -0.783   7.465   1.262  1.00  0.00     0.173 A 
ATOM     65  F   UNL     1      -2.684   4.372   1.494  1.00  0.00    -0.203 F 
ATOM     66  C   UNL     1      -2.781   6.101  -0.101  1.00  0.00     0.198 A 
ATOM     67  C   UNL     1      -1.338   8.008   0.106  1.00  0.00     0.198 A 
ATOM     68  F   UNL     1       0.182   8.145   1.898  1.00  0.00    -0.203 F 
ATOM     69  F   UNL     1      -3.732   5.432  -0.768  1.00  0.00    -0.200 F 
ATOM     70  C   UNL     1      -2.336   7.327  -0.574  1.00  0.00     0.200 A 
ATOM     71  F   UNL     1      -0.908   9.194  -0.348  1.00  0.00    -0.200 F 
ATOM     72  F   UNL     1      -2.866   7.849  -1.689  1.00  0.00    -0.200 F 
ENDBRANCH  48  62
BRANCH  49  73
ATOM     73  C   UNL     1       2.369   2.179  10.148  1.00  0.00     0.064 A 
ATOM     74  C   UNL     1       1.527   1.510  11.043  1.00  0.00     0.173 A 
ATOM     75  C   UNL     1       3.737   2.244  10.456  1.00  0.00     0.173 A 
ATOM     76  F   UNL     1       0.210   1.441  10.799  1.00  0.00    -0.203 F 
ATOM     77  C   UNL     1       2.031   0.934  12.207  1.00  0.00     0.198 A 
ATOM     78  C   UNL     1       4.244   1.645  11.605  1.00  0.00     0.198 A 
ATOM     79  F   UNL     1       4.583   2.874   9.628  1.00  0.00    -0.203 F 
ATOM     80  F   UNL     1       1.200   0.329  13.066  1.00  0.00    -0.200 F 
ATOM     81  C   UNL     1       3.390   0.996  12.483  1.00  0.00     0.200 A 
ATOM     82  F   UNL     1       5.558   1.696  11.861  1.00  0.00    -0.200 F 
ATOM     83  F   UNL     1       3.874   0.436  13.600  1.00  0.00    -0.200 F 
ENDBRANCH  49  73
BRANCH  61  84
ATOM     84  C   UNL     1      -1.662   7.683   8.820  1.00  0.00     0.064 A 
ATOM     85  C   UNL     1      -0.893   8.686   9.429  1.00  0.00     0.173 A 
ATOM     86  C   UNL     1      -3.039   7.656   9.081  1.00  0.00     0.173 A 
ATOM     87  F   UNL     1       0.432   8.738   9.224  1.00  0.00    -0.203 F 
ATOM     88  C   UNL     1      -1.477   9.607  10.293  1.00  0.00     0.198 A 
ATOM     89  C   UNL     1      -3.623   8.593   9.927  1.00  0.00     0.198 A 
ATOM     90  F   UNL     1      -3.815   6.717   8.519  1.00  0.00    -0.203 F 
ATOM     91  F   UNL     1      -0.716  10.523  10.907  1.00  0.00    -0.200 F 
ATOM     92  C   UNL     1      -2.841   9.562  10.539  1.00  0.00     0.200 A 
ATOM     93  F   UNL     1      -4.942   8.552  10.161  1.00  0.00    -0.200 F 
ATOM     94  F   UNL     1      -3.401  10.444  11.378  1.00  0.00    -0.200 F 
ENDBRANCH  61  84
ENDBRANCH  35  36
ENDBRANCH  28  30
ENDBRANCH  27  28
ENDBRANCH  26  27
ENDBRANCH   1  26
TORSDOF 14
