REMARK SMILES COc1ccc(C(=O)OCCOC(=O)c2ccc(-c3c4nc(c(-c5c(F)c(F)c(F)c(F)c5F)c5ccc([nH]5)c(-c5c(F)c(F)c(F)c(F)c5F)c5nc(c(-c6c(F)c(F)c(F)c(F)c6F)c6ccc3[nH]6)C=C5)C=C4)cc2)cc1NC(=O)c1ccccc1[N+](=O)[O-]
REMARK SMILES IDX 10 1 9 2 7 3 8 4 6 5 3 6 4 7 79 8 5 9 78 10 2 11 1 12 80 13
REMARK SMILES IDX 81 14 82 16 83 17 84 18 88 19 85 20 87 21 86 22 89 23 90 24
REMARK SMILES IDX 91 25 11 26 12 27 13 28 14 29 15 30 16 31 77 32 17 33 76 34
REMARK SMILES IDX 18 35 19 36 20 37 70 38 21 39 75 40 69 41 71 42 22 43 74 44
REMARK SMILES IDX 68 45 67 46 23 48 55 49 35 50 54 51 36 52 39 53 53 54 72 55
REMARK SMILES IDX 37 56 38 57 52 59 73 60 40 61 24 62 25 63 33 64 26 65 27 66
REMARK SMILES IDX 31 67 34 68 28 69 29 70 32 71 30 72 56 73 57 74 65 75 58 76
REMARK SMILES IDX 59 77 63 78 66 79 60 80 61 81 64 82 62 83 41 84 42 85 50 86
REMARK SMILES IDX 43 87 44 88 48 89 51 90 45 91 46 92 49 93 47 94
REMARK H PARENT 80 15 71 47 39 58
REMARK Flexibility Score: inf
ROOT
ATOM      1  C   UNL     1       3.556   5.908   5.294  1.00  0.00     0.275 C 
ENDROOT
BRANCH   1   2
ATOM      2  O   UNL     1       3.252   5.062   4.168  1.00  0.00    -0.458 OA
BRANCH   2   3
ATOM      3  C   UNL     1       2.009   4.521   4.140  1.00  0.00     0.338 C 
ATOM      4  O   UNL     1       1.127   4.693   4.965  1.00  0.00    -0.246 OA
BRANCH   3   5
ATOM      5  C   UNL     1       1.820   3.691   2.919  1.00  0.00     0.062 A 
ATOM      6  C   UNL     1       1.439   1.951   0.782  1.00  0.00     0.142 A 
ATOM      7  C   UNL     1       0.332   2.533   1.396  1.00  0.00     0.049 A 
ATOM      8  C   UNL     1       2.738   2.212   1.243  1.00  0.00     0.084 A 
ATOM      9  C   UNL     1       0.523   3.342   2.515  1.00  0.00     0.019 A 
ATOM     10  C   UNL     1       2.919   3.185   2.221  1.00  0.00     0.045 A 
BRANCH   6  11
ATOM     11  O   UNL     1       1.256   1.119  -0.292  1.00  0.00    -0.495 OA
ATOM     12  C   UNL     1       0.867  -0.193   0.119  1.00  0.00     0.278 C 
ENDBRANCH   6  11
BRANCH   8  13
ATOM     13  N   UNL     1       3.772   1.386   0.763  1.00  0.00    -0.319 N 
ATOM     14  C   UNL     1       4.994   1.032   1.290  1.00  0.00     0.262 C 
ATOM     15  H   UNL     1       3.587   0.985  -0.117  1.00  0.00     0.170 HD
ATOM     16  O   UNL     1       5.740   0.271   0.676  1.00  0.00    -0.269 OA
BRANCH  14  17
ATOM     17  C   UNL     1       5.477   1.563   2.579  1.00  0.00     0.117 A 
ATOM     18  C   UNL     1       6.611   2.386   2.503  1.00  0.00     0.021 A 
ATOM     19  C   UNL     1       4.859   1.368   3.821  1.00  0.00     0.282 A 
ATOM     20  C   UNL     1       7.073   3.060   3.635  1.00  0.00     0.001 A 
ATOM     21  C   UNL     1       5.312   2.061   4.958  1.00  0.00     0.086 A 
ATOM     22  C   UNL     1       6.415   2.913   4.856  1.00  0.00     0.007 A 
BRANCH  19  23
ATOM     23  N   UNL     1       3.691   0.510   3.964  1.00  0.00     0.063 N 
ATOM     24  O   UNL     1       2.804   0.895   4.742  1.00  0.00    -0.258 OA
ATOM     25  O   UNL     1       3.658  -0.543   3.319  1.00  0.00    -0.258 OA
ENDBRANCH  19  23
ENDBRANCH  14  17
ENDBRANCH   8  13
ENDBRANCH   3   5
ENDBRANCH   2   3
ENDBRANCH   1   2
BRANCH   1  26
ATOM     26  C   UNL     1       3.452   7.385   4.915  1.00  0.00     0.275 C 
BRANCH  26  27
ATOM     27  O   UNL     1       2.087   7.716   4.609  1.00  0.00    -0.458 OA
BRANCH  27  28
ATOM     28  C   UNL     1       1.829   8.028   3.318  1.00  0.00     0.338 C 
ATOM     29  O   UNL     1       2.619   8.150   2.401  1.00  0.00    -0.246 OA
BRANCH  28  30
ATOM     30  C   UNL     1       0.372   8.110   3.142  1.00  0.00     0.060 A 
ATOM     31  C   UNL     1      -0.334   6.923   2.965  1.00  0.00     0.016 A 
ATOM     32  C   UNL     1      -0.280   9.336   3.049  1.00  0.00     0.016 A 
ATOM     33  C   UNL     1      -1.692   6.938   2.681  1.00  0.00     0.010 A 
ATOM     34  C   UNL     1      -1.656   9.356   2.794  1.00  0.00     0.010 A 
ATOM     35  C   UNL     1      -2.368   8.157   2.592  1.00  0.00    -0.014 A 
BRANCH  35  36
ATOM     36  C   UNL     1      -3.797   8.172   2.196  1.00  0.00     0.031 A 
ATOM     37  C   UNL     1      -4.182   8.741   0.862  1.00  0.00     0.074 A 
ATOM     38  C   UNL     1      -4.737   7.641   3.001  1.00  0.00     0.049 A 
ATOM     39  N   UNL     1      -5.370   9.017   0.390  1.00  0.00    -0.248 NA
ATOM     40  C   UNL     1      -3.080   9.046  -0.065  1.00  0.00     0.031 C 
ATOM     41  C   UNL     1      -4.482   6.986   4.284  1.00  0.00     0.029 A 
ATOM     42  N   UNL     1      -6.100   7.568   2.854  1.00  0.00    -0.354 N 
ATOM     43  C   UNL     1      -5.155   9.587  -0.858  1.00  0.00     0.074 A 
ATOM     44  C   UNL     1      -3.726   9.600  -1.082  1.00  0.00     0.031 C 
ATOM     45  C   UNL     1      -5.649   6.568   4.802  1.00  0.00     0.029 A 
ATOM     46  C   UNL     1      -6.736   6.988   3.924  1.00  0.00     0.049 A 
ATOM     47  H   UNL     1      -6.575   7.900   2.058  1.00  0.00     0.167 HD
ATOM     48  C   UNL     1      -6.074  10.064  -1.728  1.00  0.00     0.037 A 
ATOM     49  C   UNL     1      -8.051   6.853   4.185  1.00  0.00     0.037 A 
ATOM     50  C   UNL     1      -7.496   9.988  -1.525  1.00  0.00     0.049 A 
ATOM     51  C   UNL     1      -9.051   7.403   3.204  1.00  0.00     0.074 A 
ATOM     52  C   UNL     1      -8.512  10.435  -2.351  1.00  0.00     0.029 A 
ATOM     53  N   UNL     1      -8.102   9.405  -0.423  1.00  0.00    -0.354 N 
ATOM     54  N   UNL     1      -8.841   8.005   2.059  1.00  0.00    -0.248 NA
ATOM     55  C   UNL     1     -10.471   7.274   3.563  1.00  0.00     0.031 C 
ATOM     56  C   UNL     1      -9.735  10.144  -1.736  1.00  0.00     0.029 A 
ATOM     57  C   UNL     1      -9.479   9.486  -0.544  1.00  0.00     0.049 A 
ATOM     58  H   UNL     1      -7.624   8.994   0.334  1.00  0.00     0.167 HD
ATOM     59  C   UNL     1     -10.096   8.319   1.558  1.00  0.00     0.074 A 
ATOM     60  C   UNL     1     -11.065   7.820   2.511  1.00  0.00     0.031 C 
ATOM     61  C   UNL     1     -10.420   8.972   0.415  1.00  0.00     0.037 A 
BRANCH  48  62
ATOM     62  C   UNL     1      -5.574  10.751  -2.961  1.00  0.00     0.064 A 
ATOM     63  C   UNL     1      -5.061  10.038  -4.053  1.00  0.00     0.173 A 
ATOM     64  C   UNL     1      -5.659  12.148  -3.066  1.00  0.00     0.173 A 
ATOM     65  F   UNL     1      -4.944   8.704  -3.993  1.00  0.00    -0.203 F 
ATOM     66  C   UNL     1      -4.641  10.702  -5.204  1.00  0.00     0.198 A 
ATOM     67  C   UNL     1      -5.258  12.806  -4.225  1.00  0.00     0.198 A 
ATOM     68  F   UNL     1      -6.142  12.874  -2.046  1.00  0.00    -0.203 F 
ATOM     69  F   UNL     1      -4.127  10.005  -6.226  1.00  0.00    -0.200 F 
ATOM     70  C   UNL     1      -4.748  12.082  -5.292  1.00  0.00     0.200 A 
ATOM     71  F   UNL     1      -5.370  14.139  -4.310  1.00  0.00    -0.200 F 
ATOM     72  F   UNL     1      -4.354  12.717  -6.404  1.00  0.00    -0.200 F 
ENDBRANCH  48  62
BRANCH  49  73
ATOM     73  C   UNL     1      -8.498   6.220   5.453  1.00  0.00     0.064 A 
ATOM     74  C   UNL     1      -9.159   4.984   5.451  1.00  0.00     0.173 A 
ATOM     75  C   UNL     1      -8.292   6.848   6.690  1.00  0.00     0.173 A 
ATOM     76  F   UNL     1      -9.406   4.359   4.291  1.00  0.00    -0.203 F 
ATOM     77  C   UNL     1      -9.610   4.408   6.638  1.00  0.00     0.198 A 
ATOM     78  C   UNL     1      -8.717   6.258   7.878  1.00  0.00     0.198 A 
ATOM     79  F   UNL     1      -7.670   8.035   6.746  1.00  0.00    -0.203 F 
ATOM     80  F   UNL     1     -10.282   3.249   6.604  1.00  0.00    -0.200 F 
ATOM     81  C   UNL     1      -9.383   5.042   7.850  1.00  0.00     0.200 A 
ATOM     82  F   UNL     1      -8.487   6.869   9.048  1.00  0.00    -0.200 F 
ATOM     83  F   UNL     1      -9.817   4.487   8.990  1.00  0.00    -0.200 F 
ENDBRANCH  49  73
BRANCH  61  84
ATOM     84  C   UNL     1     -11.878   9.160   0.127  1.00  0.00     0.064 A 
ATOM     85  C   UNL     1     -12.637  10.122   0.807  1.00  0.00     0.173 A 
ATOM     86  C   UNL     1     -12.510   8.397  -0.865  1.00  0.00     0.173 A 
ATOM     87  F   UNL     1     -12.077  10.864   1.775  1.00  0.00    -0.203 F 
ATOM     88  C   UNL     1     -13.986  10.301   0.516  1.00  0.00     0.198 A 
ATOM     89  C   UNL     1     -13.853   8.594  -1.169  1.00  0.00     0.198 A 
ATOM     90  F   UNL     1     -11.821   7.468  -1.545  1.00  0.00    -0.203 F 
ATOM     91  F   UNL     1     -14.704  11.200   1.203  1.00  0.00    -0.200 F 
ATOM     92  C   UNL     1     -14.591   9.542  -0.475  1.00  0.00     0.200 A 
ATOM     93  F   UNL     1     -14.435   7.866  -2.132  1.00  0.00    -0.200 F 
ATOM     94  F   UNL     1     -15.889   9.719  -0.756  1.00  0.00    -0.200 F 
ENDBRANCH  61  84
ENDBRANCH  35  36
ENDBRANCH  28  30
ENDBRANCH  27  28
ENDBRANCH  26  27
ENDBRANCH   1  26
TORSDOF 15
