REMARK SMILES O=C(Cc1sc(N2N=C(c3cccs3)C[C@@H]2c2ccco2)nc1-c1ccccc1)OCCOC(=O)c1ccc(-c2c3nc(c(-c4c(F)c(F)c(F)c(F)c4F)c4ccc([nH]4)c(-c4c(F)c(F)c(F)c(F)c4F)c4nc(c(-c5c(F)c(F)c(F)c(F)c5F)c5ccc2[nH]5)C=C4)C=C3)cc1
REMARK SMILES IDX 31 1 30 2 2 3 1 4 3 5 4 6 5 7 23 8 6 9 22 10 24 11 25 12
REMARK SMILES IDX 29 13 26 14 28 15 27 16 7 17 8 18 16 19 9 20 15 21 17 22
REMARK SMILES IDX 18 23 21 24 19 25 20 26 10 27 11 28 14 29 12 30 13 31 32 32
REMARK SMILES IDX 33 33 34 34 35 35 36 36 37 37 98 38 38 39 97 40 39 41 40 42
REMARK SMILES IDX 41 43 91 44 42 45 96 46 90 47 92 48 43 49 95 50 89 51 88 52
REMARK SMILES IDX 44 54 76 55 56 56 75 57 57 58 60 59 74 60 93 61 58 62 59 63
REMARK SMILES IDX 73 65 94 66 61 67 45 68 46 69 54 70 47 71 48 72 52 73 55 74
REMARK SMILES IDX 49 75 50 76 53 77 51 78 77 79 78 80 86 81 79 82 80 83 84 84
REMARK SMILES IDX 87 85 81 86 82 87 85 88 83 89 62 90 63 91 71 92 64 93 65 94
REMARK SMILES IDX 69 95 72 96 66 97 67 98 70 99 68 100
REMARK H PARENT 92 53 60 64
REMARK Flexibility Score: inf
ROOT
ATOM      1  C   UNL     1       4.362  -0.041   1.080  1.00  0.00     0.274 C 
ENDROOT
BRANCH   1   2
ATOM      2  O   UNL     1       2.967   0.324   0.981  1.00  0.00    -0.462 OA
BRANCH   2   3
ATOM      3  C   UNL     1       2.175   0.176  -0.106  1.00  0.00     0.311 C 
ATOM      4  O   UNL     1       0.957   0.327  -0.002  1.00  0.00    -0.252 OA
BRANCH   3   5
ATOM      5  C   UNL     1       2.773  -0.249  -1.420  1.00  0.00     0.171 C 
BRANCH   5   6
ATOM      6  C   UNL     1       3.641   0.742  -2.117  1.00  0.00     0.046 A 
ATOM      7  S   UNL     1       4.670   0.138  -3.350  1.00  0.00    -0.099 S 
ATOM      8  C   UNL     1       3.760   2.120  -2.075  1.00  0.00     0.087 A 
ATOM      9  C   UNL     1       5.292   1.724  -3.627  1.00  0.00     0.207 A 
ATOM     10  N   UNL     1       4.778   2.657  -2.848  1.00  0.00    -0.218 NA
BRANCH   8  11
ATOM     11  C   UNL     1       2.833   2.946  -1.326  1.00  0.00     0.001 A 
ATOM     12  C   UNL     1       3.107   3.321  -0.008  1.00  0.00     0.010 A 
ATOM     13  C   UNL     1       1.571   3.211  -1.877  1.00  0.00     0.010 A 
ATOM     14  C   UNL     1       2.096   3.877   0.779  1.00  0.00     0.001 A 
ATOM     15  C   UNL     1       0.569   3.780  -1.092  1.00  0.00     0.001 A 
ATOM     16  C   UNL     1       0.826   4.092   0.242  1.00  0.00     0.000 A 
ENDBRANCH   8  11
BRANCH   9  17
ATOM     17  N   UNL     1       6.233   1.903  -4.590  1.00  0.00    -0.228 N 
ATOM     18  N   UNL     1       6.144   1.385  -5.855  1.00  0.00    -0.173 NA
ATOM     19  C   UNL     1       7.431   2.704  -4.363  1.00  0.00     0.183 C 
ATOM     20  C   UNL     1       7.206   1.761  -6.493  1.00  0.00     0.081 C 
ATOM     21  C   UNL     1       8.181   2.571  -5.698  1.00  0.00     0.095 C 
BRANCH  19  22
ATOM     22  C   UNL     1       8.349   2.296  -3.239  1.00  0.00     0.128 A 
ATOM     23  C   UNL     1       9.499   2.860  -2.718  1.00  0.00     0.048 A 
ATOM     24  O   UNL     1       8.076   1.130  -2.579  1.00  0.00    -0.467 OA
ATOM     25  C   UNL     1       9.941   1.996  -1.686  1.00  0.00     0.042 A 
ATOM     26  C   UNL     1       9.035   0.965  -1.635  1.00  0.00     0.195 A 
ENDBRANCH  19  22
BRANCH  20  27
ATOM     27  C   UNL     1       7.448   1.430  -7.873  1.00  0.00     0.050 A 
ATOM     28  C   UNL     1       8.615   0.995  -8.467  1.00  0.00     0.022 A 
ATOM     29  S   UNL     1       6.180   1.587  -9.013  1.00  0.00    -0.142 S 
ATOM     30  C   UNL     1       8.463   0.795  -9.871  1.00  0.00     0.012 A 
ATOM     31  C   UNL     1       7.194   1.107 -10.303  1.00  0.00     0.065 A 
ENDBRANCH  20  27
ENDBRANCH   9  17
ENDBRANCH   5   6
ENDBRANCH   3   5
ENDBRANCH   2   3
ENDBRANCH   1   2
BRANCH   1  32
ATOM     32  C   UNL     1       4.508  -1.384   1.794  1.00  0.00     0.275 C 
BRANCH  32  33
ATOM     33  O   UNL     1       4.132  -2.436   0.889  1.00  0.00    -0.458 OA
BRANCH  33  34
ATOM     34  C   UNL     1       2.858  -2.887   0.989  1.00  0.00     0.338 C 
ATOM     35  O   UNL     1       2.047  -2.632   1.859  1.00  0.00    -0.246 OA
BRANCH  34  36
ATOM     36  C   UNL     1       2.535  -3.572  -0.280  1.00  0.00     0.060 A 
ATOM     37  C   UNL     1       1.299  -3.310  -0.888  1.00  0.00     0.016 A 
ATOM     38  C   UNL     1       3.476  -4.394  -0.908  1.00  0.00     0.016 A 
ATOM     39  C   UNL     1       0.997  -3.880  -2.126  1.00  0.00     0.010 A 
ATOM     40  C   UNL     1       3.168  -4.975  -2.133  1.00  0.00     0.010 A 
ATOM     41  C   UNL     1       1.920  -4.739  -2.735  1.00  0.00    -0.014 A 
BRANCH  41  42
ATOM     42  C   UNL     1       1.538  -5.581  -3.888  1.00  0.00     0.031 A 
ATOM     43  C   UNL     1       1.013  -6.955  -3.600  1.00  0.00     0.074 A 
ATOM     44  C   UNL     1       1.757  -5.179  -5.151  1.00  0.00     0.049 A 
ATOM     45  N   UNL     1       0.793  -7.953  -4.415  1.00  0.00    -0.248 NA
ATOM     46  C   UNL     1       0.723  -7.251  -2.187  1.00  0.00     0.031 C 
ATOM     47  C   UNL     1       2.258  -3.865  -5.546  1.00  0.00     0.029 A 
ATOM     48  N   UNL     1       1.625  -5.864  -6.332  1.00  0.00    -0.354 N 
ATOM     49  C   UNL     1       0.358  -8.998  -3.613  1.00  0.00     0.074 A 
ATOM     50  C   UNL     1       0.362  -8.523  -2.247  1.00  0.00     0.031 C 
ATOM     51  C   UNL     1       2.431  -3.852  -6.879  1.00  0.00     0.029 A 
ATOM     52  C   UNL     1       2.083  -5.165  -7.421  1.00  0.00     0.049 A 
ATOM     53  H   UNL     1       1.239  -6.768  -6.393  1.00  0.00     0.167 HD
ATOM     54  C   UNL     1      -0.006 -10.247  -3.984  1.00  0.00     0.037 A 
ATOM     55  C   UNL     1       2.239  -5.562  -8.699  1.00  0.00     0.037 A 
ATOM     56  C   UNL     1       0.007 -10.717  -5.341  1.00  0.00     0.049 A 
ATOM     57  C   UNL     1       1.859  -6.967  -9.089  1.00  0.00     0.074 A 
ATOM     58  C   UNL     1      -0.373 -11.953  -5.832  1.00  0.00     0.029 A 
ATOM     59  N   UNL     1       0.442  -9.968  -6.425  1.00  0.00    -0.354 N 
ATOM     60  N   UNL     1       1.405  -7.942  -8.338  1.00  0.00    -0.248 NA
ATOM     61  C   UNL     1       2.014  -7.330 -10.506  1.00  0.00     0.031 C 
ATOM     62  C   UNL     1      -0.127 -11.966  -7.209  1.00  0.00     0.029 A 
ATOM     63  C   UNL     1       0.362 -10.723  -7.582  1.00  0.00     0.049 A 
ATOM     64  H   UNL     1       0.759  -9.037  -6.378  1.00  0.00     0.167 HD
ATOM     65  C   UNL     1       1.197  -9.020  -9.188  1.00  0.00     0.074 A 
ATOM     66  C   UNL     1       1.573  -8.581 -10.516  1.00  0.00     0.031 C 
ATOM     67  C   UNL     1       0.733 -10.261  -8.896  1.00  0.00     0.037 A 
BRANCH  54  68
ATOM     68  C   UNL     1      -0.405 -11.190  -2.890  1.00  0.00     0.064 A 
ATOM     69  C   UNL     1      -1.608 -11.036  -2.186  1.00  0.00     0.173 A 
ATOM     70  C   UNL     1       0.442 -12.246  -2.523  1.00  0.00     0.173 A 
ATOM     71  F   UNL     1      -2.441 -10.027  -2.485  1.00  0.00    -0.203 F 
ATOM     72  C   UNL     1      -1.932 -11.882  -1.129  1.00  0.00     0.198 A 
ATOM     73  C   UNL     1       0.103 -13.107  -1.484  1.00  0.00     0.198 A 
ATOM     74  F   UNL     1       1.606 -12.434  -3.163  1.00  0.00    -0.203 F 
ATOM     75  F   UNL     1      -3.056 -11.678  -0.429  1.00  0.00    -0.200 F 
ATOM     76  C   UNL     1      -1.078 -12.918  -0.781  1.00  0.00     0.200 A 
ATOM     77  F   UNL     1       0.926 -14.111  -1.152  1.00  0.00    -0.200 F 
ATOM     78  F   UNL     1      -1.386 -13.727   0.242  1.00  0.00    -0.200 F 
ENDBRANCH  54  68
BRANCH  55  79
ATOM     79  C   UNL     1       2.797  -4.614  -9.696  1.00  0.00     0.064 A 
ATOM     80  C   UNL     1       1.983  -4.040 -10.680  1.00  0.00     0.173 A 
ATOM     81  C   UNL     1       4.152  -4.250  -9.674  1.00  0.00     0.173 A 
ATOM     82  F   UNL     1       0.688  -4.380 -10.759  1.00  0.00    -0.203 F 
ATOM     83  C   UNL     1       2.503  -3.140 -11.609  1.00  0.00     0.198 A 
ATOM     84  C   UNL     1       4.667  -3.334 -10.590  1.00  0.00     0.198 A 
ATOM     85  F   UNL     1       4.975  -4.780  -8.757  1.00  0.00    -0.203 F 
ATOM     86  F   UNL     1       1.710  -2.632 -12.563  1.00  0.00    -0.200 F 
ATOM     87  C   UNL     1       3.842  -2.782 -11.559  1.00  0.00     0.200 A 
ATOM     88  F   UNL     1       5.962  -2.992 -10.540  1.00  0.00    -0.200 F 
ATOM     89  F   UNL     1       4.341  -1.915 -12.451  1.00  0.00    -0.200 F 
ENDBRANCH  55  79
BRANCH  67  90
ATOM     90  C   UNL     1       0.567 -11.227 -10.031  1.00  0.00     0.064 A 
ATOM     91  C   UNL     1       1.667 -11.869 -10.616  1.00  0.00     0.173 A 
ATOM     92  C   UNL     1      -0.716 -11.577 -10.479  1.00  0.00     0.173 A 
ATOM     93  F   UNL     1       2.914 -11.560 -10.230  1.00  0.00    -0.203 F 
ATOM     94  C   UNL     1       1.488 -12.823 -11.616  1.00  0.00     0.198 A 
ATOM     95  C   UNL     1      -0.892 -12.547 -11.460  1.00  0.00     0.198 A 
ATOM     96  F   UNL     1      -1.800 -10.995  -9.943  1.00  0.00    -0.203 F 
ATOM     97  F   UNL     1       2.554 -13.408 -12.179  1.00  0.00    -0.200 F 
ATOM     98  C   UNL     1       0.209 -13.168 -12.029  1.00  0.00     0.200 A 
ATOM     99  F   UNL     1      -2.128 -12.889 -11.849  1.00  0.00    -0.200 F 
ATOM    100  F   UNL     1       0.039 -14.098 -12.978  1.00  0.00    -0.200 F 
ENDBRANCH  67  90
ENDBRANCH  41  42
ENDBRANCH  34  36
ENDBRANCH  33  34
ENDBRANCH  32  33
ENDBRANCH   1  32
TORSDOF 16
