REMARK SMILES O=C(OCCOC(=O)[C@@H]1CCc2[nH]ncc2C1)c1ccc(-c2c3nc(c(-c4c(F)c(F)c(F)c(F)c4F)c4ccc([nH]4)c(-c4c(F)c(F)c(F)c(F)c4F)c4nc(c(-c5c(F)c(F)c(F)c(F)c5F)c5ccc2[nH]5)C=C4)C=C3)cc1
REMARK SMILES IDX 4 1 3 2 2 3 1 4 18 5 19 6 80 7 20 8 79 9 21 10 22 11 23 12
REMARK SMILES IDX 73 13 24 14 78 15 72 16 74 17 25 18 77 19 71 20 70 21 26 23
REMARK SMILES IDX 58 24 38 25 57 26 39 27 42 28 56 29 75 30 40 31 41 32 55 34
REMARK SMILES IDX 76 35 43 36 27 37 28 38 36 39 29 40 30 41 34 42 37 43 31 44
REMARK SMILES IDX 32 45 35 46 33 47 59 48 60 49 68 50 61 51 62 52 66 53 69 54
REMARK SMILES IDX 63 55 64 56 67 57 65 58 44 59 45 60 53 61 46 62 47 63 51 64
REMARK SMILES IDX 54 65 48 66 49 67 52 68 50 69 5 70 6 71 7 72 8 73 9 74 10 75
REMARK SMILES IDX 17 76 11 77 16 78 12 79 15 80 13 81 14 82
REMARK H PARENT 74 22 42 33 13 83
REMARK Flexibility Score: inf
ROOT
ATOM      1  C   UNL     1       4.007   0.684   1.347  1.00  0.00     0.275 C 
ENDROOT
BRANCH   1   2
ATOM      2  O   UNL     1       3.158   1.091   0.264  1.00  0.00    -0.458 OA
BRANCH   2   3
ATOM      3  C   UNL     1       3.236   0.778  -1.050  1.00  0.00     0.338 C 
ATOM      4  O   UNL     1       2.530   1.389  -1.851  1.00  0.00    -0.246 OA
BRANCH   3   5
ATOM      5  C   UNL     1       4.011  -0.394  -1.564  1.00  0.00     0.060 A 
ATOM      6  C   UNL     1       5.224  -0.873  -1.062  1.00  0.00     0.016 A 
ATOM      7  C   UNL     1       3.443  -1.066  -2.658  1.00  0.00     0.016 A 
ATOM      8  C   UNL     1       5.794  -2.057  -1.553  1.00  0.00     0.010 A 
ATOM      9  C   UNL     1       3.991  -2.256  -3.135  1.00  0.00     0.010 A 
ATOM     10  C   UNL     1       5.169  -2.769  -2.575  1.00  0.00    -0.014 A 
BRANCH  10  11
ATOM     11  C   UNL     1       5.775  -3.983  -3.170  1.00  0.00     0.031 A 
ATOM     12  C   UNL     1       6.311  -3.890  -4.567  1.00  0.00     0.074 A 
ATOM     13  C   UNL     1       5.785  -5.160  -2.514  1.00  0.00     0.049 A 
ATOM     14  N   UNL     1       6.784  -4.837  -5.332  1.00  0.00    -0.248 NA
ATOM     15  C   UNL     1       6.346  -2.547  -5.172  1.00  0.00     0.031 C 
ATOM     16  C   UNL     1       5.395  -5.373  -1.123  1.00  0.00     0.029 A 
ATOM     17  N   UNL     1       6.074  -6.426  -2.965  1.00  0.00    -0.354 N 
ATOM     18  C   UNL     1       7.223  -4.196  -6.480  1.00  0.00     0.074 A 
ATOM     19  C   UNL     1       6.864  -2.801  -6.364  1.00  0.00     0.031 C 
ATOM     20  C   UNL     1       5.316  -6.693  -0.879  1.00  0.00     0.029 A 
ATOM     21  C   UNL     1       5.682  -7.414  -2.090  1.00  0.00     0.049 A 
ATOM     22  H   UNL     1       6.517  -6.608  -3.825  1.00  0.00     0.167 HD
ATOM     23  C   UNL     1       7.929  -4.719  -7.506  1.00  0.00     0.037 A 
ATOM     24  C   UNL     1       5.599  -8.746  -2.268  1.00  0.00     0.037 A 
ATOM     25  C   UNL     1       8.276  -6.107  -7.607  1.00  0.00     0.049 A 
ATOM     26  C   UNL     1       6.187  -9.333  -3.522  1.00  0.00     0.074 A 
ATOM     27  C   UNL     1       9.065  -6.736  -8.550  1.00  0.00     0.029 A 
ATOM     28  N   UNL     1       7.825  -7.088  -6.736  1.00  0.00    -0.354 N 
ATOM     29  N   UNL     1       6.732  -8.713  -4.540  1.00  0.00    -0.248 NA
ATOM     30  C   UNL     1       6.216 -10.798  -3.626  1.00  0.00     0.031 C 
ATOM     31  C   UNL     1       9.040  -8.110  -8.286  1.00  0.00     0.029 A 
ATOM     32  C   UNL     1       8.274  -8.329  -7.151  1.00  0.00     0.049 A 
ATOM     33  H   UNL     1       7.268  -6.925  -5.941  1.00  0.00     0.167 HD
ATOM     34  C   UNL     1       7.246  -9.706  -5.359  1.00  0.00     0.074 A 
ATOM     35  C   UNL     1       6.919 -10.971  -4.736  1.00  0.00     0.031 C 
ATOM     36  C   UNL     1       7.955  -9.577  -6.507  1.00  0.00     0.037 A 
BRANCH  23  37
ATOM     37  C   UNL     1       8.394  -3.774  -8.569  1.00  0.00     0.064 A 
ATOM     38  C   UNL     1       9.406  -2.834  -8.311  1.00  0.00     0.173 A 
ATOM     39  C   UNL     1       7.843  -3.813  -9.855  1.00  0.00     0.173 A 
ATOM     40  F   UNL     1       9.953  -2.747  -7.089  1.00  0.00    -0.203 F 
ATOM     41  C   UNL     1       9.829  -1.950  -9.299  1.00  0.00     0.198 A 
ATOM     42  C   UNL     1       8.286  -2.944 -10.848  1.00  0.00     0.198 A 
ATOM     43  F   UNL     1       6.873  -4.692 -10.149  1.00  0.00    -0.203 F 
ATOM     44  F   UNL     1      10.763  -1.031  -9.018  1.00  0.00    -0.200 F 
ATOM     45  C   UNL     1       9.273  -2.010 -10.568  1.00  0.00     0.200 A 
ATOM     46  F   UNL     1       7.754  -3.006 -12.076  1.00  0.00    -0.200 F 
ATOM     47  F   UNL     1       9.684  -1.161 -11.520  1.00  0.00    -0.200 F 
ENDBRANCH  23  37
BRANCH  24  48
ATOM     48  C   UNL     1       4.946  -9.619  -1.257  1.00  0.00     0.064 A 
ATOM     49  C   UNL     1       5.685 -10.519  -0.479  1.00  0.00     0.173 A 
ATOM     50  C   UNL     1       3.549  -9.633  -1.121  1.00  0.00     0.173 A 
ATOM     51  F   UNL     1       7.021 -10.555  -0.587  1.00  0.00    -0.203 F 
ATOM     52  C   UNL     1       5.051 -11.435   0.361  1.00  0.00     0.198 A 
ATOM     53  C   UNL     1       2.917 -10.537  -0.266  1.00  0.00     0.198 A 
ATOM     54  F   UNL     1       2.794  -8.785  -1.836  1.00  0.00    -0.203 F 
ATOM     55  F   UNL     1       5.779 -12.330   1.042  1.00  0.00    -0.200 F 
ATOM     56  C   UNL     1       3.668 -11.447   0.463  1.00  0.00     0.200 A 
ATOM     57  F   UNL     1       1.581 -10.541  -0.167  1.00  0.00    -0.200 F 
ATOM     58  F   UNL     1       3.059 -12.345   1.249  1.00  0.00    -0.200 F 
ENDBRANCH  24  48
BRANCH  36  59
ATOM     59  C   UNL     1       8.482 -10.831  -7.135  1.00  0.00     0.064 A 
ATOM     60  C   UNL     1       7.636 -11.740  -7.784  1.00  0.00     0.173 A 
ATOM     61  C   UNL     1       9.861 -11.090  -7.139  1.00  0.00     0.173 A 
ATOM     62  F   UNL     1       6.309 -11.546  -7.784  1.00  0.00    -0.203 F 
ATOM     63  C   UNL     1       8.153 -12.873  -8.405  1.00  0.00     0.198 A 
ATOM     64  C   UNL     1      10.377 -12.204  -7.792  1.00  0.00     0.198 A 
ATOM     65  F   UNL     1      10.710 -10.248  -6.530  1.00  0.00    -0.203 F 
ATOM     66  F   UNL     1       7.324 -13.752  -8.984  1.00  0.00    -0.200 F 
ATOM     67  C   UNL     1       9.522 -13.096  -8.421  1.00  0.00     0.200 A 
ATOM     68  F   UNL     1      11.700 -12.409  -7.819  1.00  0.00    -0.200 F 
ATOM     69  F   UNL     1      10.018 -14.177  -9.038  1.00  0.00    -0.200 F 
ENDBRANCH  36  59
ENDBRANCH  10  11
ENDBRANCH   3   5
ENDBRANCH   2   3
ENDBRANCH   1   2
BRANCH   1  70
ATOM     70  C   UNL     1       3.643  -0.650   2.001  1.00  0.00     0.274 C 
BRANCH  70  71
ATOM     71  O   UNL     1       3.153  -1.657   1.099  1.00  0.00    -0.462 OA
BRANCH  71  72
ATOM     72  C   UNL     1       1.798  -1.785   1.039  1.00  0.00     0.309 C 
ATOM     73  O   UNL     1       1.009  -1.023   1.589  1.00  0.00    -0.252 OA
BRANCH  72  74
ATOM     74  C   UNL     1       1.337  -2.981   0.222  1.00  0.00     0.104 C 
ATOM     75  C   UNL     1       2.435  -4.052   0.018  1.00  0.00     0.022 C 
ATOM     76  C   UNL     1       0.684  -2.488  -1.096  1.00  0.00     0.054 C 
ATOM     77  C   UNL     1       1.907  -5.271  -0.761  1.00  0.00     0.057 C 
ATOM     78  C   UNL     1       0.718  -3.525  -2.165  1.00  0.00    -0.006 A 
ATOM     79  C   UNL     1       1.278  -4.769  -1.996  1.00  0.00     0.038 A 
ATOM     80  C   UNL     1       0.303  -3.519  -3.509  1.00  0.00     0.138 A 
ATOM     81  N   UNL     1       1.182  -5.419  -3.188  1.00  0.00    -0.282 N 
ATOM     82  N   UNL     1       0.591  -4.666  -4.136  1.00  0.00    -0.184 NA
ATOM     83  H   UNL     1       1.508  -6.335  -3.340  1.00  0.00     0.190 HD
ENDBRANCH  72  74
ENDBRANCH  71  72
ENDBRANCH  70  71
ENDBRANCH   1  70
TORSDOF 11
