REMARK SMILES C[C@H](NC(=O)c1cccc(NC(=O)c2ccccc2C(=O)OCCOC(=O)c2ccc(-c3c4nc(c(-c5c(F)c(F)c(F)c(F)c5F)c5ccc([nH]5)c(-c5c(F)c(F)c(F)c(F)c5F)c5nc(c(-c6c(F)c(F)c(F)c(F)c6F)c6ccc3[nH]6)C=C5)C=C4)cc2)c1)c1ccccc1
REMARK SMILES IDX 22 1 20 2 21 3 19 4 14 5 15 6 16 7 18 8 17 9 12 10 11 11
REMARK SMILES IDX 13 13 10 14 6 15 7 16 91 17 8 18 9 19 4 20 3 21 5 23 2 24
REMARK SMILES IDX 1 25 92 26 93 27 97 28 94 29 96 30 95 31 23 32 24 33 25 34
REMARK SMILES IDX 26 35 27 36 28 37 29 38 90 39 30 40 89 41 31 42 32 43 33 44
REMARK SMILES IDX 83 45 34 46 88 47 82 48 84 49 35 50 87 51 81 52 80 53 36 55
REMARK SMILES IDX 68 56 48 57 67 58 49 59 52 60 66 61 85 62 50 63 51 64 65 66
REMARK SMILES IDX 86 67 53 68 37 69 38 70 46 71 39 72 40 73 44 74 47 75 41 76
REMARK SMILES IDX 42 77 45 78 43 79 69 80 70 81 78 82 71 83 72 84 76 85 79 86
REMARK SMILES IDX 73 87 74 88 77 89 75 90 54 91 55 92 63 93 56 94 57 95 61 96
REMARK SMILES IDX 64 97 58 98 59 99 62 100 60 101
REMARK H PARENT 11 12 3 22 84 54 52 65
REMARK Flexibility Score: inf
ROOT
ATOM      1  O   UNL     1       1.781   5.811   1.745  1.00  0.00    -0.458 OA
ENDROOT
BRANCH   1   2
ATOM      2  C   UNL     1       3.025   5.606   1.258  1.00  0.00     0.339 C 
ATOM      3  O   UNL     1       3.322   5.063   0.208  1.00  0.00    -0.246 OA
BRANCH   2   4
ATOM      4  C   UNL     1       4.043   6.159   2.160  1.00  0.00     0.072 A 
ATOM      5  C   UNL     1       4.268   5.652   3.444  1.00  0.00     0.054 A 
ATOM      6  C   UNL     1       5.306   6.191   4.222  1.00  0.00     0.015 A 
ATOM      7  C   UNL     1       6.134   7.192   3.708  1.00  0.00     0.001 A 
ATOM      8  C   UNL     1       4.873   7.171   1.653  1.00  0.00     0.016 A 
ATOM      9  C   UNL     1       5.916   7.684   2.424  1.00  0.00     0.001 A 
BRANCH   5  10
ATOM     10  C   UNL     1       3.399   4.655   4.096  1.00  0.00     0.256 C 
ATOM     11  N   UNL     1       3.083   3.438   3.546  1.00  0.00    -0.322 N 
ATOM     12  H   UNL     1       2.320   3.000   3.987  1.00  0.00     0.170 HD
ATOM     13  O   UNL     1       2.893   4.968   5.174  1.00  0.00    -0.269 OA
BRANCH  11  14
ATOM     14  C   UNL     1       3.617   2.685   2.488  1.00  0.00     0.042 A 
ATOM     15  C   UNL     1       3.232   0.889   0.899  1.00  0.00     0.041 A 
ATOM     16  C   UNL     1       4.483   1.121   0.325  1.00  0.00     0.014 A 
ATOM     17  C   UNL     1       2.821   1.638   2.005  1.00  0.00     0.040 A 
ATOM     18  C   UNL     1       5.304   2.123   0.840  1.00  0.00     0.003 A 
ATOM     19  C   UNL     1       4.874   2.901   1.920  1.00  0.00     0.026 A 
BRANCH  15  20
ATOM     20  C   UNL     1       2.409  -0.217   0.368  1.00  0.00     0.251 C 
ATOM     21  N   UNL     1       1.093  -0.031   0.031  1.00  0.00    -0.346 N 
ATOM     22  H   UNL     1       0.581  -0.858  -0.115  1.00  0.00     0.164 HD
ATOM     23  O   UNL     1       2.925  -1.319   0.205  1.00  0.00    -0.269 OA
BRANCH  21  24
ATOM     24  C   UNL     1       0.334   1.204  -0.146  1.00  0.00     0.109 C 
ATOM     25  C   UNL     1       0.569   1.755  -1.555  1.00  0.00     0.036 C 
BRANCH  24  26
ATOM     26  C   UNL     1      -1.158   1.053   0.136  1.00  0.00    -0.026 A 
ATOM     27  C   UNL     1      -1.927   2.214   0.344  1.00  0.00     0.006 A 
ATOM     28  C   UNL     1      -1.822  -0.183   0.183  1.00  0.00     0.006 A 
ATOM     29  C   UNL     1      -3.301   2.145   0.592  1.00  0.00     0.000 A 
ATOM     30  C   UNL     1      -3.197  -0.253   0.432  1.00  0.00     0.000 A 
ATOM     31  C   UNL     1      -3.936   0.909   0.636  1.00  0.00     0.000 A 
ENDBRANCH  24  26
ENDBRANCH  21  24
ENDBRANCH  15  20
ENDBRANCH  11  14
ENDBRANCH   5  10
ENDBRANCH   2   4
ENDBRANCH   1   2
BRANCH   1  32
ATOM     32  C   UNL     1       0.733   5.172   0.993  1.00  0.00     0.275 C 
BRANCH  32  33
ATOM     33  C   UNL     1       0.149   6.072  -0.095  1.00  0.00     0.275 C 
BRANCH  33  34
ATOM     34  O   UNL     1       1.087   6.253  -1.173  1.00  0.00    -0.458 OA
BRANCH  34  35
ATOM     35  C   UNL     1       1.522   7.518  -1.353  1.00  0.00     0.338 C 
ATOM     36  O   UNL     1       1.190   8.516  -0.735  1.00  0.00    -0.246 OA
BRANCH  35  37
ATOM     37  C   UNL     1       2.508   7.578  -2.442  1.00  0.00     0.060 A 
ATOM     38  C   UNL     1       3.833   7.225  -2.186  1.00  0.00     0.016 A 
ATOM     39  C   UNL     1       2.162   8.193  -3.645  1.00  0.00     0.016 A 
ATOM     40  C   UNL     1       4.836   7.575  -3.086  1.00  0.00     0.010 A 
ATOM     41  C   UNL     1       3.161   8.492  -4.576  1.00  0.00     0.010 A 
ATOM     42  C   UNL     1       4.511   8.235  -4.278  1.00  0.00    -0.014 A 
BRANCH  42  43
ATOM     43  C   UNL     1       5.585   8.778  -5.148  1.00  0.00     0.031 A 
ATOM     44  C   UNL     1       5.741  10.268  -5.278  1.00  0.00     0.074 A 
ATOM     45  C   UNL     1       6.442   7.962  -5.787  1.00  0.00     0.049 A 
ATOM     46  N   UNL     1       6.466  10.955  -6.123  1.00  0.00    -0.248 NA
ATOM     47  C   UNL     1       4.973  11.095  -4.334  1.00  0.00     0.031 C 
ATOM     48  C   UNL     1       6.455   6.504  -5.692  1.00  0.00     0.029 A 
ATOM     49  N   UNL     1       7.475   8.254  -6.642  1.00  0.00    -0.354 N 
ATOM     50  C   UNL     1       6.182  12.289  -5.864  1.00  0.00     0.074 A 
ATOM     51  C   UNL     1       5.248  12.320  -4.760  1.00  0.00     0.031 C 
ATOM     52  C   UNL     1       7.464   6.027  -6.439  1.00  0.00     0.029 A 
ATOM     53  C   UNL     1       8.124   7.142  -7.115  1.00  0.00     0.049 A 
ATOM     54  H   UNL     1       7.726   9.172  -6.891  1.00  0.00     0.167 HD
ATOM     55  C   UNL     1       6.647  13.387  -6.504  1.00  0.00     0.037 A 
ATOM     56  C   UNL     1       9.115   7.033  -8.019  1.00  0.00     0.037 A 
ATOM     57  C   UNL     1       7.627  13.362  -7.555  1.00  0.00     0.049 A 
ATOM     58  C   UNL     1       9.640   8.266  -8.698  1.00  0.00     0.074 A 
ATOM     59  C   UNL     1       8.148  14.418  -8.281  1.00  0.00     0.029 A 
ATOM     60  N   UNL     1       8.255  12.213  -8.009  1.00  0.00    -0.354 N 
ATOM     61  N   UNL     1       9.281   9.515  -8.531  1.00  0.00    -0.248 NA
ATOM     62  C   UNL     1      10.684   8.070  -9.714  1.00  0.00     0.031 C 
ATOM     63  C   UNL     1       9.093  13.906  -9.179  1.00  0.00     0.029 A 
ATOM     64  C   UNL     1       9.166  12.534  -9.001  1.00  0.00     0.049 A 
ATOM     65  H   UNL     1       8.080  11.303  -7.675  1.00  0.00     0.167 HD
ATOM     66  C   UNL     1      10.035  10.251  -9.433  1.00  0.00     0.074 A 
ATOM     67  C   UNL     1      10.897   9.314 -10.124  1.00  0.00     0.031 C 
ATOM     68  C   UNL     1      10.003  11.582  -9.680  1.00  0.00     0.037 A 
BRANCH  55  69
ATOM     69  C   UNL     1       6.058  14.705  -6.114  1.00  0.00     0.064 A 
ATOM     70  C   UNL     1       6.485  15.399  -4.975  1.00  0.00     0.173 A 
ATOM     71  C   UNL     1       5.054  15.283  -6.905  1.00  0.00     0.173 A 
ATOM     72  F   UNL     1       7.427  14.873  -4.178  1.00  0.00    -0.203 F 
ATOM     73  C   UNL     1       5.917  16.624  -4.634  1.00  0.00     0.198 A 
ATOM     74  C   UNL     1       4.499  16.514  -6.570  1.00  0.00     0.198 A 
ATOM     75  F   UNL     1       4.611  14.651  -8.003  1.00  0.00    -0.203 F 
ATOM     76  F   UNL     1       6.317  17.260  -3.524  1.00  0.00    -0.200 F 
ATOM     77  C   UNL     1       4.928  17.182  -5.433  1.00  0.00     0.200 A 
ATOM     78  F   UNL     1       3.544  17.051  -7.342  1.00  0.00    -0.200 F 
ATOM     79  F   UNL     1       4.382  18.360  -5.101  1.00  0.00    -0.200 F 
ENDBRANCH  55  69
BRANCH  56  80
ATOM     80  C   UNL     1       9.639   5.690  -8.365  1.00  0.00     0.064 A 
ATOM     81  C   UNL     1      10.880   5.257  -7.880  1.00  0.00     0.173 A 
ATOM     82  C   UNL     1       8.896   4.806  -9.159  1.00  0.00     0.173 A 
ATOM     83  F   UNL     1      11.632   6.081  -7.136  1.00  0.00    -0.203 F 
ATOM     84  C   UNL     1      11.358   3.983  -8.176  1.00  0.00     0.198 A 
ATOM     85  C   UNL     1       9.368   3.526  -9.440  1.00  0.00     0.198 A 
ATOM     86  F   UNL     1       7.705   5.181  -9.646  1.00  0.00    -0.203 F 
ATOM     87  F   UNL     1      12.555   3.595  -7.716  1.00  0.00    -0.200 F 
ATOM     88  C   UNL     1      10.598   3.116  -8.948  1.00  0.00     0.200 A 
ATOM     89  F   UNL     1       8.628   2.689 -10.180  1.00  0.00    -0.200 F 
ATOM     90  F   UNL     1      11.054   1.886  -9.223  1.00  0.00    -0.200 F 
ENDBRANCH  56  80
BRANCH  68  91
ATOM     91  C   UNL     1      10.907  12.097 -10.753  1.00  0.00     0.064 A 
ATOM     92  C   UNL     1      10.534  12.024 -12.102  1.00  0.00     0.173 A 
ATOM     93  C   UNL     1      12.127  12.709 -10.433  1.00  0.00     0.173 A 
ATOM     94  F   UNL     1       9.380  11.436 -12.452  1.00  0.00    -0.203 F 
ATOM     95  C   UNL     1      11.357  12.541 -13.098  1.00  0.00     0.198 A 
ATOM     96  C   UNL     1      12.943  13.233 -11.431  1.00  0.00     0.198 A 
ATOM     97  F   UNL     1      12.521  12.799  -9.154  1.00  0.00    -0.203 F 
ATOM     98  F   UNL     1      10.992  12.446 -14.384  1.00  0.00    -0.200 F 
ATOM     99  C   UNL     1      12.558  13.148 -12.761  1.00  0.00     0.200 A 
ATOM    100  F   UNL     1      14.103  13.820 -11.106  1.00  0.00    -0.200 F 
ATOM    101  F   UNL     1      13.349  13.647 -13.721  1.00  0.00    -0.200 F 
ENDBRANCH  68  91
ENDBRANCH  42  43
ENDBRANCH  35  37
ENDBRANCH  34  35
ENDBRANCH  33  34
ENDBRANCH  32  33
ENDBRANCH   1  32
TORSDOF 16
