REMARK SMILES CCCN(C(=O)Cc1c(C(=O)OCCOC(=O)c2ccc(-c3c4nc(c(-c5c(F)c(F)c(F)c(F)c5F)c5ccc([nH]5)c(-c5c(F)c(F)c(F)c(F)c5F)c5nc(c(-c6c(F)c(F)c(F)c(F)c6F)c6ccc3[nH]6)C=C5)C=C4)cc2)c(C)cn1CC)c1cccc(Cl)c1
REMARK SMILES IDX 12 1 10 2 11 3 9 4 8 5 84 6 81 7 83 8 82 9 7 10 5 11 6 12
REMARK SMILES IDX 4 13 3 14 2 15 1 16 87 17 88 18 93 19 89 20 91 21 90 22
REMARK SMILES IDX 92 23 85 24 86 25 13 26 14 27 15 28 16 29 17 30 18 31 19 32
REMARK SMILES IDX 80 33 20 34 79 35 21 36 22 37 23 38 73 39 24 40 78 41 72 42
REMARK SMILES IDX 74 43 25 44 77 45 71 46 70 47 26 49 58 50 38 51 57 52 39 53
REMARK SMILES IDX 42 54 56 55 75 56 40 57 41 58 55 60 76 61 43 62 27 63 28 64
REMARK SMILES IDX 36 65 29 66 30 67 34 68 37 69 31 70 32 71 35 72 33 73 59 74
REMARK SMILES IDX 60 75 68 76 61 77 62 78 66 79 69 80 63 81 64 82 67 83 65 84
REMARK SMILES IDX 44 85 45 86 53 87 46 88 47 89 51 90 54 91 48 92 49 93 52 94
REMARK SMILES IDX 50 95
REMARK H PARENT 74 48 42 59
REMARK Flexibility Score: inf
ROOT
ATOM      1  O   UNL     1      -1.671  -0.132   0.757  1.00  0.00    -0.458 OA
ENDROOT
BRANCH   1   2
ATOM      2  C   UNL     1      -1.080   1.094   0.593  1.00  0.00     0.340 C 
ATOM      3  O   UNL     1      -0.289   1.296  -0.301  1.00  0.00    -0.246 OA
BRANCH   2   4
ATOM      4  C   UNL     1      -1.471   2.135   1.545  1.00  0.00     0.084 A 
ATOM      5  C   UNL     1      -1.124   3.502   1.497  1.00  0.00     0.042 A 
ATOM      6  N   UNL     1      -1.952   4.116   2.435  1.00  0.00    -0.350 N 
ATOM      7  C   UNL     1      -2.175   1.930   2.779  1.00  0.00    -0.019 A 
ATOM      8  C   UNL     1      -2.454   3.174   3.292  1.00  0.00     0.090 A 
ATOM      9  C   UNL     1      -2.526   0.627   3.404  1.00  0.00     0.047 C 
BRANCH   5  10
ATOM     10  C   UNL     1      -0.115   4.344   0.721  1.00  0.00     0.155 C 
BRANCH  10  11
ATOM     11  C   UNL     1       0.532   3.833  -0.565  1.00  0.00     0.232 C 
ATOM     12  O   UNL     1       0.076   4.296  -1.622  1.00  0.00    -0.274 OA
BRANCH  11  13
ATOM     13  N   UNL     1       1.633   2.944  -0.539  1.00  0.00    -0.312 N 
BRANCH  13  14
ATOM     14  C   UNL     1       2.423   2.611   0.670  1.00  0.00     0.125 C 
BRANCH  14  15
ATOM     15  C   UNL     1       2.021   1.492   1.659  1.00  0.00     0.019 C 
ATOM     16  C   UNL     1       2.507   0.073   1.386  1.00  0.00     0.006 C 
ENDBRANCH  14  15
ENDBRANCH  13  14
BRANCH  13  17
ATOM     17  C   UNL     1       2.046   2.353  -1.801  1.00  0.00     0.045 A 
ATOM     18  C   UNL     1       2.195   3.116  -2.969  1.00  0.00     0.026 A 
ATOM     19  C   UNL     1       2.127   0.964  -1.938  1.00  0.00     0.046 A 
ATOM     20  C   UNL     1       2.383   2.509  -4.222  1.00  0.00     0.004 A 
ATOM     21  C   UNL     1       2.274   0.353  -3.187  1.00  0.00     0.043 A 
ATOM     22  C   UNL     1       2.405   1.121  -4.335  1.00  0.00     0.020 A 
ATOM     23  Cl  UNL     1       2.172  -1.363  -3.310  1.00  0.00    -0.084 Cl
ENDBRANCH  13  17
ENDBRANCH  11  13
ENDBRANCH  10  11
ENDBRANCH   5  10
BRANCH   6  24
ATOM     24  C   UNL     1      -2.376   5.511   2.487  1.00  0.00     0.118 C 
ATOM     25  C   UNL     1      -1.329   6.496   2.974  1.00  0.00     0.027 C 
ENDBRANCH   6  24
ENDBRANCH   2   4
ENDBRANCH   1   2
BRANCH   1  26
ATOM     26  C   UNL     1      -1.259  -1.103  -0.228  1.00  0.00     0.275 C 
BRANCH  26  27
ATOM     27  C   UNL     1      -2.025  -1.004  -1.547  1.00  0.00     0.275 C 
BRANCH  27  28
ATOM     28  O   UNL     1      -1.738   0.202  -2.244  1.00  0.00    -0.458 OA
BRANCH  28  29
ATOM     29  C   UNL     1      -2.473   1.292  -1.914  1.00  0.00     0.338 C 
ATOM     30  O   UNL     1      -3.386   1.346  -1.108  1.00  0.00    -0.246 OA
BRANCH  29  31
ATOM     31  C   UNL     1      -2.085   2.387  -2.811  1.00  0.00     0.060 A 
ATOM     32  C   UNL     1      -2.944   3.482  -2.869  1.00  0.00     0.016 A 
ATOM     33  C   UNL     1      -1.136   2.129  -3.808  1.00  0.00     0.016 A 
ATOM     34  C   UNL     1      -3.105   4.080  -4.093  1.00  0.00     0.010 A 
ATOM     35  C   UNL     1      -1.275   2.738  -5.020  1.00  0.00     0.010 A 
ATOM     36  C   UNL     1      -2.364   3.578  -5.170  1.00  0.00    -0.014 A 
BRANCH  36  37
ATOM     37  C   UNL     1      -2.777   3.922  -6.503  1.00  0.00     0.031 A 
ATOM     38  C   UNL     1      -2.455   5.314  -6.836  1.00  0.00     0.074 A 
ATOM     39  C   UNL     1      -3.351   3.019  -7.319  1.00  0.00     0.049 A 
ATOM     40  N   UNL     1      -3.289   6.289  -6.951  1.00  0.00    -0.248 NA
ATOM     41  C   UNL     1      -1.041   5.714  -6.817  1.00  0.00     0.031 C 
ATOM     42  C   UNL     1      -3.495   1.570  -7.151  1.00  0.00     0.029 A 
ATOM     43  N   UNL     1      -3.871   3.236  -8.555  1.00  0.00    -0.354 N 
ATOM     44  C   UNL     1      -2.511   7.401  -7.225  1.00  0.00     0.074 A 
ATOM     45  C   UNL     1      -1.150   7.037  -6.927  1.00  0.00     0.031 C 
ATOM     46  C   UNL     1      -3.842   1.016  -8.337  1.00  0.00     0.029 A 
ATOM     47  C   UNL     1      -4.072   2.077  -9.299  1.00  0.00     0.049 A 
ATOM     48  H   UNL     1      -4.086   4.135  -8.896  1.00  0.00     0.167 HD
ATOM     49  C   UNL     1      -3.027   8.430  -7.945  1.00  0.00     0.037 A 
ATOM     50  C   UNL     1      -4.284   2.067 -10.640  1.00  0.00     0.037 A 
ATOM     51  C   UNL     1      -4.470   8.409  -7.926  1.00  0.00     0.049 A 
ATOM     52  C   UNL     1      -4.800   3.425 -10.998  1.00  0.00     0.074 A 
ATOM     53  C   UNL     1      -5.404   8.451  -6.905  1.00  0.00     0.029 A 
ATOM     54  N   UNL     1      -5.129   7.878  -9.010  1.00  0.00    -0.354 N 
ATOM     55  N   UNL     1      -5.962   3.875 -10.597  1.00  0.00    -0.248 NA
ATOM     56  C   UNL     1      -3.813   4.452 -11.317  1.00  0.00     0.031 C 
ATOM     57  C   UNL     1      -6.389   7.486  -7.268  1.00  0.00     0.029 A 
ATOM     58  C   UNL     1      -6.058   6.986  -8.527  1.00  0.00     0.049 A 
ATOM     59  H   UNL     1      -4.967   8.096  -9.956  1.00  0.00     0.167 HD
ATOM     60  C   UNL     1      -5.721   5.187 -10.206  1.00  0.00     0.074 A 
ATOM     61  C   UNL     1      -4.386   5.499 -10.713  1.00  0.00     0.031 C 
ATOM     62  C   UNL     1      -6.475   5.803  -9.247  1.00  0.00     0.037 A 
BRANCH  49  63
ATOM     63  C   UNL     1      -2.221   9.187  -8.960  1.00  0.00     0.064 A 
ATOM     64  C   UNL     1      -2.758  10.353  -9.528  1.00  0.00     0.173 A 
ATOM     65  C   UNL     1      -1.073   8.664  -9.599  1.00  0.00     0.173 A 
ATOM     66  F   UNL     1      -3.867  10.911  -9.020  1.00  0.00    -0.203 F 
ATOM     67  C   UNL     1      -2.217  10.919 -10.685  1.00  0.00     0.198 A 
ATOM     68  C   UNL     1      -0.502   9.264 -10.715  1.00  0.00     0.198 A 
ATOM     69  F   UNL     1      -0.525   7.494  -9.248  1.00  0.00    -0.203 F 
ATOM     70  F   UNL     1      -2.831  11.959 -11.263  1.00  0.00    -0.200 F 
ATOM     71  C   UNL     1      -1.092  10.373 -11.277  1.00  0.00     0.200 A 
ATOM     72  F   UNL     1       0.575   8.703 -11.285  1.00  0.00    -0.200 F 
ATOM     73  F   UNL     1      -0.606  10.882 -12.416  1.00  0.00    -0.200 F 
ENDBRANCH  49  63
BRANCH  50  74
ATOM     74  C   UNL     1      -3.682   1.132 -11.625  1.00  0.00     0.064 A 
ATOM     75  C   UNL     1      -4.133   1.075 -12.954  1.00  0.00     0.173 A 
ATOM     76  C   UNL     1      -2.477   0.450 -11.352  1.00  0.00     0.173 A 
ATOM     77  F   UNL     1      -5.240   1.738 -13.319  1.00  0.00    -0.203 F 
ATOM     78  C   UNL     1      -3.419   0.387 -13.946  1.00  0.00     0.198 A 
ATOM     79  C   UNL     1      -1.771  -0.240 -12.339  1.00  0.00     0.198 A 
ATOM     80  F   UNL     1      -1.905   0.512 -10.142  1.00  0.00    -0.203 F 
ATOM     81  F   UNL     1      -3.854   0.398 -15.214  1.00  0.00    -0.200 F 
ATOM     82  C   UNL     1      -2.236  -0.263 -13.638  1.00  0.00     0.200 A 
ATOM     83  F   UNL     1      -0.607  -0.832 -12.031  1.00  0.00    -0.200 F 
ATOM     84  F   UNL     1      -1.525  -0.876 -14.595  1.00  0.00    -0.200 F 
ENDBRANCH  50  74
BRANCH  62  85
ATOM     85  C   UNL     1      -7.706   5.101  -8.735  1.00  0.00     0.064 A 
ATOM     86  C   UNL     1      -7.689   3.856  -8.080  1.00  0.00     0.173 A 
ATOM     87  C   UNL     1      -8.922   5.799  -8.747  1.00  0.00     0.173 A 
ATOM     88  F   UNL     1      -6.548   3.174  -7.926  1.00  0.00    -0.203 F 
ATOM     89  C   UNL     1      -8.843   3.321  -7.505  1.00  0.00     0.198 A 
ATOM     90  C   UNL     1     -10.063   5.280  -8.139  1.00  0.00     0.198 A 
ATOM     91  F   UNL     1      -8.989   7.019  -9.302  1.00  0.00    -0.203 F 
ATOM     92  F   UNL     1      -8.799   2.128  -6.892  1.00  0.00    -0.200 F 
ATOM     93  C   UNL     1     -10.027   4.038  -7.529  1.00  0.00     0.200 A 
ATOM     94  F   UNL     1     -11.191   6.003  -8.118  1.00  0.00    -0.200 F 
ATOM     95  F   UNL     1     -11.125   3.546  -6.938  1.00  0.00    -0.200 F 
ENDBRANCH  62  85
ENDBRANCH  36  37
ENDBRANCH  29  31
ENDBRANCH  28  29
ENDBRANCH  27  28
ENDBRANCH  26  27
ENDBRANCH   1  26
TORSDOF 18
