REMARK SMILES COc1ccc(C[N@@H+](CC(=O)OCCOC(=O)c2ccc(-c3c4nc(c(-c5c(F)c(F)c(F)c(F)c5F)c5ccc([nH]5)c(-c5c(F)c(F)c(F)c(F)c5F)c5nc(c(-c6c(F)c(F)c(F)c(F)c6F)c6ccc3[nH]6)C=C5)C=C4)cc2)C(C)(C)C)cc1C#N
REMARK SMILES IDX 13 1 12 2 10 3 11 4 9 5 8 6 7 8 6 9 3 10 4 11 86 12 5 13
REMARK SMILES IDX 85 14 2 15 1 16 87 17 88 18 81 19 82 20 83 21 84 22 14 23
REMARK SMILES IDX 15 24 16 25 17 26 18 27 19 28 80 29 20 30 79 31 21 32 22 33
REMARK SMILES IDX 23 34 73 35 24 36 78 37 72 38 74 39 25 40 77 41 71 42 70 43
REMARK SMILES IDX 26 45 58 46 38 47 57 48 39 49 42 50 56 51 75 52 40 53 41 54
REMARK SMILES IDX 55 56 76 57 43 58 27 59 28 60 36 61 29 62 30 63 34 64 37 65
REMARK SMILES IDX 31 66 32 67 35 68 33 69 59 70 60 71 68 72 61 73 62 74 66 75
REMARK SMILES IDX 69 76 63 77 64 78 67 79 65 80 44 81 45 82 53 83 46 84 47 85
REMARK SMILES IDX 51 86 54 87 48 88 49 89 52 90 50 91
REMARK H PARENT 8 7 74 44 42 55
REMARK Flexibility Score: inf
ROOT
ATOM      1  C   UNL     1       5.674  -7.138   4.091  1.00  0.00     0.274 C 
ENDROOT
BRANCH   1   2
ATOM      2  O   UNL     1       4.323  -6.599   4.042  1.00  0.00    -0.458 OA
BRANCH   2   3
ATOM      3  C   UNL     1       3.360  -7.222   4.778  1.00  0.00     0.361 C 
ATOM      4  O   UNL     1       3.496  -8.363   5.223  1.00  0.00    -0.245 OA
BRANCH   3   5
ATOM      5  C   UNL     1       2.082  -6.398   5.088  1.00  0.00     0.387 C 
BRANCH   5   6
ATOM      6  N   UNL     1       1.919  -4.990   4.606  1.00  0.00    -0.318 N 
ATOM      7  H   UNL     1       0.969  -4.681   4.811  1.00  0.00     0.349 HD
BRANCH   6   8
ATOM      8  C   UNL     1       2.063  -4.982   3.145  1.00  0.00     0.299 C 
BRANCH   8   9
ATOM      9  C   UNL     1       1.620  -3.735   2.442  1.00  0.00     0.008 A 
ATOM     10  C   UNL     1       0.956  -1.210   1.470  1.00  0.00     0.136 A 
ATOM     11  C   UNL     1      -0.041  -2.045   1.991  1.00  0.00     0.048 A 
ATOM     12  C   UNL     1       2.286  -1.640   1.415  1.00  0.00     0.094 A 
ATOM     13  C   UNL     1       0.285  -3.316   2.460  1.00  0.00     0.013 A 
ATOM     14  C   UNL     1       2.603  -2.917   1.867  1.00  0.00     0.033 A 
BRANCH  10  15
ATOM     15  O   UNL     1       0.560   0.057   1.135  1.00  0.00    -0.495 OA
ATOM     16  C   UNL     1       0.706   0.301  -0.263  1.00  0.00     0.278 C 
ENDBRANCH  10  15
BRANCH  12  17
ATOM     17  C   UNL     1       3.374  -0.801   1.005  1.00  0.00     0.103 C 
ATOM     18  N   UNL     1       4.287  -0.170   0.676  1.00  0.00    -0.192 NA
ENDBRANCH  12  17
ENDBRANCH   8   9
ENDBRANCH   6   8
BRANCH   6  19
ATOM     19  C   UNL     1       2.381  -3.831   5.455  1.00  0.00     0.090 C 
ATOM     20  C   UNL     1       3.817  -3.296   5.178  1.00  0.00     0.078 C 
ATOM     21  C   UNL     1       1.474  -2.576   5.261  1.00  0.00     0.078 C 
ATOM     22  C   UNL     1       2.176  -4.080   6.979  1.00  0.00     0.078 C 
ENDBRANCH   6  19
ENDBRANCH   5   6
ENDBRANCH   3   5
ENDBRANCH   2   3
ENDBRANCH   1   2
BRANCH   1  23
ATOM     23  C   UNL     1       6.637  -6.211   4.880  1.00  0.00     0.275 C 
BRANCH  23  24
ATOM     24  O   UNL     1       6.657  -6.444   6.318  1.00  0.00    -0.458 OA
BRANCH  24  25
ATOM     25  C   UNL     1       5.508  -6.055   6.886  1.00  0.00     0.338 C 
ATOM     26  O   UNL     1       4.557  -5.614   6.271  1.00  0.00    -0.246 OA
BRANCH  25  27
ATOM     27  C   UNL     1       5.273  -6.146   8.312  1.00  0.00     0.060 A 
ATOM     28  C   UNL     1       4.034  -6.718   8.634  1.00  0.00     0.016 A 
ATOM     29  C   UNL     1       5.923  -5.292   9.200  1.00  0.00     0.016 A 
ATOM     30  C   UNL     1       3.412  -6.389   9.822  1.00  0.00     0.010 A 
ATOM     31  C   UNL     1       5.359  -5.086  10.462  1.00  0.00     0.010 A 
ATOM     32  C   UNL     1       4.111  -5.651  10.784  1.00  0.00    -0.014 A 
BRANCH  32  33
ATOM     33  C   UNL     1       3.598  -5.658  12.172  1.00  0.00     0.031 A 
ATOM     34  C   UNL     1       3.241  -4.402  12.900  1.00  0.00     0.074 A 
ATOM     35  C   UNL     1       3.500  -6.863  12.770  1.00  0.00     0.049 A 
ATOM     36  N   UNL     1       2.919  -4.254  14.159  1.00  0.00    -0.248 NA
ATOM     37  C   UNL     1       3.261  -3.150  12.131  1.00  0.00     0.031 C 
ATOM     38  C   UNL     1       3.818  -8.148  12.133  1.00  0.00     0.029 A 
ATOM     39  N   UNL     1       3.110  -7.216  14.033  1.00  0.00    -0.354 N 
ATOM     40  C   UNL     1       2.729  -2.893  14.347  1.00  0.00     0.074 A 
ATOM     41  C   UNL     1       2.986  -2.254  13.072  1.00  0.00     0.031 C 
ATOM     42  C   UNL     1       3.573  -9.143  12.988  1.00  0.00     0.029 A 
ATOM     43  C   UNL     1       3.199  -8.566  14.267  1.00  0.00     0.049 A 
ATOM     44  H   UNL     1       2.798  -6.568  14.705  1.00  0.00     0.167 HD
ATOM     45  C   UNL     1       2.378  -2.252  15.488  1.00  0.00     0.037 A 
ATOM     46  C   UNL     1       3.059  -9.268  15.403  1.00  0.00     0.037 A 
ATOM     47  C   UNL     1       2.126  -2.923  16.741  1.00  0.00     0.049 A 
ATOM     48  C   UNL     1       2.726  -8.522  16.655  1.00  0.00     0.074 A 
ATOM     49  C   UNL     1       1.738  -2.373  17.951  1.00  0.00     0.029 A 
ATOM     50  N   UNL     1       2.245  -4.292  16.947  1.00  0.00    -0.354 N 
ATOM     51  N   UNL     1       2.545  -7.235  16.824  1.00  0.00    -0.248 NA
ATOM     52  C   UNL     1       2.582  -9.320  17.875  1.00  0.00     0.031 C 
ATOM     53  C   UNL     1       1.696  -3.396  18.903  1.00  0.00     0.029 A 
ATOM     54  C   UNL     1       1.972  -4.599  18.272  1.00  0.00     0.049 A 
ATOM     55  H   UNL     1       2.488  -4.948  16.254  1.00  0.00     0.167 HD
ATOM     56  C   UNL     1       2.238  -7.069  18.164  1.00  0.00     0.074 A 
ATOM     57  C   UNL     1       2.239  -8.392  18.756  1.00  0.00     0.031 C 
ATOM     58  C   UNL     1       1.980  -5.924  18.843  1.00  0.00     0.037 A 
BRANCH  45  59
ATOM     59  C   UNL     1       2.286  -0.751  15.456  1.00  0.00     0.064 A 
ATOM     60  C   UNL     1       1.280  -0.080  14.745  1.00  0.00     0.173 A 
ATOM     61  C   UNL     1       3.188   0.028  16.199  1.00  0.00     0.173 A 
ATOM     62  F   UNL     1       0.394  -0.772  14.013  1.00  0.00    -0.203 F 
ATOM     63  C   UNL     1       1.196   1.311  14.759  1.00  0.00     0.198 A 
ATOM     64  C   UNL     1       3.080   1.416  16.239  1.00  0.00     0.198 A 
ATOM     65  F   UNL     1       4.167  -0.559  16.905  1.00  0.00    -0.203 F 
ATOM     66  F   UNL     1       0.254   1.931  14.035  1.00  0.00    -0.200 F 
ATOM     67  C   UNL     1       2.090   2.057  15.513  1.00  0.00     0.200 A 
ATOM     68  F   UNL     1       3.934   2.132  16.984  1.00  0.00    -0.200 F 
ATOM     69  F   UNL     1       1.999   3.394  15.536  1.00  0.00    -0.200 F 
ENDBRANCH  45  59
BRANCH  46  70
ATOM     70  C   UNL     1       3.276 -10.737  15.391  1.00  0.00     0.064 A 
ATOM     71  C   UNL     1       2.218 -11.622  15.628  1.00  0.00     0.173 A 
ATOM     72  C   UNL     1       4.538 -11.287  15.111  1.00  0.00     0.173 A 
ATOM     73  F   UNL     1       0.996 -11.146  15.907  1.00  0.00    -0.203 F 
ATOM     74  C   UNL     1       2.418 -13.001  15.612  1.00  0.00     0.198 A 
ATOM     75  C   UNL     1       4.727 -12.664  15.053  1.00  0.00     0.198 A 
ATOM     76  F   UNL     1       5.581 -10.483  14.856  1.00  0.00    -0.203 F 
ATOM     77  F   UNL     1       1.400 -13.825  15.892  1.00  0.00    -0.200 F 
ATOM     78  C   UNL     1       3.670 -13.521  15.316  1.00  0.00     0.200 A 
ATOM     79  F   UNL     1       5.931 -13.160  14.738  1.00  0.00    -0.200 F 
ATOM     80  F   UNL     1       3.858 -14.847  15.290  1.00  0.00    -0.200 F 
ENDBRANCH  46  70
BRANCH  58  81
ATOM     81  C   UNL     1       1.629  -6.065  20.295  1.00  0.00     0.064 A 
ATOM     82  C   UNL     1       2.572  -6.471  21.251  1.00  0.00     0.173 A 
ATOM     83  C   UNL     1       0.331  -5.769  20.738  1.00  0.00     0.173 A 
ATOM     84  F   UNL     1       3.822  -6.786  20.876  1.00  0.00    -0.203 F 
ATOM     85  C   UNL     1       2.218  -6.610  22.590  1.00  0.00     0.198 A 
ATOM     86  C   UNL     1      -0.007  -5.867  22.084  1.00  0.00     0.198 A 
ATOM     87  F   UNL     1      -0.609  -5.372  19.866  1.00  0.00    -0.203 F 
ATOM     88  F   UNL     1       3.117  -7.064  23.474  1.00  0.00    -0.200 F 
ATOM     89  C   UNL     1       0.933  -6.298  23.006  1.00  0.00     0.200 A 
ATOM     90  F   UNL     1      -1.245  -5.546  22.486  1.00  0.00    -0.200 F 
ATOM     91  F   UNL     1       0.597  -6.423  24.297  1.00  0.00    -0.200 F 
ENDBRANCH  58  81
ENDBRANCH  32  33
ENDBRANCH  25  27
ENDBRANCH  24  25
ENDBRANCH  23  24
ENDBRANCH   1  23
TORSDOF 17
