REMARK SMILES Cn1ccnc1N1[C@@H]2CC[C@H]1C[C@H](CC(=O)OCCOC(=O)c1ccc(-c3c4nc(c(-c5c(F)c(F)c(F)c(F)c5F)c5ccc([nH]5)c(-c5c(F)c(F)c(F)c(F)c5F)c5nc(c(-c6c(F)c(F)c(F)c(F)c6F)c6ccc3[nH]6)C=C5)C=C4)cc1)C2
REMARK SMILES IDX 18 1 17 2 15 3 16 4 14 5 13 6 7 7 8 8 11 9 9 10 86 11 10 12
REMARK SMILES IDX 12 13 6 14 1 15 2 16 3 17 4 18 5 19 19 20 20 21 21 22 22 23
REMARK SMILES IDX 23 24 24 25 85 26 25 27 84 28 26 29 27 30 28 31 78 32 29 33
REMARK SMILES IDX 83 34 77 35 79 36 30 37 82 38 76 39 75 40 31 42 63 43 43 44
REMARK SMILES IDX 62 45 44 46 47 47 61 48 80 49 45 50 46 51 60 53 81 54 48 55
REMARK SMILES IDX 32 56 33 57 41 58 34 59 35 60 39 61 42 62 36 63 37 64 40 65
REMARK SMILES IDX 38 66 64 67 65 68 73 69 66 70 67 71 71 72 74 73 68 74 69 75
REMARK SMILES IDX 72 76 70 77 49 78 50 79 58 80 51 81 52 82 56 83 59 84 53 85
REMARK SMILES IDX 54 86 57 87 55 88
REMARK H PARENT 79 41 47 52
REMARK Flexibility Score: inf
ROOT
ATOM      1  C   UNL     1       4.438   6.765  -2.547  1.00  0.00     0.274 C 
ENDROOT
BRANCH   1   2
ATOM      2  O   UNL     1       3.565   6.059  -1.644  1.00  0.00    -0.462 OA
BRANCH   2   3
ATOM      3  C   UNL     1       2.788   6.810  -0.825  1.00  0.00     0.306 C 
ATOM      4  O   UNL     1       2.807   8.034  -0.768  1.00  0.00    -0.252 OA
BRANCH   3   5
ATOM      5  C   UNL     1       1.915   5.958   0.072  1.00  0.00     0.126 C 
BRANCH   5   6
ATOM      6  C   UNL     1       1.057   4.907  -0.653  1.00  0.00     0.004 C 
ATOM      7  N   UNL     1       0.193   2.150  -0.297  1.00  0.00    -0.336 N 
ATOM      8  C   UNL     1      -0.835   3.199  -0.260  1.00  0.00     0.086 C 
ATOM      9  C   UNL     1       1.001   2.469  -1.476  1.00  0.00     0.086 C 
ATOM     10  C   UNL     1      -1.271   3.307  -1.731  1.00  0.00     0.027 C 
ATOM     11  C   UNL     1      -0.139   4.484   0.234  1.00  0.00     0.029 C 
ATOM     12  C   UNL     1      -0.056   2.824  -2.534  1.00  0.00     0.027 C 
ATOM     13  C   UNL     1       1.879   3.675  -1.099  1.00  0.00     0.029 C 
BRANCH   7  14
ATOM     14  C   UNL     1      -0.181   0.869  -0.046  1.00  0.00     0.205 A 
ATOM     15  C   UNL     1       2.154  -0.053   0.265  1.00  0.00     0.153 C 
ATOM     16  N   UNL     1       0.721  -0.153   0.153  1.00  0.00    -0.320 N 
ATOM     17  C   UNL     1       0.014  -1.317   0.304  1.00  0.00     0.109 A 
ATOM     18  C   UNL     1      -1.304  -0.938   0.258  1.00  0.00     0.133 A 
ATOM     19  N   UNL     1      -1.411   0.412   0.063  1.00  0.00    -0.221 NA
ENDBRANCH   7  14
ENDBRANCH   5   6
ENDBRANCH   3   5
ENDBRANCH   2   3
ENDBRANCH   1   2
BRANCH   1  20
ATOM     20  C   UNL     1       3.806   6.917  -3.933  1.00  0.00     0.275 C 
BRANCH  20  21
ATOM     21  O   UNL     1       2.751   7.896  -3.917  1.00  0.00    -0.458 OA
BRANCH  21  22
ATOM     22  C   UNL     1       1.497   7.400  -3.812  1.00  0.00     0.338 C 
ATOM     23  O   UNL     1       1.160   6.230  -3.800  1.00  0.00    -0.246 OA
BRANCH  22  24
ATOM     24  C   UNL     1       0.557   8.510  -3.595  1.00  0.00     0.060 A 
ATOM     25  C   UNL     1      -0.111   8.591  -2.370  1.00  0.00     0.016 A 
ATOM     26  C   UNL     1       0.291   9.428  -4.613  1.00  0.00     0.016 A 
ATOM     27  C   UNL     1      -1.052   9.596  -2.155  1.00  0.00     0.010 A 
ATOM     28  C   UNL     1      -0.653  10.436  -4.395  1.00  0.00     0.010 A 
ATOM     29  C   UNL     1      -1.336  10.521  -3.169  1.00  0.00    -0.014 A 
BRANCH  29  30
ATOM     30  C   UNL     1      -2.378  11.556  -2.962  1.00  0.00     0.031 A 
ATOM     31  C   UNL     1      -3.718  11.409  -3.621  1.00  0.00     0.074 A 
ATOM     32  C   UNL     1      -2.116  12.628  -2.192  1.00  0.00     0.049 A 
ATOM     33  N   UNL     1      -4.730  12.240  -3.636  1.00  0.00    -0.248 NA
ATOM     34  C   UNL     1      -3.950  10.164  -4.369  1.00  0.00     0.031 C 
ATOM     35  C   UNL     1      -0.859  12.870  -1.484  1.00  0.00     0.029 A 
ATOM     36  N   UNL     1      -2.889  13.721  -1.889  1.00  0.00    -0.354 N 
ATOM     37  C   UNL     1      -5.709  11.629  -4.407  1.00  0.00     0.074 A 
ATOM     38  C   UNL     1      -5.168  10.363  -4.855  1.00  0.00     0.031 C 
ATOM     39  C   UNL     1      -0.942  14.046  -0.839  1.00  0.00     0.029 A 
ATOM     40  C   UNL     1      -2.241  14.653  -1.118  1.00  0.00     0.049 A 
ATOM     41  H   UNL     1      -3.819  13.825  -2.196  1.00  0.00     0.167 HD
ATOM     42  C   UNL     1      -6.948  12.085  -4.710  1.00  0.00     0.037 A 
ATOM     43  C   UNL     1      -2.641  15.872  -0.707  1.00  0.00     0.037 A 
ATOM     44  C   UNL     1      -7.493  13.333  -4.245  1.00  0.00     0.049 A 
ATOM     45  C   UNL     1      -4.013  16.365  -1.082  1.00  0.00     0.074 A 
ATOM     46  C   UNL     1      -8.754  13.860  -4.466  1.00  0.00     0.029 A 
ATOM     47  N   UNL     1      -6.807  14.252  -3.464  1.00  0.00    -0.354 N 
ATOM     48  N   UNL     1      -4.941  15.769  -1.790  1.00  0.00    -0.248 NA
ATOM     49  C   UNL     1      -4.393  17.701  -0.601  1.00  0.00     0.031 C 
ATOM     50  C   UNL     1      -8.817  15.116  -3.853  1.00  0.00     0.029 A 
ATOM     51  C   UNL     1      -7.611  15.352  -3.214  1.00  0.00     0.049 A 
ATOM     52  H   UNL     1      -5.886  14.138  -3.136  1.00  0.00     0.167 HD
ATOM     53  C   UNL     1      -6.019  16.644  -1.821  1.00  0.00     0.074 A 
ATOM     54  C   UNL     1      -5.636  17.807  -1.048  1.00  0.00     0.031 C 
ATOM     55  C   UNL     1      -7.218  16.498  -2.436  1.00  0.00     0.037 A 
BRANCH  42  56
ATOM     56  C   UNL     1      -7.801  11.239  -5.607  1.00  0.00     0.064 A 
ATOM     57  C   UNL     1      -8.414  10.065  -5.148  1.00  0.00     0.173 A 
ATOM     58  C   UNL     1      -8.056  11.644  -6.926  1.00  0.00     0.173 A 
ATOM     59  F   UNL     1      -8.192   9.631  -3.899  1.00  0.00    -0.203 F 
ATOM     60  C   UNL     1      -9.241   9.318  -5.984  1.00  0.00     0.198 A 
ATOM     61  C   UNL     1      -8.901  10.907  -7.751  1.00  0.00     0.198 A 
ATOM     62  F   UNL     1      -7.496  12.763  -7.410  1.00  0.00    -0.203 F 
ATOM     63  F   UNL     1      -9.793   8.182  -5.535  1.00  0.00    -0.200 F 
ATOM     64  C   UNL     1      -9.490   9.743  -7.280  1.00  0.00     0.200 A 
ATOM     65  F   UNL     1      -9.149  11.326  -9.000  1.00  0.00    -0.200 F 
ATOM     66  F   UNL     1     -10.295   9.029  -8.079  1.00  0.00    -0.200 F 
ENDBRANCH  42  56
BRANCH  43  67
ATOM     67  C   UNL     1      -1.721  16.724   0.088  1.00  0.00     0.064 A 
ATOM     68  C   UNL     1      -1.974  17.001   1.438  1.00  0.00     0.173 A 
ATOM     69  C   UNL     1      -0.578  17.294  -0.492  1.00  0.00     0.173 A 
ATOM     70  F   UNL     1      -3.069  16.501   2.030  1.00  0.00    -0.203 F 
ATOM     71  C   UNL     1      -1.130  17.831   2.173  1.00  0.00     0.198 A 
ATOM     72  C   UNL     1       0.280  18.101   0.250  1.00  0.00     0.198 A 
ATOM     73  F   UNL     1      -0.293  17.062  -1.782  1.00  0.00    -0.203 F 
ATOM     74  F   UNL     1      -1.421  18.119   3.449  1.00  0.00    -0.200 F 
ATOM     75  C   UNL     1      -0.000  18.376   1.580  1.00  0.00     0.200 A 
ATOM     76  F   UNL     1       1.375  18.618  -0.324  1.00  0.00    -0.200 F 
ATOM     77  F   UNL     1       0.811  19.174   2.287  1.00  0.00    -0.200 F 
ENDBRANCH  43  67
BRANCH  55  78
ATOM     78  C   UNL     1      -8.213  17.608  -2.275  1.00  0.00     0.064 A 
ATOM     79  C   UNL     1      -8.066  18.828  -2.950  1.00  0.00     0.173 A 
ATOM     80  C   UNL     1      -9.348  17.433  -1.468  1.00  0.00     0.173 A 
ATOM     81  F   UNL     1      -6.991  19.049  -3.720  1.00  0.00    -0.203 F 
ATOM     82  C   UNL     1      -9.010  19.842  -2.806  1.00  0.00     0.198 A 
ATOM     83  C   UNL     1     -10.302  18.439  -1.347  1.00  0.00     0.198 A 
ATOM     84  F   UNL     1      -9.536  16.281  -0.807  1.00  0.00    -0.203 F 
ATOM     85  F   UNL     1      -8.830  21.015  -3.428  1.00  0.00    -0.200 F 
ATOM     86  C   UNL     1     -10.130  19.644  -2.011  1.00  0.00     0.200 A 
ATOM     87  F   UNL     1     -11.388  18.242  -0.587  1.00  0.00    -0.200 F 
ATOM     88  F   UNL     1     -11.040  20.619  -1.879  1.00  0.00    -0.200 F 
ENDBRANCH  55  78
ENDBRANCH  29  30
ENDBRANCH  22  24
ENDBRANCH  21  22
ENDBRANCH  20  21
ENDBRANCH   1  20
TORSDOF 13
