REMARK SMILES O=C1C[C@H](c2cn[nH]c2C(=O)OCCOC(=O)c2ccc(-c3c4nc(c(-c5c(F)c(F)c(F)c(F)c5F)c5ccc([nH]5)c(-c5c(F)c(F)c(F)c(F)c5F)c5nc(c(-c6c(F)c(F)c(F)c(F)c6F)c6ccc3[nH]6)C=C5)C=C4)cc2)c2c(-c3cccs3)n[nH]c2N1
REMARK SMILES IDX 13 1 12 2 10 3 11 4 9 5 5 6 6 7 7 8 8 9 4 11 1 12 2 13 3 14
REMARK SMILES IDX 91 15 90 16 81 18 89 19 82 20 88 21 83 23 84 24 87 25 85 26
REMARK SMILES IDX 86 27 14 28 15 29 16 30 17 31 18 32 19 33 80 34 20 35 79 36
REMARK SMILES IDX 21 37 22 38 23 39 73 40 24 41 78 42 72 43 74 44 25 45 77 46
REMARK SMILES IDX 71 47 70 48 26 50 58 51 38 52 57 53 39 54 42 55 56 56 75 57
REMARK SMILES IDX 40 58 41 59 55 61 76 62 43 63 27 64 28 65 36 66 29 67 30 68
REMARK SMILES IDX 34 69 37 70 31 71 32 72 35 73 33 74 59 75 60 76 68 77 61 78
REMARK SMILES IDX 62 79 66 80 69 81 63 82 64 83 67 84 65 85 44 86 45 87 53 88
REMARK SMILES IDX 46 89 47 90 51 91 54 92 48 93 49 94 52 95 50 96
REMARK H PARENT 8 10 91 17 89 22 74 49 42 60
REMARK Flexibility Score: inf
ROOT
ATOM      1  C   UNL     1       6.981  -1.855  -1.626  1.00  0.00     0.275 C 
ENDROOT
BRANCH   1   2
ATOM      2  O   UNL     1       6.330  -0.582  -1.489  1.00  0.00    -0.457 OA
BRANCH   2   3
ATOM      3  C   UNL     1       6.436   0.311  -2.497  1.00  0.00     0.356 C 
ATOM      4  O   UNL     1       7.105   0.150  -3.495  1.00  0.00    -0.244 OA
BRANCH   3   5
ATOM      5  C   UNL     1       5.607   1.473  -2.257  1.00  0.00     0.147 A 
ATOM      6  C   UNL     1       4.770   1.978  -1.259  1.00  0.00     0.013 A 
ATOM      7  C   UNL     1       4.347   3.232  -1.803  1.00  0.00     0.140 A 
ATOM      8  N   UNL     1       4.821   3.477  -3.019  1.00  0.00    -0.183 NA
ATOM      9  N   UNL     1       5.556   2.393  -3.277  1.00  0.00    -0.271 N 
ATOM     10  H   UNL     1       6.025   2.263  -4.133  1.00  0.00     0.190 HD
BRANCH   6  11
ATOM     11  C   UNL     1       4.304   1.542   0.125  1.00  0.00     0.069 C 
ATOM     12  O   UNL     1       1.117  -0.339  -0.306  1.00  0.00    -0.275 OA
ATOM     13  C   UNL     1       2.261  -0.090   0.076  1.00  0.00     0.226 C 
ATOM     14  C   UNL     1       2.768   1.346   0.193  1.00  0.00     0.114 C 
ATOM     15  N   UNL     1       3.054  -1.097   0.570  1.00  0.00    -0.311 N 
ATOM     16  C   UNL     1       4.340  -0.817   0.936  1.00  0.00     0.132 A 
ATOM     17  H   UNL     1       2.700  -2.011   0.660  1.00  0.00     0.171 HD
ATOM     18  C   UNL     1       4.978   0.384   0.764  1.00  0.00     0.031 A 
ATOM     19  N   UNL     1       5.253  -1.682   1.450  1.00  0.00    -0.262 N 
ATOM     20  C   UNL     1       6.309   0.144   1.195  1.00  0.00     0.108 A 
ATOM     21  N   UNL     1       6.482  -1.138   1.570  1.00  0.00    -0.173 NA
ATOM     22  H   UNL     1       5.040  -2.608   1.708  1.00  0.00     0.192 HD
BRANCH  20  23
ATOM     23  C   UNL     1       7.446   1.102   1.020  1.00  0.00     0.055 A 
ATOM     24  C   UNL     1       8.583   0.814   0.293  1.00  0.00     0.022 A 
ATOM     25  S   UNL     1       7.432   2.715   1.570  1.00  0.00    -0.142 S 
ATOM     26  C   UNL     1       9.405   1.964   0.109  1.00  0.00     0.012 A 
ATOM     27  C   UNL     1       8.927   3.050   0.808  1.00  0.00     0.065 A 
ENDBRANCH  20  23
ENDBRANCH   6  11
ENDBRANCH   3   5
ENDBRANCH   2   3
ENDBRANCH   1   2
BRANCH   1  28
ATOM     28  C   UNL     1       5.923  -2.890  -1.940  1.00  0.00     0.275 C 
BRANCH  28  29
ATOM     29  O   UNL     1       5.636  -2.812  -3.326  1.00  0.00    -0.458 OA
BRANCH  29  30
ATOM     30  C   UNL     1       4.682  -1.947  -3.723  1.00  0.00     0.338 C 
ATOM     31  O   UNL     1       4.043  -1.164  -3.045  1.00  0.00    -0.246 OA
BRANCH  30  32
ATOM     32  C   UNL     1       4.445  -2.218  -5.140  1.00  0.00     0.060 A 
ATOM     33  C   UNL     1       3.537  -1.414  -5.832  1.00  0.00     0.016 A 
ATOM     34  C   UNL     1       4.972  -3.398  -5.693  1.00  0.00     0.016 A 
ATOM     35  C   UNL     1       3.030  -1.890  -7.021  1.00  0.00     0.010 A 
ATOM     36  C   UNL     1       4.452  -3.880  -6.858  1.00  0.00     0.010 A 
ATOM     37  C   UNL     1       3.438  -3.153  -7.465  1.00  0.00    -0.014 A 
BRANCH  37  38
ATOM     38  C   UNL     1       2.837  -3.706  -8.649  1.00  0.00     0.031 A 
ATOM     39  C   UNL     1       3.321  -3.086  -9.897  1.00  0.00     0.074 A 
ATOM     40  C   UNL     1       2.047  -4.792  -8.601  1.00  0.00     0.049 A 
ATOM     41  N   UNL     1       2.646  -2.366 -10.726  1.00  0.00    -0.248 NA
ATOM     42  C   UNL     1       4.764  -3.149 -10.180  1.00  0.00     0.031 C 
ATOM     43  C   UNL     1       1.780  -5.681  -7.468  1.00  0.00     0.029 A 
ATOM     44  N   UNL     1       1.387  -5.386  -9.624  1.00  0.00    -0.354 N 
ATOM     45  C   UNL     1       3.537  -2.029 -11.736  1.00  0.00     0.074 A 
ATOM     46  C   UNL     1       4.851  -2.383 -11.267  1.00  0.00     0.031 C 
ATOM     47  C   UNL     1       1.189  -6.811  -7.923  1.00  0.00     0.029 A 
ATOM     48  C   UNL     1       0.920  -6.658  -9.344  1.00  0.00     0.049 A 
ATOM     49  H   UNL     1       1.250  -4.948 -10.496  1.00  0.00     0.167 HD
ATOM     50  C   UNL     1       3.091  -1.712 -12.979  1.00  0.00     0.037 A 
ATOM     51  C   UNL     1       0.423  -7.530 -10.253  1.00  0.00     0.037 A 
ATOM     52  C   UNL     1       1.689  -1.381 -12.967  1.00  0.00     0.049 A 
ATOM     53  C   UNL     1       0.038  -6.745 -11.457  1.00  0.00     0.074 A 
ATOM     54  C   UNL     1       0.936  -0.407 -12.340  1.00  0.00     0.029 A 
ATOM     55  N   UNL     1       0.797  -2.348 -13.361  1.00  0.00    -0.354 N 
ATOM     56  N   UNL     1      -0.949  -5.893 -11.487  1.00  0.00    -0.248 NA
ATOM     57  C   UNL     1       1.036  -6.573 -12.504  1.00  0.00     0.031 C 
ATOM     58  C   UNL     1      -0.281  -1.056 -11.975  1.00  0.00     0.029 A 
ATOM     59  C   UNL     1      -0.224  -2.369 -12.444  1.00  0.00     0.049 A 
ATOM     60  H   UNL     1       0.875  -2.922 -14.157  1.00  0.00     0.167 HD
ATOM     61  C   UNL     1      -0.487  -4.840 -12.264  1.00  0.00     0.074 A 
ATOM     62  C   UNL     1       0.696  -5.359 -12.944  1.00  0.00     0.031 C 
ATOM     63  C   UNL     1      -0.937  -3.566 -12.061  1.00  0.00     0.037 A 
BRANCH  50  64
ATOM     64  C   UNL     1       3.832  -2.062 -14.239  1.00  0.00     0.064 A 
ATOM     65  C   UNL     1       3.410  -1.509 -15.460  1.00  0.00     0.173 A 
ATOM     66  C   UNL     1       4.747  -3.135 -14.333  1.00  0.00     0.173 A 
ATOM     67  F   UNL     1       2.519  -0.507 -15.483  1.00  0.00    -0.203 F 
ATOM     68  C   UNL     1       3.827  -2.033 -16.686  1.00  0.00     0.198 A 
ATOM     69  C   UNL     1       5.205  -3.616 -15.555  1.00  0.00     0.198 A 
ATOM     70  F   UNL     1       5.139  -3.834 -13.261  1.00  0.00    -0.203 F 
ATOM     71  F   UNL     1       3.305  -1.557 -17.823  1.00  0.00    -0.200 F 
ATOM     72  C   UNL     1       4.722  -3.087 -16.732  1.00  0.00     0.200 A 
ATOM     73  F   UNL     1       6.055  -4.653 -15.577  1.00  0.00    -0.200 F 
ATOM     74  F   UNL     1       5.078  -3.628 -17.904  1.00  0.00    -0.200 F 
ENDBRANCH  50  64
BRANCH  51  75
ATOM     75  C   UNL     1       0.561  -9.004 -10.273  1.00  0.00     0.064 A 
ATOM     76  C   UNL     1      -0.252  -9.790 -11.104  1.00  0.00     0.173 A 
ATOM     77  C   UNL     1       1.671  -9.647  -9.692  1.00  0.00     0.173 A 
ATOM     78  F   UNL     1      -1.305  -9.243 -11.729  1.00  0.00    -0.203 F 
ATOM     79  C   UNL     1       0.046 -11.131 -11.364  1.00  0.00     0.198 A 
ATOM     80  C   UNL     1       1.963 -10.988  -9.944  1.00  0.00     0.198 A 
ATOM     81  F   UNL     1       2.552  -8.965  -8.945  1.00  0.00    -0.203 F 
ATOM     82  F   UNL     1      -0.715 -11.832 -12.217  1.00  0.00    -0.200 F 
ATOM     83  C   UNL     1       1.159 -11.726 -10.793  1.00  0.00     0.200 A 
ATOM     84  F   UNL     1       3.063 -11.540  -9.413  1.00  0.00    -0.200 F 
ATOM     85  F   UNL     1       1.481 -12.991 -11.092  1.00  0.00    -0.200 F 
ENDBRANCH  51  75
BRANCH  63  86
ATOM     86  C   UNL     1      -2.138  -3.387 -11.172  1.00  0.00     0.064 A 
ATOM     87  C   UNL     1      -2.167  -3.728  -9.808  1.00  0.00     0.173 A 
ATOM     88  C   UNL     1      -3.258  -2.726 -11.693  1.00  0.00     0.173 A 
ATOM     89  F   UNL     1      -1.099  -4.266  -9.208  1.00  0.00    -0.203 F 
ATOM     90  C   UNL     1      -3.287  -3.467  -9.020  1.00  0.00     0.198 A 
ATOM     91  C   UNL     1      -4.359  -2.430 -10.895  1.00  0.00     0.198 A 
ATOM     92  F   UNL     1      -3.265  -2.324 -12.974  1.00  0.00    -0.203 F 
ATOM     93  F   UNL     1      -3.297  -3.821  -7.727  1.00  0.00    -0.200 F 
ATOM     94  C   UNL     1      -4.380  -2.812  -9.563  1.00  0.00     0.200 A 
ATOM     95  F   UNL     1      -5.393  -1.752 -11.412  1.00  0.00    -0.200 F 
ATOM     96  F   UNL     1      -5.442  -2.527  -8.797  1.00  0.00    -0.200 F 
ENDBRANCH  63  86
ENDBRANCH  37  38
ENDBRANCH  30  32
ENDBRANCH  29  30
ENDBRANCH  28  29
ENDBRANCH   1  28
TORSDOF 13
