REMARK SMILES CC1=C2C(CSc3c(Cl)cccc3Cl)=CC(=O)N=C2S[C@H]1C(=O)OCCOC(=O)c1ccc(-c2c3nc(c(-c4c(F)c(F)c(F)c(F)c4F)c4ccc([nH]4)c(-c4c(F)c(F)c(F)c(F)c4F)c4nc(c(-c5c(F)c(F)c(F)c(F)c5F)c5ccc2[nH]5)C=C4)C=C3)cc1
REMARK SMILES IDX 25 1 24 2 22 3 23 4 21 5 1 6 2 7 3 8 4 9 19 10 20 11 15 12
REMARK SMILES IDX 18 13 16 14 17 15 5 16 6 17 7 18 8 19 13 20 9 21 10 22 12 23
REMARK SMILES IDX 14 24 11 25 26 26 27 27 28 28 29 29 30 30 31 31 92 32 32 33
REMARK SMILES IDX 91 34 33 35 34 36 35 37 85 38 36 39 90 40 84 41 86 42 37 43
REMARK SMILES IDX 89 44 83 45 82 46 38 48 70 49 50 50 69 51 51 52 54 53 68 54
REMARK SMILES IDX 87 55 52 56 53 57 67 59 88 60 55 61 39 62 40 63 48 64 41 65
REMARK SMILES IDX 42 66 46 67 49 68 43 69 44 70 47 71 45 72 71 73 72 74 80 75
REMARK SMILES IDX 73 76 74 77 78 78 81 79 75 80 76 81 79 82 77 83 56 84 57 85
REMARK SMILES IDX 65 86 58 87 59 88 63 89 66 90 60 91 61 92 64 93 62 94
REMARK H PARENT 86 47 54 58
REMARK Flexibility Score: inf
ROOT
ATOM      1  C   UNL     1       1.156   3.619  -4.416  1.00  0.00     0.274 C 
ENDROOT
BRANCH   1   2
ATOM      2  O   UNL     1       0.613   3.327  -3.113  1.00  0.00    -0.461 OA
BRANCH   2   3
ATOM      3  C   UNL     1      -0.350   2.364  -3.009  1.00  0.00     0.323 C 
ATOM      4  O   UNL     1      -0.719   1.649  -3.935  1.00  0.00    -0.251 OA
BRANCH   3   5
ATOM      5  C   UNL     1      -0.909   2.245  -1.577  1.00  0.00     0.189 C 
ATOM      6  C   UNL     1       0.303   0.289  -0.441  1.00  0.00     0.042 C 
ATOM      7  C   UNL     1       0.119   1.768  -0.569  1.00  0.00    -0.039 C 
ATOM      8  C   UNL     1       0.769   2.736   0.102  1.00  0.00     0.012 C 
ATOM      9  C   UNL     1       1.840   2.772   1.076  1.00  0.00    -0.022 C 
ATOM     10  C   UNL     1       0.176   4.064  -0.215  1.00  0.00     0.109 C 
ATOM     11  S   UNL     1      -1.381   3.901  -0.980  1.00  0.00    -0.086 SA
ATOM     12  C   UNL     1       2.354   3.993   1.337  1.00  0.00     0.079 C 
ATOM     13  N   UNL     1       0.681   5.214   0.039  1.00  0.00    -0.202 NA
ATOM     14  C   UNL     1       1.921   5.229   0.623  1.00  0.00     0.271 C 
ATOM     15  O   UNL     1       2.651   6.213   0.640  1.00  0.00    -0.267 OA
BRANCH   9  16
ATOM     16  C   UNL     1       2.296   1.554   1.839  1.00  0.00     0.111 C 
BRANCH  16  17
ATOM     17  S   UNL     1       4.111   1.359   1.913  1.00  0.00    -0.118 SA
BRANCH  17  18
ATOM     18  C   UNL     1       4.473   0.715   0.268  1.00  0.00     0.045 A 
ATOM     19  C   UNL     1       4.288  -0.647  -0.049  1.00  0.00     0.056 A 
ATOM     20  C   UNL     1       5.068   1.537  -0.712  1.00  0.00     0.056 A 
ATOM     21  Cl  UNL     1       3.596  -1.785   1.062  1.00  0.00    -0.083 Cl
ATOM     22  C   UNL     1       4.682  -1.161  -1.293  1.00  0.00     0.022 A 
ATOM     23  C   UNL     1       5.465   1.013  -1.950  1.00  0.00     0.022 A 
ATOM     24  Cl  UNL     1       5.369   3.226  -0.467  1.00  0.00    -0.083 Cl
ATOM     25  C   UNL     1       5.278  -0.335  -2.239  1.00  0.00     0.003 A 
ENDBRANCH  17  18
ENDBRANCH  16  17
ENDBRANCH   9  16
ENDBRANCH   3   5
ENDBRANCH   2   3
ENDBRANCH   1   2
BRANCH   1  26
ATOM     26  C   UNL     1       2.554   3.019  -4.596  1.00  0.00     0.275 C 
BRANCH  26  27
ATOM     27  O   UNL     1       2.486   1.623  -4.941  1.00  0.00    -0.458 OA
BRANCH  27  28
ATOM     28  C   UNL     1       2.337   0.795  -3.887  1.00  0.00     0.338 C 
ATOM     29  O   UNL     1       2.327   1.099  -2.705  1.00  0.00    -0.246 OA
BRANCH  28  30
ATOM     30  C   UNL     1       2.065  -0.575  -4.342  1.00  0.00     0.060 A 
ATOM     31  C   UNL     1       0.948  -1.220  -3.806  1.00  0.00     0.016 A 
ATOM     32  C   UNL     1       2.932  -1.248  -5.202  1.00  0.00     0.016 A 
ATOM     33  C   UNL     1       0.712  -2.559  -4.083  1.00  0.00     0.010 A 
ATOM     34  C   UNL     1       2.683  -2.590  -5.500  1.00  0.00     0.010 A 
ATOM     35  C   UNL     1       1.584  -3.254  -4.927  1.00  0.00    -0.014 A 
BRANCH  35  36
ATOM     36  C   UNL     1       1.354  -4.689  -5.196  1.00  0.00     0.031 A 
ATOM     37  C   UNL     1       2.240  -5.716  -4.560  1.00  0.00     0.074 A 
ATOM     38  C   UNL     1       0.348  -5.056  -6.008  1.00  0.00     0.049 A 
ATOM     39  N   UNL     1       2.288  -7.007  -4.762  1.00  0.00    -0.248 NA
ATOM     40  C   UNL     1       3.204  -5.223  -3.564  1.00  0.00     0.031 C 
ATOM     41  C   UNL     1      -0.607  -4.139  -6.633  1.00  0.00     0.029 A 
ATOM     42  N   UNL     1      -0.030  -6.294  -6.456  1.00  0.00    -0.354 N 
ATOM     43  C   UNL     1       3.299  -7.480  -3.937  1.00  0.00     0.074 A 
ATOM     44  C   UNL     1       3.848  -6.336  -3.239  1.00  0.00     0.031 C 
ATOM     45  C   UNL     1      -1.455  -4.847  -7.395  1.00  0.00     0.029 A 
ATOM     46  C   UNL     1      -1.070  -6.254  -7.351  1.00  0.00     0.049 A 
ATOM     47  H   UNL     1       0.401  -7.130  -6.165  1.00  0.00     0.167 HD
ATOM     48  C   UNL     1       3.725  -8.755  -3.782  1.00  0.00     0.037 A 
ATOM     49  C   UNL     1      -1.621  -7.241  -8.081  1.00  0.00     0.037 A 
ATOM     50  C   UNL     1       3.161  -9.884  -4.476  1.00  0.00     0.049 A 
ATOM     51  C   UNL     1      -1.086  -8.638  -7.940  1.00  0.00     0.074 A 
ATOM     52  C   UNL     1       3.514 -11.219  -4.388  1.00  0.00     0.029 A 
ATOM     53  N   UNL     1       2.120  -9.805  -5.392  1.00  0.00    -0.354 N 
ATOM     54  N   UNL     1      -0.120  -9.079  -7.170  1.00  0.00    -0.248 NA
ATOM     55  C   UNL     1      -1.712  -9.674  -8.772  1.00  0.00     0.031 C 
ATOM     56  C   UNL     1       2.713 -11.942  -5.280  1.00  0.00     0.029 A 
ATOM     57  C   UNL     1       1.831 -11.065  -5.890  1.00  0.00     0.049 A 
ATOM     58  H   UNL     1       1.657  -8.975  -5.649  1.00  0.00     0.167 HD
ATOM     59  C   UNL     1      -0.039 -10.444  -7.404  1.00  0.00     0.074 A 
ATOM     60  C   UNL     1      -1.059 -10.760  -8.383  1.00  0.00     0.031 C 
ATOM     61  C   UNL     1       0.803 -11.355  -6.857  1.00  0.00     0.037 A 
BRANCH  48  62
ATOM     62  C   UNL     1       4.877  -8.993  -2.851  1.00  0.00     0.064 A 
ATOM     63  C   UNL     1       4.733  -8.905  -1.459  1.00  0.00     0.173 A 
ATOM     64  C   UNL     1       6.137  -9.341  -3.361  1.00  0.00     0.173 A 
ATOM     65  F   UNL     1       3.553  -8.557  -0.923  1.00  0.00    -0.203 F 
ATOM     66  C   UNL     1       5.814  -9.136  -0.612  1.00  0.00     0.198 A 
ATOM     67  C   UNL     1       7.209  -9.596  -2.510  1.00  0.00     0.198 A 
ATOM     68  F   UNL     1       6.327  -9.439  -4.685  1.00  0.00    -0.203 F 
ATOM     69  F   UNL     1       5.665  -9.003   0.714  1.00  0.00    -0.200 F 
ATOM     70  C   UNL     1       7.049  -9.487  -1.137  1.00  0.00     0.200 A 
ATOM     71  F   UNL     1       8.399  -9.942  -3.019  1.00  0.00    -0.200 F 
ATOM     72  F   UNL     1       8.087  -9.711  -0.320  1.00  0.00    -0.200 F 
ENDBRANCH  48  62
BRANCH  49  73
ATOM     73  C   UNL     1      -2.724  -6.930  -9.024  1.00  0.00     0.064 A 
ATOM     74  C   UNL     1      -4.032  -7.365  -8.772  1.00  0.00     0.173 A 
ATOM     75  C   UNL     1      -2.496  -6.180 -10.187  1.00  0.00     0.173 A 
ATOM     76  F   UNL     1      -4.293  -8.103  -7.683  1.00  0.00    -0.203 F 
ATOM     77  C   UNL     1      -5.069  -7.071  -9.655  1.00  0.00     0.198 A 
ATOM     78  C   UNL     1      -3.539  -5.864 -11.055  1.00  0.00     0.198 A 
ATOM     79  F   UNL     1      -1.262  -5.739 -10.471  1.00  0.00    -0.203 F 
ATOM     80  F   UNL     1      -6.304  -7.529  -9.409  1.00  0.00    -0.200 F 
ATOM     81  C   UNL     1      -4.823  -6.315 -10.791  1.00  0.00     0.200 A 
ATOM     82  F   UNL     1      -3.299  -5.122 -12.145  1.00  0.00    -0.200 F 
ATOM     83  F   UNL     1      -5.823  -6.026 -11.635  1.00  0.00    -0.200 F 
ENDBRANCH  49  73
BRANCH  61  84
ATOM     84  C   UNL     1       0.627 -12.784  -7.274  1.00  0.00     0.064 A 
ATOM     85  C   UNL     1       1.037 -13.237  -8.536  1.00  0.00     0.173 A 
ATOM     86  C   UNL     1       0.075 -13.717  -6.384  1.00  0.00     0.173 A 
ATOM     87  F   UNL     1       1.554 -12.378  -9.427  1.00  0.00    -0.203 F 
ATOM     88  C   UNL     1       0.882 -14.572  -8.899  1.00  0.00     0.198 A 
ATOM     89  C   UNL     1      -0.054 -15.056  -6.741  1.00  0.00     0.198 A 
ATOM     90  F   UNL     1      -0.328 -13.332  -5.164  1.00  0.00    -0.203 F 
ATOM     91  F   UNL     1       1.243 -14.977 -10.125  1.00  0.00    -0.200 F 
ATOM     92  C   UNL     1       0.344 -15.481  -8.000  1.00  0.00     0.200 A 
ATOM     93  F   UNL     1      -0.565 -15.935  -5.868  1.00  0.00    -0.200 F 
ATOM     94  F   UNL     1       0.202 -16.767  -8.349  1.00  0.00    -0.200 F 
ENDBRANCH  61  84
ENDBRANCH  35  36
ENDBRANCH  28  30
ENDBRANCH  27  28
ENDBRANCH  26  27
ENDBRANCH   1  26
TORSDOF 14
