REMARK SMILES Cn1c(=O)c2c(nc(Nc3cccc(Cl)c3Cl)n2CC(=O)OCCOC(=O)c2ccc(-c3c4nc(c(-c5c(F)c(F)c(F)c(F)c5F)c5ccc([nH]5)c(-c5c(F)c(F)c(F)c(F)c5F)c5nc(c(-c6c(F)c(F)c(F)c(F)c6F)c6ccc3[nH]6)C=C5)C=C4)cc2)n(C)c1=O
REMARK SMILES IDX 23 1 22 2 20 3 21 4 19 5 18 6 1 7 2 8 3 9 93 10 4 11 5 12
REMARK SMILES IDX 91 13 94 14 6 15 92 16 7 17 8 18 9 19 10 21 11 22 16 23
REMARK SMILES IDX 12 24 14 25 17 26 13 27 15 28 24 29 25 30 26 31 27 32 28 33
REMARK SMILES IDX 29 34 90 35 30 36 89 37 31 38 32 39 33 40 83 41 34 42 88 43
REMARK SMILES IDX 82 44 84 45 35 46 87 47 81 48 80 49 36 51 68 52 48 53 67 54
REMARK SMILES IDX 49 55 52 56 66 57 85 58 50 59 51 60 65 62 86 63 53 64 37 65
REMARK SMILES IDX 38 66 46 67 39 68 40 69 44 70 47 71 41 72 42 73 45 74 43 75
REMARK SMILES IDX 69 76 70 77 78 78 71 79 72 80 76 81 79 82 73 83 74 84 77 85
REMARK SMILES IDX 75 86 54 87 55 88 63 89 56 90 57 91 61 92 64 93 58 94 59 95
REMARK SMILES IDX 62 96 60 97
REMARK H PARENT 9 20 84 50 52 61
REMARK Flexibility Score: inf
ROOT
ATOM      1  C   UNL     1       5.101   5.239   1.056  1.00  0.00     0.274 C 
ENDROOT
BRANCH   1   2
ATOM      2  O   UNL     1       3.660   5.382   0.975  1.00  0.00    -0.461 OA
BRANCH   2   3
ATOM      3  C   UNL     1       3.180   5.733  -0.245  1.00  0.00     0.326 C 
ATOM      4  O   UNL     1       3.906   6.073  -1.181  1.00  0.00    -0.250 OA
BRANCH   3   5
ATOM      5  C   UNL     1       1.688   5.644  -0.440  1.00  0.00     0.248 C 
BRANCH   5   6
ATOM      6  N   UNL     1       0.829   5.208   0.650  1.00  0.00    -0.293 N 
ATOM      7  C   UNL     1       0.611   0.332   0.115  1.00  0.00     0.159 C 
ATOM      8  N   UNL     1       0.181   1.580   0.711  1.00  0.00    -0.261 N 
ATOM      9  C   UNL     1       0.416   2.749  -0.009  1.00  0.00     0.282 A 
ATOM     10  C   UNL     1      -0.607   1.538   1.867  1.00  0.00     0.332 A 
ATOM     11  O   UNL     1       0.548   2.783  -1.231  1.00  0.00    -0.267 OA
ATOM     12  C   UNL     1       0.344   3.920   0.793  1.00  0.00     0.154 A 
ATOM     13  N   UNL     1      -0.934   2.766   2.449  1.00  0.00    -0.279 N 
ATOM     14  O   UNL     1      -1.021   0.470   2.327  1.00  0.00    -0.247 OA
ATOM     15  C   UNL     1      -0.363   3.916   1.952  1.00  0.00     0.170 A 
ATOM     16  C   UNL     1      -1.864   2.821   3.557  1.00  0.00     0.157 C 
ATOM     17  N   UNL     1      -0.490   5.165   2.451  1.00  0.00    -0.194 NA
ATOM     18  C   UNL     1       0.171   5.955   1.621  1.00  0.00     0.210 A 
BRANCH  18  19
ATOM     19  N   UNL     1       0.150   7.292   1.803  1.00  0.00    -0.324 N 
ATOM     20  H   UNL     1      -0.373   7.564   2.591  1.00  0.00     0.170 HD
BRANCH  19  21
ATOM     21  C   UNL     1       0.709   8.379   1.115  1.00  0.00     0.061 A 
ATOM     22  C   UNL     1       1.596   9.184   1.852  1.00  0.00     0.028 A 
ATOM     23  C   UNL     1       0.361   8.786  -0.190  1.00  0.00     0.083 A 
ATOM     24  C   UNL     1       2.208  10.299   1.284  1.00  0.00     0.004 A 
ATOM     25  C   UNL     1       1.031   9.870  -0.782  1.00  0.00     0.061 A 
ATOM     26  Cl  UNL     1      -0.922   7.974  -1.041  1.00  0.00    -0.080 Cl
ATOM     27  C   UNL     1       1.953  10.620  -0.045  1.00  0.00     0.022 A 
ATOM     28  Cl  UNL     1       0.781  10.330  -2.431  1.00  0.00    -0.083 Cl
ENDBRANCH  19  21
ENDBRANCH  18  19
ENDBRANCH   5   6
ENDBRANCH   3   5
ENDBRANCH   2   3
ENDBRANCH   1   2
BRANCH   1  29
ATOM     29  C   UNL     1       5.561   3.788   0.880  1.00  0.00     0.275 C 
BRANCH  29  30
ATOM     30  O   UNL     1       5.444   3.304  -0.466  1.00  0.00    -0.458 OA
BRANCH  30  31
ATOM     31  C   UNL     1       4.208   2.827  -0.731  1.00  0.00     0.338 C 
ATOM     32  O   UNL     1       3.210   2.999  -0.060  1.00  0.00    -0.246 OA
BRANCH  31  33
ATOM     33  C   UNL     1       4.218   1.810  -1.782  1.00  0.00     0.060 A 
ATOM     34  C   UNL     1       3.004   1.597  -2.428  1.00  0.00     0.016 A 
ATOM     35  C   UNL     1       5.194   0.814  -1.709  1.00  0.00     0.016 A 
ATOM     36  C   UNL     1       2.650   0.305  -2.747  1.00  0.00     0.010 A 
ATOM     37  C   UNL     1       4.865  -0.470  -2.101  1.00  0.00     0.010 A 
ATOM     38  C   UNL     1       3.561  -0.736  -2.514  1.00  0.00    -0.014 A 
BRANCH  38  39
ATOM     39  C   UNL     1       3.143  -2.078  -2.900  1.00  0.00     0.031 A 
ATOM     40  C   UNL     1       2.693  -2.124  -4.316  1.00  0.00     0.074 A 
ATOM     41  C   UNL     1       3.238  -3.170  -2.114  1.00  0.00     0.049 A 
ATOM     42  N   UNL     1       1.526  -2.443  -4.768  1.00  0.00    -0.248 NA
ATOM     43  C   UNL     1       3.595  -1.543  -5.327  1.00  0.00     0.031 C 
ATOM     44  C   UNL     1       3.867  -3.292  -0.798  1.00  0.00     0.029 A 
ATOM     45  N   UNL     1       2.862  -4.453  -2.384  1.00  0.00    -0.354 N 
ATOM     46  C   UNL     1       1.601  -2.266  -6.147  1.00  0.00     0.074 A 
ATOM     47  C   UNL     1       2.816  -1.546  -6.406  1.00  0.00     0.031 C 
ATOM     48  C   UNL     1       4.051  -4.601  -0.508  1.00  0.00     0.029 A 
ATOM     49  C   UNL     1       3.431  -5.406  -1.545  1.00  0.00     0.049 A 
ATOM     50  H   UNL     1       2.240  -4.685  -3.111  1.00  0.00     0.167 HD
ATOM     51  C   UNL     1       0.789  -2.972  -6.978  1.00  0.00     0.037 A 
ATOM     52  C   UNL     1       3.439  -6.750  -1.743  1.00  0.00     0.037 A 
ATOM     53  C   UNL     1      -0.399  -3.401  -6.284  1.00  0.00     0.049 A 
ATOM     54  C   UNL     1       2.352  -7.057  -2.704  1.00  0.00     0.074 A 
ATOM     55  C   UNL     1      -1.459  -2.761  -5.673  1.00  0.00     0.029 A 
ATOM     56  N   UNL     1      -0.431  -4.695  -5.830  1.00  0.00    -0.354 N 
ATOM     57  N   UNL     1       1.084  -6.937  -2.432  1.00  0.00    -0.248 NA
ATOM     58  C   UNL     1       2.691  -7.092  -4.118  1.00  0.00     0.031 C 
ATOM     59  C   UNL     1      -1.795  -3.577  -4.552  1.00  0.00     0.029 A 
ATOM     60  C   UNL     1      -0.963  -4.697  -4.570  1.00  0.00     0.049 A 
ATOM     61  H   UNL     1      -0.123  -5.487  -6.327  1.00  0.00     0.167 HD
ATOM     62  C   UNL     1       0.525  -6.440  -3.598  1.00  0.00     0.074 A 
ATOM     63  C   UNL     1       1.538  -6.653  -4.628  1.00  0.00     0.031 C 
ATOM     64  C   UNL     1      -0.584  -5.646  -3.551  1.00  0.00     0.037 A 
BRANCH  51  65
ATOM     65  C   UNL     1       1.298  -3.658  -8.231  1.00  0.00     0.064 A 
ATOM     66  C   UNL     1       0.393  -4.428  -8.989  1.00  0.00     0.173 A 
ATOM     67  C   UNL     1       2.664  -3.865  -8.536  1.00  0.00     0.173 A 
ATOM     68  F   UNL     1      -0.930  -4.320  -8.793  1.00  0.00    -0.203 F 
ATOM     69  C   UNL     1       0.825  -5.408  -9.887  1.00  0.00     0.198 A 
ATOM     70  C   UNL     1       3.089  -4.810  -9.467  1.00  0.00     0.198 A 
ATOM     71  F   UNL     1       3.656  -3.253  -7.884  1.00  0.00    -0.203 F 
ATOM     72  F   UNL     1      -0.071  -6.213 -10.472  1.00  0.00    -0.200 F 
ATOM     73  C   UNL     1       2.173  -5.608 -10.114  1.00  0.00     0.200 A 
ATOM     74  F   UNL     1       4.402  -4.996  -9.659  1.00  0.00    -0.200 F 
ATOM     75  F   UNL     1       2.593  -6.595 -10.915  1.00  0.00    -0.200 F 
ENDBRANCH  51  65
BRANCH  52  76
ATOM     76  C   UNL     1       4.518  -7.735  -1.460  1.00  0.00     0.064 A 
ATOM     77  C   UNL     1       4.271  -9.117  -1.556  1.00  0.00     0.173 A 
ATOM     78  C   UNL     1       5.871  -7.349  -1.405  1.00  0.00     0.173 A 
ATOM     79  F   UNL     1       3.013  -9.573  -1.655  1.00  0.00    -0.203 F 
ATOM     80  C   UNL     1       5.311 -10.049  -1.640  1.00  0.00     0.198 A 
ATOM     81  C   UNL     1       6.909  -8.281  -1.481  1.00  0.00     0.198 A 
ATOM     82  F   UNL     1       6.218  -6.055  -1.379  1.00  0.00    -0.203 F 
ATOM     83  F   UNL     1       5.034 -11.350  -1.811  1.00  0.00    -0.200 F 
ATOM     84  C   UNL     1       6.630  -9.629  -1.618  1.00  0.00     0.200 A 
ATOM     85  F   UNL     1       8.181  -7.858  -1.495  1.00  0.00    -0.200 F 
ATOM     86  F   UNL     1       7.627 -10.511  -1.772  1.00  0.00    -0.200 F 
ENDBRANCH  52  76
BRANCH  64  87
ATOM     87  C   UNL     1      -1.349  -5.589  -2.259  1.00  0.00     0.064 A 
ATOM     88  C   UNL     1      -0.839  -5.066  -1.057  1.00  0.00     0.173 A 
ATOM     89  C   UNL     1      -2.704  -5.945  -2.285  1.00  0.00     0.173 A 
ATOM     90  F   UNL     1       0.422  -4.622  -0.976  1.00  0.00    -0.203 F 
ATOM     91  C   UNL     1      -1.647  -4.936   0.072  1.00  0.00     0.198 A 
ATOM     92  C   UNL     1      -3.517  -5.778  -1.169  1.00  0.00     0.198 A 
ATOM     93  F   UNL     1      -3.253  -6.410  -3.418  1.00  0.00    -0.203 F 
ATOM     94  F   UNL     1      -1.137  -4.446   1.212  1.00  0.00    -0.200 F 
ATOM     95  C   UNL     1      -2.988  -5.281   0.011  1.00  0.00     0.200 A 
ATOM     96  F   UNL     1      -4.822  -6.070  -1.248  1.00  0.00    -0.200 F 
ATOM     97  F   UNL     1      -3.777  -5.113   1.081  1.00  0.00    -0.200 F 
ENDBRANCH  64  87
ENDBRANCH  38  39
ENDBRANCH  31  33
ENDBRANCH  30  31
ENDBRANCH  29  30
ENDBRANCH   1  29
TORSDOF 14
