REMARK SMILES CC(C)[C@H](NS(=O)(=O)N1C[C@@H](C)O[C@H](C)C1)C(=O)OCCOC(=O)c1ccc(-c2c3nc(c(-c4c(F)c(F)c(F)c(F)c4F)c4ccc([nH]4)c(-c4c(F)c(F)c(F)c(F)c4F)c4nc(c(-c5c(F)c(F)c(F)c(F)c5F)c5ccc2[nH]5)C=C4)C=C3)cc1
REMARK SMILES IDX 20 1 19 2 17 3 18 4 4 5 2 6 1 7 3 8 5 9 6 11 7 12 8 13 9 14
REMARK SMILES IDX 10 15 16 16 11 17 14 18 12 19 13 20 15 21 21 22 22 23 23 24
REMARK SMILES IDX 24 25 25 26 26 27 87 28 27 29 86 30 28 31 29 32 30 33 80 34
REMARK SMILES IDX 31 35 85 36 79 37 81 38 32 39 84 40 78 41 77 42 33 44 65 45
REMARK SMILES IDX 45 46 64 47 46 48 49 49 63 50 82 51 47 52 48 53 62 55 83 56
REMARK SMILES IDX 50 57 34 58 35 59 43 60 36 61 37 62 41 63 44 64 38 65 39 66
REMARK SMILES IDX 42 67 40 68 66 69 67 70 75 71 68 72 69 73 73 74 76 75 70 76
REMARK SMILES IDX 71 77 74 78 72 79 51 80 52 81 60 82 53 83 54 84 58 85 61 86
REMARK SMILES IDX 55 87 56 88 59 89 57 90
REMARK H PARENT 5 10 81 43 49 54
REMARK Flexibility Score: inf
ROOT
ATOM      1  C   UNL     1      -1.452  -4.808  -0.929  1.00  0.00     0.274 C 
ENDROOT
BRANCH   1   2
ATOM      2  O   UNL     1      -0.891  -3.477  -0.927  1.00  0.00    -0.461 OA
BRANCH   2   3
ATOM      3  C   UNL     1      -1.706  -2.482  -0.474  1.00  0.00     0.324 C 
ATOM      4  O   UNL     1      -2.815  -2.672   0.017  1.00  0.00    -0.250 OA
BRANCH   3   5
ATOM      5  C   UNL     1      -1.137  -1.071  -0.702  1.00  0.00     0.183 C 
BRANCH   5   6
ATOM      6  C   UNL     1      -1.900  -0.389  -1.868  1.00  0.00     0.012 C 
ATOM      7  C   UNL     1      -2.472  -1.353  -2.918  1.00  0.00     0.009 C 
ATOM      8  C   UNL     1      -3.027   0.492  -1.317  1.00  0.00     0.009 C 
ENDBRANCH   5   6
BRANCH   5   9
ATOM      9  N   UNL     1       0.329  -1.068  -0.898  1.00  0.00    -0.188 NA
ATOM     10  H   UNL     1       0.486  -1.510  -1.803  1.00  0.00     0.143 HD
BRANCH   9  11
ATOM     11  S   UNL     1       1.273   0.307  -0.899  1.00  0.00     0.280 S 
ATOM     12  O   UNL     1       2.607  -0.169  -1.164  1.00  0.00    -0.195 OA
ATOM     13  O   UNL     1       0.662   1.337  -1.704  1.00  0.00    -0.195 OA
BRANCH  11  14
ATOM     14  N   UNL     1       1.203   0.795   0.721  1.00  0.00    -0.184 NA
ATOM     15  C   UNL     1       0.187   1.863   1.028  1.00  0.00     0.135 C 
ATOM     16  C   UNL     1       2.527   1.269   1.272  1.00  0.00     0.135 C 
ATOM     17  C   UNL     1       0.120   2.121   2.548  1.00  0.00     0.130 C 
ATOM     18  C   UNL     1       2.397   1.423   2.797  1.00  0.00     0.130 C 
ATOM     19  C   UNL     1      -0.552   0.971   3.274  1.00  0.00     0.040 C 
ATOM     20  O   UNL     1       1.403   2.410   3.119  1.00  0.00    -0.373 OA
ATOM     21  C   UNL     1       3.705   1.874   3.431  1.00  0.00     0.040 C 
ENDBRANCH  11  14
ENDBRANCH   9  11
ENDBRANCH   5   9
ENDBRANCH   3   5
ENDBRANCH   2   3
ENDBRANCH   1   2
BRANCH   1  22
ATOM     22  C   UNL     1      -0.990  -5.658   0.261  1.00  0.00     0.275 C 
BRANCH  22  23
ATOM     23  O   UNL     1      -1.508  -5.174   1.514  1.00  0.00    -0.458 OA
BRANCH  23  24
ATOM     24  C   UNL     1      -0.742  -4.231   2.104  1.00  0.00     0.338 C 
ATOM     25  O   UNL     1       0.322  -3.783   1.705  1.00  0.00    -0.246 OA
BRANCH  24  26
ATOM     26  C   UNL     1      -1.457  -3.633   3.239  1.00  0.00     0.060 A 
ATOM     27  C   UNL     1      -1.865  -2.314   3.082  1.00  0.00     0.016 A 
ATOM     28  C   UNL     1      -1.596  -4.269   4.473  1.00  0.00     0.016 A 
ATOM     29  C   UNL     1      -2.351  -1.606   4.167  1.00  0.00     0.010 A 
ATOM     30  C   UNL     1      -2.101  -3.545   5.568  1.00  0.00     0.010 A 
ATOM     31  C   UNL     1      -2.439  -2.188   5.434  1.00  0.00    -0.014 A 
BRANCH  31  32
ATOM     32  C   UNL     1      -2.771  -1.291   6.580  1.00  0.00     0.031 A 
ATOM     33  C   UNL     1      -1.756  -1.036   7.665  1.00  0.00     0.074 A 
ATOM     34  C   UNL     1      -3.914  -0.575   6.564  1.00  0.00     0.049 A 
ATOM     35  N   UNL     1      -1.857  -0.291   8.739  1.00  0.00    -0.248 NA
ATOM     36  C   UNL     1      -0.453  -1.704   7.527  1.00  0.00     0.031 C 
ATOM     37  C   UNL     1      -4.943  -0.654   5.524  1.00  0.00     0.029 A 
ATOM     38  N   UNL     1      -4.383   0.393   7.418  1.00  0.00    -0.354 N 
ATOM     39  C   UNL     1      -0.657  -0.439   9.423  1.00  0.00     0.074 A 
ATOM     40  C   UNL     1       0.156  -1.353   8.650  1.00  0.00     0.031 C 
ATOM     41  C   UNL     1      -5.887   0.267   5.768  1.00  0.00     0.029 A 
ATOM     42  C   UNL     1      -5.585   0.932   7.030  1.00  0.00     0.049 A 
ATOM     43  H   UNL     1      -3.903   0.673   8.231  1.00  0.00     0.167 HD
ATOM     44  C   UNL     1      -0.269   0.134  10.589  1.00  0.00     0.037 A 
ATOM     45  C   UNL     1      -6.379   1.835   7.637  1.00  0.00     0.037 A 
ATOM     46  C   UNL     1      -1.064   1.078  11.335  1.00  0.00     0.049 A 
ATOM     47  C   UNL     1      -5.950   2.412   8.958  1.00  0.00     0.074 A 
ATOM     48  C   UNL     1      -0.763   1.706  12.532  1.00  0.00     0.029 A 
ATOM     49  N   UNL     1      -2.314   1.540  10.949  1.00  0.00    -0.354 N 
ATOM     50  N   UNL     1      -4.842   2.212   9.629  1.00  0.00    -0.248 NA
ATOM     51  C   UNL     1      -6.890   3.332   9.610  1.00  0.00     0.031 C 
ATOM     52  C   UNL     1      -1.854   2.503  12.897  1.00  0.00     0.029 A 
ATOM     53  C   UNL     1      -2.806   2.429  11.894  1.00  0.00     0.049 A 
ATOM     54  H   UNL     1      -2.784   1.276  10.124  1.00  0.00     0.167 HD
ATOM     55  C   UNL     1      -4.941   2.996  10.770  1.00  0.00     0.074 A 
ATOM     56  C   UNL     1      -6.207   3.696  10.684  1.00  0.00     0.031 C 
ATOM     57  C   UNL     1      -4.066   3.121  11.799  1.00  0.00     0.037 A 
BRANCH  44  58
ATOM     58  C   UNL     1       1.057  -0.284  11.166  1.00  0.00     0.064 A 
ATOM     59  C   UNL     1       2.279   0.079  10.582  1.00  0.00     0.173 A 
ATOM     60  C   UNL     1       1.099  -1.042  12.348  1.00  0.00     0.173 A 
ATOM     61  F   UNL     1       2.300   0.789   9.444  1.00  0.00    -0.203 F 
ATOM     62  C   UNL     1       3.490  -0.326  11.141  1.00  0.00     0.198 A 
ATOM     63  C   UNL     1       2.311  -1.415  12.923  1.00  0.00     0.198 A 
ATOM     64  F   UNL     1      -0.039  -1.414  12.954  1.00  0.00    -0.203 F 
ATOM     65  F   UNL     1       4.644  -0.014  10.534  1.00  0.00    -0.200 F 
ATOM     66  C   UNL     1       3.506  -1.065  12.314  1.00  0.00     0.200 A 
ATOM     67  F   UNL     1       2.322  -2.116  14.065  1.00  0.00    -0.200 F 
ATOM     68  F   UNL     1       4.671  -1.447  12.854  1.00  0.00    -0.200 F 
ENDBRANCH  44  58
BRANCH  45  69
ATOM     69  C   UNL     1      -7.681   2.213   7.024  1.00  0.00     0.064 A 
ATOM     70  C   UNL     1      -7.928   3.520   6.582  1.00  0.00     0.173 A 
ATOM     71  C   UNL     1      -8.714   1.273   6.880  1.00  0.00     0.173 A 
ATOM     72  F   UNL     1      -6.985   4.464   6.720  1.00  0.00    -0.203 F 
ATOM     73  C   UNL     1      -9.161   3.875   6.035  1.00  0.00     0.198 A 
ATOM     74  C   UNL     1      -9.930   1.619   6.297  1.00  0.00     0.198 A 
ATOM     75  F   UNL     1      -8.534   0.009   7.290  1.00  0.00    -0.203 F 
ATOM     76  F   UNL     1      -9.388   5.144   5.670  1.00  0.00    -0.200 F 
ATOM     77  C   UNL     1     -10.157   2.922   5.885  1.00  0.00     0.200 A 
ATOM     78  F   UNL     1     -10.881   0.688   6.137  1.00  0.00    -0.200 F 
ATOM     79  F   UNL     1     -11.337   3.261   5.350  1.00  0.00    -0.200 F 
ENDBRANCH  45  69
BRANCH  57  80
ATOM     80  C   UNL     1      -4.431   4.090  12.889  1.00  0.00     0.064 A 
ATOM     81  C   UNL     1      -5.503   3.856  13.764  1.00  0.00     0.173 A 
ATOM     82  C   UNL     1      -3.701   5.278  13.053  1.00  0.00     0.173 A 
ATOM     83  F   UNL     1      -6.243   2.743  13.642  1.00  0.00    -0.203 F 
ATOM     84  C   UNL     1      -5.862   4.796  14.726  1.00  0.00     0.198 A 
ATOM     85  C   UNL     1      -4.038   6.198  14.042  1.00  0.00     0.198 A 
ATOM     86  F   UNL     1      -2.660   5.549  12.252  1.00  0.00    -0.203 F 
ATOM     87  F   UNL     1      -6.938   4.585  15.498  1.00  0.00    -0.200 F 
ATOM     88  C   UNL     1      -5.128   5.964  14.867  1.00  0.00     0.200 A 
ATOM     89  F   UNL     1      -3.317   7.318  14.187  1.00  0.00    -0.200 F 
ATOM     90  F   UNL     1      -5.478   6.871  15.790  1.00  0.00    -0.200 F 
ENDBRANCH  57  80
ENDBRANCH  31  32
ENDBRANCH  24  26
ENDBRANCH  23  24
ENDBRANCH  22  23
ENDBRANCH   1  22
TORSDOF 15
