REMARK SMILES CC1=C([C@H](NC(=O)c2cccc3ccccc23)C(=O)OCCOC(=O)c2ccc(-c3c4nc(c(-c5c(F)c(F)c(F)c(F)c5F)c5ccc([nH]5)c(-c5c(F)c(F)c(F)c(F)c5F)c5nc(c(-c6c(F)c(F)c(F)c(F)c6F)c6ccc3[nH]6)C=C5)C=C4)cc2)[C@H](C)N=N1
REMARK SMILES IDX 21 1 20 2 18 3 19 4 4 5 3 6 1 7 2 8 92 9 89 10 91 11 90 12
REMARK SMILES IDX 5 13 6 14 7 16 8 17 9 18 17 19 10 20 12 21 16 22 11 23 13 24
REMARK SMILES IDX 15 25 14 26 22 27 23 28 24 29 25 30 26 31 27 32 88 33 28 34
REMARK SMILES IDX 87 35 29 36 30 37 31 38 81 39 32 40 86 41 80 42 82 43 33 44
REMARK SMILES IDX 85 45 79 46 78 47 34 49 66 50 46 51 65 52 47 53 50 54 64 55
REMARK SMILES IDX 83 56 48 57 49 58 63 60 84 61 51 62 35 63 36 64 44 65 37 66
REMARK SMILES IDX 38 67 42 68 45 69 39 70 40 71 43 72 41 73 67 74 68 75 76 76
REMARK SMILES IDX 69 77 70 78 74 79 77 80 71 81 72 82 75 83 73 84 52 85 53 86
REMARK SMILES IDX 61 87 54 88 55 89 59 90 62 91 56 92 57 93 60 94 58 95
REMARK H PARENT 5 15 82 48 50 59
REMARK Flexibility Score: inf
ROOT
ATOM      1  C   UNL     1      -0.523   0.017   6.537  1.00  0.00     0.274 C 
ENDROOT
BRANCH   1   2
ATOM      2  O   UNL     1      -0.683  -0.669   5.290  1.00  0.00    -0.460 OA
BRANCH   2   3
ATOM      3  C   UNL     1      -1.093   0.122   4.263  1.00  0.00     0.333 C 
ATOM      4  O   UNL     1      -1.408   1.305   4.404  1.00  0.00    -0.249 OA
BRANCH   3   5
ATOM      5  C   UNL     1      -1.223  -0.630   2.915  1.00  0.00     0.223 C 
BRANCH   5   6
ATOM      6  C   UNL     1      -2.708  -0.611   2.599  1.00  0.00     0.012 C 
ATOM      7  C   UNL     1      -2.846  -1.672   0.279  1.00  0.00     0.069 C 
ATOM      8  C   UNL     1      -3.376  -1.054   1.525  1.00  0.00     0.064 C 
ATOM      9  N   UNL     1      -4.730  -0.859   1.621  1.00  0.00    -0.160 NA
ATOM     10  C   UNL     1      -3.775   0.023   3.460  1.00  0.00     0.156 C 
ATOM     11  N   UNL     1      -5.017  -0.279   2.699  1.00  0.00    -0.181 NA
ATOM     12  C   UNL     1      -3.940  -0.524   4.877  1.00  0.00     0.040 C 
ENDBRANCH   5   6
BRANCH   5  13
ATOM     13  N   UNL     1      -0.742  -2.027   2.732  1.00  0.00    -0.335 N 
ATOM     14  C   UNL     1       0.522  -2.464   2.367  1.00  0.00     0.252 C 
ATOM     15  H   UNL     1      -1.409  -2.733   2.890  1.00  0.00     0.165 HD
ATOM     16  O   UNL     1       0.611  -3.232   1.409  1.00  0.00    -0.269 OA
BRANCH  14  17
ATOM     17  C   UNL     1       1.722  -2.200   3.196  1.00  0.00     0.047 A 
ATOM     18  C   UNL     1       1.582  -2.368   4.584  1.00  0.00     0.014 A 
ATOM     19  C   UNL     1       3.009  -1.942   2.634  1.00  0.00    -0.006 A 
ATOM     20  C   UNL     1       2.639  -2.104   5.448  1.00  0.00     0.001 A 
ATOM     21  C   UNL     1       4.036  -1.618   3.542  1.00  0.00    -0.018 A 
ATOM     22  C   UNL     1       3.384  -1.996   1.257  1.00  0.00     0.009 A 
ATOM     23  C   UNL     1       3.838  -1.651   4.929  1.00  0.00     0.009 A 
ATOM     24  C   UNL     1       5.298  -1.283   3.064  1.00  0.00     0.009 A 
ATOM     25  C   UNL     1       4.694  -1.736   0.818  1.00  0.00     0.001 A 
ATOM     26  C   UNL     1       5.652  -1.342   1.726  1.00  0.00     0.001 A 
ENDBRANCH  14  17
ENDBRANCH   5  13
ENDBRANCH   3   5
ENDBRANCH   2   3
ENDBRANCH   1   2
BRANCH   1  27
ATOM     27  C   UNL     1       0.861   0.641   6.730  1.00  0.00     0.275 C 
BRANCH  27  28
ATOM     28  O   UNL     1       1.244   1.737   5.879  1.00  0.00    -0.458 OA
BRANCH  28  29
ATOM     29  C   UNL     1       1.665   1.424   4.632  1.00  0.00     0.338 C 
ATOM     30  O   UNL     1       1.188   0.625   3.852  1.00  0.00    -0.246 OA
BRANCH  29  31
ATOM     31  C   UNL     1       2.980   1.960   4.310  1.00  0.00     0.060 A 
ATOM     32  C   UNL     1       3.357   1.900   2.962  1.00  0.00     0.016 A 
ATOM     33  C   UNL     1       3.910   2.152   5.332  1.00  0.00     0.016 A 
ATOM     34  C   UNL     1       4.698   1.916   2.648  1.00  0.00     0.010 A 
ATOM     35  C   UNL     1       5.253   2.145   5.016  1.00  0.00     0.010 A 
ATOM     36  C   UNL     1       5.641   1.973   3.687  1.00  0.00    -0.014 A 
BRANCH  36  37
ATOM     37  C   UNL     1       7.040   2.132   3.315  1.00  0.00     0.031 A 
ATOM     38  C   UNL     1       7.248   3.464   2.674  1.00  0.00     0.074 A 
ATOM     39  C   UNL     1       8.042   1.294   3.652  1.00  0.00     0.049 A 
ATOM     40  N   UNL     1       7.642   3.755   1.477  1.00  0.00    -0.248 NA
ATOM     41  C   UNL     1       6.750   4.626   3.440  1.00  0.00     0.031 C 
ATOM     42  C   UNL     1       8.028   0.136   4.552  1.00  0.00     0.029 A 
ATOM     43  N   UNL     1       9.353   1.357   3.280  1.00  0.00    -0.354 N 
ATOM     44  C   UNL     1       7.615   5.149   1.419  1.00  0.00     0.074 A 
ATOM     45  C   UNL     1       6.850   5.603   2.545  1.00  0.00     0.031 C 
ATOM     46  C   UNL     1       9.275  -0.338   4.723  1.00  0.00     0.029 A 
ATOM     47  C   UNL     1      10.185   0.516   4.004  1.00  0.00     0.049 A 
ATOM     48  H   UNL     1       9.680   1.946   2.562  1.00  0.00     0.167 HD
ATOM     49  C   UNL     1       8.497   5.844   0.653  1.00  0.00     0.037 A 
ATOM     50  C   UNL     1      11.523   0.636   4.180  1.00  0.00     0.037 A 
ATOM     51  C   UNL     1       8.993   5.046  -0.434  1.00  0.00     0.049 A 
ATOM     52  C   UNL     1      12.035   1.481   3.072  1.00  0.00     0.074 A 
ATOM     53  C   UNL     1       8.411   4.413  -1.515  1.00  0.00     0.029 A 
ATOM     54  N   UNL     1      10.239   4.485  -0.311  1.00  0.00    -0.354 N 
ATOM     55  N   UNL     1      11.991   1.098   1.821  1.00  0.00    -0.248 NA
ATOM     56  C   UNL     1      12.051   2.922   3.287  1.00  0.00     0.031 C 
ATOM     57  C   UNL     1       9.117   3.179  -1.640  1.00  0.00     0.029 A 
ATOM     58  C   UNL     1      10.124   3.168  -0.674  1.00  0.00     0.049 A 
ATOM     59  H   UNL     1      11.060   4.942  -0.017  1.00  0.00     0.167 HD
ATOM     60  C   UNL     1      11.555   2.216   1.122  1.00  0.00     0.074 A 
ATOM     61  C   UNL     1      11.636   3.319   2.079  1.00  0.00     0.031 C 
ATOM     62  C   UNL     1      10.897   2.110  -0.070  1.00  0.00     0.037 A 
BRANCH  49  63
ATOM     63  C   UNL     1       9.210   7.076   1.163  1.00  0.00     0.064 A 
ATOM     64  C   UNL     1      10.013   7.814   0.276  1.00  0.00     0.173 A 
ATOM     65  C   UNL     1       9.382   7.385   2.534  1.00  0.00     0.173 A 
ATOM     66  F   UNL     1       9.952   7.590  -1.045  1.00  0.00    -0.203 F 
ATOM     67  C   UNL     1      10.967   8.728   0.733  1.00  0.00     0.198 A 
ATOM     68  C   UNL     1      10.290   8.339   2.982  1.00  0.00     0.198 A 
ATOM     69  F   UNL     1       8.774   6.704   3.512  1.00  0.00    -0.203 F 
ATOM     70  F   UNL     1      11.801   9.309  -0.140  1.00  0.00    -0.200 F 
ATOM     71  C   UNL     1      11.109   8.985   2.085  1.00  0.00     0.200 A 
ATOM     72  F   UNL     1      10.421   8.553   4.299  1.00  0.00    -0.200 F 
ATOM     73  F   UNL     1      12.066   9.809   2.529  1.00  0.00    -0.200 F 
ENDBRANCH  49  63
BRANCH  50  74
ATOM     74  C   UNL     1      12.177   0.399   5.494  1.00  0.00     0.064 A 
ATOM     75  C   UNL     1      13.514   0.012   5.617  1.00  0.00     0.173 A 
ATOM     76  C   UNL     1      11.491   0.656   6.707  1.00  0.00     0.173 A 
ATOM     77  F   UNL     1      14.258  -0.190   4.521  1.00  0.00    -0.203 F 
ATOM     78  C   UNL     1      14.112  -0.158   6.876  1.00  0.00     0.198 A 
ATOM     79  C   UNL     1      12.073   0.457   7.956  1.00  0.00     0.198 A 
ATOM     80  F   UNL     1      10.245   1.155   6.705  1.00  0.00    -0.203 F 
ATOM     81  F   UNL     1      15.401  -0.512   6.961  1.00  0.00    -0.200 F 
ATOM     82  C   UNL     1      13.388   0.052   8.042  1.00  0.00     0.200 A 
ATOM     83  F   UNL     1      11.359   0.685   9.068  1.00  0.00    -0.200 F 
ATOM     84  F   UNL     1      13.962  -0.105   9.242  1.00  0.00    -0.200 F 
ENDBRANCH  50  74
BRANCH  62  85
ATOM     85  C   UNL     1      10.775   0.749  -0.699  1.00  0.00     0.064 A 
ATOM     86  C   UNL     1      10.015  -0.298  -0.148  1.00  0.00     0.173 A 
ATOM     87  C   UNL     1      11.281   0.564  -1.992  1.00  0.00     0.173 A 
ATOM     88  F   UNL     1       9.407  -0.158   1.037  1.00  0.00    -0.203 F 
ATOM     89  C   UNL     1       9.803  -1.487  -0.848  1.00  0.00     0.198 A 
ATOM     90  C   UNL     1      11.042  -0.611  -2.701  1.00  0.00     0.198 A 
ATOM     91  F   UNL     1      11.955   1.555  -2.595  1.00  0.00    -0.203 F 
ATOM     92  F   UNL     1       9.066  -2.466  -0.302  1.00  0.00    -0.200 F 
ATOM     93  C   UNL     1      10.310  -1.638  -2.127  1.00  0.00     0.200 A 
ATOM     94  F   UNL     1      11.488  -0.730  -3.959  1.00  0.00    -0.200 F 
ATOM     95  F   UNL     1      10.068  -2.760  -2.821  1.00  0.00    -0.200 F 
ENDBRANCH  62  85
ENDBRANCH  36  37
ENDBRANCH  29  31
ENDBRANCH  28  29
ENDBRANCH  27  28
ENDBRANCH   1  27
TORSDOF 14
