REMARK SMILES Cc1c(N[C@@H]2CC[C@@H]([NH3+])C2)cccc1C(=O)OCCOC(=O)c1ccc(-c2c3nc(c(-c4c(F)c(F)c(F)c(F)c4F)c4ccc([nH]4)c(-c4c(F)c(F)c(F)c(F)c4F)c4nc(c(-c5c(F)c(F)c(F)c(F)c5F)c5ccc2[nH]5)C=C4)C=C3)cc1
REMARK SMILES IDX 18 1 17 2 15 3 16 4 14 5 1 6 2 7 3 8 11 9 13 10 12 11 4 12
REMARK SMILES IDX 5 14 6 15 10 16 7 17 8 18 9 19 19 23 20 24 21 25 22 26 23 27
REMARK SMILES IDX 24 28 85 29 25 30 84 31 26 32 27 33 28 34 78 35 29 36 83 37
REMARK SMILES IDX 77 38 79 39 30 40 82 41 76 42 75 43 31 45 63 46 43 47 62 48
REMARK SMILES IDX 44 49 47 50 61 51 80 52 45 53 46 54 60 56 81 57 48 58 32 59
REMARK SMILES IDX 33 60 41 61 34 62 35 63 39 64 42 65 36 66 37 67 40 68 38 69
REMARK SMILES IDX 64 70 65 71 73 72 66 73 67 74 71 75 74 76 68 77 69 78 72 79
REMARK SMILES IDX 70 80 49 81 50 82 58 83 51 84 52 85 56 86 59 87 53 88 54 89
REMARK SMILES IDX 57 90 55 91
REMARK H PARENT 4 13 9 20 9 21 9 22 79 44 47 55
REMARK Flexibility Score: inf
ROOT
ATOM      1  C   UNL     1       3.267   3.056  -2.222  1.00  0.00     0.275 C 
ENDROOT
BRANCH   1   2
ATOM      2  O   UNL     1       2.174   2.127  -2.191  1.00  0.00    -0.458 OA
BRANCH   2   3
ATOM      3  C   UNL     1       2.173   1.391  -1.051  1.00  0.00     0.338 C 
ATOM      4  O   UNL     1       2.965   1.524  -0.127  1.00  0.00    -0.246 OA
BRANCH   3   5
ATOM      5  C   UNL     1       1.139   0.339  -1.004  1.00  0.00     0.065 A 
ATOM      6  C   UNL     1       2.967  -1.333  -0.423  1.00  0.00     0.047 C 
ATOM      7  C   UNL     1       1.510  -0.937  -0.531  1.00  0.00    -0.013 A 
ATOM      8  C   UNL     1       0.509  -1.879  -0.205  1.00  0.00     0.038 A 
ATOM      9  C   UNL     1      -0.832  -1.499  -0.351  1.00  0.00     0.026 A 
ATOM     10  C   UNL     1      -0.203   0.648  -1.243  1.00  0.00     0.016 A 
ATOM     11  C   UNL     1      -1.192  -0.259  -0.879  1.00  0.00     0.003 A 
BRANCH   8  12
ATOM     12  N   UNL     1       0.889  -3.154   0.164  1.00  0.00    -0.382 N 
ATOM     13  H   UNL     1       1.753  -3.223   0.630  1.00  0.00     0.160 HD
BRANCH  12  14
ATOM     14  C   UNL     1       0.187  -4.403  -0.043  1.00  0.00     0.085 C 
ATOM     15  C   UNL     1      -0.569  -4.539  -1.370  1.00  0.00     0.031 C 
ATOM     16  C   UNL     1      -0.803  -4.723   1.071  1.00  0.00     0.089 C 
ATOM     17  C   UNL     1      -1.954  -5.065  -0.989  1.00  0.00     0.067 C 
ATOM     18  C   UNL     1      -1.792  -5.676   0.405  1.00  0.00     0.182 C 
BRANCH  18  19
ATOM     19  N   UNL     1      -1.267  -7.039   0.322  1.00  0.00    -0.355 N 
ATOM     20  H   UNL     1      -0.383  -7.032  -0.186  1.00  0.00     0.344 HD
ATOM     21  H   UNL     1      -1.936  -7.632  -0.168  1.00  0.00     0.344 HD
ATOM     22  H   UNL     1      -1.115  -7.403   1.263  1.00  0.00     0.344 HD
ENDBRANCH  18  19
ENDBRANCH  12  14
ENDBRANCH   8  12
ENDBRANCH   3   5
ENDBRANCH   2   3
ENDBRANCH   1   2
BRANCH   1  23
ATOM     23  C   UNL     1       2.963   4.361  -2.968  1.00  0.00     0.275 C 
BRANCH  23  24
ATOM     24  O   UNL     1       1.698   5.063  -2.809  1.00  0.00    -0.458 OA
BRANCH  24  25
ATOM     25  C   UNL     1       0.639   4.602  -2.110  1.00  0.00     0.338 C 
ATOM     26  O   UNL     1      -0.467   4.415  -2.606  1.00  0.00    -0.246 OA
BRANCH  25  27
ATOM     27  C   UNL     1       0.880   4.417  -0.669  1.00  0.00     0.060 A 
ATOM     28  C   UNL     1      -0.006   3.622   0.082  1.00  0.00     0.016 A 
ATOM     29  C   UNL     1       2.056   4.906  -0.111  1.00  0.00     0.016 A 
ATOM     30  C   UNL     1       0.341   3.209   1.359  1.00  0.00     0.010 A 
ATOM     31  C   UNL     1       2.473   4.387   1.083  1.00  0.00     0.010 A 
ATOM     32  C   UNL     1       1.590   3.594   1.834  1.00  0.00    -0.014 A 
BRANCH  32  33
ATOM     33  C   UNL     1       1.936   3.580   3.238  1.00  0.00     0.031 A 
ATOM     34  C   UNL     1       2.537   2.401   3.871  1.00  0.00     0.074 A 
ATOM     35  C   UNL     1       1.813   4.832   3.739  1.00  0.00     0.049 A 
ATOM     36  N   UNL     1       2.627   2.252   5.141  1.00  0.00    -0.248 NA
ATOM     37  C   UNL     1       3.057   1.247   3.143  1.00  0.00     0.031 C 
ATOM     38  C   UNL     1       2.324   5.471   4.932  1.00  0.00     0.029 A 
ATOM     39  N   UNL     1       0.991   5.826   3.161  1.00  0.00    -0.354 N 
ATOM     40  C   UNL     1       3.500   1.207   5.387  1.00  0.00     0.074 A 
ATOM     41  C   UNL     1       3.617   0.527   4.125  1.00  0.00     0.031 C 
ATOM     42  C   UNL     1       1.566   6.562   5.181  1.00  0.00     0.029 A 
ATOM     43  C   UNL     1       0.465   6.562   4.218  1.00  0.00     0.049 A 
ATOM     44  H   UNL     1       0.823   5.969   2.201  1.00  0.00     0.167 HD
ATOM     45  C   UNL     1       4.128   1.191   6.600  1.00  0.00     0.037 A 
ATOM     46  C   UNL     1      -0.856   6.362   4.503  1.00  0.00     0.037 A 
ATOM     47  C   UNL     1       3.581   2.278   7.415  1.00  0.00     0.049 A 
ATOM     48  C   UNL     1      -0.968   5.665   5.835  1.00  0.00     0.074 A 
ATOM     49  C   UNL     1       4.008   3.582   7.606  1.00  0.00     0.029 A 
ATOM     50  N   UNL     1       2.238   2.239   7.776  1.00  0.00    -0.354 N 
ATOM     51  N   UNL     1      -0.145   4.741   6.261  1.00  0.00    -0.248 NA
ATOM     52  C   UNL     1      -1.934   6.089   6.838  1.00  0.00     0.031 C 
ATOM     53  C   UNL     1       2.872   4.351   7.981  1.00  0.00     0.029 A 
ATOM     54  C   UNL     1       1.766   3.515   8.020  1.00  0.00     0.049 A 
ATOM     55  H   UNL     1       1.700   1.417   7.848  1.00  0.00     0.167 HD
ATOM     56  C   UNL     1      -0.384   4.527   7.593  1.00  0.00     0.074 A 
ATOM     57  C   UNL     1      -1.528   5.373   7.897  1.00  0.00     0.031 C 
ATOM     58  C   UNL     1       0.380   3.731   8.399  1.00  0.00     0.037 A 
BRANCH  45  59
ATOM     59  C   UNL     1       5.395   0.448   6.989  1.00  0.00     0.064 A 
ATOM     60  C   UNL     1       6.107   0.842   8.150  1.00  0.00     0.173 A 
ATOM     61  C   UNL     1       6.006  -0.595   6.265  1.00  0.00     0.173 A 
ATOM     62  F   UNL     1       5.629   1.779   8.980  1.00  0.00    -0.203 F 
ATOM     63  C   UNL     1       7.342   0.293   8.511  1.00  0.00     0.198 A 
ATOM     64  C   UNL     1       7.247  -1.142   6.626  1.00  0.00     0.198 A 
ATOM     65  F   UNL     1       5.428  -1.149   5.198  1.00  0.00    -0.203 F 
ATOM     66  F   UNL     1       7.971   0.737   9.609  1.00  0.00    -0.200 F 
ATOM     67  C   UNL     1       7.920  -0.691   7.742  1.00  0.00     0.200 A 
ATOM     68  F   UNL     1       7.786  -2.115   5.877  1.00  0.00    -0.200 F 
ATOM     69  F   UNL     1       9.107  -1.212   8.080  1.00  0.00    -0.200 F 
ENDBRANCH  45  59
BRANCH  46  70
ATOM     70  C   UNL     1      -1.725   6.127   3.295  1.00  0.00     0.064 A 
ATOM     71  C   UNL     1      -1.647   7.047   2.219  1.00  0.00     0.173 A 
ATOM     72  C   UNL     1      -2.416   4.936   3.040  1.00  0.00     0.173 A 
ATOM     73  F   UNL     1      -1.017   8.222   2.388  1.00  0.00    -0.203 F 
ATOM     74  C   UNL     1      -2.126   6.747   0.942  1.00  0.00     0.198 A 
ATOM     75  C   UNL     1      -2.922   4.648   1.761  1.00  0.00     0.198 A 
ATOM     76  F   UNL     1      -2.549   4.007   3.996  1.00  0.00    -0.203 F 
ATOM     77  F   UNL     1      -1.918   7.603  -0.070  1.00  0.00    -0.200 F 
ATOM     78  C   UNL     1      -2.753   5.540   0.711  1.00  0.00     0.200 A 
ATOM     79  F   UNL     1      -3.506   3.463   1.523  1.00  0.00    -0.200 F 
ATOM     80  F   UNL     1      -3.151   5.212  -0.527  1.00  0.00    -0.200 F 
ENDBRANCH  46  70
BRANCH  58  81
ATOM     81  C   UNL     1      -0.101   3.161   9.708  1.00  0.00     0.064 A 
ATOM     82  C   UNL     1      -1.460   2.955   9.997  1.00  0.00     0.173 A 
ATOM     83  C   UNL     1       0.812   2.631  10.651  1.00  0.00     0.173 A 
ATOM     84  F   UNL     1      -2.420   3.264   9.116  1.00  0.00    -0.203 F 
ATOM     85  C   UNL     1      -1.878   2.362  11.186  1.00  0.00     0.198 A 
ATOM     86  C   UNL     1       0.391   1.960  11.794  1.00  0.00     0.198 A 
ATOM     87  F   UNL     1       2.139   2.712  10.478  1.00  0.00    -0.203 F 
ATOM     88  F   UNL     1      -3.188   2.260  11.446  1.00  0.00    -0.200 F 
ATOM     89  C   UNL     1      -0.954   1.852  12.077  1.00  0.00     0.200 A 
ATOM     90  F   UNL     1       1.297   1.398  12.606  1.00  0.00    -0.200 F 
ATOM     91  F   UNL     1      -1.361   1.235  13.192  1.00  0.00    -0.200 F 
ENDBRANCH  58  81
ENDBRANCH  32  33
ENDBRANCH  25  27
ENDBRANCH  24  25
ENDBRANCH  23  24
ENDBRANCH   1  23
TORSDOF 14
