REMARK SMILES O=C(OCCOC(=O)c1cnc(OCC2CC2)c(Cl)c1)c1ccc(-c2c3nc(c(-c4c(F)c(F)c(F)c(F)c4F)c4ccc([nH]4)c(-c4c(F)c(F)c(F)c(F)c4F)c4nc(c(-c5c(F)c(F)c(F)c(F)c5F)c5ccc2[nH]5)C=C4)C=C3)cc1
REMARK SMILES IDX 5 1 4 2 3 3 2 4 1 5 21 6 22 7 83 8 23 9 82 10 24 11 25 12
REMARK SMILES IDX 26 13 76 14 27 15 81 16 75 17 77 18 28 19 80 20 74 21 73 22
REMARK SMILES IDX 29 24 61 25 41 26 60 27 42 28 45 29 59 30 78 31 43 32 44 33
REMARK SMILES IDX 58 35 79 36 46 37 30 38 31 39 39 40 32 41 33 42 37 43 40 44
REMARK SMILES IDX 34 45 35 46 38 47 36 48 62 49 63 50 71 51 64 52 65 53 69 54
REMARK SMILES IDX 72 55 66 56 67 57 70 58 68 59 47 60 48 61 56 62 49 63 50 64
REMARK SMILES IDX 54 65 57 66 51 67 52 68 55 69 53 70 6 71 7 72 8 73 9 74
REMARK SMILES IDX 10 75 20 76 11 77 18 78 12 79 19 80 13 81 14 82 15 83 16 84
REMARK SMILES IDX 17 85
REMARK H PARENT 77 23 45 34
REMARK Flexibility Score: inf
ROOT
ATOM      1  C   UNL     1       3.798   1.789   1.397  1.00  0.00     0.275 C 
ENDROOT
BRANCH   1   2
ATOM      2  C   UNL     1       3.863   1.652  -0.130  1.00  0.00     0.275 C 
BRANCH   2   3
ATOM      3  O   UNL     1       2.819   0.858  -0.718  1.00  0.00    -0.458 OA
BRANCH   3   4
ATOM      4  C   UNL     1       2.725  -0.481  -0.888  1.00  0.00     0.338 C 
ATOM      5  O   UNL     1       1.780  -0.928  -1.536  1.00  0.00    -0.246 OA
BRANCH   4   6
ATOM      6  C   UNL     1       3.621  -1.467  -0.204  1.00  0.00     0.060 A 
ATOM      7  C   UNL     1       4.922  -1.227   0.237  1.00  0.00     0.016 A 
ATOM      8  C   UNL     1       3.073  -2.740   0.038  1.00  0.00     0.016 A 
ATOM      9  C   UNL     1       5.619  -2.175   0.985  1.00  0.00     0.010 A 
ATOM     10  C   UNL     1       3.761  -3.691   0.796  1.00  0.00     0.010 A 
ATOM     11  C   UNL     1       5.039  -3.406   1.283  1.00  0.00    -0.014 A 
BRANCH  11  12
ATOM     12  C   UNL     1       5.843  -4.415   2.000  1.00  0.00     0.031 A 
ATOM     13  C   UNL     1       6.366  -5.590   1.231  1.00  0.00     0.074 A 
ATOM     14  C   UNL     1       6.120  -4.259   3.309  1.00  0.00     0.049 A 
ATOM     15  N   UNL     1       7.093  -6.593   1.649  1.00  0.00    -0.248 NA
ATOM     16  C   UNL     1       6.041  -5.637  -0.205  1.00  0.00     0.031 C 
ATOM     17  C   UNL     1       5.670  -3.145   4.142  1.00  0.00     0.029 A 
ATOM     18  N   UNL     1       6.802  -5.068   4.182  1.00  0.00    -0.354 N 
ATOM     19  C   UNL     1       7.357  -7.353   0.519  1.00  0.00     0.074 A 
ATOM     20  C   UNL     1       6.634  -6.759  -0.581  1.00  0.00     0.031 C 
ATOM     21  C   UNL     1       6.017  -3.380   5.419  1.00  0.00     0.029 A 
ATOM     22  C   UNL     1       6.709  -4.659   5.491  1.00  0.00     0.049 A 
ATOM     23  H   UNL     1       7.309  -5.863   3.899  1.00  0.00     0.167 HD
ATOM     24  C   UNL     1       8.181  -8.420   0.404  1.00  0.00     0.037 A 
ATOM     25  C   UNL     1       7.113  -5.273   6.619  1.00  0.00     0.037 A 
ATOM     26  C   UNL     1       8.865  -9.019   1.516  1.00  0.00     0.049 A 
ATOM     27  C   UNL     1       7.895  -6.551   6.489  1.00  0.00     0.074 A 
ATOM     28  C   UNL     1       9.730 -10.096   1.524  1.00  0.00     0.029 A 
ATOM     29  N   UNL     1       8.739  -8.593   2.832  1.00  0.00    -0.354 N 
ATOM     30  N   UNL     1       8.207  -7.223   5.407  1.00  0.00    -0.248 NA
ATOM     31  C   UNL     1       8.422  -7.131   7.730  1.00  0.00     0.031 C 
ATOM     32  C   UNL     1      10.090 -10.353   2.851  1.00  0.00     0.029 A 
ATOM     33  C   UNL     1       9.496  -9.400   3.664  1.00  0.00     0.049 A 
ATOM     34  H   UNL     1       8.193  -7.830   3.129  1.00  0.00     0.167 HD
ATOM     35  C   UNL     1       9.012  -8.271   5.828  1.00  0.00     0.074 A 
ATOM     36  C   UNL     1       9.139  -8.144   7.266  1.00  0.00     0.031 C 
ATOM     37  C   UNL     1       9.608  -9.242   5.092  1.00  0.00     0.037 A 
BRANCH  24  38
ATOM     38  C   UNL     1       8.391  -8.975  -0.973  1.00  0.00     0.064 A 
ATOM     39  C   UNL     1       9.099  -8.251  -1.947  1.00  0.00     0.173 A 
ATOM     40  C   UNL     1       7.894 -10.236  -1.327  1.00  0.00     0.173 A 
ATOM     41  F   UNL     1       9.579  -7.029  -1.664  1.00  0.00    -0.203 F 
ATOM     42  C   UNL     1       9.277  -8.758  -3.231  1.00  0.00     0.198 A 
ATOM     43  C   UNL     1       8.099 -10.753  -2.604  1.00  0.00     0.198 A 
ATOM     44  F   UNL     1       7.209 -10.968  -0.436  1.00  0.00    -0.203 F 
ATOM     45  F   UNL     1       9.912  -8.025  -4.157  1.00  0.00    -0.200 F 
ATOM     46  C   UNL     1       8.783 -10.011  -3.556  1.00  0.00     0.200 A 
ATOM     47  F   UNL     1       7.628 -11.968  -2.917  1.00  0.00    -0.200 F 
ATOM     48  F   UNL     1       8.958 -10.501  -4.791  1.00  0.00    -0.200 F 
ENDBRANCH  24  38
BRANCH  25  49
ATOM     49  C   UNL     1       6.792  -4.707   7.956  1.00  0.00     0.064 A 
ATOM     50  C   UNL     1       7.789  -4.170   8.782  1.00  0.00     0.173 A 
ATOM     51  C   UNL     1       5.485  -4.753   8.463  1.00  0.00     0.173 A 
ATOM     52  F   UNL     1       9.060  -4.127   8.354  1.00  0.00    -0.203 F 
ATOM     53  C   UNL     1       7.499  -3.736  10.075  1.00  0.00     0.198 A 
ATOM     54  C   UNL     1       5.189  -4.291   9.745  1.00  0.00     0.198 A 
ATOM     55  F   UNL     1       4.496  -5.272   7.722  1.00  0.00    -0.203 F 
ATOM     56  F   UNL     1       8.484  -3.292  10.867  1.00  0.00    -0.200 F 
ATOM     57  C   UNL     1       6.199  -3.795  10.555  1.00  0.00     0.200 A 
ATOM     58  F   UNL     1       3.931  -4.347  10.202  1.00  0.00    -0.200 F 
ATOM     59  F   UNL     1       5.924  -3.392  11.803  1.00  0.00    -0.200 F 
ENDBRANCH  25  49
BRANCH  37  60
ATOM     60  C   UNL     1      10.497 -10.199   5.830  1.00  0.00     0.064 A 
ATOM     61  C   UNL     1       9.982 -11.154   6.718  1.00  0.00     0.173 A 
ATOM     62  C   UNL     1      11.886 -10.166   5.630  1.00  0.00     0.173 A 
ATOM     63  F   UNL     1       8.663 -11.211   6.958  1.00  0.00    -0.203 F 
ATOM     64  C   UNL     1      10.829 -12.015   7.409  1.00  0.00     0.198 A 
ATOM     65  C   UNL     1      12.725 -11.056   6.291  1.00  0.00     0.198 A 
ATOM     66  F   UNL     1      12.427  -9.275   4.786  1.00  0.00    -0.203 F 
ATOM     67  F   UNL     1      10.322 -12.873   8.305  1.00  0.00    -0.200 F 
ATOM     68  C   UNL     1      12.198 -11.971   7.189  1.00  0.00     0.200 A 
ATOM     69  F   UNL     1      14.046 -11.022   6.064  1.00  0.00    -0.200 F 
ATOM     70  F   UNL     1      13.011 -12.804   7.852  1.00  0.00    -0.200 F 
ENDBRANCH  37  60
ENDBRANCH  11  12
ENDBRANCH   4   6
ENDBRANCH   3   4
ENDBRANCH   2   3
ENDBRANCH   1   2
BRANCH   1  71
ATOM     71  O   UNL     1       3.405   0.591   2.091  1.00  0.00    -0.458 OA
BRANCH  71  72
ATOM     72  C   UNL     1       2.073   0.473   2.330  1.00  0.00     0.339 C 
ATOM     73  O   UNL     1       1.204   1.280   2.050  1.00  0.00    -0.246 OA
BRANCH  72  74
ATOM     74  C   UNL     1       1.787  -0.863   2.870  1.00  0.00     0.080 A 
ATOM     75  C   UNL     1       0.927  -1.685   2.175  1.00  0.00     0.131 A 
ATOM     76  C   UNL     1       2.335  -1.345   4.053  1.00  0.00     0.043 A 
ATOM     77  N   UNL     1       0.699  -2.975   2.519  1.00  0.00    -0.220 NA
ATOM     78  C   UNL     1       2.043  -2.657   4.476  1.00  0.00     0.104 A 
ATOM     79  C   UNL     1       1.274  -3.478   3.646  1.00  0.00     0.232 A 
ATOM     80  Cl  UNL     1       2.650  -3.076   6.032  1.00  0.00    -0.078 Cl
BRANCH  79  81
ATOM     81  O   UNL     1       1.004  -4.801   3.723  1.00  0.00    -0.476 OA
BRANCH  81  82
ATOM     82  C   UNL     1       1.286  -5.629   4.842  1.00  0.00     0.235 C 
BRANCH  82  83
ATOM     83  C   UNL     1       2.662  -6.232   4.789  1.00  0.00     0.027 C 
ATOM     84  C   UNL     1       2.837  -7.657   4.300  1.00  0.00     0.007 C 
ATOM     85  C   UNL     1       3.382  -6.523   3.494  1.00  0.00     0.007 C 
ENDBRANCH  82  83
ENDBRANCH  81  82
ENDBRANCH  79  81
ENDBRANCH  72  74
ENDBRANCH  71  72
ENDBRANCH   1  71
TORSDOF 14
