REMARK SMILES CCC[NH2+][C@@]1(C(=O)OCCOC(=O)c2ccc(-c3c4nc(c(-c5c(F)c(F)c(F)c(F)c5F)c5ccc([nH]5)c(-c5c(F)c(F)c(F)c(F)c5F)c5nc(c(-c6c(F)c(F)c(F)c(F)c6F)c6ccc3[nH]6)C=C5)C=C4)cc2)CCC[C@@H]1CC[NH+]1CC[NH+](C)CC1
REMARK SMILES IDX 9 1 8 2 6 3 7 4 5 5 77 6 80 7 78 8 79 9 4 10 3 13 2 14 1 15
REMARK SMILES IDX 81 16 82 17 83 18 84 19 89 20 85 22 88 23 86 24 87 25 10 27
REMARK SMILES IDX 11 28 12 29 13 30 14 31 15 32 76 33 16 34 75 35 17 36 18 37
REMARK SMILES IDX 19 38 69 39 20 40 74 41 68 42 70 43 21 44 73 45 67 46 66 47
REMARK SMILES IDX 22 49 54 50 34 51 53 52 35 53 38 54 52 55 71 56 36 57 37 58
REMARK SMILES IDX 51 60 72 61 39 62 23 63 24 64 32 65 25 66 26 67 30 68 33 69
REMARK SMILES IDX 27 70 28 71 31 72 29 73 55 74 56 75 64 76 57 77 58 78 62 79
REMARK SMILES IDX 65 80 59 81 60 82 63 83 61 84 40 85 41 86 49 87 42 88 43 89
REMARK SMILES IDX 47 90 50 91 44 92 45 93 48 94 46 95
REMARK H PARENT 4 11 4 12 83 21 86 26 70 48 38 59
REMARK Flexibility Score: inf
ROOT
ATOM      1  C   UNL     1       4.518  -0.976  -4.602  1.00  0.00     0.274 C 
ENDROOT
BRANCH   1   2
ATOM      2  O   UNL     1       3.247  -0.408  -4.997  1.00  0.00    -0.457 OA
BRANCH   2   3
ATOM      3  C   UNL     1       2.157  -0.762  -4.264  1.00  0.00     0.368 C 
ATOM      4  O   UNL     1       2.202  -1.554  -3.322  1.00  0.00    -0.245 OA
BRANCH   3   5
ATOM      5  C   UNL     1       0.805  -0.185  -4.807  1.00  0.00     0.197 C 
ATOM      6  C   UNL     1       0.329  -1.189  -5.893  1.00  0.00     0.081 C 
ATOM      7  C   UNL     1       0.789   1.181  -5.576  1.00  0.00     0.068 C 
ATOM      8  C   UNL     1       0.966  -0.711  -7.176  1.00  0.00     0.008 C 
ATOM      9  C   UNL     1       0.905   0.801  -7.079  1.00  0.00     0.011 C 
BRANCH   5  10
ATOM     10  N   UNL     1      -0.254  -0.369  -3.763  1.00  0.00    -0.332 N 
ATOM     11  H   UNL     1      -1.157  -0.367  -4.238  1.00  0.00     0.347 HD
ATOM     12  H   UNL     1      -0.015  -1.243  -3.295  1.00  0.00     0.347 HD
BRANCH  10  13
ATOM     13  C   UNL     1      -0.316   0.620  -2.703  1.00  0.00     0.261 C 
BRANCH  13  14
ATOM     14  C   UNL     1      -1.343   0.235  -1.623  1.00  0.00     0.058 C 
ATOM     15  C   UNL     1      -1.194  -1.167  -1.041  1.00  0.00     0.010 C 
ENDBRANCH  13  14
ENDBRANCH  10  13
ENDBRANCH   5  10
BRANCH   7  16
ATOM     16  C   UNL     1       1.794   2.325  -5.269  1.00  0.00     0.072 C 
BRANCH  16  17
ATOM     17  C   UNL     1       1.400   3.315  -4.160  1.00  0.00     0.263 C 
BRANCH  17  18
ATOM     18  N   UNL     1       2.366   4.439  -4.097  1.00  0.00    -0.326 N 
ATOM     19  C   UNL     1       3.475   4.154  -3.162  1.00  0.00     0.324 C 
ATOM     20  C   UNL     1       1.714   5.705  -3.732  1.00  0.00     0.324 C 
ATOM     21  H   UNL     1       2.753   4.538  -5.035  1.00  0.00     0.348 HD
ATOM     22  C   UNL     1       4.443   5.335  -2.910  1.00  0.00     0.324 C 
ATOM     23  C   UNL     1       2.731   6.865  -3.577  1.00  0.00     0.324 C 
ATOM     24  N   UNL     1       3.803   6.623  -2.592  1.00  0.00    -0.328 N 
ATOM     25  C   UNL     1       3.300   6.659  -1.222  1.00  0.00     0.333 C 
ATOM     26  H   UNL     1       4.496   7.369  -2.652  1.00  0.00     0.348 HD
ENDBRANCH  17  18
ENDBRANCH  16  17
ENDBRANCH   7  16
ENDBRANCH   3   5
ENDBRANCH   2   3
ENDBRANCH   1   2
BRANCH   1  27
ATOM     27  C   UNL     1       5.391   0.000  -3.794  1.00  0.00     0.275 C 
BRANCH  27  28
ATOM     28  O   UNL     1       5.101  -0.007  -2.374  1.00  0.00    -0.458 OA
BRANCH  28  29
ATOM     29  C   UNL     1       4.023   0.722  -2.052  1.00  0.00     0.338 C 
ATOM     30  O   UNL     1       3.295   1.319  -2.818  1.00  0.00    -0.246 OA
BRANCH  29  31
ATOM     31  C   UNL     1       3.661   0.704  -0.640  1.00  0.00     0.060 A 
ATOM     32  C   UNL     1       2.461   0.059  -0.351  1.00  0.00     0.016 A 
ATOM     33  C   UNL     1       4.247   1.573   0.287  1.00  0.00     0.016 A 
ATOM     34  C   UNL     1       1.798   0.340   0.829  1.00  0.00     0.010 A 
ATOM     35  C   UNL     1       3.614   1.790   1.519  1.00  0.00     0.010 A 
ATOM     36  C   UNL     1       2.374   1.190   1.785  1.00  0.00    -0.014 A 
BRANCH  36  37
ATOM     37  C   UNL     1       1.645   1.342   3.067  1.00  0.00     0.031 A 
ATOM     38  C   UNL     1       0.888   2.591   3.402  1.00  0.00     0.074 A 
ATOM     39  C   UNL     1       1.517   0.241   3.833  1.00  0.00     0.049 A 
ATOM     40  N   UNL     1       0.125   2.831   4.438  1.00  0.00    -0.248 NA
ATOM     41  C   UNL     1       0.984   3.712   2.454  1.00  0.00     0.031 C 
ATOM     42  C   UNL     1       2.139  -1.053   3.540  1.00  0.00     0.029 A 
ATOM     43  N   UNL     1       0.754   0.001   4.944  1.00  0.00    -0.354 N 
ATOM     44  C   UNL     1      -0.332   4.131   4.285  1.00  0.00     0.074 A 
ATOM     45  C   UNL     1       0.230   4.632   3.046  1.00  0.00     0.031 C 
ATOM     46  C   UNL     1       1.639  -1.976   4.372  1.00  0.00     0.029 A 
ATOM     47  C   UNL     1       0.732  -1.324   5.308  1.00  0.00     0.049 A 
ATOM     48  H   UNL     1       0.271   0.705   5.433  1.00  0.00     0.167 HD
ATOM     49  C   UNL     1      -1.137   4.838   5.113  1.00  0.00     0.037 A 
ATOM     50  C   UNL     1       0.056  -1.946   6.290  1.00  0.00     0.037 A 
ATOM     51  C   UNL     1      -1.702   4.326   6.336  1.00  0.00     0.049 A 
ATOM     52  C   UNL     1      -0.788  -1.127   7.215  1.00  0.00     0.074 A 
ATOM     53  C   UNL     1      -2.462   4.988   7.285  1.00  0.00     0.029 A 
ATOM     54  N   UNL     1      -1.583   3.013   6.766  1.00  0.00    -0.354 N 
ATOM     55  N   UNL     1      -1.103   0.141   7.136  1.00  0.00    -0.248 NA
ATOM     56  C   UNL     1      -1.323  -1.814   8.397  1.00  0.00     0.031 C 
ATOM     57  C   UNL     1      -2.787   4.079   8.300  1.00  0.00     0.029 A 
ATOM     58  C   UNL     1      -2.245   2.848   7.972  1.00  0.00     0.049 A 
ATOM     59  H   UNL     1      -1.098   2.303   6.286  1.00  0.00     0.167 HD
ATOM     60  C   UNL     1      -1.834   0.420   8.278  1.00  0.00     0.074 A 
ATOM     61  C   UNL     1      -1.964  -0.826   9.008  1.00  0.00     0.031 C 
ATOM     62  C   UNL     1      -2.325   1.609   8.700  1.00  0.00     0.037 A 
BRANCH  49  63
ATOM     63  C   UNL     1      -1.427   6.263   4.756  1.00  0.00     0.064 A 
ATOM     64  C   UNL     1      -2.441   6.600   3.851  1.00  0.00     0.173 A 
ATOM     65  C   UNL     1      -0.729   7.304   5.387  1.00  0.00     0.173 A 
ATOM     66  F   UNL     1      -3.127   5.638   3.217  1.00  0.00    -0.203 F 
ATOM     67  C   UNL     1      -2.748   7.934   3.590  1.00  0.00     0.198 A 
ATOM     68  C   UNL     1      -1.045   8.635   5.131  1.00  0.00     0.198 A 
ATOM     69  F   UNL     1       0.249   7.027   6.262  1.00  0.00    -0.203 F 
ATOM     70  F   UNL     1      -3.715   8.239   2.713  1.00  0.00    -0.200 F 
ATOM     71  C   UNL     1      -2.055   8.949   4.234  1.00  0.00     0.200 A 
ATOM     72  F   UNL     1      -0.378   9.614   5.758  1.00  0.00    -0.200 F 
ATOM     73  F   UNL     1      -2.359  10.231   3.989  1.00  0.00    -0.200 F 
ENDBRANCH  49  63
BRANCH  50  74
ATOM     74  C   UNL     1       0.186  -3.413   6.451  1.00  0.00     0.064 A 
ATOM     75  C   UNL     1      -0.875  -4.266   6.125  1.00  0.00     0.173 A 
ATOM     76  C   UNL     1       1.389  -3.993   6.883  1.00  0.00     0.173 A 
ATOM     77  F   UNL     1      -2.048  -3.754   5.727  1.00  0.00    -0.203 F 
ATOM     78  C   UNL     1      -0.733  -5.649   6.213  1.00  0.00     0.198 A 
ATOM     79  C   UNL     1       1.536  -5.375   6.948  1.00  0.00     0.198 A 
ATOM     80  F   UNL     1       2.431  -3.213   7.206  1.00  0.00    -0.203 F 
ATOM     81  F   UNL     1      -1.765  -6.447   5.907  1.00  0.00    -0.200 F 
ATOM     82  C   UNL     1       0.475  -6.202   6.613  1.00  0.00     0.200 A 
ATOM     83  F   UNL     1       2.709  -5.904   7.321  1.00  0.00    -0.200 F 
ATOM     84  F   UNL     1       0.617  -7.533   6.678  1.00  0.00    -0.200 F 
ENDBRANCH  50  74
BRANCH  62  85
ATOM     85  C   UNL     1      -2.982   1.619  10.042  1.00  0.00     0.064 A 
ATOM     86  C   UNL     1      -2.209   1.642  11.212  1.00  0.00     0.173 A 
ATOM     87  C   UNL     1      -4.377   1.612  10.166  1.00  0.00     0.173 A 
ATOM     88  F   UNL     1      -0.870   1.631  11.136  1.00  0.00    -0.203 F 
ATOM     89  C   UNL     1      -2.813   1.640  12.465  1.00  0.00     0.198 A 
ATOM     90  C   UNL     1      -4.978   1.623  11.422  1.00  0.00     0.198 A 
ATOM     91  F   UNL     1      -5.153   1.586   9.073  1.00  0.00    -0.203 F 
ATOM     92  F   UNL     1      -2.058   1.627  13.572  1.00  0.00    -0.200 F 
ATOM     93  C   UNL     1      -4.197   1.632  12.569  1.00  0.00     0.200 A 
ATOM     94  F   UNL     1      -6.314   1.613  11.524  1.00  0.00    -0.200 F 
ATOM     95  F   UNL     1      -4.777   1.623  13.776  1.00  0.00    -0.200 F 
ENDBRANCH  62  85
ENDBRANCH  36  37
ENDBRANCH  29  31
ENDBRANCH  28  29
ENDBRANCH  27  28
ENDBRANCH   1  27
TORSDOF 17
