REMARK SMILES Cc1nc(CCc2ccc(S(=O)(=O)N3CCCC3)cc2)ncc1C(=O)OCCOC(=O)c1ccc(-c2c3nc(c(-c4c(F)c(F)c(F)c(F)c4F)c4ccc([nH]4)c(-c4c(F)c(F)c(F)c(F)c4F)c4nc(c(-c5c(F)c(F)c(F)c(F)c5F)c5ccc2[nH]5)C=C4)C=C3)cc1
REMARK SMILES IDX 26 1 24 2 25 3 23 4 1 5 2 6 3 7 4 8 22 9 21 10 5 11 6 12
REMARK SMILES IDX 7 13 8 14 20 15 9 16 19 17 10 18 11 19 12 20 13 21 14 22
REMARK SMILES IDX 15 23 18 24 16 25 17 26 27 27 28 28 29 29 30 30 31 31 32 32
REMARK SMILES IDX 33 33 94 34 34 35 93 36 35 37 36 38 37 39 87 40 38 41 92 42
REMARK SMILES IDX 86 43 88 44 39 45 91 46 85 47 84 48 40 50 72 51 52 52 71 53
REMARK SMILES IDX 53 54 56 55 70 56 89 57 54 58 55 59 69 61 90 62 57 63 41 64
REMARK SMILES IDX 42 65 50 66 43 67 44 68 48 69 51 70 45 71 46 72 49 73 47 74
REMARK SMILES IDX 73 75 74 76 82 77 75 78 76 79 80 80 83 81 77 82 78 83 81 84
REMARK SMILES IDX 79 85 58 86 59 87 67 88 60 89 61 90 65 91 68 92 62 93 63 94
REMARK SMILES IDX 66 95 64 96
REMARK H PARENT 88 49 56 60
REMARK Flexibility Score: inf
ROOT
ATOM      1  O   UNL     1      -1.599  -2.584  -0.000  1.00  0.00    -0.458 OA
ENDROOT
BRANCH   1   2
ATOM      2  C   UNL     1      -0.586  -2.374   0.880  1.00  0.00     0.341 C 
ATOM      3  O   UNL     1      -0.156  -3.164   1.702  1.00  0.00    -0.246 OA
BRANCH   2   4
ATOM      4  C   UNL     1      -0.017  -1.029   0.696  1.00  0.00     0.099 A 
ATOM      5  C   UNL     1      -2.253   0.034   0.994  1.00  0.00     0.068 C 
ATOM      6  C   UNL     1      -0.782   0.105   0.811  1.00  0.00     0.056 A 
ATOM      7  N   UNL     1      -0.275   1.347   0.658  1.00  0.00    -0.237 NA
ATOM      8  C   UNL     1       1.017   1.463   0.318  1.00  0.00     0.128 A 
ATOM      9  C   UNL     1       1.322  -0.801   0.465  1.00  0.00     0.130 A 
ATOM     10  N   UNL     1       1.859   0.421   0.231  1.00  0.00    -0.240 NA
BRANCH   8  11
ATOM     11  C   UNL     1       1.503   2.835  -0.062  1.00  0.00     0.082 C 
BRANCH  11  12
ATOM     12  C   UNL     1       0.976   3.291  -1.434  1.00  0.00     0.043 C 
BRANCH  12  13
ATOM     13  C   UNL     1      -0.524   3.509  -1.499  1.00  0.00    -0.047 A 
ATOM     14  C   UNL     1      -1.094   4.699  -1.034  1.00  0.00     0.005 A 
ATOM     15  C   UNL     1      -1.376   2.497  -1.974  1.00  0.00     0.005 A 
ATOM     16  C   UNL     1      -2.484   4.859  -1.014  1.00  0.00     0.022 A 
ATOM     17  C   UNL     1      -2.770   2.650  -1.949  1.00  0.00     0.022 A 
ATOM     18  C   UNL     1      -3.327   3.830  -1.458  1.00  0.00     0.082 A 
BRANCH  18  19
ATOM     19  S   UNL     1      -5.094   4.105  -1.398  1.00  0.00     0.243 S 
ATOM     20  O   UNL     1      -5.317   5.081  -0.347  1.00  0.00    -0.207 OA
ATOM     21  O   UNL     1      -5.525   4.350  -2.756  1.00  0.00    -0.207 OA
BRANCH  19  22
ATOM     22  N   UNL     1      -5.822   2.689  -0.871  1.00  0.00    -0.198 NA
ATOM     23  C   UNL     1      -5.534   2.132   0.454  1.00  0.00     0.102 C 
ATOM     24  C   UNL     1      -6.222   1.626  -1.812  1.00  0.00     0.102 C 
ATOM     25  C   UNL     1      -5.309   0.663   0.148  1.00  0.00     0.018 C 
ATOM     26  C   UNL     1      -6.292   0.361  -0.958  1.00  0.00     0.018 C 
ENDBRANCH  19  22
ENDBRANCH  18  19
ENDBRANCH  12  13
ENDBRANCH  11  12
ENDBRANCH   8  11
ENDBRANCH   2   4
ENDBRANCH   1   2
BRANCH   1  27
ATOM     27  C   UNL     1      -2.346  -3.818   0.116  1.00  0.00     0.275 C 
BRANCH  27  28
ATOM     28  C   UNL     1      -2.197  -4.692  -1.131  1.00  0.00     0.275 C 
BRANCH  28  29
ATOM     29  O   UNL     1      -0.839  -5.145  -1.251  1.00  0.00    -0.458 OA
BRANCH  29  30
ATOM     30  C   UNL     1      -0.079  -4.413  -2.094  1.00  0.00     0.338 C 
ATOM     31  O   UNL     1      -0.432  -3.502  -2.824  1.00  0.00    -0.246 OA
BRANCH  30  32
ATOM     32  C   UNL     1       1.335  -4.721  -1.863  1.00  0.00     0.060 A 
ATOM     33  C   UNL     1       1.950  -4.044  -0.821  1.00  0.00     0.016 A 
ATOM     34  C   UNL     1       2.094  -5.472  -2.750  1.00  0.00     0.016 A 
ATOM     35  C   UNL     1       3.329  -3.976  -0.734  1.00  0.00     0.010 A 
ATOM     36  C   UNL     1       3.484  -5.524  -2.575  1.00  0.00     0.010 A 
ATOM     37  C   UNL     1       4.121  -4.739  -1.592  1.00  0.00    -0.014 A 
BRANCH  37  38
ATOM     38  C   UNL     1       5.602  -4.663  -1.475  1.00  0.00     0.031 A 
ATOM     39  C   UNL     1       6.428  -4.284  -2.674  1.00  0.00     0.074 A 
ATOM     40  C   UNL     1       6.206  -4.888  -0.289  1.00  0.00     0.049 A 
ATOM     41  N   UNL     1       7.723  -4.363  -2.848  1.00  0.00    -0.248 NA
ATOM     42  C   UNL     1       5.700  -3.760  -3.842  1.00  0.00     0.031 C 
ATOM     43  C   UNL     1       5.522  -5.181   0.974  1.00  0.00     0.029 A 
ATOM     44  N   UNL     1       7.536  -4.897   0.054  1.00  0.00    -0.354 N 
ATOM     45  C   UNL     1       7.953  -3.973  -4.161  1.00  0.00     0.074 A 
ATOM     46  C   UNL     1       6.668  -3.655  -4.742  1.00  0.00     0.031 C 
ATOM     47  C   UNL     1       6.428  -5.293   1.955  1.00  0.00     0.029 A 
ATOM     48  C   UNL     1       7.759  -5.210   1.373  1.00  0.00     0.049 A 
ATOM     49  H   UNL     1       8.259  -4.698  -0.584  1.00  0.00     0.167 HD
ATOM     50  C   UNL     1       9.136  -3.896  -4.816  1.00  0.00     0.037 A 
ATOM     51  C   UNL     1       8.903  -5.471   2.032  1.00  0.00     0.037 A 
ATOM     52  C   UNL     1      10.412  -4.156  -4.201  1.00  0.00     0.049 A 
ATOM     53  C   UNL     1      10.195  -5.441   1.264  1.00  0.00     0.074 A 
ATOM     54  C   UNL     1      11.673  -4.093  -4.768  1.00  0.00     0.029 A 
ATOM     55  N   UNL     1      10.589  -4.516  -2.872  1.00  0.00    -0.354 N 
ATOM     56  N   UNL     1      10.402  -5.138   0.006  1.00  0.00    -0.248 NA
ATOM     57  C   UNL     1      11.408  -5.812   2.003  1.00  0.00     0.031 C 
ATOM     58  C   UNL     1      12.607  -4.469  -3.798  1.00  0.00     0.029 A 
ATOM     59  C   UNL     1      11.936  -4.702  -2.608  1.00  0.00     0.049 A 
ATOM     60  H   UNL     1       9.864  -4.624  -2.214  1.00  0.00     0.167 HD
ATOM     61  C   UNL     1      11.770  -5.256  -0.193  1.00  0.00     0.074 A 
ATOM     62  C   UNL     1      12.344  -5.640   1.081  1.00  0.00     0.031 C 
ATOM     63  C   UNL     1      12.487  -5.069  -1.328  1.00  0.00     0.037 A 
BRANCH  50  64
ATOM     64  C   UNL     1       9.109  -3.567  -6.282  1.00  0.00     0.064 A 
ATOM     65  C   UNL     1       8.777  -2.291  -6.760  1.00  0.00     0.173 A 
ATOM     66  C   UNL     1       9.466  -4.545  -7.224  1.00  0.00     0.173 A 
ATOM     67  F   UNL     1       8.413  -1.323  -5.906  1.00  0.00    -0.203 F 
ATOM     68  C   UNL     1       8.780  -2.015  -8.126  1.00  0.00     0.198 A 
ATOM     69  C   UNL     1       9.500  -4.257  -8.585  1.00  0.00     0.198 A 
ATOM     70  F   UNL     1       9.795  -5.782  -6.823  1.00  0.00    -0.203 F 
ATOM     71  F   UNL     1       8.413  -0.802  -8.564  1.00  0.00    -0.200 F 
ATOM     72  C   UNL     1       9.151  -2.994  -9.036  1.00  0.00     0.200 A 
ATOM     73  F   UNL     1       9.873  -5.201  -9.460  1.00  0.00    -0.200 F 
ATOM     74  F   UNL     1       9.165  -2.722 -10.349  1.00  0.00    -0.200 F 
ENDBRANCH  50  64
BRANCH  51  75
ATOM     75  C   UNL     1       8.873  -5.850   3.471  1.00  0.00     0.064 A 
ATOM     76  C   UNL     1       9.470  -5.039   4.445  1.00  0.00     0.173 A 
ATOM     77  C   UNL     1       8.259  -7.037   3.902  1.00  0.00     0.173 A 
ATOM     78  F   UNL     1      10.091  -3.907   4.085  1.00  0.00    -0.203 F 
ATOM     79  C   UNL     1       9.474  -5.411   5.789  1.00  0.00     0.198 A 
ATOM     80  C   UNL     1       8.228  -7.387   5.250  1.00  0.00     0.198 A 
ATOM     81  F   UNL     1       7.671  -7.853   3.014  1.00  0.00    -0.203 F 
ATOM     82  F   UNL     1      10.102  -4.645   6.691  1.00  0.00    -0.200 F 
ATOM     83  C   UNL     1       8.846  -6.580   6.191  1.00  0.00     0.200 A 
ATOM     84  F   UNL     1       7.602  -8.508   5.634  1.00  0.00    -0.200 F 
ATOM     85  F   UNL     1       8.845  -6.933   7.484  1.00  0.00    -0.200 F 
ENDBRANCH  51  75
BRANCH  63  86
ATOM     86  C   UNL     1      13.976  -5.221  -1.226  1.00  0.00     0.064 A 
ATOM     87  C   UNL     1      14.581  -6.473  -1.043  1.00  0.00     0.173 A 
ATOM     88  C   UNL     1      14.809  -4.097  -1.341  1.00  0.00     0.173 A 
ATOM     89  F   UNL     1      13.827  -7.574  -0.909  1.00  0.00    -0.203 F 
ATOM     90  C   UNL     1      15.965  -6.589  -0.948  1.00  0.00     0.198 A 
ATOM     91  C   UNL     1      16.192  -4.223  -1.281  1.00  0.00     0.198 A 
ATOM     92  F   UNL     1      14.279  -2.878  -1.522  1.00  0.00    -0.203 F 
ATOM     93  F   UNL     1      16.519  -7.787  -0.714  1.00  0.00    -0.200 F 
ATOM     94  C   UNL     1      16.769  -5.466  -1.075  1.00  0.00     0.200 A 
ATOM     95  F   UNL     1      16.968  -3.139  -1.421  1.00  0.00    -0.200 F 
ATOM     96  F   UNL     1      18.101  -5.582  -0.991  1.00  0.00    -0.200 F 
ENDBRANCH  63  86
ENDBRANCH  37  38
ENDBRANCH  30  32
ENDBRANCH  29  30
ENDBRANCH  28  29
ENDBRANCH  27  28
ENDBRANCH   1  27
TORSDOF 16
