REMARK SMILES C[C@H](CC(=O)OCCOC(=O)c1ccc(-c2c3nc(c(-c4c(F)c(F)c(F)c(F)c4F)c4ccc([nH]4)c(-c4c(F)c(F)c(F)c(F)c4F)c4nc(c(-c5c(F)c(F)c(F)c(F)c5F)c5ccc2[nH]5)C=C4)C=C3)cc1)NC(=O)CS[C@H]1CCS(=O)(=O)C1
REMARK SMILES IDX 6 1 4 2 5 3 3 4 2 5 1 6 75 7 76 8 77 10 78 11 79 12 80 13
REMARK SMILES IDX 81 14 86 15 82 16 83 17 84 18 85 19 7 20 8 21 9 22 10 23
REMARK SMILES IDX 11 24 12 25 13 26 74 27 14 28 73 29 15 30 16 31 17 32 67 33
REMARK SMILES IDX 18 34 72 35 66 36 68 37 19 38 71 39 65 40 64 41 20 43 52 44
REMARK SMILES IDX 32 45 51 46 33 47 36 48 50 49 69 50 34 51 35 52 49 54 70 55
REMARK SMILES IDX 37 56 21 57 22 58 30 59 23 60 24 61 28 62 31 63 25 64 26 65
REMARK SMILES IDX 29 66 27 67 53 68 54 69 62 70 55 71 56 72 60 73 63 74 57 75
REMARK SMILES IDX 58 76 61 77 59 78 38 79 39 80 47 81 40 82 41 83 45 84 48 85
REMARK SMILES IDX 42 86 43 87 46 88 44 89
REMARK H PARENT 75 9 68 42 36 53
REMARK Flexibility Score: inf
ROOT
ATOM      1  O   UNL     1      -3.516  -0.447  -1.083  1.00  0.00    -0.462 OA
ENDROOT
BRANCH   1   2
ATOM      2  C   UNL     1      -3.039  -1.454  -0.315  1.00  0.00     0.307 C 
ATOM      3  O   UNL     1      -1.854  -1.707  -0.158  1.00  0.00    -0.252 OA
BRANCH   2   4
ATOM      4  C   UNL     1      -4.136  -2.207   0.388  1.00  0.00     0.147 C 
BRANCH   4   5
ATOM      5  C   UNL     1      -4.287  -1.707   1.831  1.00  0.00     0.090 C 
ATOM      6  C   UNL     1      -5.339  -0.609   1.930  1.00  0.00     0.031 C 
BRANCH   5   7
ATOM      7  N   UNL     1      -4.624  -2.829   2.718  1.00  0.00    -0.352 N 
ATOM      8  C   UNL     1      -4.042  -3.238   3.890  1.00  0.00     0.230 C 
ATOM      9  H   UNL     1      -5.390  -3.374   2.425  1.00  0.00     0.163 HD
ATOM     10  O   UNL     1      -4.375  -4.334   4.342  1.00  0.00    -0.274 OA
BRANCH   8  11
ATOM     11  C   UNL     1      -3.043  -2.336   4.599  1.00  0.00     0.169 C 
BRANCH  11  12
ATOM     12  S   UNL     1      -1.498  -3.169   5.109  1.00  0.00    -0.148 SA
BRANCH  12  13
ATOM     13  C   UNL     1      -0.637  -3.654   3.563  1.00  0.00     0.063 C 
ATOM     14  C   UNL     1      -0.620  -5.178   3.408  1.00  0.00     0.031 C 
ATOM     15  C   UNL     1      -1.135  -3.129   2.234  1.00  0.00     0.151 C 
ATOM     16  C   UNL     1       0.146  -5.444   2.118  1.00  0.00     0.138 C 
ATOM     17  S   UNL     1      -0.427  -4.207   0.983  1.00  0.00     0.151 S 
ATOM     18  O   UNL     1       0.744  -3.606   0.377  1.00  0.00    -0.229 OA
ATOM     19  O   UNL     1      -1.500  -4.773   0.193  1.00  0.00    -0.229 OA
ENDBRANCH  12  13
ENDBRANCH  11  12
ENDBRANCH   8  11
ENDBRANCH   5   7
ENDBRANCH   4   5
ENDBRANCH   2   4
ENDBRANCH   1   2
BRANCH   1  20
ATOM     20  C   UNL     1      -2.521   0.244  -1.874  1.00  0.00     0.274 C 
BRANCH  20  21
ATOM     21  C   UNL     1      -1.739   1.285  -1.061  1.00  0.00     0.275 C 
BRANCH  21  22
ATOM     22  O   UNL     1      -0.528   0.725  -0.505  1.00  0.00    -0.458 OA
BRANCH  22  23
ATOM     23  C   UNL     1      -0.006   1.412   0.545  1.00  0.00     0.338 C 
ATOM     24  O   UNL     1      -0.471   2.429   1.036  1.00  0.00    -0.246 OA
BRANCH  23  25
ATOM     25  C   UNL     1       1.203   0.753   1.106  1.00  0.00     0.060 A 
ATOM     26  C   UNL     1       1.230  -0.624   1.251  1.00  0.00     0.016 A 
ATOM     27  C   UNL     1       2.244   1.500   1.661  1.00  0.00     0.016 A 
ATOM     28  C   UNL     1       2.183  -1.235   2.077  1.00  0.00     0.010 A 
ATOM     29  C   UNL     1       3.279   0.865   2.381  1.00  0.00     0.010 A 
ATOM     30  C   UNL     1       3.234  -0.513   2.660  1.00  0.00    -0.014 A 
BRANCH  30  31
ATOM     31  C   UNL     1       4.212  -1.197   3.586  1.00  0.00     0.031 A 
ATOM     32  C   UNL     1       4.471  -0.661   4.983  1.00  0.00     0.074 A 
ATOM     33  C   UNL     1       4.822  -2.354   3.239  1.00  0.00     0.049 A 
ATOM     34  N   UNL     1       5.355  -1.044   5.878  1.00  0.00    -0.248 NA
ATOM     35  C   UNL     1       3.620   0.448   5.437  1.00  0.00     0.031 C 
ATOM     36  C   UNL     1       4.641  -3.064   1.973  1.00  0.00     0.029 A 
ATOM     37  N   UNL     1       5.703  -3.158   3.935  1.00  0.00    -0.354 N 
ATOM     38  C   UNL     1       5.201  -0.191   6.968  1.00  0.00     0.074 A 
ATOM     39  C   UNL     1       4.139   0.730   6.623  1.00  0.00     0.031 C 
ATOM     40  C   UNL     1       5.322  -4.218   2.007  1.00  0.00     0.029 A 
ATOM     41  C   UNL     1       6.094  -4.281   3.243  1.00  0.00     0.049 A 
ATOM     42  H   UNL     1       6.021  -2.947   4.842  1.00  0.00     0.167 HD
ATOM     43  C   UNL     1       5.878  -0.169   8.146  1.00  0.00     0.037 A 
ATOM     44  C   UNL     1       7.006  -5.234   3.527  1.00  0.00     0.037 A 
ATOM     45  C   UNL     1       6.906  -1.109   8.524  1.00  0.00     0.049 A 
ATOM     46  C   UNL     1       7.797  -5.149   4.805  1.00  0.00     0.074 A 
ATOM     47  C   UNL     1       7.660  -1.146   9.686  1.00  0.00     0.029 A 
ATOM     48  N   UNL     1       7.316  -2.188   7.755  1.00  0.00    -0.354 N 
ATOM     49  N   UNL     1       7.700  -4.284   5.785  1.00  0.00    -0.248 NA
ATOM     50  C   UNL     1       8.839  -6.166   5.007  1.00  0.00     0.031 C 
ATOM     51  C   UNL     1       8.565  -2.210   9.595  1.00  0.00     0.029 A 
ATOM     52  C   UNL     1       8.327  -2.882   8.408  1.00  0.00     0.049 A 
ATOM     53  H   UNL     1       6.945  -2.428   6.875  1.00  0.00     0.167 HD
ATOM     54  C   UNL     1       8.652  -4.662   6.723  1.00  0.00     0.074 A 
ATOM     55  C   UNL     1       9.295  -5.853   6.210  1.00  0.00     0.031 C 
ATOM     56  C   UNL     1       8.966  -4.070   7.902  1.00  0.00     0.037 A 
BRANCH  43  57
ATOM     57  C   UNL     1       5.577   0.958   9.100  1.00  0.00     0.064 A 
ATOM     58  C   UNL     1       4.370   1.044   9.810  1.00  0.00     0.173 A 
ATOM     59  C   UNL     1       6.535   1.961   9.322  1.00  0.00     0.173 A 
ATOM     60  F   UNL     1       3.415   0.119   9.633  1.00  0.00    -0.203 F 
ATOM     61  C   UNL     1       4.118   2.111  10.671  1.00  0.00     0.198 A 
ATOM     62  C   UNL     1       6.295   3.007  10.210  1.00  0.00     0.198 A 
ATOM     63  F   UNL     1       7.715   1.923   8.684  1.00  0.00    -0.203 F 
ATOM     64  F   UNL     1       2.933   2.205  11.291  1.00  0.00    -0.200 F 
ATOM     65  C   UNL     1       5.081   3.089  10.874  1.00  0.00     0.200 A 
ATOM     66  F   UNL     1       7.235   3.939  10.417  1.00  0.00    -0.200 F 
ATOM     67  F   UNL     1       4.837   4.114  11.702  1.00  0.00    -0.200 F 
ENDBRANCH  43  57
BRANCH  44  68
ATOM     68  C   UNL     1       7.282  -6.324   2.546  1.00  0.00     0.064 A 
ATOM     69  C   UNL     1       7.031  -7.668   2.854  1.00  0.00     0.173 A 
ATOM     70  C   UNL     1       7.834  -6.042   1.286  1.00  0.00     0.173 A 
ATOM     71  F   UNL     1       6.538  -7.999   4.057  1.00  0.00    -0.203 F 
ATOM     72  C   UNL     1       7.337  -8.686   1.950  1.00  0.00     0.198 A 
ATOM     73  C   UNL     1       8.098  -7.055   0.367  1.00  0.00     0.198 A 
ATOM     74  F   UNL     1       8.107  -4.775   0.940  1.00  0.00    -0.203 F 
ATOM     75  F   UNL     1       7.144  -9.966   2.296  1.00  0.00    -0.200 F 
ATOM     76  C   UNL     1       7.859  -8.377   0.704  1.00  0.00     0.200 A 
ATOM     77  F   UNL     1       8.588  -6.748  -0.842  1.00  0.00    -0.200 F 
ATOM     78  F   UNL     1       8.145  -9.354  -0.167  1.00  0.00    -0.200 F 
ENDBRANCH  44  68
BRANCH  56  79
ATOM     79  C   UNL     1      10.022  -4.732   8.744  1.00  0.00     0.064 A 
ATOM     80  C   UNL     1      11.370  -4.772   8.355  1.00  0.00     0.173 A 
ATOM     81  C   UNL     1       9.677  -5.345   9.959  1.00  0.00     0.173 A 
ATOM     82  F   UNL     1      11.754  -4.215   7.196  1.00  0.00    -0.203 F 
ATOM     83  C   UNL     1      12.321  -5.439   9.124  1.00  0.00     0.198 A 
ATOM     84  C   UNL     1      10.637  -5.979  10.744  1.00  0.00     0.198 A 
ATOM     85  F   UNL     1       8.405  -5.333  10.387  1.00  0.00    -0.203 F 
ATOM     86  F   UNL     1      13.588  -5.525   8.694  1.00  0.00    -0.200 F 
ATOM     87  C   UNL     1      11.955  -6.038  10.320  1.00  0.00     0.200 A 
ATOM     88  F   UNL     1      10.283  -6.545  11.907  1.00  0.00    -0.200 F 
ATOM     89  F   UNL     1      12.870  -6.684  11.056  1.00  0.00    -0.200 F 
ENDBRANCH  56  79
ENDBRANCH  30  31
ENDBRANCH  23  25
ENDBRANCH  22  23
ENDBRANCH  21  22
ENDBRANCH  20  21
ENDBRANCH   1  20
TORSDOF 16
