REMARK SMILES C[C@]1(c2ccccc2C(=O)OCCOC(=O)c2ccc(-c3c4nc(c(-c5c(F)c(F)c(F)c(F)c5F)c5ccc([nH]5)c(-c5c(F)c(F)c(F)c(F)c5F)c5nc(c(-c6c(F)c(F)c(F)c(F)c6F)c6ccc3[nH]6)C=C5)C=C4)cc2)NN=C(c2ccccc2)S1
REMARK SMILES IDX 12 1 11 2 9 3 10 4 8 5 3 6 4 7 5 8 7 9 6 10 2 11 1 12 80 13
REMARK SMILES IDX 89 14 81 15 82 17 83 18 84 19 88 20 85 21 87 22 86 23 13 24
REMARK SMILES IDX 14 25 15 26 16 27 17 28 18 29 79 30 19 31 78 32 20 33 21 34
REMARK SMILES IDX 22 35 72 36 23 37 77 38 71 39 73 40 24 41 76 42 70 43 69 44
REMARK SMILES IDX 25 46 57 47 37 48 56 49 38 50 41 51 55 52 74 53 39 54 40 55
REMARK SMILES IDX 54 57 75 58 42 59 26 60 27 61 35 62 28 63 29 64 33 65 36 66
REMARK SMILES IDX 30 67 31 68 34 69 32 70 58 71 59 72 67 73 60 74 61 75 65 76
REMARK SMILES IDX 68 77 62 78 63 79 66 80 64 81 43 82 44 83 52 84 45 85 46 86
REMARK SMILES IDX 50 87 53 88 47 89 48 90 51 91 49 92
REMARK H PARENT 80 16 73 45 41 56
REMARK Flexibility Score: inf
ROOT
ATOM      1  C   UNL     1      -1.856  -3.385   0.914  1.00  0.00     0.275 C 
ENDROOT
BRANCH   1   2
ATOM      2  O   UNL     1      -0.870  -2.377   0.620  1.00  0.00    -0.458 OA
BRANCH   2   3
ATOM      3  C   UNL     1      -1.037  -1.144   1.117  1.00  0.00     0.338 C 
ATOM      4  O   UNL     1      -1.953  -0.798   1.847  1.00  0.00    -0.246 OA
BRANCH   3   5
ATOM      5  C   UNL     1       0.164  -0.291   0.864  1.00  0.00     0.066 A 
ATOM      6  C   UNL     1       0.874  -0.076  -0.344  1.00  0.00     0.004 A 
ATOM      7  C   UNL     1       1.951   0.866  -0.266  1.00  0.00     0.008 A 
ATOM      8  C   UNL     1       2.336   1.518   0.906  1.00  0.00     0.000 A 
ATOM      9  C   UNL     1       0.564   0.399   2.044  1.00  0.00     0.016 A 
ATOM     10  C   UNL     1       1.644   1.277   2.073  1.00  0.00     0.001 A 
BRANCH   6  11
ATOM     11  C   UNL     1       0.552  -0.568  -1.780  1.00  0.00     0.129 C 
ATOM     12  C   UNL     1      -0.399   0.447  -2.433  1.00  0.00     0.054 C 
ATOM     13  N   UNL     1       1.812  -0.686  -2.576  1.00  0.00    -0.288 NA
ATOM     14  S   UNL     1      -0.130  -2.227  -2.049  1.00  0.00    -0.070 SA
ATOM     15  N   UNL     1       2.400  -1.934  -2.524  1.00  0.00    -0.171 NA
ATOM     16  H   UNL     1       2.189   0.062  -3.093  1.00  0.00     0.185 HD
ATOM     17  C   UNL     1       1.505  -2.830  -2.226  1.00  0.00     0.126 C 
BRANCH  17  18
ATOM     18  C   UNL     1       1.784  -4.260  -1.992  1.00  0.00     0.009 A 
ATOM     19  C   UNL     1       2.942  -4.610  -1.288  1.00  0.00     0.011 A 
ATOM     20  C   UNL     1       0.875  -5.256  -2.369  1.00  0.00     0.011 A 
ATOM     21  C   UNL     1       3.149  -5.936  -0.898  1.00  0.00     0.001 A 
ATOM     22  C   UNL     1       1.095  -6.583  -1.994  1.00  0.00     0.001 A 
ATOM     23  C   UNL     1       2.221  -6.919  -1.243  1.00  0.00     0.000 A 
ENDBRANCH  17  18
ENDBRANCH   6  11
ENDBRANCH   3   5
ENDBRANCH   2   3
ENDBRANCH   1   2
BRANCH   1  24
ATOM     24  C   UNL     1      -1.147  -4.736   1.035  1.00  0.00     0.275 C 
BRANCH  24  25
ATOM     25  O   UNL     1      -0.343  -4.777   2.230  1.00  0.00    -0.458 OA
BRANCH  25  26
ATOM     26  C   UNL     1       0.880  -4.223   2.106  1.00  0.00     0.338 C 
ATOM     27  O   UNL     1       1.424  -3.790   1.096  1.00  0.00    -0.246 OA
BRANCH  26  28
ATOM     28  C   UNL     1       1.451  -4.002   3.427  1.00  0.00     0.060 A 
ATOM     29  C   UNL     1       1.520  -2.681   3.870  1.00  0.00     0.016 A 
ATOM     30  C   UNL     1       1.975  -5.046   4.185  1.00  0.00     0.016 A 
ATOM     31  C   UNL     1       2.120  -2.388   5.083  1.00  0.00     0.010 A 
ATOM     32  C   UNL     1       2.549  -4.755   5.425  1.00  0.00     0.010 A 
ATOM     33  C   UNL     1       2.620  -3.425   5.882  1.00  0.00    -0.014 A 
BRANCH  33  34
ATOM     34  C   UNL     1       3.191  -3.104   7.210  1.00  0.00     0.031 A 
ATOM     35  C   UNL     1       4.653  -3.294   7.473  1.00  0.00     0.074 A 
ATOM     36  C   UNL     1       2.378  -2.624   8.169  1.00  0.00     0.049 A 
ATOM     37  N   UNL     1       5.311  -3.178   8.598  1.00  0.00    -0.248 NA
ATOM     38  C   UNL     1       5.486  -3.675   6.323  1.00  0.00     0.031 C 
ATOM     39  C   UNL     1       0.945  -2.373   8.008  1.00  0.00     0.029 A 
ATOM     40  N   UNL     1       2.638  -2.256   9.464  1.00  0.00    -0.354 N 
ATOM     41  C   UNL     1       6.624  -3.517   8.304  1.00  0.00     0.074 A 
ATOM     42  C   UNL     1       6.672  -3.840   6.893  1.00  0.00     0.031 C 
ATOM     43  C   UNL     1       0.457  -1.867   9.149  1.00  0.00     0.029 A 
ATOM     44  C   UNL     1       1.524  -1.826  10.142  1.00  0.00     0.049 A 
ATOM     45  H   UNL     1       3.535  -2.295   9.867  1.00  0.00     0.167 HD
ATOM     46  C   UNL     1       7.685  -3.561   9.145  1.00  0.00     0.037 A 
ATOM     47  C   UNL     1       1.373  -1.474  11.432  1.00  0.00     0.037 A 
ATOM     48  C   UNL     1       7.626  -3.197  10.538  1.00  0.00     0.049 A 
ATOM     49  C   UNL     1       2.567  -1.528  12.341  1.00  0.00     0.074 A 
ATOM     50  C   UNL     1       8.647  -3.182  11.472  1.00  0.00     0.029 A 
ATOM     51  N   UNL     1       6.478  -2.774  11.194  1.00  0.00    -0.354 N 
ATOM     52  N   UNL     1       3.799  -1.878  12.063  1.00  0.00    -0.248 NA
ATOM     53  C   UNL     1       2.348  -1.154  13.744  1.00  0.00     0.031 C 
ATOM     54  C   UNL     1       8.109  -2.786  12.702  1.00  0.00     0.029 A 
ATOM     55  C   UNL     1       6.762  -2.511  12.525  1.00  0.00     0.049 A 
ATOM     56  H   UNL     1       5.592  -2.675  10.776  1.00  0.00     0.167 HD
ATOM     57  C   UNL     1       4.505  -1.767  13.252  1.00  0.00     0.074 A 
ATOM     58  C   UNL     1       3.567  -1.289  14.249  1.00  0.00     0.031 C 
ATOM     59  C   UNL     1       5.808  -2.044  13.499  1.00  0.00     0.037 A 
BRANCH  46  60
ATOM     60  C   UNL     1       8.987  -4.062   8.593  1.00  0.00     0.064 A 
ATOM     61  C   UNL     1       9.763  -3.303   7.705  1.00  0.00     0.173 A 
ATOM     62  C   UNL     1       9.475  -5.321   8.979  1.00  0.00     0.173 A 
ATOM     63  F   UNL     1       9.334  -2.100   7.293  1.00  0.00    -0.203 F 
ATOM     64  C   UNL     1      10.965  -3.796   7.203  1.00  0.00     0.198 A 
ATOM     65  C   UNL     1      10.690  -5.799   8.496  1.00  0.00     0.198 A 
ATOM     66  F   UNL     1       8.774  -6.086   9.829  1.00  0.00    -0.203 F 
ATOM     67  F   UNL     1      11.667  -3.074   6.319  1.00  0.00    -0.200 F 
ATOM     68  C   UNL     1      11.430  -5.040   7.603  1.00  0.00     0.200 A 
ATOM     69  F   UNL     1      11.142  -6.997   8.892  1.00  0.00    -0.200 F 
ATOM     70  F   UNL     1      12.588  -5.512   7.120  1.00  0.00    -0.200 F 
ENDBRANCH  46  60
BRANCH  47  71
ATOM     71  C   UNL     1       0.032  -1.074  11.931  1.00  0.00     0.064 A 
ATOM     72  C   UNL     1      -0.240   0.251  12.294  1.00  0.00     0.173 A 
ATOM     73  C   UNL     1      -1.015  -2.005  12.018  1.00  0.00     0.173 A 
ATOM     74  F   UNL     1       0.734   1.171  12.248  1.00  0.00    -0.203 F 
ATOM     75  C   UNL     1      -1.509   0.630  12.729  1.00  0.00     0.198 A 
ATOM     76  C   UNL     1      -2.290  -1.619  12.424  1.00  0.00     0.198 A 
ATOM     77  F   UNL     1      -0.806  -3.285  11.679  1.00  0.00    -0.203 F 
ATOM     78  F   UNL     1      -1.736   1.897  13.100  1.00  0.00    -0.200 F 
ATOM     79  C   UNL     1      -2.535  -0.302  12.783  1.00  0.00     0.200 A 
ATOM     80  F   UNL     1      -3.281  -2.519  12.458  1.00  0.00    -0.200 F 
ATOM     81  F   UNL     1      -3.758   0.067  13.186  1.00  0.00    -0.200 F 
ENDBRANCH  47  71
BRANCH  59  82
ATOM     82  C   UNL     1       6.292  -1.824  14.900  1.00  0.00     0.064 A 
ATOM     83  C   UNL     1       5.949  -2.704  15.938  1.00  0.00     0.173 A 
ATOM     84  C   UNL     1       7.129  -0.741  15.202  1.00  0.00     0.173 A 
ATOM     85  F   UNL     1       5.136  -3.744  15.700  1.00  0.00    -0.203 F 
ATOM     86  C   UNL     1       6.410  -2.492  17.234  1.00  0.00     0.198 A 
ATOM     87  C   UNL     1       7.609  -0.547  16.494  1.00  0.00     0.198 A 
ATOM     88  F   UNL     1       7.488   0.125  14.242  1.00  0.00    -0.203 F 
ATOM     89  F   UNL     1       6.035  -3.319  18.219  1.00  0.00    -0.200 F 
ATOM     90  C   UNL     1       7.244  -1.419  17.509  1.00  0.00     0.200 A 
ATOM     91  F   UNL     1       8.421   0.485  16.758  1.00  0.00    -0.200 F 
ATOM     92  F   UNL     1       7.689  -1.219  18.758  1.00  0.00    -0.200 F 
ENDBRANCH  59  82
ENDBRANCH  33  34
ENDBRANCH  26  28
ENDBRANCH  25  26
ENDBRANCH  24  25
ENDBRANCH   1  24
TORSDOF 13
