REMARK SMILES CO[C@@H]1C[NH2+][C@@H](O[C@@H]2C[C@@H](C(=O)OCCOC(=O)c3ccc(-c4c5nc(c(-c6c(F)c(F)c(F)c(F)c6F)c6ccc([nH]6)c(-c6c(F)c(F)c(F)c(F)c6F)c6nc(c(-c7c(F)c(F)c(F)c(F)c7F)c7ccc4[nH]7)C=C6)C=C5)cc3)N(C(=O)OC(C)(C)C)C2)c2cc(Cl)ccc21
REMARK SMILES IDX 14 1 13 2 11 3 12 4 10 5 8 6 9 7 90 8 82 9 7 10 6 11 3 12
REMARK SMILES IDX 4 13 97 14 5 15 91 16 96 17 92 20 95 21 93 22 94 23 2 24
REMARK SMILES IDX 1 25 83 26 84 27 85 28 86 29 87 30 88 31 89 32 15 33 16 34
REMARK SMILES IDX 17 35 18 36 19 37 20 38 81 39 21 40 80 41 22 42 23 43 24 44
REMARK SMILES IDX 74 45 25 46 79 47 73 48 75 49 26 50 78 51 72 52 71 53 27 55
REMARK SMILES IDX 59 56 39 57 58 58 40 59 43 60 57 61 76 62 41 63 42 64 56 66
REMARK SMILES IDX 77 67 44 68 28 69 29 70 37 71 30 72 31 73 35 74 38 75 32 76
REMARK SMILES IDX 33 77 36 78 34 79 60 80 61 81 69 82 62 83 63 84 67 85 70 86
REMARK SMILES IDX 64 87 65 88 68 89 66 90 45 91 46 92 54 93 47 94 48 95 52 96
REMARK SMILES IDX 55 97 49 98 50 99 53 100 51 101
REMARK H PARENT 5 18 5 19 75 54 43 65
REMARK Flexibility Score: inf
ROOT
ATOM      1  C   UNL     1       4.682  -0.483  -2.310  1.00  0.00     0.274 C 
ENDROOT
BRANCH   1   2
ATOM      2  O   UNL     1       3.446  -1.231  -2.321  1.00  0.00    -0.461 OA
BRANCH   2   3
ATOM      3  C   UNL     1       3.179  -2.045  -3.400  1.00  0.00     0.329 C 
ATOM      4  O   UNL     1       3.810  -2.055  -4.445  1.00  0.00    -0.250 OA
BRANCH   3   5
ATOM      5  C   UNL     1       2.006  -2.984  -3.033  1.00  0.00     0.201 C 
ATOM      6  C   UNL     1       1.129  -5.257  -3.041  1.00  0.00     0.147 C 
ATOM      7  C   UNL     1       2.437  -4.458  -3.051  1.00  0.00     0.071 C 
ATOM      8  C   UNL     1       0.166  -4.338  -3.808  1.00  0.00     0.156 C 
ATOM      9  N   UNL     1       0.714  -2.988  -3.705  1.00  0.00    -0.292 N 
BRANCH   6  10
ATOM     10  O   UNL     1       0.576  -5.891  -1.889  1.00  0.00    -0.320 OA
BRANCH  10  11
ATOM     11  C   UNL     1       0.586  -5.525  -0.515  1.00  0.00     0.354 C 
ATOM     12  C   UNL     1       0.412  -2.636   0.034  1.00  0.00     0.203 C 
ATOM     13  C   UNL     1      -0.795  -3.520  -0.365  1.00  0.00     0.300 C 
ATOM     14  C   UNL     1       1.729  -3.405   0.152  1.00  0.00    -0.002 A 
ATOM     15  N   UNL     1      -0.670  -4.943  -0.075  1.00  0.00    -0.315 N 
ATOM     16  C   UNL     1       1.792  -4.792  -0.006  1.00  0.00     0.046 A 
ATOM     17  C   UNL     1       2.946  -2.725   0.234  1.00  0.00     0.009 A 
ATOM     18  H   UNL     1      -1.433  -5.435  -0.541  1.00  0.00     0.349 HD
ATOM     19  H   UNL     1      -0.704  -5.043   0.940  1.00  0.00     0.349 HD
ATOM     20  C   UNL     1       3.014  -5.477   0.169  1.00  0.00     0.033 A 
ATOM     21  C   UNL     1       4.175  -3.384   0.320  1.00  0.00     0.021 A 
ATOM     22  C   UNL     1       4.200  -4.768   0.333  1.00  0.00     0.041 A 
ATOM     23  Cl  UNL     1       5.697  -5.599   0.471  1.00  0.00    -0.084 Cl
BRANCH  12  24
ATOM     24  O   UNL     1       0.153  -1.928   1.252  1.00  0.00    -0.371 OA
ATOM     25  C   UNL     1      -0.410  -0.636   1.018  1.00  0.00     0.196 C 
ENDBRANCH  12  24
ENDBRANCH  10  11
ENDBRANCH   6  10
BRANCH   9  26
ATOM     26  C   UNL     1      -0.142  -1.913  -3.776  1.00  0.00     0.411 C 
ATOM     27  O   UNL     1      -1.293  -2.009  -4.185  1.00  0.00    -0.224 OA
BRANCH  26  28
ATOM     28  O   UNL     1       0.413  -0.770  -3.296  1.00  0.00    -0.444 OA
BRANCH  28  29
ATOM     29  C   UNL     1      -0.332   0.481  -3.344  1.00  0.00     0.106 C 
ATOM     30  C   UNL     1      -0.623   0.884  -4.793  1.00  0.00     0.056 C 
ATOM     31  C   UNL     1      -1.620   0.434  -2.511  1.00  0.00     0.056 C 
ATOM     32  C   UNL     1       0.605   1.529  -2.720  1.00  0.00     0.056 C 
ENDBRANCH  28  29
ENDBRANCH  26  28
ENDBRANCH   9  26
ENDBRANCH   3   5
ENDBRANCH   2   3
ENDBRANCH   1   2
BRANCH   1  33
ATOM     33  C   UNL     1       4.672   0.560  -1.166  1.00  0.00     0.275 C 
BRANCH  33  34
ATOM     34  O   UNL     1       4.803  -0.057   0.146  1.00  0.00    -0.458 OA
BRANCH  34  35
ATOM     35  C   UNL     1       4.121   0.551   1.163  1.00  0.00     0.338 C 
ATOM     36  O   UNL     1       3.466   1.577   1.077  1.00  0.00    -0.246 OA
BRANCH  35  37
ATOM     37  C   UNL     1       4.026  -0.360   2.338  1.00  0.00     0.060 A 
ATOM     38  C   UNL     1       5.099  -0.786   3.118  1.00  0.00     0.016 A 
ATOM     39  C   UNL     1       2.756  -0.863   2.612  1.00  0.00     0.016 A 
ATOM     40  C   UNL     1       4.886  -1.750   4.132  1.00  0.00     0.010 A 
ATOM     41  C   UNL     1       2.562  -1.899   3.524  1.00  0.00     0.010 A 
ATOM     42  C   UNL     1       3.621  -2.340   4.320  1.00  0.00    -0.014 A 
BRANCH  42  43
ATOM     43  C   UNL     1       3.325  -3.308   5.412  1.00  0.00     0.031 A 
ATOM     44  C   UNL     1       3.651  -4.769   5.312  1.00  0.00     0.074 A 
ATOM     45  C   UNL     1       2.603  -2.883   6.466  1.00  0.00     0.049 A 
ATOM     46  N   UNL     1       3.635  -5.694   6.241  1.00  0.00    -0.248 NA
ATOM     47  C   UNL     1       4.000  -5.269   3.981  1.00  0.00     0.031 C 
ATOM     48  C   UNL     1       2.053  -1.535   6.616  1.00  0.00     0.029 A 
ATOM     49  N   UNL     1       2.178  -3.545   7.589  1.00  0.00    -0.354 N 
ATOM     50  C   UNL     1       4.033  -6.871   5.617  1.00  0.00     0.074 A 
ATOM     51  C   UNL     1       4.201  -6.562   4.212  1.00  0.00     0.031 C 
ATOM     52  C   UNL     1       1.353  -1.472   7.758  1.00  0.00     0.029 A 
ATOM     53  C   UNL     1       1.463  -2.752   8.449  1.00  0.00     0.049 A 
ATOM     54  H   UNL     1       2.367  -4.496   7.761  1.00  0.00     0.167 HD
ATOM     55  C   UNL     1       4.265  -8.083   6.182  1.00  0.00     0.037 A 
ATOM     56  C   UNL     1       1.003  -3.003   9.688  1.00  0.00     0.037 A 
ATOM     57  C   UNL     1       4.022  -8.376   7.574  1.00  0.00     0.049 A 
ATOM     58  C   UNL     1       1.339  -4.313  10.339  1.00  0.00     0.074 A 
ATOM     59  C   UNL     1       4.327  -9.521   8.291  1.00  0.00     0.029 A 
ATOM     60  N   UNL     1       3.375  -7.519   8.453  1.00  0.00    -0.354 N 
ATOM     61  N   UNL     1       1.959  -5.351   9.832  1.00  0.00    -0.248 NA
ATOM     62  C   UNL     1       0.961  -4.466  11.749  1.00  0.00     0.031 C 
ATOM     63  C   UNL     1       3.822  -9.373   9.589  1.00  0.00     0.029 A 
ATOM     64  C   UNL     1       3.247  -8.117   9.696  1.00  0.00     0.049 A 
ATOM     65  H   UNL     1       3.053  -6.616   8.226  1.00  0.00     0.167 HD
ATOM     66  C   UNL     1       2.072  -6.269  10.865  1.00  0.00     0.074 A 
ATOM     67  C   UNL     1       1.469  -5.659  12.033  1.00  0.00     0.031 C 
ATOM     68  C   UNL     1       2.631  -7.504  10.846  1.00  0.00     0.037 A 
BRANCH  55  69
ATOM     69  C   UNL     1       4.870  -9.166   5.329  1.00  0.00     0.064 A 
ATOM     70  C   UNL     1       6.187  -9.051   4.853  1.00  0.00     0.173 A 
ATOM     71  C   UNL     1       4.195 -10.373   5.084  1.00  0.00     0.173 A 
ATOM     72  F   UNL     1       6.887  -7.928   5.070  1.00  0.00    -0.203 F 
ATOM     73  C   UNL     1       6.797 -10.091   4.154  1.00  0.00     0.198 A 
ATOM     74  C   UNL     1       4.818 -11.421   4.406  1.00  0.00     0.198 A 
ATOM     75  F   UNL     1       2.942 -10.552   5.529  1.00  0.00    -0.203 F 
ATOM     76  F   UNL     1       8.048  -9.945   3.697  1.00  0.00    -0.200 F 
ATOM     77  C   UNL     1       6.116 -11.278   3.940  1.00  0.00     0.200 A 
ATOM     78  F   UNL     1       4.167 -12.578   4.219  1.00  0.00    -0.200 F 
ATOM     79  F   UNL     1       6.713 -12.287   3.290  1.00  0.00    -0.200 F 
ENDBRANCH  55  69
BRANCH  56  80
ATOM     80  C   UNL     1       0.348  -1.902  10.434  1.00  0.00     0.064 A 
ATOM     81  C   UNL     1       1.067  -1.181  11.397  1.00  0.00     0.173 A 
ATOM     82  C   UNL     1      -0.954  -1.479  10.132  1.00  0.00     0.173 A 
ATOM     83  F   UNL     1       2.316  -1.552  11.715  1.00  0.00    -0.203 F 
ATOM     84  C   UNL     1       0.508  -0.077  12.033  1.00  0.00     0.198 A 
ATOM     85  C   UNL     1      -1.506  -0.363  10.757  1.00  0.00     0.198 A 
ATOM     86  F   UNL     1      -1.671  -2.124   9.200  1.00  0.00    -0.203 F 
ATOM     87  F   UNL     1       1.214   0.590  12.956  1.00  0.00    -0.200 F 
ATOM     88  C   UNL     1      -0.775   0.337  11.707  1.00  0.00     0.200 A 
ATOM     89  F   UNL     1      -2.737   0.049  10.425  1.00  0.00    -0.200 F 
ATOM     90  F   UNL     1      -1.304   1.414  12.302  1.00  0.00    -0.200 F 
ENDBRANCH  56  80
BRANCH  68  91
ATOM     91  C   UNL     1       2.614  -8.287  12.125  1.00  0.00     0.064 A 
ATOM     92  C   UNL     1       1.428  -8.846  12.623  1.00  0.00     0.173 A 
ATOM     93  C   UNL     1       3.804  -8.532  12.828  1.00  0.00     0.173 A 
ATOM     94  F   UNL     1       0.264  -8.629  11.993  1.00  0.00    -0.203 F 
ATOM     95  C   UNL     1       1.431  -9.607  13.788  1.00  0.00     0.198 A 
ATOM     96  C   UNL     1       3.806  -9.316  13.978  1.00  0.00     0.198 A 
ATOM     97  F   UNL     1       4.965  -8.024  12.390  1.00  0.00    -0.203 F 
ATOM     98  F   UNL     1       0.280 -10.101  14.266  1.00  0.00    -0.200 F 
ATOM     99  C   UNL     1       2.620  -9.849  14.460  1.00  0.00     0.200 A 
ATOM    100  F   UNL     1       4.958  -9.560  14.619  1.00  0.00    -0.200 F 
ATOM    101  F   UNL     1       2.622 -10.593  15.574  1.00  0.00    -0.200 F 
ENDBRANCH  68  91
ENDBRANCH  42  43
ENDBRANCH  35  37
ENDBRANCH  34  35
ENDBRANCH  33  34
ENDBRANCH   1  33
TORSDOF 17
