REMARK SMILES COc1cc2nc(SCC(=O)OCCOC(=O)c3ccc(-c4c5nc(c(-c6c(F)c(F)c(F)c(F)c6F)c6ccc([nH]6)c(-c6c(F)c(F)c(F)c(F)c6F)c6nc(c(-c7c(F)c(F)c(F)c(F)c7F)c7ccc4[nH]7)C=C6)C=C5)cc3)nc(O)c2cc1OC
REMARK SMILES IDX 13 1 12 2 10 3 11 4 9 5 8 6 7 7 3 8 4 9 86 10 5 11 85 12
REMARK SMILES IDX 6 13 84 14 82 15 81 16 2 17 1 18 87 19 88 20 83 21 14 23
REMARK SMILES IDX 15 24 16 25 17 26 18 27 19 28 80 29 20 30 79 31 21 32 22 33
REMARK SMILES IDX 23 34 73 35 24 36 78 37 72 38 74 39 25 40 77 41 71 42 70 43
REMARK SMILES IDX 26 45 58 46 38 47 57 48 39 49 42 50 56 51 75 52 40 53 41 54
REMARK SMILES IDX 55 56 76 57 43 58 27 59 28 60 36 61 29 62 30 63 34 64 37 65
REMARK SMILES IDX 31 66 32 67 35 68 33 69 59 70 60 71 68 72 61 73 62 74 66 75
REMARK SMILES IDX 69 76 63 77 64 78 67 79 65 80 44 81 45 82 53 83 46 84 47 85
REMARK SMILES IDX 51 86 54 87 48 88 49 89 52 90 50 91
REMARK H PARENT 83 22 74 44 42 55
REMARK Flexibility Score: inf
ROOT
ATOM      1  C   UNL     1      -1.073   9.616   1.540  1.00  0.00     0.274 C 
ENDROOT
BRANCH   1   2
ATOM      2  O   UNL     1      -1.494   8.914   0.351  1.00  0.00    -0.461 OA
BRANCH   2   3
ATOM      3  C   UNL     1      -1.359   9.588  -0.819  1.00  0.00     0.316 C 
ATOM      4  O   UNL     1      -0.883  10.719  -0.907  1.00  0.00    -0.251 OA
BRANCH   3   5
ATOM      5  C   UNL     1      -1.873   8.876  -2.048  1.00  0.00     0.200 C 
BRANCH   5   6
ATOM      6  S   UNL     1      -2.517   7.206  -1.810  1.00  0.00    -0.074 SA
BRANCH   6   7
ATOM      7  C   UNL     1      -1.052   6.206  -1.924  1.00  0.00     0.192 A 
ATOM      8  C   UNL     1       0.720   1.856  -1.330  1.00  0.00     0.162 A 
ATOM      9  C   UNL     1      -0.366   2.735  -1.395  1.00  0.00     0.079 A 
ATOM     10  C   UNL     1       2.025   2.321  -1.520  1.00  0.00     0.161 A 
ATOM     11  C   UNL     1      -0.192   4.087  -1.651  1.00  0.00     0.083 A 
ATOM     12  C   UNL     1       2.204   3.661  -1.861  1.00  0.00     0.066 A 
ATOM     13  N   UNL     1      -1.249   4.907  -1.638  1.00  0.00    -0.222 NA
ATOM     14  C   UNL     1       1.091   4.535  -1.937  1.00  0.00     0.066 A 
ATOM     15  C   UNL     1       1.141   5.870  -2.314  1.00  0.00     0.223 A 
ATOM     16  N   UNL     1       0.113   6.736  -2.324  1.00  0.00    -0.187 NA
BRANCH   8  17
ATOM     17  O   UNL     1       0.409   0.532  -1.157  1.00  0.00    -0.493 OA
ATOM     18  C   UNL     1       0.865   0.030   0.096  1.00  0.00     0.278 C 
ENDBRANCH   8  17
BRANCH  10  19
ATOM     19  O   UNL     1       3.054   1.425  -1.426  1.00  0.00    -0.493 OA
ATOM     20  C   UNL     1       4.274   1.957  -0.915  1.00  0.00     0.278 C 
ENDBRANCH  10  19
BRANCH  15  21
ATOM     21  O   UNL     1       2.311   6.388  -2.792  1.00  0.00    -0.493 OA
ATOM     22  H   UNL     1       2.355   7.288  -3.049  1.00  0.00     0.295 HD
ENDBRANCH  15  21
ENDBRANCH   6   7
ENDBRANCH   5   6
ENDBRANCH   3   5
ENDBRANCH   2   3
ENDBRANCH   1   2
BRANCH   1  23
ATOM     23  C   UNL     1       0.344   9.220   1.946  1.00  0.00     0.275 C 
BRANCH  23  24
ATOM     24  O   UNL     1       1.269   9.569   0.902  1.00  0.00    -0.458 OA
BRANCH  24  25
ATOM     25  C   UNL     1       1.849   8.529   0.269  1.00  0.00     0.338 C 
ATOM     26  O   UNL     1       1.738   7.338   0.525  1.00  0.00    -0.246 OA
BRANCH  25  27
ATOM     27  C   UNL     1       2.709   9.036  -0.807  1.00  0.00     0.060 A 
ATOM     28  C   UNL     1       4.090   8.874  -0.696  1.00  0.00     0.016 A 
ATOM     29  C   UNL     1       2.148   9.560  -1.976  1.00  0.00     0.016 A 
ATOM     30  C   UNL     1       4.913   9.261  -1.754  1.00  0.00     0.010 A 
ATOM     31  C   UNL     1       2.967   9.890  -3.054  1.00  0.00     0.010 A 
ATOM     32  C   UNL     1       4.358   9.762  -2.943  1.00  0.00    -0.014 A 
BRANCH  32  33
ATOM     33  C   UNL     1       5.244  10.182  -4.054  1.00  0.00     0.031 A 
ATOM     34  C   UNL     1       5.433  11.642  -4.348  1.00  0.00     0.074 A 
ATOM     35  C   UNL     1       5.884   9.255  -4.791  1.00  0.00     0.049 A 
ATOM     36  N   UNL     1       6.262  12.214  -5.184  1.00  0.00    -0.248 NA
ATOM     37  C   UNL     1       4.572  12.585  -3.616  1.00  0.00     0.031 C 
ATOM     38  C   UNL     1       5.731   7.807  -4.647  1.00  0.00     0.029 A 
ATOM     39  N   UNL     1       6.798   9.396  -5.805  1.00  0.00    -0.354 N 
ATOM     40  C   UNL     1       6.040  13.577  -5.059  1.00  0.00     0.074 A 
ATOM     41  C   UNL     1       4.953  13.749  -4.121  1.00  0.00     0.031 C 
ATOM     42  C   UNL     1       6.542   7.193  -5.526  1.00  0.00     0.029 A 
ATOM     43  C   UNL     1       7.270   8.202  -6.291  1.00  0.00     0.049 A 
ATOM     44  H   UNL     1       7.088  10.271  -6.151  1.00  0.00     0.167 HD
ATOM     45  C   UNL     1       6.710  14.597  -5.645  1.00  0.00     0.037 A 
ATOM     46  C   UNL     1       8.201   7.955  -7.232  1.00  0.00     0.037 A 
ATOM     47  C   UNL     1       7.792  14.428  -6.575  1.00  0.00     0.049 A 
ATOM     48  C   UNL     1       8.923   9.106  -7.880  1.00  0.00     0.074 A 
ATOM     49  C   UNL     1       8.575  15.399  -7.173  1.00  0.00     0.029 A 
ATOM     50  N   UNL     1       8.237  13.204  -7.049  1.00  0.00    -0.354 N 
ATOM     51  N   UNL     1       8.787  10.392  -7.667  1.00  0.00    -0.248 NA
ATOM     52  C   UNL     1       9.941   8.770  -8.887  1.00  0.00     0.031 C 
ATOM     53  C   UNL     1       9.470  14.764  -8.039  1.00  0.00     0.029 A 
ATOM     54  C   UNL     1       9.268  13.396  -7.953  1.00  0.00     0.049 A 
ATOM     55  H   UNL     1       7.874  12.328  -6.783  1.00  0.00     0.167 HD
ATOM     56  C   UNL     1       9.713  11.016  -8.492  1.00  0.00     0.074 A 
ATOM     57  C   UNL     1      10.416   9.968  -9.201  1.00  0.00     0.031 C 
ATOM     58  C   UNL     1       9.958  12.340  -8.648  1.00  0.00     0.037 A 
BRANCH  45  59
ATOM     59  C   UNL     1       6.309  15.991  -5.272  1.00  0.00     0.064 A 
ATOM     60  C   UNL     1       6.643  16.528  -4.019  1.00  0.00     0.173 A 
ATOM     61  C   UNL     1       5.637  16.814  -6.185  1.00  0.00     0.173 A 
ATOM     62  F   UNL     1       7.276  15.773  -3.108  1.00  0.00    -0.203 F 
ATOM     63  C   UNL     1       6.306  17.837  -3.689  1.00  0.00     0.198 A 
ATOM     64  C   UNL     1       5.320  18.130  -5.859  1.00  0.00     0.198 A 
ATOM     65  F   UNL     1       5.299  16.347  -7.396  1.00  0.00    -0.203 F 
ATOM     66  F   UNL     1       6.608  18.319  -2.476  1.00  0.00    -0.200 F 
ATOM     67  C   UNL     1       5.651  18.639  -4.612  1.00  0.00     0.200 A 
ATOM     68  F   UNL     1       4.694  18.909  -6.754  1.00  0.00    -0.200 F 
ATOM     69  F   UNL     1       5.336  19.903  -4.297  1.00  0.00    -0.200 F 
ENDBRANCH  45  59
BRANCH  46  70
ATOM     70  C   UNL     1       8.545   6.554  -7.582  1.00  0.00     0.064 A 
ATOM     71  C   UNL     1       9.763   5.990  -7.177  1.00  0.00     0.173 A 
ATOM     72  C   UNL     1       7.669   5.754  -8.329  1.00  0.00     0.173 A 
ATOM     73  F   UNL     1      10.641   6.725  -6.479  1.00  0.00    -0.203 F 
ATOM     74  C   UNL     1      10.099   4.682  -7.521  1.00  0.00     0.198 A 
ATOM     75  C   UNL     1       7.998   4.440  -8.655  1.00  0.00     0.198 A 
ATOM     76  F   UNL     1       6.492   6.250  -8.739  1.00  0.00    -0.203 F 
ATOM     77  F   UNL     1      11.285   4.179  -7.153  1.00  0.00    -0.200 F 
ATOM     78  C   UNL     1       9.214   3.907  -8.256  1.00  0.00     0.200 A 
ATOM     79  F   UNL     1       7.138   3.691  -9.360  1.00  0.00    -0.200 F 
ATOM     80  F   UNL     1       9.539   2.650  -8.586  1.00  0.00    -0.200 F 
ENDBRANCH  46  70
BRANCH  58  81
ATOM     81  C   UNL     1      11.034  12.738  -9.614  1.00  0.00     0.064 A 
ATOM     82  C   UNL     1      10.828  12.675 -10.999  1.00  0.00     0.173 A 
ATOM     83  C   UNL     1      12.251  13.258  -9.150  1.00  0.00     0.173 A 
ATOM     84  F   UNL     1       9.684  12.173 -11.489  1.00  0.00    -0.203 F 
ATOM     85  C   UNL     1      11.808  13.108 -11.887  1.00  0.00     0.198 A 
ATOM     86  C   UNL     1      13.219  13.713 -10.040  1.00  0.00     0.198 A 
ATOM     87  F   UNL     1      12.491  13.345  -7.833  1.00  0.00    -0.203 F 
ATOM     88  F   UNL     1      11.602  13.014 -13.207  1.00  0.00    -0.200 F 
ATOM     89  C   UNL     1      12.998  13.635 -11.407  1.00  0.00     0.200 A 
ATOM     90  F   UNL     1      14.363  14.234  -9.575  1.00  0.00    -0.200 F 
ATOM     91  F   UNL     1      13.934  14.067 -12.264  1.00  0.00    -0.200 F 
ENDBRANCH  58  81
ENDBRANCH  32  33
ENDBRANCH  25  27
ENDBRANCH  24  25
ENDBRANCH  23  24
ENDBRANCH   1  23
TORSDOF 16
