REMARK SMILES COCc1cc(SCC(=O)OCCOC(=O)c2ccc(-c3c4nc(c(-c5c(F)c(F)c(F)c(F)c5F)c5ccc([nH]5)c(-c5c(F)c(F)c(F)c(F)c5F)c5nc(c(-c6c(F)c(F)c(F)c(F)c6F)c6ccc3[nH]6)C=C5)C=C4)cc2)nc(-c2cccnc2)n1
REMARK SMILES IDX 12 1 11 2 9 3 10 4 8 5 7 6 6 7 4 8 5 9 88 10 81 11 80 12
REMARK SMILES IDX 3 13 2 14 1 15 82 16 83 17 87 18 84 19 86 20 85 21 13 22
REMARK SMILES IDX 14 23 15 24 16 25 17 26 18 27 79 28 19 29 78 30 20 31 21 32
REMARK SMILES IDX 22 33 72 34 23 35 77 36 71 37 73 38 24 39 76 40 70 41 69 42
REMARK SMILES IDX 25 44 57 45 37 46 56 47 38 48 41 49 55 50 74 51 39 52 40 53
REMARK SMILES IDX 54 55 75 56 42 57 26 58 27 59 35 60 28 61 29 62 33 63 36 64
REMARK SMILES IDX 30 65 31 66 34 67 32 68 58 69 59 70 67 71 60 72 61 73 65 74
REMARK SMILES IDX 68 75 62 76 63 77 66 78 64 79 43 80 44 81 52 82 45 83 46 84
REMARK SMILES IDX 50 85 53 86 47 87 48 88 51 89 49 90
REMARK H PARENT 73 43 41 54
REMARK Flexibility Score: inf
ROOT
ATOM      1  C   UNL     1       5.412  -4.738   1.713  1.00  0.00     0.274 C 
ENDROOT
BRANCH   1   2
ATOM      2  O   UNL     1       4.058  -5.198   1.529  1.00  0.00    -0.461 OA
BRANCH   2   3
ATOM      3  C   UNL     1       3.456  -5.743   2.617  1.00  0.00     0.316 C 
ATOM      4  O   UNL     1       3.957  -5.771   3.739  1.00  0.00    -0.251 OA
BRANCH   3   5
ATOM      5  C   UNL     1       2.065  -6.289   2.371  1.00  0.00     0.199 C 
BRANCH   5   6
ATOM      6  S   UNL     1       1.550  -6.366   0.630  1.00  0.00    -0.094 SA
BRANCH   6   7
ATOM      7  C   UNL     1       0.551  -4.905   0.409  1.00  0.00     0.101 A 
ATOM      8  C   UNL     1      -0.113  -2.678   0.804  1.00  0.00     0.071 A 
ATOM      9  C   UNL     1       0.709  -3.741   1.134  1.00  0.00     0.062 A 
ATOM     10  N   UNL     1      -1.016  -2.764  -0.185  1.00  0.00    -0.230 NA
ATOM     11  C   UNL     1      -1.094  -3.926  -0.845  1.00  0.00     0.162 A 
ATOM     12  N   UNL     1      -0.361  -5.015  -0.575  1.00  0.00    -0.222 NA
BRANCH   8  13
ATOM     13  C   UNL     1      -0.067  -1.392   1.598  1.00  0.00     0.215 C 
BRANCH  13  14
ATOM     14  O   UNL     1      -0.515  -0.229   0.897  1.00  0.00    -0.378 OA
ATOM     15  C   UNL     1       0.428   0.210  -0.073  1.00  0.00     0.195 C 
ENDBRANCH  13  14
ENDBRANCH   8  13
BRANCH  11  16
ATOM     16  C   UNL     1      -2.025  -3.964  -1.957  1.00  0.00     0.038 A 
ATOM     17  C   UNL     1      -3.137  -4.812  -1.982  1.00  0.00     0.015 A 
ATOM     18  C   UNL     1      -1.874  -3.094  -3.035  1.00  0.00     0.123 A 
ATOM     19  C   UNL     1      -4.036  -4.745  -3.044  1.00  0.00     0.021 A 
ATOM     20  N   UNL     1      -2.719  -3.018  -4.093  1.00  0.00    -0.264 NA
ATOM     21  C   UNL     1      -3.785  -3.843  -4.066  1.00  0.00     0.111 A 
ENDBRANCH  11  16
ENDBRANCH   6   7
ENDBRANCH   5   6
ENDBRANCH   3   5
ENDBRANCH   2   3
ENDBRANCH   1   2
BRANCH   1  22
ATOM     22  C   UNL     1       5.457  -3.224   1.889  1.00  0.00     0.275 C 
BRANCH  22  23
ATOM     23  O   UNL     1       4.628  -2.831   2.999  1.00  0.00    -0.458 OA
BRANCH  23  24
ATOM     24  C   UNL     1       3.708  -1.882   2.720  1.00  0.00     0.338 C 
ATOM     25  O   UNL     1       3.529  -1.316   1.656  1.00  0.00    -0.246 OA
BRANCH  24  26
ATOM     26  C   UNL     1       2.844  -1.619   3.887  1.00  0.00     0.060 A 
ATOM     27  C   UNL     1       2.230  -2.664   4.584  1.00  0.00     0.016 A 
ATOM     28  C   UNL     1       2.493  -0.292   4.158  1.00  0.00     0.016 A 
ATOM     29  C   UNL     1       1.229  -2.381   5.516  1.00  0.00     0.010 A 
ATOM     30  C   UNL     1       1.531  -0.009   5.129  1.00  0.00     0.010 A 
ATOM     31  C   UNL     1       0.876  -1.050   5.802  1.00  0.00    -0.014 A 
BRANCH  31  32
ATOM     32  C   UNL     1      -0.118  -0.740   6.859  1.00  0.00     0.031 A 
ATOM     33  C   UNL     1      -1.471  -0.176   6.528  1.00  0.00     0.074 A 
ATOM     34  C   UNL     1       0.229  -0.939   8.144  1.00  0.00     0.049 A 
ATOM     35  N   UNL     1      -2.434   0.187   7.339  1.00  0.00    -0.248 NA
ATOM     36  C   UNL     1      -1.790  -0.003   5.105  1.00  0.00     0.031 C 
ATOM     37  C   UNL     1       1.513  -1.476   8.596  1.00  0.00     0.029 A 
ATOM     38  N   UNL     1      -0.463  -0.701   9.304  1.00  0.00    -0.354 N 
ATOM     39  C   UNL     1      -3.475   0.615   6.526  1.00  0.00     0.074 A 
ATOM     40  C   UNL     1      -3.022   0.487   5.157  1.00  0.00     0.031 C 
ATOM     41  C   UNL     1       1.519  -1.526   9.936  1.00  0.00     0.029 A 
ATOM     42  C   UNL     1       0.258  -0.985  10.436  1.00  0.00     0.049 A 
ATOM     43  H   UNL     1      -1.386  -0.359   9.323  1.00  0.00     0.167 HD
ATOM     44  C   UNL     1      -4.697   1.074   6.890  1.00  0.00     0.037 A 
ATOM     45  C   UNL     1      -0.046  -0.805  11.733  1.00  0.00     0.037 A 
ATOM     46  C   UNL     1      -5.141   1.236   8.250  1.00  0.00     0.049 A 
ATOM     47  C   UNL     1      -1.374  -0.218  12.108  1.00  0.00     0.074 A 
ATOM     48  C   UNL     1      -6.369   1.680   8.712  1.00  0.00     0.029 A 
ATOM     49  N   UNL     1      -4.364   0.978   9.368  1.00  0.00    -0.354 N 
ATOM     50  N   UNL     1      -2.358   0.158  11.330  1.00  0.00    -0.248 NA
ATOM     51  C   UNL     1      -1.629  -0.024  13.542  1.00  0.00     0.031 C 
ATOM     52  C   UNL     1      -6.322   1.724  10.110  1.00  0.00     0.029 A 
ATOM     53  C   UNL     1      -5.076   1.278  10.519  1.00  0.00     0.049 A 
ATOM     54  H   UNL     1      -3.443   0.631   9.348  1.00  0.00     0.167 HD
ATOM     55  C   UNL     1      -3.351   0.628  12.175  1.00  0.00     0.074 A 
ATOM     56  C   UNL     1      -2.857   0.476  13.529  1.00  0.00     0.031 C 
ATOM     57  C   UNL     1      -4.564   1.141  11.856  1.00  0.00     0.037 A 
BRANCH  44  58
ATOM     58  C   UNL     1      -5.651   1.449   5.798  1.00  0.00     0.064 A 
ATOM     59  C   UNL     1      -6.383   0.472   5.107  1.00  0.00     0.173 A 
ATOM     60  C   UNL     1      -5.896   2.796   5.494  1.00  0.00     0.173 A 
ATOM     61  F   UNL     1      -6.179  -0.829   5.362  1.00  0.00    -0.203 F 
ATOM     62  C   UNL     1      -7.325   0.832   4.147  1.00  0.00     0.198 A 
ATOM     63  C   UNL     1      -6.848   3.152   4.543  1.00  0.00     0.198 A 
ATOM     64  F   UNL     1      -5.224   3.765   6.134  1.00  0.00    -0.203 F 
ATOM     65  F   UNL     1      -8.009  -0.116   3.493  1.00  0.00    -0.200 F 
ATOM     66  C   UNL     1      -7.562   2.171   3.871  1.00  0.00     0.200 A 
ATOM     67  F   UNL     1      -7.083   4.446   4.284  1.00  0.00    -0.200 F 
ATOM     68  F   UNL     1      -8.481   2.517   2.958  1.00  0.00    -0.200 F 
ENDBRANCH  44  58
BRANCH  45  69
ATOM     69  C   UNL     1       0.950  -1.172  12.767  1.00  0.00     0.064 A 
ATOM     70  C   UNL     1       0.786  -2.323  13.546  1.00  0.00     0.173 A 
ATOM     71  C   UNL     1       2.104  -0.400  12.963  1.00  0.00     0.173 A 
ATOM     72  F   UNL     1      -0.313  -3.078  13.402  1.00  0.00    -0.203 F 
ATOM     73  C   UNL     1       1.744  -2.691  14.486  1.00  0.00     0.198 A 
ATOM     74  C   UNL     1       3.071  -0.780  13.889  1.00  0.00     0.198 A 
ATOM     75  F   UNL     1       2.302   0.709  12.235  1.00  0.00    -0.203 F 
ATOM     76  F   UNL     1       1.559  -3.788  15.234  1.00  0.00    -0.200 F 
ATOM     77  C   UNL     1       2.889  -1.925  14.651  1.00  0.00     0.200 A 
ATOM     78  F   UNL     1       4.181  -0.045  14.036  1.00  0.00    -0.200 F 
ATOM     79  F   UNL     1       3.818  -2.289  15.546  1.00  0.00    -0.200 F 
ENDBRANCH  45  69
BRANCH  57  80
ATOM     80  C   UNL     1      -5.435   1.574  12.994  1.00  0.00     0.064 A 
ATOM     81  C   UNL     1      -5.200   2.780  13.670  1.00  0.00     0.173 A 
ATOM     82  C   UNL     1      -6.518   0.784  13.405  1.00  0.00     0.173 A 
ATOM     83  F   UNL     1      -4.164   3.557  13.322  1.00  0.00    -0.203 F 
ATOM     84  C   UNL     1      -6.009   3.170  14.733  1.00  0.00     0.198 A 
ATOM     85  C   UNL     1      -7.335   1.186  14.458  1.00  0.00     0.198 A 
ATOM     86  F   UNL     1      -6.780  -0.378  12.788  1.00  0.00    -0.203 F 
ATOM     87  F   UNL     1      -5.744   4.307  15.392  1.00  0.00    -0.200 F 
ATOM     88  C   UNL     1      -7.077   2.375  15.124  1.00  0.00     0.200 A 
ATOM     89  F   UNL     1      -8.367   0.419  14.834  1.00  0.00    -0.200 F 
ATOM     90  F   UNL     1      -7.850   2.750  16.152  1.00  0.00    -0.200 F 
ENDBRANCH  57  80
ENDBRANCH  31  32
ENDBRANCH  24  26
ENDBRANCH  23  24
ENDBRANCH  22  23
ENDBRANCH   1  22
TORSDOF 16
