REMARK SMILES [NH3+][C@H]1C=C[C@@H](C(=O)NC2(CC(=O)OCCOC(=O)c3ccc(-c4c5nc(c(-c6c(F)c(F)c(F)c(F)c6F)c6ccc([nH]6)c(-c6c(F)c(F)c(F)c(F)c6F)c6nc(c(-c7c(F)c(F)c(F)c(F)c7F)c7ccc4[nH]7)C=C6)C=C5)cc3)CCCCC2)C1
REMARK SMILES IDX 14 1 13 2 11 3 12 4 10 5 9 6 82 7 86 8 83 9 85 10 84 11 8 12
REMARK SMILES IDX 6 13 7 14 5 16 2 17 3 18 87 19 4 20 1 21 15 25 16 26 17 27
REMARK SMILES IDX 18 28 19 29 20 30 81 31 21 32 80 33 22 34 23 35 24 36 74 37
REMARK SMILES IDX 25 38 79 39 73 40 75 41 26 42 78 43 72 44 71 45 27 47 59 48
REMARK SMILES IDX 39 49 58 50 40 51 43 52 57 53 76 54 41 55 42 56 56 58 77 59
REMARK SMILES IDX 44 60 28 61 29 62 37 63 30 64 31 65 35 66 38 67 32 68 33 69
REMARK SMILES IDX 36 70 34 71 60 72 61 73 69 74 62 75 63 76 67 77 70 78 64 79
REMARK SMILES IDX 65 80 68 81 66 82 45 83 46 84 54 85 47 86 48 87 52 88 55 89
REMARK SMILES IDX 49 90 50 91 53 92 51 93
REMARK H PARENT 8 15 1 22 1 23 1 24 75 46 43 57
REMARK Flexibility Score: inf
ROOT
ATOM      1  C   UNL     1       0.808   0.358  -6.839  1.00  0.00     0.274 C 
ENDROOT
BRANCH   1   2
ATOM      2  O   UNL     1       1.249   0.829  -5.546  1.00  0.00    -0.462 OA
BRANCH   2   3
ATOM      3  C   UNL     1       2.332   1.635  -5.564  1.00  0.00     0.308 C 
ATOM      4  O   UNL     1       2.926   1.966  -6.588  1.00  0.00    -0.252 OA
BRANCH   3   5
ATOM      5  C   UNL     1       2.839   2.089  -4.215  1.00  0.00     0.151 C 
BRANCH   5   6
ATOM      6  C   UNL     1       1.995   2.056  -2.898  1.00  0.00     0.051 C 
ATOM      7  C   UNL     1       2.912   2.724  -1.831  1.00  0.00     0.029 C 
ATOM      8  C   UNL     1       1.697   0.611  -2.468  1.00  0.00     0.029 C 
ATOM      9  C   UNL     1       4.156   1.911  -1.463  1.00  0.00     0.002 C 
ATOM     10  C   UNL     1       2.945  -0.211  -2.144  1.00  0.00     0.002 C 
ATOM     11  C   UNL     1       3.804   0.476  -1.087  1.00  0.00     0.000 C 
BRANCH   6  12
ATOM     12  N   UNL     1       0.741   2.854  -3.072  1.00  0.00    -0.350 N 
ATOM     13  C   UNL     1      -0.291   3.349  -2.342  1.00  0.00     0.227 C 
ATOM     14  O   UNL     1      -1.043   4.123  -2.959  1.00  0.00    -0.274 OA
ATOM     15  H   UNL     1       0.629   3.099  -4.019  1.00  0.00     0.164 HD
BRANCH  13  16
ATOM     16  C   UNL     1      -0.666   3.057  -0.883  1.00  0.00     0.107 C 
ATOM     17  C   UNL     1      -0.615   1.249   0.780  1.00  0.00     0.205 C 
ATOM     18  C   UNL     1       0.390   2.314   1.069  1.00  0.00     0.033 C 
ATOM     19  C   UNL     1      -1.179   1.641  -0.601  1.00  0.00     0.087 C 
ATOM     20  C   UNL     1       0.345   3.310   0.178  1.00  0.00    -0.012 C 
BRANCH  17  21
ATOM     21  N   UNL     1      -0.043  -0.085   0.828  1.00  0.00    -0.352 N 
ATOM     22  H   UNL     1       0.307  -0.271   1.768  1.00  0.00     0.345 HD
ATOM     23  H   UNL     1       0.725  -0.150   0.160  1.00  0.00     0.345 HD
ATOM     24  H   UNL     1      -0.759  -0.771   0.590  1.00  0.00     0.345 HD
ENDBRANCH  17  21
ENDBRANCH  13  16
ENDBRANCH   6  12
ENDBRANCH   5   6
ENDBRANCH   3   5
ENDBRANCH   2   3
ENDBRANCH   1   2
BRANCH   1  25
ATOM     25  C   UNL     1      -0.330   1.197  -7.442  1.00  0.00     0.275 C 
BRANCH  25  26
ATOM     26  O   UNL     1       0.062   2.541  -7.782  1.00  0.00    -0.458 OA
BRANCH  26  27
ATOM     27  C   UNL     1      -0.012   3.407  -6.753  1.00  0.00     0.338 C 
ATOM     28  O   UNL     1      -0.348   3.134  -5.601  1.00  0.00    -0.246 OA
BRANCH  27  29
ATOM     29  C   UNL     1       0.533   4.723  -7.085  1.00  0.00     0.060 A 
ATOM     30  C   UNL     1       1.655   5.147  -6.369  1.00  0.00     0.016 A 
ATOM     31  C   UNL     1      -0.118   5.590  -7.960  1.00  0.00     0.016 A 
ATOM     32  C   UNL     1       2.132   6.440  -6.508  1.00  0.00     0.010 A 
ATOM     33  C   UNL     1       0.367   6.895  -8.110  1.00  0.00     0.010 A 
ATOM     34  C   UNL     1       1.487   7.328  -7.376  1.00  0.00    -0.014 A 
BRANCH  34  35
ATOM     35  C   UNL     1       1.974   8.720  -7.468  1.00  0.00     0.031 A 
ATOM     36  C   UNL     1       1.204   9.827  -6.814  1.00  0.00     0.074 A 
ATOM     37  C   UNL     1       3.139   8.976  -8.090  1.00  0.00     0.049 A 
ATOM     38  N   UNL     1       1.398  11.119  -6.880  1.00  0.00    -0.248 NA
ATOM     39  C   UNL     1       0.067   9.428  -5.971  1.00  0.00     0.031 C 
ATOM     40  C   UNL     1       4.015   7.967  -8.685  1.00  0.00     0.029 A 
ATOM     41  N   UNL     1       3.788  10.162  -8.317  1.00  0.00    -0.354 N 
ATOM     42  C   UNL     1       0.388  11.690  -6.119  1.00  0.00     0.074 A 
ATOM     43  C   UNL     1      -0.412  10.604  -5.591  1.00  0.00     0.031 C 
ATOM     44  C   UNL     1       5.093   8.576  -9.204  1.00  0.00     0.029 A 
ATOM     45  C   UNL     1       4.952  10.018  -9.029  1.00  0.00     0.049 A 
ATOM     46  H   UNL     1       3.452  11.031  -8.000  1.00  0.00     0.167 HD
ATOM     47  C   UNL     1       0.151  13.003  -5.892  1.00  0.00     0.037 A 
ATOM     48  C   UNL     1       5.789  10.951  -9.517  1.00  0.00     0.037 A 
ATOM     49  C   UNL     1       0.967  14.074  -6.400  1.00  0.00     0.049 A 
ATOM     50  C   UNL     1       5.476  12.404  -9.295  1.00  0.00     0.074 A 
ATOM     51  C   UNL     1       0.799  15.439  -6.248  1.00  0.00     0.029 A 
ATOM     52  N   UNL     1       2.119  13.893  -7.153  1.00  0.00    -0.354 N 
ATOM     53  N   UNL     1       4.479  12.941  -8.636  1.00  0.00    -0.248 NA
ATOM     54  C   UNL     1       6.393  13.379  -9.901  1.00  0.00     0.031 C 
ATOM     55  C   UNL     1       1.838  16.086  -6.929  1.00  0.00     0.029 A 
ATOM     56  C   UNL     1       2.668  15.122  -7.480  1.00  0.00     0.049 A 
ATOM     57  H   UNL     1       2.490  13.021  -7.417  1.00  0.00     0.167 HD
ATOM     58  C   UNL     1       4.649  14.313  -8.741  1.00  0.00     0.074 A 
ATOM     59  C   UNL     1       5.856  14.528  -9.514  1.00  0.00     0.031 C 
ATOM     60  C   UNL     1       3.871  15.308  -8.248  1.00  0.00     0.037 A 
BRANCH  47  61
ATOM     61  C   UNL     1      -1.068  13.354  -5.096  1.00  0.00     0.064 A 
ATOM     62  C   UNL     1      -1.107  13.209  -3.702  1.00  0.00     0.173 A 
ATOM     63  C   UNL     1      -2.206  13.864  -5.739  1.00  0.00     0.173 A 
ATOM     64  F   UNL     1      -0.049  12.710  -3.046  1.00  0.00    -0.203 F 
ATOM     65  C   UNL     1      -2.250  13.547  -2.982  1.00  0.00     0.198 A 
ATOM     66  C   UNL     1      -3.339  14.220  -5.013  1.00  0.00     0.198 A 
ATOM     67  F   UNL     1      -2.216  14.022  -7.071  1.00  0.00    -0.203 F 
ATOM     68  F   UNL     1      -2.280  13.371  -1.653  1.00  0.00    -0.200 F 
ATOM     69  C   UNL     1      -3.362  14.057  -3.636  1.00  0.00     0.200 A 
ATOM     70  F   UNL     1      -4.410  14.718  -5.647  1.00  0.00    -0.200 F 
ATOM     71  F   UNL     1      -4.459  14.386  -2.940  1.00  0.00    -0.200 F 
ENDBRANCH  47  61
BRANCH  48  72
ATOM     72  C   UNL     1       6.980  10.532 -10.297  1.00  0.00     0.064 A 
ATOM     73  C   UNL     1       8.270  10.662  -9.767  1.00  0.00     0.173 A 
ATOM     74  C   UNL     1       6.849   9.978 -11.579  1.00  0.00     0.173 A 
ATOM     75  F   UNL     1       8.444  11.209  -8.556  1.00  0.00    -0.203 F 
ATOM     76  C   UNL     1       9.387  10.253 -10.493  1.00  0.00     0.198 A 
ATOM     77  C   UNL     1       7.964   9.549 -12.293  1.00  0.00     0.198 A 
ATOM     78  F   UNL     1       5.634   9.836 -12.128  1.00  0.00    -0.203 F 
ATOM     79  F   UNL     1      10.613  10.413  -9.977  1.00  0.00    -0.200 F 
ATOM     80  C   UNL     1       9.232   9.690 -11.752  1.00  0.00     0.200 A 
ATOM     81  F   UNL     1       7.809   8.996 -13.504  1.00  0.00    -0.200 F 
ATOM     82  F   UNL     1      10.307   9.289 -12.445  1.00  0.00    -0.200 F 
ENDBRANCH  48  72
BRANCH  60  83
ATOM     83  C   UNL     1       4.317  16.712  -8.514  1.00  0.00     0.064 A 
ATOM     84  C   UNL     1       4.121  17.312  -9.766  1.00  0.00     0.173 A 
ATOM     85  C   UNL     1       4.914  17.473  -7.499  1.00  0.00     0.173 A 
ATOM     86  F   UNL     1       3.570  16.615 -10.770  1.00  0.00    -0.203 F 
ATOM     87  C   UNL     1       4.524  18.625  -9.997  1.00  0.00     0.198 A 
ATOM     88  C   UNL     1       5.298  18.791  -7.728  1.00  0.00     0.198 A 
ATOM     89  F   UNL     1       5.119  16.939  -6.286  1.00  0.00    -0.203 F 
ATOM     90  F   UNL     1       4.359  19.171 -11.209  1.00  0.00    -0.200 F 
ATOM     91  C   UNL     1       5.106  19.364  -8.977  1.00  0.00     0.200 A 
ATOM     92  F   UNL     1       5.856  19.506  -6.742  1.00  0.00    -0.200 F 
ATOM     93  F   UNL     1       5.492  20.628  -9.201  1.00  0.00    -0.200 F 
ENDBRANCH  60  83
ENDBRANCH  34  35
ENDBRANCH  27  29
ENDBRANCH  26  27
ENDBRANCH  25  26
ENDBRANCH   1  25
TORSDOF 15
