REMARK SMILES CCCCCCNC(=O)Oc1cccc(-c2ccc([C@@H](C)C(=O)OCCOC(=O)c3ccc(-c4c5nc(c(-c6c(F)c(F)c(F)c(F)c6F)c6ccc([nH]6)c(-c6c(F)c(F)c(F)c(F)c6F)c6nc(c(-c7c(F)c(F)c(F)c(F)c7F)c7ccc4[nH]7)C=C6)C=C5)cc3)cc2F)c1
REMARK SMILES IDX 20 1 21 2 19 3 16 4 17 5 94 6 18 7 93 8 95 9 15 10 11 11
REMARK SMILES IDX 12 12 96 13 13 14 14 15 10 16 8 17 7 18 9 20 6 21 5 22 4 23
REMARK SMILES IDX 3 24 2 25 1 26 22 27 23 28 24 29 25 30 26 31 27 32 28 33
REMARK SMILES IDX 29 34 30 35 31 36 92 37 32 38 91 39 33 40 34 41 35 42 85 43
REMARK SMILES IDX 36 44 90 45 84 46 86 47 37 48 89 49 83 50 82 51 38 53 70 54
REMARK SMILES IDX 50 55 69 56 51 57 54 58 68 59 87 60 52 61 53 62 67 64 88 65
REMARK SMILES IDX 55 66 39 67 40 68 48 69 41 70 42 71 46 72 49 73 43 74 44 75
REMARK SMILES IDX 47 76 45 77 71 78 72 79 80 80 73 81 74 82 78 83 81 84 75 85
REMARK SMILES IDX 76 86 79 87 77 88 56 89 57 90 65 91 58 92 59 93 63 94 66 95
REMARK SMILES IDX 60 96 61 97 64 98 62 99
REMARK H PARENT 7 19 86 52 54 63
REMARK Flexibility Score: inf
ROOT
ATOM      1  C   UNL     1      -4.817  -3.949 -13.511  1.00  0.00     0.126 C 
ATOM      2  C   UNL     1      -6.010  -3.878 -14.462  1.00  0.00     0.025 C 
ENDROOT
BRANCH   1   3
ATOM      3  C   UNL     1      -4.935  -2.980 -12.344  1.00  0.00    -0.031 A 
ATOM      4  C   UNL     1      -5.114  -1.201 -10.124  1.00  0.00     0.018 A 
ATOM      5  C   UNL     1      -5.193  -0.730 -11.445  1.00  0.00     0.012 A 
ATOM      6  C   UNL     1      -4.943  -2.577  -9.943  1.00  0.00     0.131 A 
ATOM      7  C   UNL     1      -5.108  -1.603 -12.536  1.00  0.00     0.005 A 
ATOM      8  C   UNL     1      -4.864  -3.455 -11.025  1.00  0.00     0.044 A 
ATOM      9  F   UNL     1      -4.873  -3.097  -8.707  1.00  0.00    -0.206 F 
BRANCH   4  10
ATOM     10  C   UNL     1      -5.224  -0.271  -8.989  1.00  0.00    -0.012 A 
ATOM     11  C   UNL     1      -4.362   0.698  -6.939  1.00  0.00     0.133 A 
ATOM     12  C   UNL     1      -5.467   1.540  -6.839  1.00  0.00     0.047 A 
ATOM     13  C   UNL     1      -4.241  -0.215  -7.989  1.00  0.00     0.056 A 
ATOM     14  C   UNL     1      -6.453   1.491  -7.818  1.00  0.00     0.004 A 
ATOM     15  C   UNL     1      -6.330   0.595  -8.884  1.00  0.00     0.009 A 
BRANCH  11  16
ATOM     16  O   UNL     1      -3.437   0.740  -5.883  1.00  0.00    -0.410 OA
BRANCH  16  17
ATOM     17  C   UNL     1      -2.111   0.992  -6.199  1.00  0.00     0.412 C 
ATOM     18  N   UNL     1      -1.301   1.066  -5.098  1.00  0.00    -0.321 N 
ATOM     19  H   UNL     1      -0.342   1.212  -5.267  1.00  0.00     0.167 HD
ATOM     20  O   UNL     1      -1.652   1.159  -7.323  1.00  0.00    -0.224 OA
BRANCH  18  21
ATOM     21  C   UNL     1      -1.703   0.952  -3.711  1.00  0.00     0.119 C 
BRANCH  21  22
ATOM     22  C   UNL     1      -1.084  -0.266  -3.027  1.00  0.00     0.021 C 
BRANCH  22  23
ATOM     23  C   UNL     1       0.447  -0.241  -2.924  1.00  0.00     0.002 C 
BRANCH  23  24
ATOM     24  C   UNL     1       1.043   0.957  -2.176  1.00  0.00    -0.000 C 
BRANCH  24  25
ATOM     25  C   UNL     1       0.566   1.139  -0.733  1.00  0.00    -0.003 C 
ATOM     26  C   UNL     1       0.936  -0.022   0.176  1.00  0.00     0.004 C 
ENDBRANCH  24  25
ENDBRANCH  23  24
ENDBRANCH  22  23
ENDBRANCH  21  22
ENDBRANCH  18  21
ENDBRANCH  16  17
ENDBRANCH  11  16
ENDBRANCH   4  10
ENDBRANCH   1   3
BRANCH   1  27
ATOM     27  C   UNL     1      -3.515  -3.875 -14.302  1.00  0.00     0.313 C 
ATOM     28  O   UNL     1      -3.021  -4.864 -14.837  1.00  0.00    -0.252 OA
BRANCH  27  29
ATOM     29  O   UNL     1      -2.999  -2.621 -14.387  1.00  0.00    -0.462 OA
BRANCH  29  30
ATOM     30  C   UNL     1      -1.748  -2.473 -15.086  1.00  0.00     0.274 C 
BRANCH  30  31
ATOM     31  C   UNL     1      -0.567  -2.384 -14.116  1.00  0.00     0.275 C 
BRANCH  31  32
ATOM     32  O   UNL     1      -0.318  -3.650 -13.476  1.00  0.00    -0.458 OA
BRANCH  32  33
ATOM     33  C   UNL     1      -0.903  -3.797 -12.266  1.00  0.00     0.338 C 
ATOM     34  O   UNL     1      -1.556  -2.972 -11.652  1.00  0.00    -0.246 OA
BRANCH  33  35
ATOM     35  C   UNL     1      -0.769  -5.189 -11.814  1.00  0.00     0.060 A 
ATOM     36  C   UNL     1      -1.943  -5.922 -11.625  1.00  0.00     0.016 A 
ATOM     37  C   UNL     1       0.470  -5.739 -11.487  1.00  0.00     0.016 A 
ATOM     38  C   UNL     1      -1.892  -7.199 -11.081  1.00  0.00     0.010 A 
ATOM     39  C   UNL     1       0.524  -7.030 -10.950  1.00  0.00     0.010 A 
ATOM     40  C   UNL     1      -0.658  -7.757 -10.725  1.00  0.00    -0.014 A 
BRANCH  40  41
ATOM     41  C   UNL     1      -0.635  -9.083 -10.066  1.00  0.00     0.031 A 
ATOM     42  C   UNL     1      -0.393  -9.180  -8.589  1.00  0.00     0.074 A 
ATOM     43  C   UNL     1      -0.885 -10.190 -10.786  1.00  0.00     0.049 A 
ATOM     44  N   UNL     1      -0.338 -10.243  -7.826  1.00  0.00    -0.248 NA
ATOM     45  C   UNL     1      -0.180  -7.913  -7.874  1.00  0.00     0.031 C 
ATOM     46  C   UNL     1      -1.164 -10.214 -12.221  1.00  0.00     0.029 A 
ATOM     47  N   UNL     1      -0.951 -11.506 -10.407  1.00  0.00    -0.354 N 
ATOM     48  C   UNL     1      -0.071  -9.775  -6.547  1.00  0.00     0.074 A 
ATOM     49  C   UNL     1       0.049  -8.335  -6.639  1.00  0.00     0.031 C 
ATOM     50  C   UNL     1      -1.377 -11.483 -12.602  1.00  0.00     0.029 A 
ATOM     51  C   UNL     1      -1.218 -12.362 -11.445  1.00  0.00     0.049 A 
ATOM     52  H   UNL     1      -0.820 -11.808  -9.479  1.00  0.00     0.167 HD
ATOM     53  C   UNL     1       0.054 -10.484  -5.399  1.00  0.00     0.037 A 
ATOM     54  C   UNL     1      -1.310 -13.705 -11.464  1.00  0.00     0.037 A 
ATOM     55  C   UNL     1      -0.081 -11.915  -5.309  1.00  0.00     0.049 A 
ATOM     56  C   UNL     1      -1.140 -14.473 -10.183  1.00  0.00     0.074 A 
ATOM     57  C   UNL     1       0.006 -12.723  -4.189  1.00  0.00     0.029 A 
ATOM     58  N   UNL     1      -0.329 -12.753  -6.388  1.00  0.00    -0.354 N 
ATOM     59  N   UNL     1      -0.902 -14.022  -8.975  1.00  0.00    -0.248 NA
ATOM     60  C   UNL     1      -1.254 -15.935 -10.267  1.00  0.00     0.031 C 
ATOM     61  C   UNL     1      -0.150 -14.054  -4.596  1.00  0.00     0.029 A 
ATOM     62  C   UNL     1      -0.377 -14.071  -5.963  1.00  0.00     0.049 A 
ATOM     63  H   UNL     1      -0.452 -12.454  -7.318  1.00  0.00     0.167 HD
ATOM     64  C   UNL     1      -0.851 -15.139  -8.153  1.00  0.00     0.074 A 
ATOM     65  C   UNL     1      -1.100 -16.290  -8.998  1.00  0.00     0.031 C 
ATOM     66  C   UNL     1      -0.619 -15.205  -6.819  1.00  0.00     0.037 A 
BRANCH  53  67
ATOM     67  C   UNL     1       0.385  -9.717  -4.153  1.00  0.00     0.064 A 
ATOM     68  C   UNL     1      -0.556  -8.890  -3.523  1.00  0.00     0.173 A 
ATOM     69  C   UNL     1       1.662  -9.817  -3.579  1.00  0.00     0.173 A 
ATOM     70  F   UNL     1      -1.786  -8.750  -4.040  1.00  0.00    -0.203 F 
ATOM     71  C   UNL     1      -0.220  -8.165  -2.382  1.00  0.00     0.198 A 
ATOM     72  C   UNL     1       1.985  -9.111  -2.424  1.00  0.00     0.198 A 
ATOM     73  F   UNL     1       2.597 -10.598  -4.140  1.00  0.00    -0.203 F 
ATOM     74  F   UNL     1      -1.118  -7.340  -1.826  1.00  0.00    -0.200 F 
ATOM     75  C   UNL     1       1.048  -8.279  -1.831  1.00  0.00     0.200 A 
ATOM     76  F   UNL     1       3.208  -9.230  -1.887  1.00  0.00    -0.200 F 
ATOM     77  F   UNL     1       1.369  -7.578  -0.735  1.00  0.00    -0.200 F 
ENDBRANCH  53  67
BRANCH  54  78
ATOM     78  C   UNL     1      -1.578 -14.397 -12.749  1.00  0.00     0.064 A 
ATOM     79  C   UNL     1      -2.821 -14.988 -13.007  1.00  0.00     0.173 A 
ATOM     80  C   UNL     1      -0.605 -14.449 -13.758  1.00  0.00     0.173 A 
ATOM     81  F   UNL     1      -3.774 -14.983 -12.063  1.00  0.00    -0.203 F 
ATOM     82  C   UNL     1      -3.081 -15.608 -14.227  1.00  0.00     0.198 A 
ATOM     83  C   UNL     1      -0.874 -15.048 -14.986  1.00  0.00     0.198 A 
ATOM     84  F   UNL     1       0.600 -13.896 -13.557  1.00  0.00    -0.203 F 
ATOM     85  F   UNL     1      -4.269 -16.190 -14.441  1.00  0.00    -0.200 F 
ATOM     86  C   UNL     1      -2.111 -15.630 -15.219  1.00  0.00     0.200 A 
ATOM     87  F   UNL     1       0.062 -15.055 -15.945  1.00  0.00    -0.200 F 
ATOM     88  F   UNL     1      -2.367 -16.214 -16.397  1.00  0.00    -0.200 F 
ENDBRANCH  54  78
BRANCH  66  89
ATOM     89  C   UNL     1      -0.637 -16.566  -6.188  1.00  0.00     0.064 A 
ATOM     90  C   UNL     1       0.416 -17.472  -6.372  1.00  0.00     0.173 A 
ATOM     91  C   UNL     1      -1.701 -16.951  -5.358  1.00  0.00     0.173 A 
ATOM     92  F   UNL     1       1.448 -17.156  -7.169  1.00  0.00    -0.203 F 
ATOM     93  C   UNL     1       0.396 -18.724  -5.763  1.00  0.00     0.198 A 
ATOM     94  C   UNL     1      -1.706 -18.194  -4.731  1.00  0.00     0.198 A 
ATOM     95  F   UNL     1      -2.730 -16.117  -5.146  1.00  0.00    -0.203 F 
ATOM     96  F   UNL     1       1.394 -19.591  -5.984  1.00  0.00    -0.200 F 
ATOM     97  C   UNL     1      -0.661 -19.081  -4.939  1.00  0.00     0.200 A 
ATOM     98  F   UNL     1      -2.723 -18.534  -3.928  1.00  0.00    -0.200 F 
ATOM     99  F   UNL     1      -0.676 -20.285  -4.350  1.00  0.00    -0.200 F 
ENDBRANCH  66  89
ENDBRANCH  40  41
ENDBRANCH  33  35
ENDBRANCH  32  33
ENDBRANCH  31  32
ENDBRANCH  30  31
ENDBRANCH  29  30
ENDBRANCH  27  29
ENDBRANCH   1  27
TORSDOF 20
