REMARK SMILES Cc1ccc(S(=O)(=O)Nc2ccc(C(=O)CCC(=O)OCCOC(=O)c3ccc(-c4c5nc(c(-c6c(F)c(F)c(F)c(F)c6F)c6ccc([nH]6)c(-c6c(F)c(F)c(F)c(F)c6F)c6nc(c(-c7c(F)c(F)c(F)c(F)c7F)c7ccc4[nH]7)C=C6)C=C5)cc3)cc2)c(C)c1
REMARK SMILES IDX 18 1 19 2 17 3 16 4 14 5 15 6 13 7 10 8 11 9 90 10 12 11
REMARK SMILES IDX 89 12 9 13 6 15 7 16 8 17 5 18 1 19 2 20 3 21 93 22 4 23
REMARK SMILES IDX 91 24 92 25 20 26 21 27 22 28 23 29 24 30 25 31 26 32 27 33
REMARK SMILES IDX 88 34 28 35 87 36 29 37 30 38 31 39 81 40 32 41 86 42 80 43
REMARK SMILES IDX 82 44 33 45 85 46 79 47 78 48 34 50 66 51 46 52 65 53 47 54
REMARK SMILES IDX 50 55 64 56 83 57 48 58 49 59 63 61 84 62 51 63 35 64 36 65
REMARK SMILES IDX 44 66 37 67 38 68 42 69 45 70 39 71 40 72 43 73 41 74 67 75
REMARK SMILES IDX 68 76 76 77 69 78 70 79 74 80 77 81 71 82 72 83 75 84 73 85
REMARK SMILES IDX 52 86 53 87 61 88 54 89 55 90 59 91 62 92 56 93 57 94 60 95
REMARK SMILES IDX 58 96
REMARK H PARENT 9 14 82 49 50 60
REMARK Flexibility Score: inf
ROOT
ATOM      1  C   UNL     1       3.309  -3.163   0.306  1.00  0.00     0.306 C 
ATOM      2  O   UNL     1       3.672  -2.144  -0.268  1.00  0.00    -0.252 OA
ENDROOT
BRANCH   1   3
ATOM      3  C   UNL     1       4.094  -4.456   0.276  1.00  0.00     0.131 C 
BRANCH   3   4
ATOM      4  C   UNL     1       3.410  -5.667   0.917  1.00  0.00     0.093 C 
BRANCH   4   5
ATOM      5  C   UNL     1       2.477  -6.361  -0.061  1.00  0.00     0.163 C 
ATOM      6  O   UNL     1       2.891  -7.229  -0.827  1.00  0.00    -0.294 OA
BRANCH   5   7
ATOM      7  C   UNL     1       1.080  -5.867  -0.222  1.00  0.00     0.018 A 
ATOM      8  C   UNL     1      -1.304  -4.462  -0.698  1.00  0.00     0.049 A 
ATOM      9  C   UNL     1      -0.583  -5.010  -1.758  1.00  0.00     0.027 A 
ATOM     10  C   UNL     1      -0.936  -4.794   0.605  1.00  0.00     0.027 A 
ATOM     11  C   UNL     1       0.608  -5.702  -1.526  1.00  0.00     0.014 A 
ATOM     12  C   UNL     1       0.270  -5.482   0.849  1.00  0.00     0.014 A 
BRANCH   8  13
ATOM     13  N   UNL     1      -2.421  -3.652  -1.036  1.00  0.00    -0.280 N 
ATOM     14  H   UNL     1      -3.010  -3.986  -1.750  1.00  0.00     0.180 HD
BRANCH  13  15
ATOM     15  S   UNL     1      -2.838  -2.182  -0.342  1.00  0.00     0.262 S 
ATOM     16  O   UNL     1      -2.732  -2.317   1.097  1.00  0.00    -0.201 OA
ATOM     17  O   UNL     1      -4.087  -1.812  -0.973  1.00  0.00    -0.201 OA
BRANCH  15  18
ATOM     18  C   UNL     1      -1.643  -0.927  -0.823  1.00  0.00     0.090 A 
ATOM     19  C   UNL     1       1.928   1.468  -0.689  1.00  0.00     0.044 C 
ATOM     20  C   UNL     1       0.639   0.716  -0.865  1.00  0.00    -0.051 A 
ATOM     21  C   UNL     1       0.574  -0.424  -1.672  1.00  0.00     0.005 A 
ATOM     22  C   UNL     1      -0.517   1.132  -0.200  1.00  0.00     0.008 A 
ATOM     23  C   UNL     1      -0.565  -1.246  -1.654  1.00  0.00     0.023 A 
ATOM     24  C   UNL     1      -1.672   0.329  -0.176  1.00  0.00    -0.030 A 
ATOM     25  C   UNL     1      -2.901   0.917   0.465  1.00  0.00     0.046 C 
ENDBRANCH  15  18
ENDBRANCH  13  15
ENDBRANCH   8  13
ENDBRANCH   5   7
ENDBRANCH   4   5
ENDBRANCH   3   4
ENDBRANCH   1   3
BRANCH   1  26
ATOM     26  O   UNL     1       2.186  -3.274   1.047  1.00  0.00    -0.462 OA
BRANCH  26  27
ATOM     27  C   UNL     1       1.263  -2.177   1.017  1.00  0.00     0.274 C 
BRANCH  27  28
ATOM     28  C   UNL     1       0.392  -2.137   2.271  1.00  0.00     0.275 C 
BRANCH  28  29
ATOM     29  O   UNL     1       1.200  -1.742   3.373  1.00  0.00    -0.458 OA
BRANCH  29  30
ATOM     30  C   UNL     1       1.986  -2.728   3.849  1.00  0.00     0.338 C 
ATOM     31  O   UNL     1       1.917  -3.934   3.677  1.00  0.00    -0.246 OA
BRANCH  30  32
ATOM     32  C   UNL     1       3.112  -2.035   4.444  1.00  0.00     0.060 A 
ATOM     33  C   UNL     1       4.373  -2.162   3.853  1.00  0.00     0.016 A 
ATOM     34  C   UNL     1       2.877  -1.221   5.551  1.00  0.00     0.016 A 
ATOM     35  C   UNL     1       5.446  -1.506   4.429  1.00  0.00     0.010 A 
ATOM     36  C   UNL     1       3.944  -0.554   6.114  1.00  0.00     0.010 A 
ATOM     37  C   UNL     1       5.230  -0.737   5.578  1.00  0.00    -0.014 A 
BRANCH  37  38
ATOM     38  C   UNL     1       6.369  -0.235   6.350  1.00  0.00     0.031 A 
ATOM     39  C   UNL     1       6.723  -0.958   7.610  1.00  0.00     0.074 A 
ATOM     40  C   UNL     1       7.000   0.871   5.936  1.00  0.00     0.049 A 
ATOM     41  N   UNL     1       7.578  -0.634   8.540  1.00  0.00    -0.248 NA
ATOM     42  C   UNL     1       5.985  -2.207   7.874  1.00  0.00     0.031 C 
ATOM     43  C   UNL     1       6.686   1.611   4.714  1.00  0.00     0.029 A 
ATOM     44  N   UNL     1       8.012   1.579   6.516  1.00  0.00    -0.354 N 
ATOM     45  C   UNL     1       7.466  -1.625   9.505  1.00  0.00     0.074 A 
ATOM     46  C   UNL     1       6.432  -2.536   9.074  1.00  0.00     0.031 C 
ATOM     47  C   UNL     1       7.484   2.688   4.643  1.00  0.00     0.029 A 
ATOM     48  C   UNL     1       8.329   2.724   5.832  1.00  0.00     0.049 A 
ATOM     49  H   UNL     1       8.469   1.296   7.341  1.00  0.00     0.167 HD
ATOM     50  C   UNL     1       8.182  -1.754  10.645  1.00  0.00     0.037 A 
ATOM     51  C   UNL     1       9.191   3.700   6.163  1.00  0.00     0.037 A 
ATOM     52  C   UNL     1       9.196  -0.811  11.035  1.00  0.00     0.049 A 
ATOM     53  C   UNL     1       9.972   3.540   7.437  1.00  0.00     0.074 A 
ATOM     54  C   UNL     1      10.004  -0.815  12.155  1.00  0.00     0.029 A 
ATOM     55  N   UNL     1       9.531   0.321  10.299  1.00  0.00    -0.354 N 
ATOM     56  N   UNL     1       9.888   2.594   8.344  1.00  0.00    -0.248 NA
ATOM     57  C   UNL     1      10.974   4.568   7.729  1.00  0.00     0.031 C 
ATOM     58  C   UNL     1      10.799   0.337  12.116  1.00  0.00     0.029 A 
ATOM     59  C   UNL     1      10.527   1.031  10.944  1.00  0.00     0.049 A 
ATOM     60  H   UNL     1       9.119   0.579   9.442  1.00  0.00     0.167 HD
ATOM     61  C   UNL     1      10.838   2.898   9.307  1.00  0.00     0.074 A 
ATOM     62  C   UNL     1      11.498   4.111   8.858  1.00  0.00     0.031 C 
ATOM     63  C   UNL     1      11.144   2.242  10.456  1.00  0.00     0.037 A 
BRANCH  50  64
ATOM     64  C   UNL     1       7.857  -2.922  11.532  1.00  0.00     0.064 A 
ATOM     65  C   UNL     1       8.101  -4.247  11.130  1.00  0.00     0.173 A 
ATOM     66  C   UNL     1       7.256  -2.723  12.783  1.00  0.00     0.173 A 
ATOM     67  F   UNL     1       8.652  -4.500   9.933  1.00  0.00    -0.203 F 
ATOM     68  C   UNL     1       7.715  -5.324  11.926  1.00  0.00     0.198 A 
ATOM     69  C   UNL     1       6.902  -3.801  13.592  1.00  0.00     0.198 A 
ATOM     70  F   UNL     1       6.994  -1.481  13.218  1.00  0.00    -0.203 F 
ATOM     71  F   UNL     1       7.890  -6.577  11.486  1.00  0.00    -0.200 F 
ATOM     72  C   UNL     1       7.120  -5.100  13.158  1.00  0.00     0.200 A 
ATOM     73  F   UNL     1       6.333  -3.583  14.786  1.00  0.00    -0.200 F 
ATOM     74  F   UNL     1       6.741  -6.136  13.919  1.00  0.00    -0.200 F 
ENDBRANCH  50  64
BRANCH  51  75
ATOM     75  C   UNL     1       9.350   4.867   5.263  1.00  0.00     0.064 A 
ATOM     76  C   UNL     1      10.508   5.032   4.493  1.00  0.00     0.173 A 
ATOM     77  C   UNL     1       8.315   5.801   5.094  1.00  0.00     0.173 A 
ATOM     78  F   UNL     1      11.527   4.170   4.623  1.00  0.00    -0.203 F 
ATOM     79  C   UNL     1      10.629   6.089   3.592  1.00  0.00     0.198 A 
ATOM     80  C   UNL     1       8.426   6.841   4.174  1.00  0.00     0.198 A 
ATOM     81  F   UNL     1       7.178   5.678   5.795  1.00  0.00    -0.203 F 
ATOM     82  F   UNL     1      11.755   6.235   2.882  1.00  0.00    -0.200 F 
ATOM     83  C   UNL     1       9.584   6.987   3.427  1.00  0.00     0.200 A 
ATOM     84  F   UNL     1       7.405   7.692   4.001  1.00  0.00    -0.200 F 
ATOM     85  F   UNL     1       9.693   7.989   2.544  1.00  0.00    -0.200 F 
ENDBRANCH  51  75
BRANCH  63  86
ATOM     86  C   UNL     1      12.253   2.821  11.280  1.00  0.00     0.064 A 
ATOM     87  C   UNL     1      12.086   4.009  12.006  1.00  0.00     0.173 A 
ATOM     88  C   UNL     1      13.486   2.159  11.368  1.00  0.00     0.173 A 
ATOM     89  F   UNL     1      10.928   4.684  11.940  1.00  0.00    -0.203 F 
ATOM     90  C   UNL     1      13.127   4.530  12.767  1.00  0.00     0.198 A 
ATOM     91  C   UNL     1      14.514   2.666  12.156  1.00  0.00     0.198 A 
ATOM     92  F   UNL     1      13.689   1.014  10.698  1.00  0.00    -0.203 F 
ATOM     93  F   UNL     1      12.966   5.695  13.409  1.00  0.00    -0.200 F 
ATOM     94  C   UNL     1      14.337   3.855  12.847  1.00  0.00     0.200 A 
ATOM     95  F   UNL     1      15.676   2.005  12.245  1.00  0.00    -0.200 F 
ATOM     96  F   UNL     1      15.337   4.357  13.584  1.00  0.00    -0.200 F 
ENDBRANCH  63  86
ENDBRANCH  37  38
ENDBRANCH  30  32
ENDBRANCH  29  30
ENDBRANCH  28  29
ENDBRANCH  27  28
ENDBRANCH  26  27
ENDBRANCH   1  26
TORSDOF 17
