REMARK SMILES O=C(OCCOC(=O)[C@@H](Cc1ccc(O)cc1)Nc1c2ccccc2nc2ccccc12)c1ccc(-c2c3nc(c(-c4c(F)c(F)c(F)c(F)c4F)c4ccc([nH]4)c(-c4c(F)c(F)c(F)c(F)c4F)c4nc(c(-c5c(F)c(F)c(F)c(F)c5F)c5ccc2[nH]5)C=C4)C=C3)cc1
REMARK SMILES IDX 5 1 4 2 3 3 2 4 1 5 33 6 34 7 95 8 35 9 94 10 36 11 37 12
REMARK SMILES IDX 38 13 88 14 39 15 93 16 87 17 89 18 40 19 92 20 86 21 85 22
REMARK SMILES IDX 41 24 73 25 53 26 72 27 54 28 57 29 71 30 90 31 55 32 56 33
REMARK SMILES IDX 70 35 91 36 58 37 42 38 43 39 51 40 44 41 45 42 49 43 52 44
REMARK SMILES IDX 46 45 47 46 50 47 48 48 74 49 75 50 83 51 76 52 77 53 81 54
REMARK SMILES IDX 84 55 78 56 79 57 82 58 80 59 59 60 60 61 68 62 61 63 62 64
REMARK SMILES IDX 66 65 69 66 63 67 64 68 67 69 65 70 6 71 7 72 8 73 9 74
REMARK SMILES IDX 10 75 11 76 12 77 17 78 13 79 16 80 14 81 15 82 18 84 19 86
REMARK SMILES IDX 20 87 32 88 21 89 25 90 27 91 31 92 22 93 24 94 26 95 28 96
REMARK SMILES IDX 30 97 23 98 29 99
REMARK H PARENT 89 23 57 34 15 83 18 85
REMARK Flexibility Score: inf
ROOT
ATOM      1  C   UNL     1       3.637  -2.939  -0.251  1.00  0.00     0.274 C 
ENDROOT
BRANCH   1   2
ATOM      2  C   UNL     1       4.380  -2.047   0.756  1.00  0.00     0.275 C 
BRANCH   2   3
ATOM      3  O   UNL     1       3.485  -1.142   1.391  1.00  0.00    -0.458 OA
BRANCH   3   4
ATOM      4  C   UNL     1       3.147   0.063   0.920  1.00  0.00     0.338 C 
ATOM      5  O   UNL     1       2.238   0.689   1.463  1.00  0.00    -0.246 OA
BRANCH   4   6
ATOM      6  C   UNL     1       3.764   0.703  -0.277  1.00  0.00     0.060 A 
ATOM      7  C   UNL     1       4.523  -0.037  -1.797  1.00  0.00     0.016 A 
ATOM      8  C   UNL     1       3.264   2.443  -0.312  1.00  0.00     0.016 A 
ATOM      9  C   UNL     1       4.829   1.026  -3.269  1.00  0.00     0.010 A 
ATOM     10  C   UNL     1       3.400   3.394  -1.841  1.00  0.00     0.010 A 
ATOM     11  C   UNL     1       4.293   2.766  -3.284  1.00  0.00    -0.014 A 
BRANCH  11  12
ATOM     12  C   UNL     1       4.654   3.684  -4.423  1.00  0.00     0.031 A 
ATOM     13  C   UNL     1       5.224   5.075  -4.197  1.00  0.00     0.074 A 
ATOM     14  C   UNL     1       4.583   3.236  -5.689  1.00  0.00     0.049 A 
ATOM     15  N   UNL     1       6.092   5.743  -4.925  1.00  0.00    -0.248 NA
ATOM     16  C   UNL     1       4.830   5.813  -2.995  1.00  0.00     0.031 C 
ATOM     17  C   UNL     1       3.985   1.973  -6.101  1.00  0.00     0.029 A 
ATOM     18  N   UNL     1       5.014   3.792  -6.868  1.00  0.00    -0.354 N 
ATOM     19  C   UNL     1       6.455   6.851  -4.161  1.00  0.00     0.074 A 
ATOM     20  C   UNL     1       5.707   6.796  -2.938  1.00  0.00     0.031 C 
ATOM     21  C   UNL     1       4.136   1.811  -7.421  1.00  0.00     0.029 A 
ATOM     22  C   UNL     1       4.787   2.996  -7.966  1.00  0.00     0.049 A 
ATOM     23  H   UNL     1       5.446   4.675  -6.923  1.00  0.00     0.167 HD
ATOM     24  C   UNL     1       7.254   7.899  -4.465  1.00  0.00     0.037 A 
ATOM     25  C   UNL     1       5.051   3.211  -9.269  1.00  0.00     0.037 A 
ATOM     26  C   UNL     1       7.627   8.207  -5.811  1.00  0.00     0.049 A 
ATOM     27  C   UNL     1       5.749   4.485  -9.651  1.00  0.00     0.074 A 
ATOM     28  C   UNL     1       8.226   9.349  -6.304  1.00  0.00     0.029 A 
ATOM     29  N   UNL     1       7.291   7.414  -6.900  1.00  0.00    -0.354 N 
ATOM     30  N   UNL     1       6.223   5.429  -8.871  1.00  0.00    -0.248 NA
ATOM     31  C   UNL     1       5.935   4.740 -11.084  1.00  0.00     0.031 C 
ATOM     32  C   UNL     1       8.137   9.301  -7.699  1.00  0.00     0.029 A 
ATOM     33  C   UNL     1       7.585   8.082  -8.072  1.00  0.00     0.049 A 
ATOM     34  H   UNL     1       6.901   6.512  -6.845  1.00  0.00     0.167 HD
ATOM     35  C   UNL     1       6.762   6.391  -9.713  1.00  0.00     0.074 A 
ATOM     36  C   UNL     1       6.570   5.905 -11.066  1.00  0.00     0.031 C 
ATOM     37  C   UNL     1       7.359   7.567  -9.399  1.00  0.00     0.037 A 
BRANCH  24  38
ATOM     38  C   UNL     1       7.556   8.860  -3.346  1.00  0.00     0.064 A 
ATOM     39  C   UNL     1       8.429   8.504  -2.303  1.00  0.00     0.173 A 
ATOM     40  C   UNL     1       6.885  10.087  -3.245  1.00  0.00     0.173 A 
ATOM     41  F   UNL     1       9.068   7.325  -2.330  1.00  0.00    -0.203 F 
ATOM     42  C   UNL     1       8.596   9.330  -1.191  1.00  0.00     0.198 A 
ATOM     43  C   UNL     1       7.065  10.916  -2.139  1.00  0.00     0.198 A 
ATOM     44  F   UNL     1       6.014  10.461  -4.193  1.00  0.00    -0.203 F 
ATOM     45  F   UNL     1       9.387   8.943  -0.180  1.00  0.00    -0.200 F 
ATOM     46  C   UNL     1       7.911  10.533  -1.109  1.00  0.00     0.200 A 
ATOM     47  F   UNL     1       6.389  12.070  -2.052  1.00  0.00    -0.200 F 
ATOM     48  F   UNL     1       8.044  11.310  -0.025  1.00  0.00    -0.200 F 
ENDBRANCH  24  38
BRANCH  25  49
ATOM     49  C   UNL     1       4.604   2.203 -10.271  1.00  0.00     0.064 A 
ATOM     50  C   UNL     1       5.516   1.428 -10.998  1.00  0.00     0.173 A 
ATOM     51  C   UNL     1       3.235   1.938 -10.456  1.00  0.00     0.173 A 
ATOM     52  F   UNL     1       6.832   1.653 -10.880  1.00  0.00    -0.203 F 
ATOM     53  C   UNL     1       5.077   0.415 -11.854  1.00  0.00     0.198 A 
ATOM     54  C   UNL     1       2.800   0.907 -11.284  1.00  0.00     0.198 A 
ATOM     55  F   UNL     1       2.319   2.658  -9.791  1.00  0.00    -0.203 F 
ATOM     56  F   UNL     1       5.968  -0.304 -12.550  1.00  0.00    -0.200 F 
ATOM     57  C   UNL     1       3.722   0.145 -11.983  1.00  0.00     0.200 A 
ATOM     58  F   UNL     1       1.491   0.643 -11.393  1.00  0.00    -0.200 F 
ATOM     59  F   UNL     1       3.306  -0.848 -12.781  1.00  0.00    -0.200 F 
ENDBRANCH  25  49
BRANCH  37  60
ATOM     60  C   UNL     1       7.854   8.416 -10.528  1.00  0.00     0.064 A 
ATOM     61  C   UNL     1       6.976   9.152 -11.334  1.00  0.00     0.173 A 
ATOM     62  C   UNL     1       9.233   8.590 -10.713  1.00  0.00     0.173 A 
ATOM     63  F   UNL     1       5.649   9.014 -11.191  1.00  0.00    -0.203 F 
ATOM     64  C   UNL     1       7.464  10.031 -12.295  1.00  0.00     0.198 A 
ATOM     65  C   UNL     1       9.717   9.491 -11.653  1.00  0.00     0.198 A 
ATOM     66  F   UNL     1      10.108   7.916  -9.951  1.00  0.00    -0.203 F 
ATOM     67  F   UNL     1       6.611  10.712 -13.072  1.00  0.00    -0.200 F 
ATOM     68  C   UNL     1       8.832  10.209 -12.445  1.00  0.00     0.200 A 
ATOM     69  F   UNL     1      11.037   9.679 -11.780  1.00  0.00    -0.200 F 
ATOM     70  F   UNL     1       9.300  11.078 -13.351  1.00  0.00    -0.200 F 
ENDBRANCH  37  60
ENDBRANCH  11  12
ENDBRANCH   4   6
ENDBRANCH   3   4
ENDBRANCH   2   3
ENDBRANCH   1   2
BRANCH   1  71
ATOM     71  O   UNL     1       3.246  -2.238  -1.461  1.00  0.00    -0.461 OA
BRANCH  71  72
ATOM     72  C   UNL     1       2.141  -1.428  -1.432  1.00  0.00     0.329 C 
ATOM     73  O   UNL     1       1.230  -1.573  -0.627  1.00  0.00    -0.250 OA
BRANCH  72  74
ATOM     74  C   UNL     1       2.230  -0.229  -2.468  1.00  0.00     0.194 C 
BRANCH  74  75
ATOM     75  C   UNL     1       3.143   1.350  -2.111  1.00  0.00     0.072 C 
BRANCH  75  76
ATOM     76  C   UNL     1       5.089   1.964  -1.389  1.00  0.00    -0.045 A 
ATOM     77  C   UNL     1       6.327   1.094  -1.083  1.00  0.00     0.007 A 
ATOM     78  C   UNL     1       5.707   3.305  -1.232  1.00  0.00     0.007 A 
ATOM     79  C   UNL     1       7.683   1.385  -1.346  1.00  0.00     0.046 A 
ATOM     80  C   UNL     1       7.082   3.635  -1.464  1.00  0.00     0.046 A 
ATOM     81  C   UNL     1       8.023   2.660  -1.674  1.00  0.00     0.115 A 
BRANCH  81  82
ATOM     82  O   UNL     1       9.271   2.982  -2.090  1.00  0.00    -0.508 OA
ATOM     83  H   UNL     1       9.906   2.308  -2.230  1.00  0.00     0.293 HD
ENDBRANCH  81  82
ENDBRANCH  75  76
ENDBRANCH  74  75
BRANCH  74  84
ATOM     84  N   UNL     1       2.567  -0.709  -3.830  1.00  0.00    -0.371 N 
ATOM     85  H   UNL     1       3.511  -0.958  -3.956  1.00  0.00     0.161 HD
BRANCH  84  86
ATOM     86  C   UNL     1       1.764  -0.867  -4.965  1.00  0.00     0.054 A 
ATOM     87  C   UNL     1       0.709   0.027  -5.360  1.00  0.00     0.024 A 
ATOM     88  C   UNL     1       2.059  -1.991  -5.812  1.00  0.00     0.024 A 
ATOM     89  C   UNL     1       0.314   1.232  -4.712  1.00  0.00     0.012 A 
ATOM     90  C   UNL     1       0.032  -0.274  -6.565  1.00  0.00     0.073 A 
ATOM     91  C   UNL     1       1.303  -2.148  -6.988  1.00  0.00     0.073 A 
ATOM     92  C   UNL     1       3.068  -2.962  -5.555  1.00  0.00     0.012 A 
ATOM     93  C   UNL     1      -0.703   2.060  -5.202  1.00  0.00     0.001 A 
ATOM     94  C   UNL     1      -0.977   0.556  -7.036  1.00  0.00     0.029 A 
ATOM     95  N   UNL     1       0.322  -1.320  -7.339  1.00  0.00    -0.248 NA
ATOM     96  C   UNL     1       1.577  -3.199  -7.853  1.00  0.00     0.029 A 
ATOM     97  C   UNL     1       3.336  -4.006  -6.441  1.00  0.00     0.001 A 
ATOM     98  C   UNL     1      -1.355   1.717  -6.370  1.00  0.00     0.002 A 
ATOM     99  C   UNL     1       2.588  -4.123  -7.598  1.00  0.00     0.002 A 
ENDBRANCH  84  86
ENDBRANCH  74  84
ENDBRANCH  72  74
ENDBRANCH  71  72
ENDBRANCH   1  71
TORSDOF 16
