REMARK SMILES O=C(OCCOC(=O)c1ccc(-c2c3nc(c(-c4c(F)c(F)c(F)c(F)c4F)c4ccc([nH]4)c(-c4c(F)c(F)c(F)c(F)c4F)c4nc(c(-c5c(F)c(F)c(F)c(F)c5F)c5ccc2[nH]5)C=C4)C=C3)cc1)c1ccc(C[C@H]2CCN(C(=O)Cc3cccc(O)c3)C2)cc1
REMARK SMILES IDX 1 1 2 2 3 3 4 4 5 5 6 6 7 7 8 8 9 9 10 10 71 11 11 12 70 13
REMARK SMILES IDX 12 14 13 15 14 16 64 17 15 18 69 19 63 20 65 21 16 22 68 23
REMARK SMILES IDX 62 24 61 25 17 27 49 28 29 29 48 30 30 31 33 32 47 33 66 34
REMARK SMILES IDX 31 35 32 36 46 38 67 39 34 40 18 41 19 42 27 43 20 44 21 45
REMARK SMILES IDX 25 46 28 47 22 48 23 49 26 50 24 51 50 52 51 53 59 54 52 55
REMARK SMILES IDX 53 56 57 57 60 58 54 59 55 60 58 61 56 62 35 63 36 64 44 65
REMARK SMILES IDX 37 66 38 67 42 68 45 69 39 70 40 71 43 72 41 73 72 74 73 75
REMARK SMILES IDX 93 76 74 77 92 78 75 79 76 80 77 81 78 82 91 83 79 84 80 85
REMARK SMILES IDX 81 86 82 87 83 88 84 89 85 90 90 91 86 92 88 93 87 94 89 95
REMARK H PARENT 65 26 33 37 89 96
REMARK Flexibility Score: inf
ROOT
ATOM      1  O   UNL     1       6.645  -3.487   9.120  1.00  0.00    -0.246 OA
ATOM      2  C   UNL     1       7.279  -2.846   8.284  1.00  0.00     0.338 C 
ENDROOT
BRANCH   2   3
ATOM      3  O   UNL     1       8.022  -1.788   8.700  1.00  0.00    -0.458 OA
BRANCH   3   4
ATOM      4  C   UNL     1       8.461  -0.623   7.964  1.00  0.00     0.275 C 
BRANCH   4   5
ATOM      5  C   UNL     1       9.976  -0.646   7.666  1.00  0.00     0.275 C 
BRANCH   5   6
ATOM      6  O   UNL     1      10.411  -1.895   7.087  1.00  0.00    -0.458 OA
BRANCH   6   7
ATOM      7  C   UNL     1      10.774  -2.849   7.981  1.00  0.00     0.338 C 
ATOM      8  O   UNL     1      10.991  -2.666   9.168  1.00  0.00    -0.246 OA
BRANCH   7   9
ATOM      9  C   UNL     1      10.738  -4.206   7.368  1.00  0.00     0.060 A 
ATOM     10  C   UNL     1      10.405  -5.275   8.208  1.00  0.00     0.016 A 
ATOM     11  C   UNL     1      11.023  -4.458   6.021  1.00  0.00     0.016 A 
ATOM     12  C   UNL     1      10.435  -6.589   7.733  1.00  0.00     0.010 A 
ATOM     13  C   UNL     1      11.017  -5.778   5.535  1.00  0.00     0.010 A 
ATOM     14  C   UNL     1      10.784  -6.860   6.403  1.00  0.00    -0.014 A 
BRANCH  14  15
ATOM     15  C   UNL     1      11.089  -8.267   6.009  1.00  0.00     0.031 A 
ATOM     16  C   UNL     1      12.531  -8.688   5.859  1.00  0.00     0.074 A 
ATOM     17  C   UNL     1      10.124  -9.198   5.875  1.00  0.00     0.049 A 
ATOM     18  N   UNL     1      13.038  -9.885   5.682  1.00  0.00    -0.248 NA
ATOM     19  C   UNL     1      13.537  -7.617   5.912  1.00  0.00     0.031 C 
ATOM     20  C   UNL     1       8.688  -8.957   5.987  1.00  0.00     0.029 A 
ATOM     21  N   UNL     1      10.219 -10.550   5.630  1.00  0.00    -0.354 N 
ATOM     22  C   UNL     1      14.414  -9.708   5.619  1.00  0.00     0.074 A 
ATOM     23  C   UNL     1      14.661  -8.286   5.708  1.00  0.00     0.031 C 
ATOM     24  C   UNL     1       8.036 -10.124   5.830  1.00  0.00     0.029 A 
ATOM     25  C   UNL     1       9.007 -11.196   5.603  1.00  0.00     0.049 A 
ATOM     26  H   UNL     1      11.077 -11.011   5.487  1.00  0.00     0.167 HD
ATOM     27  C   UNL     1      15.394 -10.640   5.530  1.00  0.00     0.037 A 
ATOM     28  C   UNL     1       8.713 -12.502   5.435  1.00  0.00     0.037 A 
ATOM     29  C   UNL     1      15.175 -12.059   5.449  1.00  0.00     0.049 A 
ATOM     30  C   UNL     1       9.822 -13.518   5.288  1.00  0.00     0.074 A 
ATOM     31  C   UNL     1      16.116 -13.074   5.397  1.00  0.00     0.029 A 
ATOM     32  N   UNL     1      13.931 -12.664   5.397  1.00  0.00    -0.354 N 
ATOM     33  N   UNL     1      11.120 -13.347   5.327  1.00  0.00    -0.248 NA
ATOM     34  C   UNL     1       9.414 -14.920   5.095  1.00  0.00     0.031 C 
ATOM     35  C   UNL     1      15.440 -14.291   5.261  1.00  0.00     0.029 A 
ATOM     36  C   UNL     1      14.079 -14.038   5.286  1.00  0.00     0.049 A 
ATOM     37  H   UNL     1      13.069 -12.189   5.433  1.00  0.00     0.167 HD
ATOM     38  C   UNL     1      11.678 -14.617   5.217  1.00  0.00     0.074 A 
ATOM     39  C   UNL     1      10.579 -15.550   5.112  1.00  0.00     0.031 C 
ATOM     40  C   UNL     1      12.986 -14.973   5.211  1.00  0.00     0.037 A 
BRANCH  27  41
ATOM     41  C   UNL     1      16.810 -10.144   5.513  1.00  0.00     0.064 A 
ATOM     42  C   UNL     1      17.412  -9.606   6.661  1.00  0.00     0.173 A 
ATOM     43  C   UNL     1      17.580 -10.230   4.345  1.00  0.00     0.173 A 
ATOM     44  F   UNL     1      16.711  -9.490   7.800  1.00  0.00    -0.203 F 
ATOM     45  C   UNL     1      18.724  -9.144   6.631  1.00  0.00     0.198 A 
ATOM     46  C   UNL     1      18.902  -9.794   4.326  1.00  0.00     0.198 A 
ATOM     47  F   UNL     1      17.052 -10.740   3.222  1.00  0.00    -0.203 F 
ATOM     48  F   UNL     1      19.262  -8.585   7.724  1.00  0.00    -0.200 F 
ATOM     49  C   UNL     1      19.470  -9.244   5.465  1.00  0.00     0.200 A 
ATOM     50  F   UNL     1      19.625  -9.902   3.203  1.00  0.00    -0.200 F 
ATOM     51  F   UNL     1      20.734  -8.801   5.438  1.00  0.00    -0.200 F 
ENDBRANCH  27  41
BRANCH  28  52
ATOM     52  C   UNL     1       7.296 -12.957   5.429  1.00  0.00     0.064 A 
ATOM     53  C   UNL     1       6.788 -13.750   6.469  1.00  0.00     0.173 A 
ATOM     54  C   UNL     1       6.446 -12.666   4.354  1.00  0.00     0.173 A 
ATOM     55  F   UNL     1       7.574 -14.082   7.503  1.00  0.00    -0.203 F 
ATOM     56  C   UNL     1       5.492 -14.259   6.418  1.00  0.00     0.198 A 
ATOM     57  C   UNL     1       5.141 -13.153   4.317  1.00  0.00     0.198 A 
ATOM     58  F   UNL     1       6.886 -11.917   3.332  1.00  0.00    -0.203 F 
ATOM     59  F   UNL     1       5.052 -15.066   7.393  1.00  0.00    -0.200 F 
ATOM     60  C   UNL     1       4.668 -13.959   5.343  1.00  0.00     0.200 A 
ATOM     61  F   UNL     1       4.346 -12.857   3.280  1.00  0.00    -0.200 F 
ATOM     62  F   UNL     1       3.426 -14.458   5.288  1.00  0.00    -0.200 F 
ENDBRANCH  28  52
BRANCH  40  63
ATOM     63  C   UNL     1      13.317 -16.439   5.154  1.00  0.00     0.064 A 
ATOM     64  C   UNL     1      13.103 -17.207   4.000  1.00  0.00     0.173 A 
ATOM     65  C   UNL     1      13.898 -17.075   6.263  1.00  0.00     0.173 A 
ATOM     66  F   UNL     1      12.542 -16.653   2.915  1.00  0.00    -0.203 F 
ATOM     67  C   UNL     1      13.428 -18.562   3.969  1.00  0.00     0.198 A 
ATOM     68  C   UNL     1      14.252 -18.422   6.218  1.00  0.00     0.198 A 
ATOM     69  F   UNL     1      14.136 -16.387   7.390  1.00  0.00    -0.203 F 
ATOM     70  F   UNL     1      13.167 -19.286   2.872  1.00  0.00    -0.200 F 
ATOM     71  C   UNL     1      14.009 -19.166   5.074  1.00  0.00     0.200 A 
ATOM     72  F   UNL     1      14.828 -18.999   7.282  1.00  0.00    -0.200 F 
ATOM     73  F   UNL     1      14.327 -20.467   5.039  1.00  0.00    -0.200 F 
ENDBRANCH  40  63
ENDBRANCH  14  15
ENDBRANCH   7   9
ENDBRANCH   6   7
ENDBRANCH   5   6
ENDBRANCH   4   5
ENDBRANCH   3   4
ENDBRANCH   2   3
BRANCH   2  74
ATOM     74  C   UNL     1       7.290  -3.365   6.876  1.00  0.00     0.060 A 
ATOM     75  C   UNL     1       7.994  -2.786   5.836  1.00  0.00     0.016 A 
ATOM     76  C   UNL     1       6.631  -4.578   6.593  1.00  0.00     0.016 A 
ATOM     77  C   UNL     1       8.129  -3.416   4.610  1.00  0.00     0.004 A 
ATOM     78  C   UNL     1       6.653  -5.147   5.302  1.00  0.00     0.004 A 
ATOM     79  C   UNL     1       7.391  -4.546   4.283  1.00  0.00    -0.048 A 
BRANCH  79  80
ATOM     80  C   UNL     1       7.409  -5.029   2.851  1.00  0.00     0.041 C 
BRANCH  80  81
ATOM     81  C   UNL     1       6.812  -4.001   1.861  1.00  0.00     0.015 C 
ATOM     82  C   UNL     1       7.476  -2.613   1.861  1.00  0.00     0.027 C 
ATOM     83  C   UNL     1       6.966  -4.418   0.389  1.00  0.00     0.123 C 
ATOM     84  C   UNL     1       7.091  -2.024   0.534  1.00  0.00     0.120 C 
ATOM     85  N   UNL     1       7.137  -3.169  -0.349  1.00  0.00    -0.342 N 
BRANCH  85  86
ATOM     86  C   UNL     1       7.346  -3.142  -1.711  1.00  0.00     0.227 C 
ATOM     87  O   UNL     1       7.405  -4.180  -2.371  1.00  0.00    -0.275 OA
BRANCH  86  88
ATOM     88  C   UNL     1       7.551  -1.781  -2.376  1.00  0.00     0.135 C 
BRANCH  88  89
ATOM     89  C   UNL     1       6.427  -0.782  -2.182  1.00  0.00    -0.035 A 
ATOM     90  C   UNL     1       6.718   0.591  -2.129  1.00  0.00     0.004 A 
ATOM     91  C   UNL     1       5.095  -1.198  -2.029  1.00  0.00     0.050 A 
ATOM     92  C   UNL     1       5.709   1.520  -1.869  1.00  0.00     0.004 A 
ATOM     93  C   UNL     1       4.105  -0.266  -1.735  1.00  0.00     0.115 A 
ATOM     94  C   UNL     1       4.401   1.088  -1.656  1.00  0.00     0.046 A 
BRANCH  93  95
ATOM     95  O   UNL     1       2.823  -0.655  -1.486  1.00  0.00    -0.508 OA
ATOM     96  H   UNL     1       2.168  -0.014  -1.290  1.00  0.00     0.293 HD
ENDBRANCH  93  95
ENDBRANCH  88  89
ENDBRANCH  86  88
ENDBRANCH  85  86
ENDBRANCH  80  81
ENDBRANCH  79  80
ENDBRANCH   2  74
TORSDOF 17
