REMARK SMILES CC(C)C[C@@H](NC(=O)Cn1nc(O)ccc1=O)C(=O)OCCOC(=O)c1ccc(-c2c3nc(c(-c4c(F)c(F)c(F)c(F)c4F)c4ccc([nH]4)c(-c4c(F)c(F)c(F)c(F)c4F)c4nc(c(-c5c(F)c(F)c(F)c(F)c5F)c5ccc2[nH]5)C=C4)C=C3)cc1
REMARK SMILES IDX 21 1 20 2 18 3 19 4 5 5 4 6 2 7 1 8 3 9 6 10 7 11 8 13 9 14
REMARK SMILES IDX 10 15 11 16 16 17 12 18 15 19 17 20 14 21 13 22 22 24 23 25
REMARK SMILES IDX 24 26 25 27 26 28 27 29 88 30 28 31 87 32 29 33 30 34 31 35
REMARK SMILES IDX 81 36 32 37 86 38 80 39 82 40 33 41 85 42 79 43 78 44 34 46
REMARK SMILES IDX 66 47 46 48 65 49 47 50 50 51 64 52 83 53 48 54 49 55 63 57
REMARK SMILES IDX 84 58 51 59 35 60 36 61 44 62 37 63 38 64 42 65 45 66 39 67
REMARK SMILES IDX 40 68 43 69 41 70 67 71 68 72 76 73 69 74 70 75 74 76 77 77
REMARK SMILES IDX 71 78 72 79 75 80 73 81 52 82 53 83 61 84 54 85 55 86 59 87
REMARK SMILES IDX 62 88 56 89 57 90 60 91 58 92
REMARK H PARENT 6 12 13 23 82 45 50 56
REMARK Flexibility Score: inf
ROOT
ATOM      1  C   UNL     1      -5.031  -1.399  -0.215  1.00  0.00     0.274 C 
ENDROOT
BRANCH   1   2
ATOM      2  O   UNL     1      -3.598  -1.359  -0.023  1.00  0.00    -0.461 OA
BRANCH   2   3
ATOM      3  C   UNL     1      -2.805  -1.903  -0.980  1.00  0.00     0.328 C 
ATOM      4  O   UNL     1      -3.225  -2.300  -2.063  1.00  0.00    -0.250 OA
BRANCH   3   5
ATOM      5  C   UNL     1      -1.361  -2.170  -0.483  1.00  0.00     0.192 C 
BRANCH   5   6
ATOM      6  C   UNL     1      -0.777  -1.250   0.605  1.00  0.00     0.040 C 
BRANCH   6   7
ATOM      7  C   UNL     1       0.742  -0.978   0.564  1.00  0.00    -0.015 C 
ATOM      8  C   UNL     1       1.140   0.002  -0.535  1.00  0.00     0.007 C 
ATOM      9  C   UNL     1       1.180  -0.414   1.927  1.00  0.00     0.007 C 
ENDBRANCH   6   7
ENDBRANCH   5   6
BRANCH   5  10
ATOM     10  N   UNL     1      -1.128  -3.590  -0.137  1.00  0.00    -0.341 N 
ATOM     11  C   UNL     1      -1.687  -4.312   0.896  1.00  0.00     0.242 C 
ATOM     12  H   UNL     1      -0.498  -4.078  -0.714  1.00  0.00     0.164 HD
ATOM     13  O   UNL     1      -0.957  -5.107   1.493  1.00  0.00    -0.273 OA
BRANCH  11  14
ATOM     14  C   UNL     1      -3.198  -4.244   1.177  1.00  0.00     0.248 C 
BRANCH  14  15
ATOM     15  N   UNL     1      -3.733  -3.820   2.481  1.00  0.00    -0.217 N 
ATOM     16  N   UNL     1      -4.732  -4.637   3.006  1.00  0.00    -0.131 NA
ATOM     17  C   UNL     1      -3.511  -2.539   2.970  1.00  0.00     0.267 A 
ATOM     18  C   UNL     1      -5.385  -4.160   4.005  1.00  0.00     0.229 A 
ATOM     19  C   UNL     1      -4.298  -2.096   4.139  1.00  0.00     0.079 A 
ATOM     20  O   UNL     1      -2.744  -1.715   2.499  1.00  0.00    -0.268 OA
ATOM     21  C   UNL     1      -5.242  -2.875   4.660  1.00  0.00     0.075 A 
BRANCH  18  22
ATOM     22  O   UNL     1      -6.367  -4.880   4.553  1.00  0.00    -0.492 OA
ATOM     23  H   UNL     1      -6.564  -5.734   4.222  1.00  0.00     0.295 HD
ENDBRANCH  18  22
ENDBRANCH  14  15
ENDBRANCH  11  14
ENDBRANCH   5  10
ENDBRANCH   3   5
ENDBRANCH   2   3
ENDBRANCH   1   2
BRANCH   1  24
ATOM     24  C   UNL     1      -5.680  -0.261   0.577  1.00  0.00     0.275 C 
BRANCH  24  25
ATOM     25  O   UNL     1      -5.471   0.965  -0.132  1.00  0.00    -0.458 OA
BRANCH  25  26
ATOM     26  C   UNL     1      -4.230   1.494   0.009  1.00  0.00     0.338 C 
ATOM     27  O   UNL     1      -3.471   1.381   0.954  1.00  0.00    -0.246 OA
BRANCH  26  28
ATOM     28  C   UNL     1      -3.843   1.960  -1.331  1.00  0.00     0.060 A 
ATOM     29  C   UNL     1      -4.733   2.710  -2.100  1.00  0.00     0.016 A 
ATOM     30  C   UNL     1      -2.623   1.522  -1.860  1.00  0.00     0.016 A 
ATOM     31  C   UNL     1      -4.411   2.997  -3.419  1.00  0.00     0.010 A 
ATOM     32  C   UNL     1      -2.302   1.804  -3.184  1.00  0.00     0.010 A 
ATOM     33  C   UNL     1      -3.200   2.540  -3.966  1.00  0.00    -0.014 A 
BRANCH  33  34
ATOM     34  C   UNL     1      -2.842   2.954  -5.333  1.00  0.00     0.031 A 
ATOM     35  C   UNL     1      -3.087   2.059  -6.502  1.00  0.00     0.074 A 
ATOM     36  C   UNL     1      -2.355   4.196  -5.489  1.00  0.00     0.049 A 
ATOM     37  N   UNL     1      -3.008   2.340  -7.777  1.00  0.00    -0.248 NA
ATOM     38  C   UNL     1      -3.470   0.672  -6.207  1.00  0.00     0.031 C 
ATOM     39  C   UNL     1      -2.080   5.125  -4.391  1.00  0.00     0.029 A 
ATOM     40  N   UNL     1      -2.044   4.902  -6.618  1.00  0.00    -0.354 N 
ATOM     41  C   UNL     1      -3.370   1.177  -8.441  1.00  0.00     0.074 A 
ATOM     42  C   UNL     1      -3.610   0.169  -7.427  1.00  0.00     0.031 C 
ATOM     43  C   UNL     1      -1.690   6.300  -4.904  1.00  0.00     0.029 A 
ATOM     44  C   UNL     1      -1.672   6.196  -6.359  1.00  0.00     0.049 A 
ATOM     45  H   UNL     1      -2.083   4.520  -7.525  1.00  0.00     0.167 HD
ATOM     46  C   UNL     1      -3.509   0.988  -9.775  1.00  0.00     0.037 A 
ATOM     47  C   UNL     1      -1.379   7.196  -7.208  1.00  0.00     0.037 A 
ATOM     48  C   UNL     1      -3.221   1.999 -10.763  1.00  0.00     0.049 A 
ATOM     49  C   UNL     1      -1.480   6.940  -8.683  1.00  0.00     0.074 A 
ATOM     50  C   UNL     1      -3.316   1.916 -12.141  1.00  0.00     0.029 A 
ATOM     51  N   UNL     1      -2.764   3.279 -10.472  1.00  0.00    -0.354 N 
ATOM     52  N   UNL     1      -1.871   5.855  -9.307  1.00  0.00    -0.248 NA
ATOM     53  C   UNL     1      -1.108   8.047  -9.569  1.00  0.00     0.031 C 
ATOM     54  C   UNL     1      -2.872   3.128 -12.684  1.00  0.00     0.029 A 
ATOM     55  C   UNL     1      -2.549   3.987 -11.645  1.00  0.00     0.049 A 
ATOM     56  H   UNL     1      -2.615   3.632  -9.565  1.00  0.00     0.167 HD
ATOM     57  C   UNL     1      -1.804   6.148 -10.660  1.00  0.00     0.074 A 
ATOM     58  C   UNL     1      -1.357   7.524 -10.762  1.00  0.00     0.031 C 
ATOM     59  C   UNL     1      -2.082   5.350 -11.721  1.00  0.00     0.037 A 
BRANCH  46  60
ATOM     60  C   UNL     1      -3.992  -0.356 -10.238  1.00  0.00     0.064 A 
ATOM     61  C   UNL     1      -5.314  -0.772 -10.013  1.00  0.00     0.173 A 
ATOM     62  C   UNL     1      -3.147  -1.222 -10.948  1.00  0.00     0.173 A 
ATOM     63  F   UNL     1      -6.163   0.014  -9.332  1.00  0.00    -0.203 F 
ATOM     64  C   UNL     1      -5.764  -2.013 -10.460  1.00  0.00     0.198 A 
ATOM     65  C   UNL     1      -3.608  -2.450 -11.417  1.00  0.00     0.198 A 
ATOM     66  F   UNL     1      -1.876  -0.873 -11.198  1.00  0.00    -0.203 F 
ATOM     67  F   UNL     1      -7.019  -2.403 -10.197  1.00  0.00    -0.200 F 
ATOM     68  C   UNL     1      -4.913  -2.848 -11.167  1.00  0.00     0.200 A 
ATOM     69  F   UNL     1      -2.788  -3.251 -12.113  1.00  0.00    -0.200 F 
ATOM     70  F   UNL     1      -5.349  -4.037 -11.604  1.00  0.00    -0.200 F 
ENDBRANCH  46  60
BRANCH  47  71
ATOM     71  C   UNL     1      -1.038   8.531  -6.660  1.00  0.00     0.064 A 
ATOM     72  C   UNL     1      -1.944   9.595  -6.757  1.00  0.00     0.173 A 
ATOM     73  C   UNL     1       0.156   8.748  -5.958  1.00  0.00     0.173 A 
ATOM     74  F   UNL     1      -3.095   9.436  -7.426  1.00  0.00    -0.203 F 
ATOM     75  C   UNL     1      -1.669  10.827  -6.168  1.00  0.00     0.198 A 
ATOM     76  C   UNL     1       0.419   9.972  -5.349  1.00  0.00     0.198 A 
ATOM     77  F   UNL     1       1.048   7.755  -5.828  1.00  0.00    -0.203 F 
ATOM     78  F   UNL     1      -2.546  11.833  -6.284  1.00  0.00    -0.200 F 
ATOM     79  C   UNL     1      -0.493  11.011  -5.455  1.00  0.00     0.200 A 
ATOM     80  F   UNL     1       1.546  10.139  -4.644  1.00  0.00    -0.200 F 
ATOM     81  F   UNL     1      -0.241  12.188  -4.867  1.00  0.00    -0.200 F 
ENDBRANCH  47  71
BRANCH  59  82
ATOM     82  C   UNL     1      -1.901   5.951 -13.084  1.00  0.00     0.064 A 
ATOM     83  C   UNL     1      -0.625   6.210 -13.605  1.00  0.00     0.173 A 
ATOM     84  C   UNL     1      -3.012   6.240 -13.891  1.00  0.00     0.173 A 
ATOM     85  F   UNL     1       0.468   5.966 -12.866  1.00  0.00    -0.203 F 
ATOM     86  C   UNL     1      -0.468   6.761 -14.873  1.00  0.00     0.198 A 
ATOM     87  C   UNL     1      -2.851   6.763 -15.171  1.00  0.00     0.198 A 
ATOM     88  F   UNL     1      -4.254   6.006 -13.441  1.00  0.00    -0.203 F 
ATOM     89  F   UNL     1       0.759   7.046 -15.331  1.00  0.00    -0.200 F 
ATOM     90  C   UNL     1      -1.580   7.030 -15.658  1.00  0.00     0.200 A 
ATOM     91  F   UNL     1      -3.925   7.010 -15.932  1.00  0.00    -0.200 F 
ATOM     92  F   UNL     1      -1.427   7.554 -16.881  1.00  0.00    -0.200 F 
ENDBRANCH  59  82
ENDBRANCH  33  34
ENDBRANCH  26  28
ENDBRANCH  25  26
ENDBRANCH  24  25
ENDBRANCH   1  24
TORSDOF 17
