REMARK SMILES CC1(C)[C@H](C(=O)Nc2ccc(NC(=O)C[NH+]3CCCCC3)cc2)[C@@H]1C(=O)OCCOC(=O)c1ccc(-c2c3nc(c(-c4c(F)c(F)c(F)c(F)c4F)c4ccc([nH]4)c(-c4c(F)c(F)c(F)c(F)c4F)c4nc(c(-c5c(F)c(F)c(F)c(F)c5F)c5ccc2[nH]5)C=C4)C=C3)cc1
REMARK SMILES IDX 27 1 25 2 26 3 24 4 1 5 2 6 3 7 4 8 5 9 6 10 7 11 8 13 9 14
REMARK SMILES IDX 23 15 10 16 22 17 11 18 12 19 13 20 14 22 15 23 16 24 17 25
REMARK SMILES IDX 21 26 18 28 20 29 19 30 28 31 29 32 30 33 31 34 32 35 33 36
REMARK SMILES IDX 34 37 95 38 35 39 94 40 36 41 37 42 38 43 88 44 39 45 93 46
REMARK SMILES IDX 87 47 89 48 40 49 92 50 86 51 85 52 41 54 73 55 53 56 72 57
REMARK SMILES IDX 54 58 57 59 71 60 90 61 55 62 56 63 70 65 91 66 58 67 42 68
REMARK SMILES IDX 43 69 51 70 44 71 45 72 49 73 52 74 46 75 47 76 50 77 48 78
REMARK SMILES IDX 74 79 75 80 83 81 76 82 77 83 81 84 84 85 78 86 79 87 82 88
REMARK SMILES IDX 80 89 59 90 60 91 68 92 61 93 62 94 66 95 69 96 63 97 64 98
REMARK SMILES IDX 67 99 65 100
REMARK H PARENT 7 12 12 21 16 27 89 53 57 64
REMARK Flexibility Score: inf
ROOT
ATOM      1  O   UNL     1      -2.876   1.379   1.296  1.00  0.00    -0.462 OA
ENDROOT
BRANCH   1   2
ATOM      2  C   UNL     1      -1.543   1.108   1.257  1.00  0.00     0.310 C 
ATOM      3  O   UNL     1      -0.702   1.608   2.002  1.00  0.00    -0.252 OA
BRANCH   2   4
ATOM      4  C   UNL     1      -1.235  -0.038   0.376  1.00  0.00     0.118 C 
ATOM      5  C   UNL     1       0.591  -1.819  -0.215  1.00  0.00     0.013 C 
ATOM      6  C   UNL     1       0.166  -0.361  -0.188  1.00  0.00    -0.009 C 
ATOM      7  C   UNL     1       1.354   0.529   0.039  1.00  0.00     0.013 C 
ATOM      8  C   UNL     1      -0.994  -0.008  -1.105  1.00  0.00     0.100 C 
BRANCH   8   9
ATOM      9  C   UNL     1      -1.242   1.095  -2.082  1.00  0.00     0.228 C 
ATOM     10  O   UNL     1      -1.532   0.747  -3.229  1.00  0.00    -0.274 OA
ATOM     11  N   UNL     1      -1.493   2.399  -1.753  1.00  0.00    -0.326 N 
ATOM     12  H   UNL     1      -2.273   2.792  -2.207  1.00  0.00     0.169 HD
BRANCH  11  13
ATOM     13  C   UNL     1      -0.836   3.260  -0.886  1.00  0.00     0.041 A 
ATOM     14  C   UNL     1      -1.620   4.064  -0.079  1.00  0.00     0.028 A 
ATOM     15  C   UNL     1       0.546   3.348  -0.804  1.00  0.00     0.028 A 
ATOM     16  C   UNL     1      -1.026   4.731   0.990  1.00  0.00     0.028 A 
ATOM     17  C   UNL     1       1.141   4.081   0.233  1.00  0.00     0.028 A 
ATOM     18  C   UNL     1       0.352   4.742   1.177  1.00  0.00     0.041 A 
BRANCH  18  19
ATOM     19  N   UNL     1       0.996   5.305   2.294  1.00  0.00    -0.321 N 
ATOM     20  C   UNL     1       0.590   6.191   3.258  1.00  0.00     0.279 C 
ATOM     21  H   UNL     1       1.925   5.000   2.406  1.00  0.00     0.170 HD
ATOM     22  O   UNL     1       1.327   6.344   4.241  1.00  0.00    -0.268 OA
BRANCH  20  23
ATOM     23  C   UNL     1      -0.712   7.004   3.147  1.00  0.00     0.363 C 
BRANCH  23  24
ATOM     24  N   UNL     1      -0.842   7.581   1.805  1.00  0.00    -0.327 N 
ATOM     25  C   UNL     1      -2.212   7.854   1.383  1.00  0.00     0.262 C 
ATOM     26  C   UNL     1       0.040   8.723   1.573  1.00  0.00     0.262 C 
ATOM     27  H   UNL     1      -0.519   6.829   1.195  1.00  0.00     0.348 HD
ATOM     28  C   UNL     1      -2.210   8.042  -0.136  1.00  0.00     0.062 C 
ATOM     29  C   UNL     1       0.106   9.017   0.073  1.00  0.00     0.062 C 
ATOM     30  C   UNL     1      -1.282   9.182  -0.545  1.00  0.00     0.012 C 
ENDBRANCH  23  24
ENDBRANCH  20  23
ENDBRANCH  18  19
ENDBRANCH  11  13
ENDBRANCH   8   9
ENDBRANCH   2   4
ENDBRANCH   1   2
BRANCH   1  31
ATOM     31  C   UNL     1      -3.304   2.338   2.286  1.00  0.00     0.274 C 
BRANCH  31  32
ATOM     32  C   UNL     1      -3.739   1.706   3.612  1.00  0.00     0.275 C 
BRANCH  32  33
ATOM     33  O   UNL     1      -2.617   1.180   4.343  1.00  0.00    -0.458 OA
BRANCH  33  34
ATOM     34  C   UNL     1      -2.298  -0.096   4.027  1.00  0.00     0.338 C 
ATOM     35  O   UNL     1      -2.914  -0.842   3.284  1.00  0.00    -0.246 OA
BRANCH  34  36
ATOM     36  C   UNL     1      -0.980  -0.452   4.580  1.00  0.00     0.060 A 
ATOM     37  C   UNL     1      -0.065  -1.049   3.707  1.00  0.00     0.016 A 
ATOM     38  C   UNL     1      -0.672  -0.297   5.931  1.00  0.00     0.016 A 
ATOM     39  C   UNL     1       1.146  -1.530   4.180  1.00  0.00     0.010 A 
ATOM     40  C   UNL     1       0.545  -0.791   6.412  1.00  0.00     0.010 A 
ATOM     41  C   UNL     1       1.443  -1.437   5.542  1.00  0.00    -0.014 A 
BRANCH  41  42
ATOM     42  C   UNL     1       2.640  -2.140   6.053  1.00  0.00     0.031 A 
ATOM     43  C   UNL     1       2.469  -3.450   6.767  1.00  0.00     0.074 A 
ATOM     44  C   UNL     1       3.866  -1.647   5.809  1.00  0.00     0.049 A 
ATOM     45  N   UNL     1       3.375  -4.231   7.297  1.00  0.00    -0.248 NA
ATOM     46  C   UNL     1       1.091  -3.949   6.899  1.00  0.00     0.031 C 
ATOM     47  C   UNL     1       4.147  -0.415   5.074  1.00  0.00     0.029 A 
ATOM     48  N   UNL     1       5.104  -2.128   6.149  1.00  0.00    -0.354 N 
ATOM     49  C   UNL     1       2.677  -5.304   7.836  1.00  0.00     0.074 A 
ATOM     50  C   UNL     1       1.272  -5.062   7.595  1.00  0.00     0.031 C 
ATOM     51  C   UNL     1       5.476  -0.234   5.019  1.00  0.00     0.029 A 
ATOM     52  C   UNL     1       6.135  -1.315   5.748  1.00  0.00     0.049 A 
ATOM     53  H   UNL     1       5.240  -2.974   6.633  1.00  0.00     0.167 HD
ATOM     54  C   UNL     1       3.171  -6.396   8.467  1.00  0.00     0.037 A 
ATOM     55  C   UNL     1       7.458  -1.424   5.970  1.00  0.00     0.037 A 
ATOM     56  C   UNL     1       4.574  -6.628   8.696  1.00  0.00     0.049 A 
ATOM     57  C   UNL     1       7.974  -2.613   6.737  1.00  0.00     0.074 A 
ATOM     58  C   UNL     1       5.181  -7.704   9.319  1.00  0.00     0.029 A 
ATOM     59  N   UNL     1       5.589  -5.762   8.312  1.00  0.00    -0.354 N 
ATOM     60  N   UNL     1       7.312  -3.629   7.238  1.00  0.00    -0.248 NA
ATOM     61  C   UNL     1       9.424  -2.672   6.967  1.00  0.00     0.031 C 
ATOM     62  C   UNL     1       6.558  -7.462   9.364  1.00  0.00     0.029 A 
ATOM     63  C   UNL     1       6.817  -6.268   8.709  1.00  0.00     0.049 A 
ATOM     64  H   UNL     1       5.457  -4.914   7.830  1.00  0.00     0.167 HD
ATOM     65  C   UNL     1       8.264  -4.462   7.810  1.00  0.00     0.074 A 
ATOM     66  C   UNL     1       9.552  -3.839   7.582  1.00  0.00     0.031 C 
ATOM     67  C   UNL     1       8.090  -5.638   8.463  1.00  0.00     0.037 A 
BRANCH  54  68
ATOM     68  C   UNL     1       2.186  -7.402   8.989  1.00  0.00     0.064 A 
ATOM     69  C   UNL     1       1.437  -8.222   8.131  1.00  0.00     0.173 A 
ATOM     70  C   UNL     1       2.009  -7.568  10.371  1.00  0.00     0.173 A 
ATOM     71  F   UNL     1       1.556  -8.095   6.800  1.00  0.00    -0.203 F 
ATOM     72  C   UNL     1       0.530  -9.150   8.637  1.00  0.00     0.198 A 
ATOM     73  C   UNL     1       1.125  -8.519  10.874  1.00  0.00     0.198 A 
ATOM     74  F   UNL     1       2.701  -6.812  11.237  1.00  0.00    -0.203 F 
ATOM     75  F   UNL     1      -0.211  -9.887   7.797  1.00  0.00    -0.200 F 
ATOM     76  C   UNL     1       0.381  -9.303  10.007  1.00  0.00     0.200 A 
ATOM     77  F   UNL     1       0.993  -8.674  12.198  1.00  0.00    -0.200 F 
ATOM     78  F   UNL     1      -0.487 -10.202  10.492  1.00  0.00    -0.200 F 
ENDBRANCH  54  68
BRANCH  55  79
ATOM     79  C   UNL     1       8.384  -0.374   5.470  1.00  0.00     0.064 A 
ATOM     80  C   UNL     1       9.320  -0.651   4.465  1.00  0.00     0.173 A 
ATOM     81  C   UNL     1       8.360   0.925   5.998  1.00  0.00     0.173 A 
ATOM     82  F   UNL     1       9.399  -1.885   3.944  1.00  0.00    -0.203 F 
ATOM     83  C   UNL     1      10.211   0.324   4.022  1.00  0.00     0.198 A 
ATOM     84  C   UNL     1       9.229   1.909   5.532  1.00  0.00     0.198 A 
ATOM     85  F   UNL     1       7.483   1.243   6.962  1.00  0.00    -0.203 F 
ATOM     86  F   UNL     1      11.131   0.018   3.097  1.00  0.00    -0.200 F 
ATOM     87  C   UNL     1      10.161   1.605   4.552  1.00  0.00     0.200 A 
ATOM     88  F   UNL     1       9.167   3.149   6.036  1.00  0.00    -0.200 F 
ATOM     89  F   UNL     1      11.016   2.544   4.123  1.00  0.00    -0.200 F 
ENDBRANCH  55  79
BRANCH  67  90
ATOM     90  C   UNL     1       9.325  -6.354   8.932  1.00  0.00     0.064 A 
ATOM     91  C   UNL     1      10.108  -5.868   9.989  1.00  0.00     0.173 A 
ATOM     92  C   UNL     1       9.710  -7.564   8.333  1.00  0.00     0.173 A 
ATOM     93  F   UNL     1       9.792  -4.709  10.587  1.00  0.00    -0.203 F 
ATOM     94  C   UNL     1      11.250  -6.548  10.406  1.00  0.00     0.198 A 
ATOM     95  C   UNL     1      10.831  -8.260   8.776  1.00  0.00     0.198 A 
ATOM     96  F   UNL     1       8.991  -8.079   7.324  1.00  0.00    -0.203 F 
ATOM     97  F   UNL     1      12.015  -6.035  11.379  1.00  0.00    -0.200 F 
ATOM     98  C   UNL     1      11.606  -7.746   9.805  1.00  0.00     0.200 A 
ATOM     99  F   UNL     1      11.163  -9.426   8.205  1.00  0.00    -0.200 F 
ATOM    100  F   UNL     1      12.701  -8.403  10.212  1.00  0.00    -0.200 F 
ENDBRANCH  67  90
ENDBRANCH  41  42
ENDBRANCH  34  36
ENDBRANCH  33  34
ENDBRANCH  32  33
ENDBRANCH  31  32
ENDBRANCH   1  31
TORSDOF 16
