REMARK SMILES COc1cc(Br)c(OC)c(C(=O)NCCC(=O)OCCOC(=O)c2ccc(-c3c4nc(c(-c5c(F)c(F)c(F)c(F)c5F)c5ccc([nH]5)c(-c5c(F)c(F)c(F)c(F)c5F)c5nc(c(-c6c(F)c(F)c(F)c(F)c6F)c6ccc3[nH]6)C=C5)C=C4)cc2)c1
REMARK SMILES IDX 19 1 18 2 16 3 17 4 15 5 14 6 13 7 11 8 12 9 10 11 3 12 4 13
REMARK SMILES IDX 87 14 5 15 6 16 7 17 2 18 1 19 8 20 9 21 20 22 21 23 22 24
REMARK SMILES IDX 23 25 24 26 25 27 86 28 26 29 85 30 27 31 28 32 29 33 79 34
REMARK SMILES IDX 30 35 84 36 78 37 80 38 31 39 83 40 77 41 76 42 32 44 64 45
REMARK SMILES IDX 44 46 63 47 45 48 48 49 62 50 81 51 46 52 47 53 61 55 82 56
REMARK SMILES IDX 49 57 33 58 34 59 42 60 35 61 36 62 40 63 43 64 37 65 38 66
REMARK SMILES IDX 41 67 39 68 65 69 66 70 74 71 67 72 68 73 72 74 75 75 69 76
REMARK SMILES IDX 70 77 73 78 71 79 50 80 51 81 59 82 52 83 53 84 57 85 60 86
REMARK SMILES IDX 54 87 55 88 58 89 56 90
REMARK H PARENT 13 10 80 43 48 54
REMARK Flexibility Score: inf
ROOT
ATOM      1  C   UNL     1      -6.237  -5.701   2.954  1.00  0.00     0.274 C 
ENDROOT
BRANCH   1   2
ATOM      2  O   UNL     1      -4.910  -5.288   2.573  1.00  0.00    -0.462 OA
BRANCH   2   3
ATOM      3  C   UNL     1      -4.830  -4.469   1.492  1.00  0.00     0.307 C 
ATOM      4  O   UNL     1      -5.786  -4.024   0.870  1.00  0.00    -0.252 OA
BRANCH   3   5
ATOM      5  C   UNL     1      -3.404  -4.194   1.098  1.00  0.00     0.144 C 
BRANCH   5   6
ATOM      6  C   UNL     1      -2.589  -3.555   2.211  1.00  0.00     0.128 C 
BRANCH   6   7
ATOM      7  N   UNL     1      -1.856  -4.523   3.015  1.00  0.00    -0.351 N 
ATOM      8  C   UNL     1      -0.510  -4.771   3.162  1.00  0.00     0.255 C 
ATOM      9  O   UNL     1      -0.156  -5.680   3.910  1.00  0.00    -0.269 OA
ATOM     10  H   UNL     1      -2.432  -5.110   3.557  1.00  0.00     0.163 HD
BRANCH   8  11
ATOM     11  C   UNL     1       0.517  -3.952   2.467  1.00  0.00     0.086 A 
ATOM     12  C   UNL     1       1.337  -1.778   1.783  1.00  0.00     0.121 A 
ATOM     13  C   UNL     1       2.437  -2.371   1.170  1.00  0.00     0.066 A 
ATOM     14  C   UNL     1       0.428  -2.554   2.497  1.00  0.00     0.064 A 
ATOM     15  C   UNL     1       2.578  -3.760   1.194  1.00  0.00     0.064 A 
ATOM     16  Br  UNL     1       4.073  -4.488   0.274  1.00  0.00    -0.047 Br
ATOM     17  C   UNL     1       1.618  -4.561   1.835  1.00  0.00     0.146 A 
BRANCH  12  18
ATOM     18  O   UNL     1       1.087  -0.434   1.724  1.00  0.00    -0.497 OA
ATOM     19  C   UNL     1       1.183   0.081   0.393  1.00  0.00     0.278 C 
ENDBRANCH  12  18
BRANCH  17  20
ATOM     20  O   UNL     1       1.681  -5.929   1.745  1.00  0.00    -0.495 OA
ATOM     21  C   UNL     1       2.644  -6.484   2.645  1.00  0.00     0.278 C 
ENDBRANCH  17  20
ENDBRANCH   8  11
ENDBRANCH   6   7
ENDBRANCH   5   6
ENDBRANCH   3   5
ENDBRANCH   2   3
ENDBRANCH   1   2
BRANCH   1  22
ATOM     22  C   UNL     1      -6.781  -4.875   4.122  1.00  0.00     0.275 C 
BRANCH  22  23
ATOM     23  O   UNL     1      -7.039  -3.514   3.735  1.00  0.00    -0.458 OA
BRANCH  23  24
ATOM     24  C   UNL     1      -6.094  -2.618   4.091  1.00  0.00     0.338 C 
ATOM     25  O   UNL     1      -5.061  -2.829   4.715  1.00  0.00    -0.246 OA
BRANCH  24  26
ATOM     26  C   UNL     1      -6.419  -1.307   3.518  1.00  0.00     0.060 A 
ATOM     27  C   UNL     1      -5.644  -0.837   2.454  1.00  0.00     0.016 A 
ATOM     28  C   UNL     1      -7.428  -0.516   4.069  1.00  0.00     0.016 A 
ATOM     29  C   UNL     1      -5.876   0.435   1.934  1.00  0.00     0.010 A 
ATOM     30  C   UNL     1      -7.670   0.754   3.536  1.00  0.00     0.010 A 
ATOM     31  C   UNL     1      -6.892   1.240   2.470  1.00  0.00    -0.014 A 
BRANCH  31  32
ATOM     32  C   UNL     1      -7.153   2.587   1.907  1.00  0.00     0.031 A 
ATOM     33  C   UNL     1      -6.780   3.818   2.677  1.00  0.00     0.074 A 
ATOM     34  C   UNL     1      -7.754   2.698   0.708  1.00  0.00     0.049 A 
ATOM     35  N   UNL     1      -7.026   5.074   2.400  1.00  0.00    -0.248 NA
ATOM     36  C   UNL     1      -6.036   3.610   3.927  1.00  0.00     0.031 C 
ATOM     37  C   UNL     1      -8.147   1.576  -0.143  1.00  0.00     0.029 A 
ATOM     38  N   UNL     1      -8.154   3.809   0.008  1.00  0.00    -0.354 N 
ATOM     39  C   UNL     1      -6.487   5.805   3.449  1.00  0.00     0.074 A 
ATOM     40  C   UNL     1      -5.912   4.851   4.376  1.00  0.00     0.031 C 
ATOM     41  C   UNL     1      -8.744   2.054  -1.246  1.00  0.00     0.029 A 
ATOM     42  C   UNL     1      -8.815   3.510  -1.156  1.00  0.00     0.049 A 
ATOM     43  H   UNL     1      -7.983   4.730   0.312  1.00  0.00     0.167 HD
ATOM     44  C   UNL     1      -6.474   7.149   3.620  1.00  0.00     0.037 A 
ATOM     45  C   UNL     1      -9.443   4.315  -2.034  1.00  0.00     0.037 A 
ATOM     46  C   UNL     1      -7.033   8.095   2.689  1.00  0.00     0.049 A 
ATOM     47  C   UNL     1      -9.463   5.798  -1.796  1.00  0.00     0.074 A 
ATOM     48  C   UNL     1      -7.011   9.478   2.744  1.00  0.00     0.029 A 
ATOM     49  N   UNL     1      -7.725   7.753   1.536  1.00  0.00    -0.354 N 
ATOM     50  N   UNL     1      -8.929   6.484  -0.814  1.00  0.00    -0.248 NA
ATOM     51  C   UNL     1     -10.181   6.618  -2.781  1.00  0.00     0.031 C 
ATOM     52  C   UNL     1      -7.731   9.973   1.650  1.00  0.00     0.029 A 
ATOM     53  C   UNL     1      -8.167   8.898   0.891  1.00  0.00     0.049 A 
ATOM     54  H   UNL     1      -7.880   6.833   1.222  1.00  0.00     0.167 HD
ATOM     55  C   UNL     1      -9.243   7.812  -1.062  1.00  0.00     0.074 A 
ATOM     56  C   UNL     1      -9.996   7.840  -2.300  1.00  0.00     0.031 C 
ATOM     57  C   UNL     1      -8.936   8.910  -0.328  1.00  0.00     0.037 A 
BRANCH  44  58
ATOM     58  C   UNL     1      -5.860   7.678   4.882  1.00  0.00     0.064 A 
ATOM     59  C   UNL     1      -4.473   7.674   5.088  1.00  0.00     0.173 A 
ATOM     60  C   UNL     1      -6.672   8.221   5.890  1.00  0.00     0.173 A 
ATOM     61  F   UNL     1      -3.655   7.156   4.159  1.00  0.00    -0.203 F 
ATOM     62  C   UNL     1      -3.923   8.170   6.268  1.00  0.00     0.198 A 
ATOM     63  C   UNL     1      -6.118   8.737   7.057  1.00  0.00     0.198 A 
ATOM     64  F   UNL     1      -8.005   8.253   5.739  1.00  0.00    -0.203 F 
ATOM     65  F   UNL     1      -2.598   8.117   6.461  1.00  0.00    -0.200 F 
ATOM     66  C   UNL     1      -4.745   8.705   7.249  1.00  0.00     0.200 A 
ATOM     67  F   UNL     1      -6.912   9.262   8.000  1.00  0.00    -0.200 F 
ATOM     68  F   UNL     1      -4.214   9.182   8.383  1.00  0.00    -0.200 F 
ENDBRANCH  44  58
BRANCH  45  69
ATOM     69  C   UNL     1     -10.132   3.717  -3.204  1.00  0.00     0.064 A 
ATOM     70  C   UNL     1      -9.606   3.848  -4.495  1.00  0.00     0.173 A 
ATOM     71  C   UNL     1     -11.312   2.975  -3.047  1.00  0.00     0.173 A 
ATOM     72  F   UNL     1      -8.493   4.569  -4.695  1.00  0.00    -0.203 F 
ATOM     73  C   UNL     1     -10.237   3.257  -5.588  1.00  0.00     0.198 A 
ATOM     74  C   UNL     1     -11.928   2.366  -4.136  1.00  0.00     0.198 A 
ATOM     75  F   UNL     1     -11.853   2.825  -1.829  1.00  0.00    -0.203 F 
ATOM     76  F   UNL     1      -9.729   3.416  -6.818  1.00  0.00    -0.200 F 
ATOM     77  C   UNL     1     -11.391   2.509  -5.407  1.00  0.00     0.200 A 
ATOM     78  F   UNL     1     -13.037   1.635  -3.955  1.00  0.00    -0.200 F 
ATOM     79  F   UNL     1     -11.988   1.930  -6.457  1.00  0.00    -0.200 F 
ENDBRANCH  45  69
BRANCH  57  80
ATOM     80  C   UNL     1      -9.422  10.232  -0.841  1.00  0.00     0.064 A 
ATOM     81  C   UNL     1     -10.773  10.600  -0.743  1.00  0.00     0.173 A 
ATOM     82  C   UNL     1      -8.529  11.154  -1.406  1.00  0.00     0.173 A 
ATOM     83  F   UNL     1     -11.668   9.745  -0.226  1.00  0.00    -0.203 F 
ATOM     84  C   UNL     1     -11.214  11.835  -1.209  1.00  0.00     0.198 A 
ATOM     85  C   UNL     1      -8.969  12.398  -1.850  1.00  0.00     0.198 A 
ATOM     86  F   UNL     1      -7.227  10.850  -1.520  1.00  0.00    -0.203 F 
ATOM     87  F   UNL     1     -12.515  12.149  -1.142  1.00  0.00    -0.200 F 
ATOM     88  C   UNL     1     -10.311  12.735  -1.756  1.00  0.00     0.200 A 
ATOM     89  F   UNL     1      -8.095  13.270  -2.371  1.00  0.00    -0.200 F 
ATOM     90  F   UNL     1     -10.737  13.925  -2.202  1.00  0.00    -0.200 F 
ENDBRANCH  57  80
ENDBRANCH  31  32
ENDBRANCH  24  26
ENDBRANCH  23  24
ENDBRANCH  22  23
ENDBRANCH   1  22
TORSDOF 16
