REMARK SMILES CCC[C@H]1CC[C@H](C(=O)OCCOC(=O)c2ccc(-c3c4nc(c(-c5c(F)c(F)c(F)c(F)c5F)c5ccc([nH]5)c(-c5c(F)c(F)c(F)c(F)c5F)c5nc(c(-c6c(F)c(F)c(F)c(F)c6F)c6ccc3[nH]6)C=C5)C=C4)cc2)[C@H](Sc2ccncc2)C1
REMARK SMILES IDX 11 1 10 2 8 3 9 4 7 5 4 6 5 7 87 8 6 9 79 10 3 11 2 12 1 13
REMARK SMILES IDX 80 14 81 15 82 16 86 17 83 18 85 19 84 20 12 21 13 22 14 23
REMARK SMILES IDX 15 24 16 25 17 26 78 27 18 28 77 29 19 30 20 31 21 32 71 33
REMARK SMILES IDX 22 34 76 35 70 36 72 37 23 38 75 39 69 40 68 41 24 43 56 44
REMARK SMILES IDX 36 45 55 46 37 47 40 48 54 49 73 50 38 51 39 52 53 54 74 55
REMARK SMILES IDX 41 56 25 57 26 58 34 59 27 60 28 61 32 62 35 63 29 64 30 65
REMARK SMILES IDX 33 66 31 67 57 68 58 69 66 70 59 71 60 72 64 73 67 74 61 75
REMARK SMILES IDX 62 76 65 77 63 78 42 79 43 80 51 81 44 82 45 83 49 84 52 85
REMARK SMILES IDX 46 86 47 87 50 88 48 89
REMARK H PARENT 72 42 40 53
REMARK Flexibility Score: inf
ROOT
ATOM      1  C   UNL     1       5.115  -4.217  -1.121  1.00  0.00     0.274 C 
ENDROOT
BRANCH   1   2
ATOM      2  O   UNL     1       3.689  -4.033  -1.241  1.00  0.00    -0.462 OA
BRANCH   2   3
ATOM      3  C   UNL     1       2.936  -5.153  -1.127  1.00  0.00     0.310 C 
ATOM      4  O   UNL     1       3.390  -6.281  -0.970  1.00  0.00    -0.252 OA
BRANCH   3   5
ATOM      5  C   UNL     1       1.448  -4.886  -1.089  1.00  0.00     0.112 C 
ATOM      6  C   UNL     1       0.377  -2.159  -1.825  1.00  0.00    -0.010 C 
ATOM      7  C   UNL     1       1.192  -2.375  -0.554  1.00  0.00     0.004 C 
ATOM      8  C   UNL     1       0.789  -3.192  -2.907  1.00  0.00     0.019 C 
ATOM      9  C   UNL     1       1.155  -3.810  -0.029  1.00  0.00     0.017 C 
ATOM     10  C   UNL     1       0.715  -4.636  -2.413  1.00  0.00     0.066 C 
BRANCH   6  11
ATOM     11  C   UNL     1      -1.157  -1.990  -1.634  1.00  0.00     0.003 C 
BRANCH  11  12
ATOM     12  C   UNL     1      -1.928  -2.728  -0.528  1.00  0.00    -0.003 C 
ATOM     13  C   UNL     1      -1.807  -2.126   0.870  1.00  0.00     0.004 C 
ENDBRANCH  11  12
ENDBRANCH   6  11
BRANCH  10  14
ATOM     14  S   UNL     1       0.884  -5.891  -3.778  1.00  0.00    -0.122 SA
BRANCH  14  15
ATOM     15  C   UNL     1       2.629  -6.040  -4.096  1.00  0.00     0.011 A 
ATOM     16  C   UNL     1       3.330  -7.131  -3.581  1.00  0.00     0.035 A 
ATOM     17  C   UNL     1       3.303  -5.150  -4.924  1.00  0.00     0.035 A 
ATOM     18  C   UNL     1       4.694  -7.214  -3.802  1.00  0.00     0.112 A 
ATOM     19  C   UNL     1       4.661  -5.344  -5.132  1.00  0.00     0.112 A 
ATOM     20  N   UNL     1       5.379  -6.338  -4.565  1.00  0.00    -0.265 NA
ENDBRANCH  14  15
ENDBRANCH  10  14
ENDBRANCH   3   5
ENDBRANCH   2   3
ENDBRANCH   1   2
BRANCH   1  21
ATOM     21  C   UNL     1       5.589  -4.314   0.339  1.00  0.00     0.275 C 
BRANCH  21  22
ATOM     22  O   UNL     1       5.240  -5.584   0.932  1.00  0.00    -0.458 OA
BRANCH  22  23
ATOM     23  C   UNL     1       4.222  -5.559   1.822  1.00  0.00     0.338 C 
ATOM     24  O   UNL     1       3.679  -4.565   2.289  1.00  0.00    -0.246 OA
BRANCH  23  25
ATOM     25  C   UNL     1       3.696  -6.917   2.060  1.00  0.00     0.060 A 
ATOM     26  C   UNL     1       2.338  -7.143   1.798  1.00  0.00     0.016 A 
ATOM     27  C   UNL     1       4.478  -7.929   2.617  1.00  0.00     0.016 A 
ATOM     28  C   UNL     1       1.750  -8.369   2.089  1.00  0.00     0.010 A 
ATOM     29  C   UNL     1       3.878  -9.152   2.949  1.00  0.00     0.010 A 
ATOM     30  C   UNL     1       2.506  -9.366   2.712  1.00  0.00    -0.014 A 
BRANCH  30  31
ATOM     31  C   UNL     1       1.800 -10.526   3.306  1.00  0.00     0.031 A 
ATOM     32  C   UNL     1       1.460 -10.477   4.770  1.00  0.00     0.074 A 
ATOM     33  C   UNL     1       1.401 -11.567   2.555  1.00  0.00     0.049 A 
ATOM     34  N   UNL     1       0.898 -11.383   5.529  1.00  0.00    -0.248 NA
ATOM     35  C   UNL     1       1.800  -9.230   5.473  1.00  0.00     0.031 C 
ATOM     36  C   UNL     1       1.595 -11.693   1.113  1.00  0.00     0.029 A 
ATOM     37  N   UNL     1       0.745 -12.720   2.911  1.00  0.00    -0.354 N 
ATOM     38  C   UNL     1       0.832 -10.822   6.797  1.00  0.00     0.074 A 
ATOM     39  C   UNL     1       1.430  -9.507   6.713  1.00  0.00     0.031 C 
ATOM     40  C   UNL     1       1.085 -12.868   0.707  1.00  0.00     0.029 A 
ATOM     41  C   UNL     1       0.560 -13.590   1.866  1.00  0.00     0.049 A 
ATOM     42  H   UNL     1       0.437 -12.904   3.828  1.00  0.00     0.167 HD
ATOM     43  C   UNL     1       0.313 -11.352   7.930  1.00  0.00     0.037 A 
ATOM     44  C   UNL     1       0.050 -14.837   1.857  1.00  0.00     0.037 A 
ATOM     45  C   UNL     1      -0.280 -12.661   8.011  1.00  0.00     0.049 A 
ATOM     46  C   UNL     1      -0.458 -15.437   3.144  1.00  0.00     0.074 A 
ATOM     47  C   UNL     1      -0.806 -13.306   9.116  1.00  0.00     0.029 A 
ATOM     48  N   UNL     1      -0.426 -13.525   6.936  1.00  0.00    -0.354 N 
ATOM     49  N   UNL     1      -0.492 -14.915   4.347  1.00  0.00    -0.248 NA
ATOM     50  C   UNL     1      -1.004 -16.800   3.070  1.00  0.00     0.031 C 
ATOM     51  C   UNL     1      -1.233 -14.578   8.718  1.00  0.00     0.029 A 
ATOM     52  C   UNL     1      -1.027 -14.702   7.353  1.00  0.00     0.049 A 
ATOM     53  H   UNL     1      -0.145 -13.331   6.012  1.00  0.00     0.167 HD
ATOM     54  C   UNL     1      -1.094 -15.866   5.162  1.00  0.00     0.074 A 
ATOM     55  C   UNL     1      -1.417 -16.995   4.315  1.00  0.00     0.031 C 
ATOM     56  C   UNL     1      -1.358 -15.809   6.491  1.00  0.00     0.037 A 
BRANCH  43  57
ATOM     57  C   UNL     1       0.409 -10.526   9.180  1.00  0.00     0.064 A 
ATOM     58  C   UNL     1      -0.356  -9.363   9.358  1.00  0.00     0.173 A 
ATOM     59  C   UNL     1       1.282 -10.901  10.211  1.00  0.00     0.173 A 
ATOM     60  F   UNL     1      -1.192  -8.949   8.394  1.00  0.00    -0.203 F 
ATOM     61  C   UNL     1      -0.225  -8.589  10.509  1.00  0.00     0.198 A 
ATOM     62  C   UNL     1       1.387 -10.142  11.374  1.00  0.00     0.198 A 
ATOM     63  F   UNL     1       2.037 -12.004  10.092  1.00  0.00    -0.203 F 
ATOM     64  F   UNL     1      -0.922  -7.451  10.632  1.00  0.00    -0.200 F 
ATOM     65  C   UNL     1       0.642  -8.982  11.518  1.00  0.00     0.200 A 
ATOM     66  F   UNL     1       2.218 -10.530  12.352  1.00  0.00    -0.200 F 
ATOM     67  F   UNL     1       0.767  -8.237  12.624  1.00  0.00    -0.200 F 
ENDBRANCH  43  57
BRANCH  44  68
ATOM     68  C   UNL     1       0.010 -15.614   0.589  1.00  0.00     0.064 A 
ATOM     69  C   UNL     1      -1.207 -15.942  -0.026  1.00  0.00     0.173 A 
ATOM     70  C   UNL     1       1.190 -16.066  -0.021  1.00  0.00     0.173 A 
ATOM     71  F   UNL     1      -2.364 -15.559   0.534  1.00  0.00    -0.203 F 
ATOM     72  C   UNL     1      -1.242 -16.706  -1.191  1.00  0.00     0.198 A 
ATOM     73  C   UNL     1       1.155 -16.804  -1.202  1.00  0.00     0.198 A 
ATOM     74  F   UNL     1       2.380 -15.786   0.530  1.00  0.00    -0.203 F 
ATOM     75  F   UNL     1      -2.420 -17.048  -1.730  1.00  0.00    -0.200 F 
ATOM     76  C   UNL     1      -0.061 -17.130  -1.782  1.00  0.00     0.200 A 
ATOM     77  F   UNL     1       2.299 -17.203  -1.774  1.00  0.00    -0.200 F 
ATOM     78  F   UNL     1      -0.096 -17.863  -2.903  1.00  0.00    -0.200 F 
ENDBRANCH  44  68
BRANCH  56  79
ATOM     79  C   UNL     1      -2.087 -16.973   7.101  1.00  0.00     0.064 A 
ATOM     80  C   UNL     1      -1.475 -18.222   7.280  1.00  0.00     0.173 A 
ATOM     81  C   UNL     1      -3.411 -16.822   7.542  1.00  0.00     0.173 A 
ATOM     82  F   UNL     1      -0.215 -18.423   6.866  1.00  0.00    -0.203 F 
ATOM     83  C   UNL     1      -2.173 -19.286   7.847  1.00  0.00     0.198 A 
ATOM     84  C   UNL     1      -4.095 -17.878   8.137  1.00  0.00     0.198 A 
ATOM     85  F   UNL     1      -4.040 -15.645   7.404  1.00  0.00    -0.203 F 
ATOM     86  F   UNL     1      -1.587 -20.486   7.958  1.00  0.00    -0.200 F 
ATOM     87  C   UNL     1      -3.479 -19.112   8.280  1.00  0.00     0.200 A 
ATOM     88  F   UNL     1      -5.351 -17.703   8.569  1.00  0.00    -0.200 F 
ATOM     89  F   UNL     1      -4.148 -20.136   8.828  1.00  0.00    -0.200 F 
ENDBRANCH  56  79
ENDBRANCH  30  31
ENDBRANCH  23  25
ENDBRANCH  22  23
ENDBRANCH  21  22
ENDBRANCH   1  21
TORSDOF 15
