REMARK SMILES CC[C@H]1CCC[C@@H]([NH2+][C@@](C)(CC)C(=O)OCCOC(=O)c2ccc(-c3c4nc(c(-c5c(F)c(F)c(F)c(F)c5F)c5ccc([nH]5)c(-c5c(F)c(F)c(F)c(F)c5F)c5nc(c(-c6c(F)c(F)c(F)c(F)c6F)c6ccc3[nH]6)C=C5)C=C4)cc2)C1
REMARK SMILES IDX 16 1 15 2 13 3 14 4 9 5 10 6 8 7 7 10 3 11 4 12 84 13 5 14
REMARK SMILES IDX 6 15 2 16 1 17 11 18 12 19 17 20 18 21 19 22 20 23 21 24
REMARK SMILES IDX 22 25 83 26 23 27 82 28 24 29 25 30 26 31 76 32 27 33 81 34
REMARK SMILES IDX 75 35 77 36 28 37 80 38 74 39 73 40 29 42 61 43 41 44 60 45
REMARK SMILES IDX 42 46 45 47 59 48 78 49 43 50 44 51 58 53 79 54 46 55 30 56
REMARK SMILES IDX 31 57 39 58 32 59 33 60 37 61 40 62 34 63 35 64 38 65 36 66
REMARK SMILES IDX 62 67 63 68 71 69 64 70 65 71 69 72 72 73 66 74 67 75 70 76
REMARK SMILES IDX 68 77 47 78 48 79 56 80 49 81 50 82 54 83 57 84 51 85 52 86
REMARK SMILES IDX 55 87 53 88
REMARK H PARENT 8 8 8 9 77 41 45 52
REMARK Flexibility Score: inf
ROOT
ATOM      1  C   UNL     1       1.907  -8.410   4.357  1.00  0.00     0.274 C 
ENDROOT
BRANCH   1   2
ATOM      2  O   UNL     1       1.593  -6.990   4.222  1.00  0.00    -0.457 OA
BRANCH   2   3
ATOM      3  C   UNL     1       2.450  -6.283   3.426  1.00  0.00     0.367 C 
ATOM      4  O   UNL     1       3.368  -6.848   2.826  1.00  0.00    -0.245 OA
BRANCH   3   5
ATOM      5  C   UNL     1       2.312  -4.715   3.498  1.00  0.00     0.191 C 
ATOM      6  C   UNL     1       3.850  -4.343   3.370  1.00  0.00     0.092 C 
BRANCH   5   7
ATOM      7  N   UNL     1       1.743  -3.891   2.370  1.00  0.00    -0.330 N 
ATOM      8  H   UNL     1       1.922  -2.936   2.682  1.00  0.00     0.347 HD
ATOM      9  H   UNL     1       2.153  -4.469   1.636  1.00  0.00     0.347 HD
BRANCH   7  10
ATOM     10  C   UNL     1       0.391  -3.764   1.680  1.00  0.00     0.183 C 
ATOM     11  C   UNL     1       1.462  -2.712  -1.151  1.00  0.00    -0.006 C 
ATOM     12  C   UNL     1       1.634  -4.444  -1.966  1.00  0.00     0.004 C 
ATOM     13  C   UNL     1       0.631  -2.462   0.467  1.00  0.00     0.068 C 
ATOM     14  C   UNL     1       0.524  -5.937  -1.138  1.00  0.00     0.006 C 
ATOM     15  C   UNL     1      -0.388  -5.244   0.751  1.00  0.00     0.065 C 
BRANCH  11  16
ATOM     16  C   UNL     1       2.800  -1.928  -1.166  1.00  0.00     0.000 C 
ATOM     17  C   UNL     1       3.768  -2.199  -0.019  1.00  0.00     0.004 C 
ENDBRANCH  11  16
ENDBRANCH   7  10
ENDBRANCH   5   7
BRANCH   5  18
ATOM     18  C   UNL     1       1.931  -4.243   4.916  1.00  0.00     0.077 C 
ATOM     19  C   UNL     1       0.456  -3.977   5.123  1.00  0.00     0.011 C 
ENDBRANCH   5  18
ENDBRANCH   3   5
ENDBRANCH   2   3
ENDBRANCH   1   2
BRANCH   1  20
ATOM     20  C   UNL     1       0.886  -9.276   3.628  1.00  0.00     0.275 C 
BRANCH  20  21
ATOM     21  O   UNL     1       0.943  -8.941   2.230  1.00  0.00    -0.458 OA
BRANCH  21  22
ATOM     22  C   UNL     1      -0.119  -8.226   1.826  1.00  0.00     0.338 C 
ATOM     23  O   UNL     1      -1.168  -8.073   2.440  1.00  0.00    -0.246 OA
BRANCH  22  24
ATOM     24  C   UNL     1       0.153  -7.434   0.600  1.00  0.00     0.060 A 
ATOM     25  C   UNL     1       1.427  -6.286   0.719  1.00  0.00     0.016 A 
ATOM     26  C   UNL     1      -1.308  -7.080  -0.209  1.00  0.00     0.016 A 
ATOM     27  C   UNL     1       1.200  -4.674  -0.034  1.00  0.00     0.010 A 
ATOM     28  C   UNL     1      -1.654  -5.620  -0.993  1.00  0.00     0.010 A 
ATOM     29  C   UNL     1      -0.451  -4.313  -1.022  1.00  0.00    -0.014 A 
BRANCH  29  30
ATOM     30  C   UNL     1      -0.926  -3.809  -2.618  1.00  0.00     0.031 A 
ATOM     31  C   UNL     1      -2.180  -2.914  -2.735  1.00  0.00     0.074 A 
ATOM     32  C   UNL     1      -0.648  -4.447  -3.825  1.00  0.00     0.049 A 
ATOM     33  N   UNL     1      -2.796  -2.455  -3.808  1.00  0.00    -0.248 NA
ATOM     34  C   UNL     1      -2.876  -2.591  -1.483  1.00  0.00     0.031 C 
ATOM     35  C   UNL     1       0.254  -5.588  -4.070  1.00  0.00     0.029 A 
ATOM     36  N   UNL     1      -1.068  -4.195  -5.142  1.00  0.00    -0.354 N 
ATOM     37  C   UNL     1      -3.940  -1.794  -3.364  1.00  0.00     0.074 A 
ATOM     38  C   UNL     1      -3.959  -1.961  -1.922  1.00  0.00     0.031 C 
ATOM     39  C   UNL     1       0.455  -5.806  -5.363  1.00  0.00     0.029 A 
ATOM     40  C   UNL     1      -0.413  -4.945  -6.115  1.00  0.00     0.049 A 
ATOM     41  H   UNL     1      -1.770  -3.541  -5.359  1.00  0.00     0.167 HD
ATOM     42  C   UNL     1      -4.890  -1.113  -4.065  1.00  0.00     0.037 A 
ATOM     43  C   UNL     1      -0.429  -5.014  -7.464  1.00  0.00     0.037 A 
ATOM     44  C   UNL     1      -4.946  -0.982  -5.506  1.00  0.00     0.049 A 
ATOM     45  C   UNL     1      -1.376  -4.164  -8.229  1.00  0.00     0.074 A 
ATOM     46  C   UNL     1      -5.793  -0.189  -6.269  1.00  0.00     0.029 A 
ATOM     47  N   UNL     1      -4.170  -1.695  -6.408  1.00  0.00    -0.354 N 
ATOM     48  N   UNL     1      -2.288  -3.356  -7.762  1.00  0.00    -0.248 NA
ATOM     49  C   UNL     1      -1.310  -4.235  -9.694  1.00  0.00     0.031 C 
ATOM     50  C   UNL     1      -5.577  -0.471  -7.624  1.00  0.00     0.029 A 
ATOM     51  C   UNL     1      -4.543  -1.385  -7.713  1.00  0.00     0.049 A 
ATOM     52  H   UNL     1      -3.459  -2.329  -6.162  1.00  0.00     0.167 HD
ATOM     53  C   UNL     1      -2.904  -2.812  -8.873  1.00  0.00     0.074 A 
ATOM     54  C   UNL     1      -2.245  -3.362 -10.039  1.00  0.00     0.031 C 
ATOM     55  C   UNL     1      -3.930  -1.932  -8.897  1.00  0.00     0.037 A 
BRANCH  42  56
ATOM     56  C   UNL     1      -5.972  -0.413  -3.271  1.00  0.00     0.064 A 
ATOM     57  C   UNL     1      -5.669   0.663  -2.420  1.00  0.00     0.173 A 
ATOM     58  C   UNL     1      -7.325  -0.772  -3.401  1.00  0.00     0.173 A 
ATOM     59  F   UNL     1      -4.398   1.067  -2.271  1.00  0.00    -0.203 F 
ATOM     60  C   UNL     1      -6.663   1.311  -1.689  1.00  0.00     0.198 A 
ATOM     61  C   UNL     1      -8.322  -0.097  -2.696  1.00  0.00     0.198 A 
ATOM     62  F   UNL     1      -7.687  -1.768  -4.222  1.00  0.00    -0.203 F 
ATOM     63  F   UNL     1      -6.333   2.292  -0.838  1.00  0.00    -0.200 F 
ATOM     64  C   UNL     1      -7.988   0.933  -1.829  1.00  0.00     0.200 A 
ATOM     65  F   UNL     1      -9.607  -0.444  -2.853  1.00  0.00    -0.200 F 
ATOM     66  F   UNL     1      -8.943   1.557  -1.125  1.00  0.00    -0.200 F 
ENDBRANCH  42  56
BRANCH  43  67
ATOM     67  C   UNL     1       0.547  -5.905  -8.178  1.00  0.00     0.064 A 
ATOM     68  C   UNL     1       1.645  -5.357  -8.861  1.00  0.00     0.173 A 
ATOM     69  C   UNL     1       0.470  -7.306  -8.104  1.00  0.00     0.173 A 
ATOM     70  F   UNL     1       1.760  -4.026  -8.983  1.00  0.00    -0.203 F 
ATOM     71  C   UNL     1       2.625  -6.170  -9.432  1.00  0.00     0.198 A 
ATOM     72  C   UNL     1       1.472  -8.116  -8.639  1.00  0.00     0.198 A 
ATOM     73  F   UNL     1      -0.543  -7.887  -7.445  1.00  0.00    -0.203 F 
ATOM     74  F   UNL     1       3.650  -5.617 -10.095  1.00  0.00    -0.200 F 
ATOM     75  C   UNL     1       2.547  -7.548  -9.304  1.00  0.00     0.200 A 
ATOM     76  F   UNL     1       1.412  -9.446  -8.482  1.00  0.00    -0.200 F 
ATOM     77  F   UNL     1       3.511  -8.327  -9.815  1.00  0.00    -0.200 F 
ENDBRANCH  43  67
BRANCH  55  78
ATOM     78  C   UNL     1      -4.403  -1.480 -10.245  1.00  0.00     0.064 A 
ATOM     79  C   UNL     1      -5.082  -2.342 -11.120  1.00  0.00     0.173 A 
ATOM     80  C   UNL     1      -4.169  -0.165 -10.669  1.00  0.00     0.173 A 
ATOM     81  F   UNL     1      -5.304  -3.620 -10.775  1.00  0.00    -0.203 F 
ATOM     82  C   UNL     1      -5.491  -1.908 -12.378  1.00  0.00     0.198 A 
ATOM     83  C   UNL     1      -4.606   0.275 -11.915  1.00  0.00     0.198 A 
ATOM     84  F   UNL     1      -3.512   0.695  -9.876  1.00  0.00    -0.203 F 
ATOM     85  F   UNL     1      -6.089  -2.763 -13.219  1.00  0.00    -0.200 F 
ATOM     86  C   UNL     1      -5.260  -0.598 -12.771  1.00  0.00     0.200 A 
ATOM     87  F   UNL     1      -4.387   1.543 -12.290  1.00  0.00    -0.200 F 
ATOM     88  F   UNL     1      -5.658  -0.179 -13.980  1.00  0.00    -0.200 F 
ENDBRANCH  55  78
ENDBRANCH  29  30
ENDBRANCH  22  24
ENDBRANCH  21  22
ENDBRANCH  20  21
ENDBRANCH   1  20
TORSDOF 15
