REMARK SMILES CCc1ccc(C[NH+]2CCC(Oc3ccccc3OC)(C(=O)OCCOC(=O)c3ccc(-c4c5nc(c(-c6c(F)c(F)c(F)c(F)c6F)c6ccc([nH]6)c(-c6c(F)c(F)c(F)c(F)c6F)c6nc(c(-c7c(F)c(F)c(F)c(F)c7F)c7ccc4[nH]7)C=C6)C=C5)cc3)CC2)nc1
REMARK SMILES IDX 24 1 23 2 21 3 22 4 11 5 8 6 9 7 93 8 10 10 92 11 7 12 6 13
REMARK SMILES IDX 3 14 4 15 95 16 5 17 94 18 2 19 1 20 12 21 13 22 14 23 18 24
REMARK SMILES IDX 15 25 17 26 16 27 19 28 20 29 25 30 26 31 27 32 28 33 29 34
REMARK SMILES IDX 30 35 91 36 31 37 90 38 32 39 33 40 34 41 84 42 35 43 89 44
REMARK SMILES IDX 83 45 85 46 36 47 88 48 82 49 81 50 37 52 69 53 49 54 68 55
REMARK SMILES IDX 50 56 53 57 67 58 86 59 51 60 52 61 66 63 87 64 54 65 38 66
REMARK SMILES IDX 39 67 47 68 40 69 41 70 45 71 48 72 42 73 43 74 46 75 44 76
REMARK SMILES IDX 70 77 71 78 79 79 72 80 73 81 77 82 80 83 74 84 75 85 78 86
REMARK SMILES IDX 76 87 55 88 56 89 64 90 57 91 58 92 62 93 65 94 59 95 60 96
REMARK SMILES IDX 63 97 61 98
REMARK H PARENT 8 9 85 51 53 62
REMARK Flexibility Score: inf
ROOT
ATOM      1  C   UNL     1       5.073  -3.602  -0.146  1.00  0.00     0.274 C 
ENDROOT
BRANCH   1   2
ATOM      2  O   UNL     1       5.000  -3.732  -1.581  1.00  0.00    -0.459 OA
BRANCH   2   3
ATOM      3  C   UNL     1       4.541  -4.935  -2.027  1.00  0.00     0.351 C 
ATOM      4  O   UNL     1       4.035  -5.776  -1.285  1.00  0.00    -0.247 OA
BRANCH   3   5
ATOM      5  C   UNL     1       4.836  -5.215  -3.511  1.00  0.00     0.216 C 
ATOM      6  N   UNL     1       3.238  -3.614  -5.384  1.00  0.00    -0.330 N 
ATOM      7  C   UNL     1       4.364  -3.000  -4.675  1.00  0.00     0.267 C 
ATOM      8  C   UNL     1       2.583  -4.617  -4.548  1.00  0.00     0.267 C 
ATOM      9  H   UNL     1       3.629  -4.086  -6.199  1.00  0.00     0.348 HD
ATOM     10  C   UNL     1       5.414  -4.043  -4.308  1.00  0.00     0.122 C 
ATOM     11  C   UNL     1       3.561  -5.747  -4.196  1.00  0.00     0.122 C 
BRANCH   6  12
ATOM     12  C   UNL     1       2.275  -2.627  -5.939  1.00  0.00     0.319 C 
BRANCH  12  13
ATOM     13  C   UNL     1       1.725  -1.557  -5.003  1.00  0.00     0.095 A 
ATOM     14  C   UNL     1       0.836   0.273  -3.128  1.00  0.00    -0.030 A 
ATOM     15  C   UNL     1       2.052   0.485  -3.771  1.00  0.00     0.007 A 
ATOM     16  C   UNL     1       0.095  -0.835  -3.530  1.00  0.00     0.115 A 
ATOM     17  C   UNL     1       2.492  -0.423  -4.728  1.00  0.00     0.030 A 
ATOM     18  N   UNL     1       0.505  -1.754  -4.441  1.00  0.00    -0.255 NA
BRANCH  14  19
ATOM     19  C   UNL     1       0.395   1.157  -1.994  1.00  0.00     0.034 C 
ATOM     20  C   UNL     1       0.995   0.727  -0.660  1.00  0.00     0.009 C 
ENDBRANCH  14  19
ENDBRANCH  12  13
ENDBRANCH   6  12
BRANCH   5  21
ATOM     21  O   UNL     1       5.901  -6.179  -3.247  1.00  0.00    -0.471 OA
BRANCH  21  22
ATOM     22  C   UNL     1       6.055  -7.225  -4.101  1.00  0.00     0.162 A 
ATOM     23  C   UNL     1       5.383  -8.416  -3.820  1.00  0.00     0.050 A 
ATOM     24  C   UNL     1       6.978  -7.172  -5.149  1.00  0.00     0.160 A 
ATOM     25  C   UNL     1       5.567  -9.530  -4.639  1.00  0.00     0.004 A 
ATOM     26  C   UNL     1       7.137  -8.276  -5.985  1.00  0.00     0.050 A 
ATOM     27  C   UNL     1       6.435  -9.456  -5.728  1.00  0.00     0.004 A 
BRANCH  24  28
ATOM     28  O   UNL     1       7.699  -6.049  -5.455  1.00  0.00    -0.493 OA
ATOM     29  C   UNL     1       8.658  -5.732  -4.447  1.00  0.00     0.278 C 
ENDBRANCH  24  28
ENDBRANCH  21  22
ENDBRANCH   5  21
ENDBRANCH   3   5
ENDBRANCH   2   3
ENDBRANCH   1   2
BRANCH   1  30
ATOM     30  C   UNL     1       3.868  -2.889   0.466  1.00  0.00     0.275 C 
BRANCH  30  31
ATOM     31  O   UNL     1       2.640  -3.591   0.201  1.00  0.00    -0.458 OA
BRANCH  31  32
ATOM     32  C   UNL     1       1.923  -3.052  -0.810  1.00  0.00     0.338 C 
ATOM     33  O   UNL     1       2.220  -2.058  -1.449  1.00  0.00    -0.246 OA
BRANCH  32  34
ATOM     34  C   UNL     1       0.714  -3.834  -1.116  1.00  0.00     0.060 A 
ATOM     35  C   UNL     1       0.847  -5.112  -1.653  1.00  0.00     0.016 A 
ATOM     36  C   UNL     1      -0.526  -3.195  -1.129  1.00  0.00     0.016 A 
ATOM     37  C   UNL     1      -0.215  -5.688  -2.342  1.00  0.00     0.010 A 
ATOM     38  C   UNL     1      -1.618  -3.809  -1.746  1.00  0.00     0.010 A 
ATOM     39  C   UNL     1      -1.456  -5.040  -2.398  1.00  0.00    -0.014 A 
BRANCH  39  40
ATOM     40  C   UNL     1      -2.599  -5.680  -3.087  1.00  0.00     0.031 A 
ATOM     41  C   UNL     1      -3.197  -5.084  -4.327  1.00  0.00     0.074 A 
ATOM     42  C   UNL     1      -3.106  -6.810  -2.562  1.00  0.00     0.049 A 
ATOM     43  N   UNL     1      -4.310  -5.404  -4.939  1.00  0.00    -0.248 NA
ATOM     44  C   UNL     1      -2.453  -3.989  -4.966  1.00  0.00     0.031 C 
ATOM     45  C   UNL     1      -2.575  -7.499  -1.385  1.00  0.00     0.029 A 
ATOM     46  N   UNL     1      -4.184  -7.567  -2.938  1.00  0.00    -0.354 N 
ATOM     47  C   UNL     1      -4.412  -4.539  -6.020  1.00  0.00     0.074 A 
ATOM     48  C   UNL     1      -3.250  -3.676  -5.982  1.00  0.00     0.031 C 
ATOM     49  C   UNL     1      -3.333  -8.574  -1.129  1.00  0.00     0.029 A 
ATOM     50  C   UNL     1      -4.441  -8.601  -2.076  1.00  0.00     0.049 A 
ATOM     51  H   UNL     1      -4.719  -7.386  -3.745  1.00  0.00     0.167 HD
ATOM     52  C   UNL     1      -5.393  -4.480  -6.953  1.00  0.00     0.037 A 
ATOM     53  C   UNL     1      -5.486  -9.444  -2.011  1.00  0.00     0.037 A 
ATOM     54  C   UNL     1      -6.535  -5.359  -6.990  1.00  0.00     0.049 A 
ATOM     55  C   UNL     1      -6.586  -9.321  -3.017  1.00  0.00     0.074 A 
ATOM     56  C   UNL     1      -7.582  -5.382  -7.896  1.00  0.00     0.029 A 
ATOM     57  N   UNL     1      -6.772  -6.380  -6.081  1.00  0.00    -0.354 N 
ATOM     58  N   UNL     1      -6.710  -8.460  -3.996  1.00  0.00    -0.248 NA
ATOM     59  C   UNL     1      -7.695 -10.275  -2.903  1.00  0.00     0.031 C 
ATOM     60  C   UNL     1      -8.467  -6.401  -7.519  1.00  0.00     0.029 A 
ATOM     61  C   UNL     1      -7.955  -7.032  -6.397  1.00  0.00     0.049 A 
ATOM     62  H   UNL     1      -6.187  -6.609  -5.323  1.00  0.00     0.167 HD
ATOM     63  C   UNL     1      -7.912  -8.760  -4.614  1.00  0.00     0.074 A 
ATOM     64  C   UNL     1      -8.471  -9.898  -3.910  1.00  0.00     0.031 C 
ATOM     65  C   UNL     1      -8.502  -8.145  -5.667  1.00  0.00     0.037 A 
BRANCH  52  66
ATOM     66  C   UNL     1      -5.297  -3.419  -8.008  1.00  0.00     0.064 A 
ATOM     67  C   UNL     1      -4.439  -3.554  -9.109  1.00  0.00     0.173 A 
ATOM     68  C   UNL     1      -6.138  -2.296  -7.963  1.00  0.00     0.173 A 
ATOM     69  F   UNL     1      -3.614  -4.607  -9.197  1.00  0.00    -0.203 F 
ATOM     70  C   UNL     1      -4.425  -2.600 -10.126  1.00  0.00     0.198 A 
ATOM     71  C   UNL     1      -6.133  -1.354  -8.988  1.00  0.00     0.198 A 
ATOM     72  F   UNL     1      -6.983  -2.127  -6.935  1.00  0.00    -0.203 F 
ATOM     73  F   UNL     1      -3.591  -2.742 -11.165  1.00  0.00    -0.200 F 
ATOM     74  C   UNL     1      -5.277  -1.507 -10.068  1.00  0.00     0.200 A 
ATOM     75  F   UNL     1      -6.966  -0.305  -8.938  1.00  0.00    -0.200 F 
ATOM     76  F   UNL     1      -5.275  -0.601 -11.056  1.00  0.00    -0.200 F 
ENDBRANCH  52  66
BRANCH  53  77
ATOM     77  C   UNL     1      -5.540 -10.422  -0.899  1.00  0.00     0.064 A 
ATOM     78  C   UNL     1      -5.255 -11.774  -1.113  1.00  0.00     0.173 A 
ATOM     79  C   UNL     1      -5.780  -9.996   0.416  1.00  0.00     0.173 A 
ATOM     80  F   UNL     1      -5.034 -12.224  -2.357  1.00  0.00    -0.203 F 
ATOM     81  C   UNL     1      -5.196 -12.668  -0.046  1.00  0.00     0.198 A 
ATOM     82  C   UNL     1      -5.698 -10.885   1.483  1.00  0.00     0.198 A 
ATOM     83  F   UNL     1      -6.046  -8.706   0.666  1.00  0.00    -0.203 F 
ATOM     84  F   UNL     1      -4.927 -13.960  -0.272  1.00  0.00    -0.200 F 
ATOM     85  C   UNL     1      -5.405 -12.220   1.252  1.00  0.00     0.200 A 
ATOM     86  F   UNL     1      -5.880 -10.444   2.736  1.00  0.00    -0.200 F 
ATOM     87  F   UNL     1      -5.318 -13.075   2.279  1.00  0.00    -0.200 F 
ENDBRANCH  53  77
BRANCH  65  88
ATOM     88  C   UNL     1      -9.822  -8.695  -6.107  1.00  0.00     0.064 A 
ATOM     89  C   UNL     1     -10.999  -8.404  -5.403  1.00  0.00     0.173 A 
ATOM     90  C   UNL     1      -9.910  -9.517  -7.239  1.00  0.00     0.173 A 
ATOM     91  F   UNL     1     -10.955  -7.637  -4.303  1.00  0.00    -0.203 F 
ATOM     92  C   UNL     1     -12.219  -8.937  -5.807  1.00  0.00     0.198 A 
ATOM     93  C   UNL     1     -11.135 -10.034  -7.649  1.00  0.00     0.198 A 
ATOM     94  F   UNL     1      -8.809  -9.822  -7.941  1.00  0.00    -0.203 F 
ATOM     95  F   UNL     1     -13.327  -8.681  -5.098  1.00  0.00    -0.200 F 
ATOM     96  C   UNL     1     -12.287  -9.749  -6.929  1.00  0.00     0.200 A 
ATOM     97  F   UNL     1     -11.201 -10.819  -8.733  1.00  0.00    -0.200 F 
ATOM     98  F   UNL     1     -13.462 -10.268  -7.311  1.00  0.00    -0.200 F 
ENDBRANCH  65  88
ENDBRANCH  39  40
ENDBRANCH  32  34
ENDBRANCH  31  32
ENDBRANCH  30  31
ENDBRANCH   1  30
TORSDOF 17
