REMARK SMILES COc1ccc(-c2cc(Cl)cc3c2O[C@H](C(F)(F)F)C(C(=O)OCCOC(=O)c2ccc(-c4c5nc(c(-c6c(F)c(F)c(F)c(F)c6F)c6ccc([nH]6)c(-c6c(F)c(F)c(F)c(F)c6F)c6nc(c(-c7c(F)c(F)c(F)c(F)c7F)c7ccc4[nH]7)C=C6)C=C5)cc2)=C3)cc1C
REMARK SMILES IDX 24 1 23 2 21 3 22 4 20 5 7 6 8 7 13 8 9 9 12 10 14 11 10 12
REMARK SMILES IDX 11 13 92 14 15 15 6 16 3 17 4 18 94 19 5 20 93 21 95 22 2 23
REMARK SMILES IDX 1 24 16 25 17 26 18 27 19 28 25 29 26 30 27 31 28 32 29 33
REMARK SMILES IDX 30 34 91 35 31 36 90 37 32 38 33 39 34 40 84 41 35 42 89 43
REMARK SMILES IDX 83 44 85 45 36 46 88 47 82 48 81 49 37 51 69 52 49 53 68 54
REMARK SMILES IDX 50 55 53 56 67 57 86 58 51 59 52 60 66 62 87 63 54 64 38 65
REMARK SMILES IDX 39 66 47 67 40 68 41 69 45 70 48 71 42 72 43 73 46 74 44 75
REMARK SMILES IDX 70 76 71 77 79 78 72 79 73 80 77 81 80 82 74 83 75 84 78 85
REMARK SMILES IDX 76 86 55 87 56 88 64 89 57 90 58 91 62 92 65 93 59 94 60 95
REMARK SMILES IDX 63 96 61 97
REMARK H PARENT 85 50 53 61
REMARK Flexibility Score: inf
ROOT
ATOM      1  C   UNL     1      -2.331  -1.014   5.740  1.00  0.00     0.275 C 
ENDROOT
BRANCH   1   2
ATOM      2  O   UNL     1      -1.523  -1.184   6.932  1.00  0.00    -0.459 OA
BRANCH   2   3
ATOM      3  C   UNL     1      -1.602  -0.057   7.690  1.00  0.00     0.338 C 
ATOM      4  O   UNL     1      -2.809   0.269   7.890  1.00  0.00    -0.246 OA
BRANCH   3   5
ATOM      5  C   UNL     1       0.136   0.941   8.041  1.00  0.00     0.087 C 
ATOM      6  C   UNL     1       1.221   3.741   5.661  1.00  0.00     0.026 A 
ATOM      7  C   UNL     1       2.289   4.688   5.861  1.00  0.00     0.033 A 
ATOM      8  C   UNL     1       0.735   3.186   6.966  1.00  0.00     0.135 A 
ATOM      9  C   UNL     1       2.868   4.996   7.119  1.00  0.00     0.042 A 
ATOM     10  C   UNL     1       1.581   3.315   8.032  1.00  0.00     0.019 A 
ATOM     11  O   UNL     1       0.087   1.684   7.564  1.00  0.00    -0.475 OA
ATOM     12  Cl  UNL     1       4.180   6.105   7.223  1.00  0.00    -0.084 Cl
ATOM     13  C   UNL     1       2.520   4.289   8.244  1.00  0.00     0.032 A 
ATOM     14  C   UNL     1       1.655   1.886   8.316  1.00  0.00     0.027 C 
ATOM     15  C   UNL     1      -1.141   0.773   8.851  1.00  0.00     0.316 C 
BRANCH   6  16
ATOM     16  C   UNL     1       0.991   3.429   4.081  1.00  0.00    -0.014 A 
ATOM     17  C   UNL     1       0.705   2.227   1.398  1.00  0.00     0.121 A 
ATOM     18  C   UNL     1      -0.380   2.526   2.229  1.00  0.00     0.047 A 
ATOM     19  C   UNL     1       1.952   2.716   1.767  1.00  0.00    -0.008 A 
ATOM     20  C   UNL     1      -0.240   3.101   3.532  1.00  0.00     0.013 A 
ATOM     21  C   UNL     1       2.056   3.392   3.064  1.00  0.00     0.016 A 
ATOM     22  C   UNL     1       3.159   2.279   0.938  1.00  0.00     0.048 C 
BRANCH  17  23
ATOM     23  O   UNL     1       0.466   1.607   0.195  1.00  0.00    -0.496 OA
ATOM     24  C   UNL     1       0.861   0.230   0.096  1.00  0.00     0.278 C 
ENDBRANCH  17  23
ENDBRANCH   6  16
BRANCH  15  25
ATOM     25  C   UNL     1      -1.235  -0.524  10.061  1.00  0.00     0.430 C 
ATOM     26  F   UNL     1      -0.168  -0.864  10.806  1.00  0.00    -0.167 F 
ATOM     27  F   UNL     1      -2.186  -0.149  10.982  1.00  0.00    -0.167 F 
ATOM     28  F   UNL     1      -1.747  -1.669   9.540  1.00  0.00    -0.167 F 
ENDBRANCH  15  25
ENDBRANCH   3   5
ENDBRANCH   2   3
ENDBRANCH   1   2
BRANCH   1  29
ATOM     29  C   UNL     1      -3.122   0.375   5.289  1.00  0.00     0.275 C 
BRANCH  29  30
ATOM     30  O   UNL     1      -2.915   1.920   5.545  1.00  0.00    -0.458 OA
BRANCH  30  31
ATOM     31  C   UNL     1      -2.411   2.883   6.428  1.00  0.00     0.338 C 
ATOM     32  O   UNL     1      -2.519   4.086   6.257  1.00  0.00    -0.246 OA
BRANCH  31  33
ATOM     33  C   UNL     1      -1.456   2.336   7.377  1.00  0.00     0.060 A 
ATOM     34  C   UNL     1      -0.542   2.513   9.162  1.00  0.00     0.016 A 
ATOM     35  C   UNL     1      -0.708   1.002   6.129  1.00  0.00     0.016 A 
ATOM     36  C   UNL     1       0.652   1.021   9.816  1.00  0.00     0.010 A 
ATOM     37  C   UNL     1       0.562  -0.321   6.724  1.00  0.00     0.010 A 
ATOM     38  C   UNL     1       1.270  -0.385   8.518  1.00  0.00    -0.014 A 
BRANCH  38  39
ATOM     39  C   UNL     1       2.304  -1.653   8.046  1.00  0.00     0.031 A 
ATOM     40  C   UNL     1       2.143  -2.712   9.067  1.00  0.00     0.074 A 
ATOM     41  C   UNL     1       2.882  -1.909   6.721  1.00  0.00     0.049 A 
ATOM     42  N   UNL     1       2.994  -3.188   9.918  1.00  0.00    -0.248 NA
ATOM     43  C   UNL     1       0.774  -3.130   9.393  1.00  0.00     0.031 C 
ATOM     44  C   UNL     1       3.382  -3.082   5.856  1.00  0.00     0.029 A 
ATOM     45  N   UNL     1       3.182  -0.982   5.685  1.00  0.00    -0.354 N 
ATOM     46  C   UNL     1       2.338  -4.311  10.433  1.00  0.00     0.074 A 
ATOM     47  C   UNL     1       0.950  -3.951  10.425  1.00  0.00     0.031 C 
ATOM     48  C   UNL     1       4.320  -2.709   4.930  1.00  0.00     0.029 A 
ATOM     49  C   UNL     1       4.387  -1.285   4.989  1.00  0.00     0.049 A 
ATOM     50  H   UNL     1       2.613  -0.208   5.469  1.00  0.00     0.167 HD
ATOM     51  C   UNL     1       2.743  -5.559  10.030  1.00  0.00     0.037 A 
ATOM     52  C   UNL     1       5.516  -0.506   4.918  1.00  0.00     0.037 A 
ATOM     53  C   UNL     1       3.701  -5.438   8.936  1.00  0.00     0.049 A 
ATOM     54  C   UNL     1       6.441  -1.115   5.866  1.00  0.00     0.074 A 
ATOM     55  C   UNL     1       3.657  -5.730   7.588  1.00  0.00     0.029 A 
ATOM     56  N   UNL     1       4.791  -4.602   9.106  1.00  0.00    -0.354 N 
ATOM     57  N   UNL     1       5.977  -1.834   6.838  1.00  0.00    -0.248 NA
ATOM     58  C   UNL     1       7.871  -1.115   5.682  1.00  0.00     0.031 C 
ATOM     59  C   UNL     1       4.846  -5.193   7.003  1.00  0.00     0.029 A 
ATOM     60  C   UNL     1       5.515  -4.436   7.957  1.00  0.00     0.049 A 
ATOM     61  H   UNL     1       5.021  -4.173   9.962  1.00  0.00     0.167 HD
ATOM     62  C   UNL     1       6.974  -2.656   7.188  1.00  0.00     0.074 A 
ATOM     63  C   UNL     1       8.147  -2.154   6.478  1.00  0.00     0.031 C 
ATOM     64  C   UNL     1       6.768  -3.697   8.023  1.00  0.00     0.037 A 
BRANCH  51  65
ATOM     65  C   UNL     1       2.094  -6.880  10.412  1.00  0.00     0.064 A 
ATOM     66  C   UNL     1       2.559  -8.077   9.823  1.00  0.00     0.173 A 
ATOM     67  C   UNL     1       1.115  -7.061  11.415  1.00  0.00     0.173 A 
ATOM     68  F   UNL     1       3.522  -8.072   8.892  1.00  0.00    -0.203 F 
ATOM     69  C   UNL     1       2.089  -9.338  10.192  1.00  0.00     0.198 A 
ATOM     70  C   UNL     1       0.625  -8.329  11.767  1.00  0.00     0.198 A 
ATOM     71  F   UNL     1       0.633  -6.033  12.125  1.00  0.00    -0.203 F 
ATOM     72  F   UNL     1       2.607 -10.430   9.611  1.00  0.00    -0.200 F 
ATOM     73  C   UNL     1       1.122  -9.467  11.163  1.00  0.00     0.200 A 
ATOM     74  F   UNL     1      -0.312  -8.445  12.720  1.00  0.00    -0.200 F 
ATOM     75  F   UNL     1       0.693 -10.681  11.533  1.00  0.00    -0.200 F 
ENDBRANCH  51  65
BRANCH  52  76
ATOM     76  C   UNL     1       5.394   0.987   4.814  1.00  0.00     0.064 A 
ATOM     77  C   UNL     1       4.605   1.200   3.687  1.00  0.00     0.173 A 
ATOM     78  C   UNL     1       5.049   1.544   6.036  1.00  0.00     0.173 A 
ATOM     79  F   UNL     1       5.034   0.767   2.495  1.00  0.00    -0.203 F 
ATOM     80  C   UNL     1       3.266   1.166   3.929  1.00  0.00     0.198 A 
ATOM     81  C   UNL     1       3.710   1.555   6.258  1.00  0.00     0.198 A 
ATOM     82  F   UNL     1       5.816   1.332   7.120  1.00  0.00    -0.203 F 
ATOM     83  F   UNL     1       2.421   0.531   3.093  1.00  0.00    -0.200 F 
ATOM     84  C   UNL     1       2.820   1.423   5.194  1.00  0.00     0.200 A 
ATOM     85  F   UNL     1       3.431   1.011   7.440  1.00  0.00    -0.200 F 
ATOM     86  F   UNL     1       1.536   1.160   5.334  1.00  0.00    -0.200 F 
ENDBRANCH  52  76
BRANCH  64  87
ATOM     87  C   UNL     1       7.855  -4.084   8.951  1.00  0.00     0.064 A 
ATOM     88  C   UNL     1       9.004  -3.299   9.140  1.00  0.00     0.173 A 
ATOM     89  C   UNL     1       7.744  -5.216   9.771  1.00  0.00     0.173 A 
ATOM     90  F   UNL     1       9.098  -2.034   8.704  1.00  0.00    -0.203 F 
ATOM     91  C   UNL     1      10.088  -3.768   9.846  1.00  0.00     0.198 A 
ATOM     92  C   UNL     1       8.768  -5.594  10.616  1.00  0.00     0.198 A 
ATOM     93  F   UNL     1       6.644  -5.977   9.821  1.00  0.00    -0.203 F 
ATOM     94  F   UNL     1      11.237  -3.084   9.807  1.00  0.00    -0.200 F 
ATOM     95  C   UNL     1       9.967  -4.916  10.595  1.00  0.00     0.200 A 
ATOM     96  F   UNL     1       8.578  -6.625  11.448  1.00  0.00    -0.200 F 
ATOM     97  F   UNL     1      10.994  -5.345  11.331  1.00  0.00    -0.200 F 
ENDBRANCH  64  87
ENDBRANCH  38  39
ENDBRANCH  31  33
ENDBRANCH  30  31
ENDBRANCH  29  30
ENDBRANCH   1  29
TORSDOF 14
