REMARK SMILES C[C@H]1[C@H](C(=O)OCCOC(=O)c2ccc(-c3c4nc(c(-c5c(F)c(F)c(F)c(F)c5F)c5ccc([nH]5)c(-c5c(F)c(F)c(F)c(F)c5F)c5nc(c(-c6c(F)c(F)c(F)c(F)c6F)c6ccc3[nH]6)C=C5)C=C4)cc2)CCN1C(=O)Nc1ccc(F)c(Cl)c1
REMARK SMILES IDX 7 1 6 2 4 3 5 4 3 5 1 6 2 7 77 8 75 9 76 10 78 11 79 12
REMARK SMILES IDX 80 13 81 15 82 16 88 17 83 18 86 19 84 20 87 21 85 22 8 23
REMARK SMILES IDX 9 24 10 25 11 26 12 27 13 28 74 29 14 30 73 31 15 32 16 33
REMARK SMILES IDX 17 34 67 35 18 36 72 37 66 38 68 39 19 40 71 41 65 42 64 43
REMARK SMILES IDX 20 45 52 46 32 47 51 48 33 49 36 50 50 51 69 52 34 53 35 54
REMARK SMILES IDX 49 56 70 57 37 58 21 59 22 60 30 61 23 62 24 63 28 64 31 65
REMARK SMILES IDX 25 66 26 67 29 68 27 69 53 70 54 71 62 72 55 73 56 74 60 75
REMARK SMILES IDX 63 76 57 77 58 78 61 79 59 80 38 81 39 82 47 83 40 84 41 85
REMARK SMILES IDX 45 86 48 87 42 88 43 89 46 90 44 91
REMARK H PARENT 80 14 68 44 36 55
REMARK Flexibility Score: inf
ROOT
ATOM      1  C   UNL     1      -0.678   2.987   3.228  1.00  0.00     0.274 C 
ENDROOT
BRANCH   1   2
ATOM      2  O   UNL     1      -0.574   1.889   2.299  1.00  0.00    -0.462 OA
BRANCH   2   3
ATOM      3  C   UNL     1      -0.870   2.170   1.005  1.00  0.00     0.311 C 
ATOM      4  O   UNL     1      -1.244   3.264   0.595  1.00  0.00    -0.252 OA
BRANCH   3   5
ATOM      5  C   UNL     1      -0.759   0.971   0.090  1.00  0.00     0.123 C 
ATOM      6  C   UNL     1       1.448   0.094  -0.770  1.00  0.00     0.032 C 
ATOM      7  C   UNL     1       0.428   0.022   0.373  1.00  0.00     0.098 C 
ATOM      8  N   UNL     1      -0.172  -1.315   0.482  1.00  0.00    -0.321 N 
ATOM      9  C   UNL     1      -2.017   0.117   0.206  1.00  0.00     0.039 C 
ATOM     10  C   UNL     1      -1.526  -1.290  -0.041  1.00  0.00     0.122 C 
BRANCH   8  11
ATOM     11  C   UNL     1       0.382  -2.532   0.767  1.00  0.00     0.322 C 
ATOM     12  O   UNL     1      -0.260  -3.575   0.595  1.00  0.00    -0.248 OA
ATOM     13  N   UNL     1       1.692  -2.683   1.071  1.00  0.00    -0.308 N 
ATOM     14  H   UNL     1       2.048  -3.552   0.777  1.00  0.00     0.171 HD
BRANCH  13  15
ATOM     15  C   UNL     1       2.659  -1.897   1.703  1.00  0.00     0.044 A 
ATOM     16  C   UNL     1       3.984  -2.072   1.281  1.00  0.00     0.029 A 
ATOM     17  C   UNL     1       2.380  -1.032   2.762  1.00  0.00     0.049 A 
ATOM     18  C   UNL     1       5.011  -1.309   1.835  1.00  0.00     0.043 A 
ATOM     19  C   UNL     1       3.418  -0.295   3.343  1.00  0.00     0.078 A 
ATOM     20  C   UNL     1       4.720  -0.416   2.859  1.00  0.00     0.141 A 
ATOM     21  Cl  UNL     1       3.088   0.728   4.688  1.00  0.00    -0.081 Cl
ATOM     22  F   UNL     1       5.721   0.307   3.383  1.00  0.00    -0.205 F 
ENDBRANCH  13  15
ENDBRANCH   8  11
ENDBRANCH   3   5
ENDBRANCH   2   3
ENDBRANCH   1   2
BRANCH   1  23
ATOM     23  C   UNL     1       0.672   3.662   3.482  1.00  0.00     0.275 C 
BRANCH  23  24
ATOM     24  O   UNL     1       1.181   4.326   2.312  1.00  0.00    -0.458 OA
BRANCH  24  25
ATOM     25  C   UNL     1       1.967   3.565   1.518  1.00  0.00     0.338 C 
ATOM     26  O   UNL     1       2.291   2.401   1.673  1.00  0.00    -0.246 OA
BRANCH  25  27
ATOM     27  C   UNL     1       2.306   4.315   0.306  1.00  0.00     0.060 A 
ATOM     28  C   UNL     1       1.709   3.935  -0.899  1.00  0.00     0.016 A 
ATOM     29  C   UNL     1       3.274   5.316   0.343  1.00  0.00     0.016 A 
ATOM     30  C   UNL     1       2.090   4.544  -2.087  1.00  0.00     0.010 A 
ATOM     31  C   UNL     1       3.640   5.945  -0.847  1.00  0.00     0.010 A 
ATOM     32  C   UNL     1       3.055   5.557  -2.066  1.00  0.00    -0.014 A 
BRANCH  32  33
ATOM     33  C   UNL     1       3.466   6.218  -3.322  1.00  0.00     0.031 A 
ATOM     34  C   UNL     1       4.818   5.939  -3.900  1.00  0.00     0.074 A 
ATOM     35  C   UNL     1       2.628   7.087  -3.913  1.00  0.00     0.049 A 
ATOM     36  N   UNL     1       5.445   6.553  -4.868  1.00  0.00    -0.248 NA
ATOM     37  C   UNL     1       5.567   4.821  -3.304  1.00  0.00     0.031 C 
ATOM     38  C   UNL     1       1.267   7.384  -3.465  1.00  0.00     0.029 A 
ATOM     39  N   UNL     1       2.808   7.897  -5.004  1.00  0.00    -0.354 N 
ATOM     40  C   UNL     1       6.675   5.920  -4.978  1.00  0.00     0.074 A 
ATOM     41  C   UNL     1       6.707   4.872  -3.980  1.00  0.00     0.031 C 
ATOM     42  C   UNL     1       0.740   8.325  -4.263  1.00  0.00     0.029 A 
ATOM     43  C   UNL     1       1.747   8.737  -5.235  1.00  0.00     0.049 A 
ATOM     44  H   UNL     1       3.616   7.878  -5.565  1.00  0.00     0.167 HD
ATOM     45  C   UNL     1       7.685   6.203  -5.834  1.00  0.00     0.037 A 
ATOM     46  C   UNL     1       1.626   9.760  -6.102  1.00  0.00     0.037 A 
ATOM     47  C   UNL     1       7.628   7.241  -6.829  1.00  0.00     0.049 A 
ATOM     48  C   UNL     1       2.784  10.094  -6.999  1.00  0.00     0.074 A 
ATOM     49  C   UNL     1       8.593   7.611  -7.749  1.00  0.00     0.029 A 
ATOM     50  N   UNL     1       6.539   8.076  -7.032  1.00  0.00    -0.354 N 
ATOM     51  N   UNL     1       3.956   9.513  -7.083  1.00  0.00    -0.248 NA
ATOM     52  C   UNL     1       2.610  11.231  -7.912  1.00  0.00     0.031 C 
ATOM     53  C   UNL     1       8.100   8.693  -8.486  1.00  0.00     0.029 A 
ATOM     54  C   UNL     1       6.813   8.970  -8.053  1.00  0.00     0.049 A 
ATOM     55  H   UNL     1       5.696   8.039  -6.525  1.00  0.00     0.167 HD
ATOM     56  C   UNL     1       4.650  10.195  -8.072  1.00  0.00     0.074 A 
ATOM     57  C   UNL     1       3.766  11.233  -8.562  1.00  0.00     0.031 C 
ATOM     58  C   UNL     1       5.906   9.981  -8.533  1.00  0.00     0.037 A 
BRANCH  45  59
ATOM     59  C   UNL     1       8.947   5.405  -5.707  1.00  0.00     0.064 A 
ATOM     60  C   UNL     1       9.027   4.074  -6.140  1.00  0.00     0.173 A 
ATOM     61  C   UNL     1      10.103   5.995  -5.173  1.00  0.00     0.173 A 
ATOM     62  F   UNL     1       7.944   3.462  -6.642  1.00  0.00    -0.203 F 
ATOM     63  C   UNL     1      10.215   3.356  -6.027  1.00  0.00     0.198 A 
ATOM     64  C   UNL     1      11.295   5.281  -5.082  1.00  0.00     0.198 A 
ATOM     65  F   UNL     1      10.078   7.266  -4.745  1.00  0.00    -0.203 F 
ATOM     66  F   UNL     1      10.259   2.073  -6.412  1.00  0.00    -0.200 F 
ATOM     67  C   UNL     1      11.348   3.961  -5.504  1.00  0.00     0.200 A 
ATOM     68  F   UNL     1      12.391   5.870  -4.584  1.00  0.00    -0.200 F 
ATOM     69  F   UNL     1      12.492   3.270  -5.401  1.00  0.00    -0.200 F 
ENDBRANCH  45  59
BRANCH  46  70
ATOM     70  C   UNL     1       0.373  10.556  -6.128  1.00  0.00     0.064 A 
ATOM     71  C   UNL     1      -0.512  10.469  -7.209  1.00  0.00     0.173 A 
ATOM     72  C   UNL     1       0.027  11.401  -5.063  1.00  0.00     0.173 A 
ATOM     73  F   UNL     1      -0.212   9.690  -8.259  1.00  0.00    -0.203 F 
ATOM     74  C   UNL     1      -1.696  11.204  -7.229  1.00  0.00     0.198 A 
ATOM     75  C   UNL     1      -1.168  12.116  -5.072  1.00  0.00     0.198 A 
ATOM     76  F   UNL     1       0.842  11.517  -4.005  1.00  0.00    -0.203 F 
ATOM     77  F   UNL     1      -2.511  11.128  -8.289  1.00  0.00    -0.200 F 
ATOM     78  C   UNL     1      -2.026  12.021  -6.157  1.00  0.00     0.200 A 
ATOM     79  F   UNL     1      -1.490  12.894  -4.029  1.00  0.00    -0.200 F 
ATOM     80  F   UNL     1      -3.169  12.720  -6.173  1.00  0.00    -0.200 F 
ENDBRANCH  46  70
BRANCH  58  81
ATOM     81  C   UNL     1       6.383  10.854  -9.653  1.00  0.00     0.064 A 
ATOM     82  C   UNL     1       6.802  12.172  -9.428  1.00  0.00     0.173 A 
ATOM     83  C   UNL     1       6.482  10.338 -10.954  1.00  0.00     0.173 A 
ATOM     84  F   UNL     1       6.709  12.710  -8.203  1.00  0.00    -0.203 F 
ATOM     85  C   UNL     1       7.298  12.948 -10.472  1.00  0.00     0.198 A 
ATOM     86  C   UNL     1       6.998  11.111 -11.990  1.00  0.00     0.198 A 
ATOM     87  F   UNL     1       6.097   9.080 -11.214  1.00  0.00    -0.203 F 
ATOM     88  F   UNL     1       7.669  14.215 -10.243  1.00  0.00    -0.200 F 
ATOM     89  C   UNL     1       7.404  12.415 -11.748  1.00  0.00     0.200 A 
ATOM     90  F   UNL     1       7.109  10.591 -13.220  1.00  0.00    -0.200 F 
ATOM     91  F   UNL     1       7.894  13.160 -12.748  1.00  0.00    -0.200 F 
ENDBRANCH  58  81
ENDBRANCH  32  33
ENDBRANCH  25  27
ENDBRANCH  24  25
ENDBRANCH  23  24
ENDBRANCH   1  23
TORSDOF 13
