REMARK SMILES C[C@@H](C(=O)OCCOC(=O)c1ccc(-c2c3nc(c(-c4c(F)c(F)c(F)c(F)c4F)c4ccc([nH]4)c(-c4c(F)c(F)c(F)c(F)c4F)c4nc(c(-c5c(F)c(F)c(F)c(F)c5F)c5ccc2[nH]5)C=C4)C=C3)cc1)[C@H](C)[S@](=O)c1ccc(F)c(F)c1
REMARK SMILES IDX 6 1 5 2 3 3 4 4 2 5 1 6 74 7 75 8 76 9 77 10 78 11 79 12
REMARK SMILES IDX 85 13 80 14 83 15 81 16 84 17 82 18 7 19 8 20 9 21 10 22
REMARK SMILES IDX 11 23 12 24 73 25 13 26 72 27 14 28 15 29 16 30 66 31 17 32
REMARK SMILES IDX 71 33 65 34 67 35 18 36 70 37 64 38 63 39 19 41 51 42 31 43
REMARK SMILES IDX 50 44 32 45 35 46 49 47 68 48 33 49 34 50 48 52 69 53 36 54
REMARK SMILES IDX 20 55 21 56 29 57 22 58 23 59 27 60 30 61 24 62 25 63 28 64
REMARK SMILES IDX 26 65 52 66 53 67 61 68 54 69 55 70 59 71 62 72 56 73 57 74
REMARK SMILES IDX 60 75 58 76 37 77 38 78 46 79 39 80 40 81 44 82 47 83 41 84
REMARK SMILES IDX 42 85 45 86 43 87
REMARK H PARENT 67 40 35 51
REMARK Flexibility Score: inf
ROOT
ATOM      1  C   UNL     1      -1.377  -4.939   0.152  1.00  0.00     0.274 C 
ENDROOT
BRANCH   1   2
ATOM      2  O   UNL     1      -2.100  -4.380  -0.948  1.00  0.00    -0.462 OA
BRANCH   2   3
ATOM      3  C   UNL     1      -3.074  -3.514  -0.574  1.00  0.00     0.309 C 
ATOM      4  O   UNL     1      -4.236  -3.822  -0.351  1.00  0.00    -0.252 OA
BRANCH   3   5
ATOM      5  C   UNL     1      -2.557  -2.123  -0.478  1.00  0.00     0.112 C 
ATOM      6  C   UNL     1      -1.340  -1.896  -1.421  1.00  0.00     0.021 C 
BRANCH   5   7
ATOM      7  C   UNL     1      -2.485  -1.618   0.983  1.00  0.00     0.095 C 
ATOM      8  C   UNL     1      -1.518  -0.433   1.077  1.00  0.00     0.023 C 
BRANCH   7   9
ATOM      9  S   UNL     1      -2.902  -2.608   2.524  1.00  0.00     0.057 S 
ATOM     10  O   UNL     1      -2.768  -1.700   3.709  1.00  0.00    -0.254 OA
BRANCH   9  11
ATOM     11  C   UNL     1      -2.237  -4.261   3.102  1.00  0.00     0.042 A 
ATOM     12  C   UNL     1      -3.163  -5.280   3.389  1.00  0.00     0.021 A 
ATOM     13  C   UNL     1      -0.931  -4.614   3.484  1.00  0.00     0.060 A 
ATOM     14  C   UNL     1      -2.790  -6.515   3.997  1.00  0.00     0.043 A 
ATOM     15  C   UNL     1      -0.547  -5.801   4.128  1.00  0.00     0.160 A 
ATOM     16  C   UNL     1      -1.482  -6.760   4.388  1.00  0.00     0.158 A 
ATOM     17  F   UNL     1       0.737  -5.967   4.485  1.00  0.00    -0.204 F 
ATOM     18  F   UNL     1      -1.135  -7.902   4.995  1.00  0.00    -0.204 F 
ENDBRANCH   9  11
ENDBRANCH   7   9
ENDBRANCH   5   7
ENDBRANCH   3   5
ENDBRANCH   2   3
ENDBRANCH   1   2
BRANCH   1  19
ATOM     19  C   UNL     1      -0.029  -4.221   0.539  1.00  0.00     0.275 C 
BRANCH  19  20
ATOM     20  O   UNL     1      -0.154  -3.003   1.379  1.00  0.00    -0.458 OA
BRANCH  20  21
ATOM     21  C   UNL     1       0.956  -2.502   2.057  1.00  0.00     0.338 C 
ATOM     22  O   UNL     1       2.090  -2.868   1.844  1.00  0.00    -0.246 OA
BRANCH  21  23
ATOM     23  C   UNL     1       0.625  -1.523   3.206  1.00  0.00     0.060 A 
ATOM     24  C   UNL     1       0.858  -0.153   3.047  1.00  0.00     0.016 A 
ATOM     25  C   UNL     1       0.207  -1.935   4.492  1.00  0.00     0.016 A 
ATOM     26  C   UNL     1       0.607   0.757   4.095  1.00  0.00     0.010 A 
ATOM     27  C   UNL     1      -0.091  -1.043   5.525  1.00  0.00     0.010 A 
ATOM     28  C   UNL     1       0.155   0.308   5.344  1.00  0.00    -0.014 A 
BRANCH  28  29
ATOM     29  C   UNL     1       0.257   1.158   6.549  1.00  0.00     0.031 A 
ATOM     30  C   UNL     1       1.602   1.210   7.220  1.00  0.00     0.074 A 
ATOM     31  C   UNL     1      -0.816   1.786   7.058  1.00  0.00     0.049 A 
ATOM     32  N   UNL     1       2.041   2.008   8.154  1.00  0.00    -0.248 NA
ATOM     33  C   UNL     1       2.597   0.219   6.765  1.00  0.00     0.031 C 
ATOM     34  C   UNL     1      -2.180   1.674   6.541  1.00  0.00     0.029 A 
ATOM     35  N   UNL     1      -0.931   2.637   8.126  1.00  0.00    -0.354 N 
ATOM     36  C   UNL     1       3.375   1.664   8.339  1.00  0.00     0.074 A 
ATOM     37  C   UNL     1       3.658   0.535   7.487  1.00  0.00     0.031 C 
ATOM     38  C   UNL     1      -2.995   2.443   7.285  1.00  0.00     0.029 A 
ATOM     39  C   UNL     1      -2.207   3.111   8.318  1.00  0.00     0.049 A 
ATOM     40  H   UNL     1      -0.172   2.885   8.702  1.00  0.00     0.167 HD
ATOM     41  C   UNL     1       4.286   2.267   9.137  1.00  0.00     0.037 A 
ATOM     42  C   UNL     1      -2.659   4.009   9.214  1.00  0.00     0.037 A 
ATOM     43  C   UNL     1       3.928   3.322  10.045  1.00  0.00     0.049 A 
ATOM     44  C   UNL     1      -1.637   4.670  10.107  1.00  0.00     0.074 A 
ATOM     45  C   UNL     1       4.720   4.020  10.933  1.00  0.00     0.029 A 
ATOM     46  N   UNL     1       2.630   3.802  10.193  1.00  0.00    -0.354 N 
ATOM     47  N   UNL     1      -0.344   4.448  10.183  1.00  0.00    -0.248 NA
ATOM     48  C   UNL     1      -2.119   5.723  11.008  1.00  0.00     0.031 C 
ATOM     49  C   UNL     1       3.891   4.892  11.650  1.00  0.00     0.029 A 
ATOM     50  C   UNL     1       2.591   4.774  11.173  1.00  0.00     0.049 A 
ATOM     51  H   UNL     1       1.852   3.494   9.674  1.00  0.00     0.167 HD
ATOM     52  C   UNL     1       0.149   5.342  11.121  1.00  0.00     0.074 A 
ATOM     53  C   UNL     1      -0.988   6.127  11.570  1.00  0.00     0.031 C 
ATOM     54  C   UNL     1       1.417   5.509  11.579  1.00  0.00     0.037 A 
BRANCH  41  55
ATOM     55  C   UNL     1       5.706   1.780   9.051  1.00  0.00     0.064 A 
ATOM     56  C   UNL     1       6.473   1.979   7.889  1.00  0.00     0.173 A 
ATOM     57  C   UNL     1       6.301   1.079  10.108  1.00  0.00     0.173 A 
ATOM     58  F   UNL     1       5.950   2.627   6.837  1.00  0.00    -0.203 F 
ATOM     59  C   UNL     1       7.764   1.464   7.777  1.00  0.00     0.198 A 
ATOM     60  C   UNL     1       7.602   0.586  10.002  1.00  0.00     0.198 A 
ATOM     61  F   UNL     1       5.618   0.852  11.239  1.00  0.00    -0.203 F 
ATOM     62  F   UNL     1       8.450   1.618   6.636  1.00  0.00    -0.200 F 
ATOM     63  C   UNL     1       8.328   0.769   8.835  1.00  0.00     0.200 A 
ATOM     64  F   UNL     1       8.149  -0.084  11.027  1.00  0.00    -0.200 F 
ATOM     65  F   UNL     1       9.565   0.265   8.724  1.00  0.00    -0.200 F 
ENDBRANCH  41  55
BRANCH  42  66
ATOM     66  C   UNL     1      -4.103   4.376   9.241  1.00  0.00     0.064 A 
ATOM     67  C   UNL     1      -4.547   5.637   8.816  1.00  0.00     0.173 A 
ATOM     68  C   UNL     1      -5.080   3.452   9.645  1.00  0.00     0.173 A 
ATOM     69  F   UNL     1      -3.659   6.565   8.432  1.00  0.00    -0.203 F 
ATOM     70  C   UNL     1      -5.905   5.960   8.800  1.00  0.00     0.198 A 
ATOM     71  C   UNL     1      -6.439   3.767   9.605  1.00  0.00     0.198 A 
ATOM     72  F   UNL     1      -4.716   2.229  10.058  1.00  0.00    -0.203 F 
ATOM     73  F   UNL     1      -6.297   7.182   8.412  1.00  0.00    -0.200 F 
ATOM     74  C   UNL     1      -6.851   5.022   9.185  1.00  0.00     0.200 A 
ATOM     75  F   UNL     1      -7.349   2.851   9.965  1.00  0.00    -0.200 F 
ATOM     76  F   UNL     1      -8.155   5.327   9.153  1.00  0.00    -0.200 F 
ENDBRANCH  42  66
BRANCH  54  77
ATOM     77  C   UNL     1       1.618   6.576  12.609  1.00  0.00     0.064 A 
ATOM     78  C   UNL     1       1.188   6.401  13.932  1.00  0.00     0.173 A 
ATOM     79  C   UNL     1       2.296   7.758  12.280  1.00  0.00     0.173 A 
ATOM     80  F   UNL     1       0.526   5.288  14.285  1.00  0.00    -0.203 F 
ATOM     81  C   UNL     1       1.407   7.388  14.886  1.00  0.00     0.198 A 
ATOM     82  C   UNL     1       2.540   8.729  13.244  1.00  0.00     0.198 A 
ATOM     83  F   UNL     1       2.734   7.962  11.028  1.00  0.00    -0.203 F 
ATOM     84  F   UNL     1       0.949   7.223  16.134  1.00  0.00    -0.200 F 
ATOM     85  C   UNL     1       2.089   8.547  14.543  1.00  0.00     0.200 A 
ATOM     86  F   UNL     1       3.211   9.842  12.917  1.00  0.00    -0.200 F 
ATOM     87  F   UNL     1       2.307   9.493  15.466  1.00  0.00    -0.200 F 
ENDBRANCH  54  77
ENDBRANCH  28  29
ENDBRANCH  21  23
ENDBRANCH  20  21
ENDBRANCH  19  20
ENDBRANCH   1  19
TORSDOF 14
