REMARK SMILES Cc1nc(SCc2cccc(Cl)c2)[nH]c(=O)c1CC(=O)OCCOC(=O)c1ccc(-c2c3nc(c(-c4c(F)c(F)c(F)c(F)c4F)c4ccc([nH]4)c(-c4c(F)c(F)c(F)c(F)c4F)c4nc(c(-c5c(F)c(F)c(F)c(F)c5F)c5ccc2[nH]5)C=C4)C=C3)cc1
REMARK SMILES IDX 22 1 21 2 19 3 20 4 18 5 17 6 1 7 2 8 3 9 4 10 15 11 14 12
REMARK SMILES IDX 16 13 5 15 6 16 7 17 8 18 13 19 9 20 11 21 10 22 12 23 23 24
REMARK SMILES IDX 24 25 25 26 26 27 27 28 28 29 89 30 29 31 88 32 30 33 31 34
REMARK SMILES IDX 32 35 82 36 33 37 87 38 81 39 83 40 34 41 86 42 80 43 79 44
REMARK SMILES IDX 35 46 67 47 47 48 66 49 48 50 51 51 65 52 84 53 49 54 50 55
REMARK SMILES IDX 64 57 85 58 52 59 36 60 37 61 45 62 38 63 39 64 43 65 46 66
REMARK SMILES IDX 40 67 41 68 44 69 42 70 68 71 69 72 77 73 70 74 71 75 75 76
REMARK SMILES IDX 78 77 72 78 73 79 76 80 74 81 53 82 54 83 62 84 55 85 56 86
REMARK SMILES IDX 60 87 63 88 57 89 58 90 61 91 59 92
REMARK H PARENT 14 14 83 45 51 56
REMARK Flexibility Score: inf
ROOT
ATOM      1  C   UNL     1       0.665  -2.942  -3.340  1.00  0.00     0.274 C 
ENDROOT
BRANCH   1   2
ATOM      2  O   UNL     1       0.157  -2.377  -2.110  1.00  0.00    -0.462 OA
BRANCH   2   3
ATOM      3  C   UNL     1      -0.030  -3.267  -1.100  1.00  0.00     0.310 C 
ATOM      4  O   UNL     1       0.163  -4.476  -1.192  1.00  0.00    -0.252 OA
BRANCH   3   5
ATOM      5  C   UNL     1      -0.557  -2.659   0.192  1.00  0.00     0.166 C 
BRANCH   5   6
ATOM      6  C   UNL     1      -0.577  -1.165   0.292  1.00  0.00     0.050 A 
ATOM      7  C   UNL     1      -3.064  -0.975   0.461  1.00  0.00     0.067 C 
ATOM      8  C   UNL     1      -1.673  -0.398   0.441  1.00  0.00     0.050 A 
ATOM      9  N   UNL     1      -1.641   0.973   0.479  1.00  0.00    -0.229 NA
ATOM     10  C   UNL     1      -0.519   1.550   0.220  1.00  0.00     0.168 A 
ATOM     11  C   UNL     1       0.722  -0.451   0.261  1.00  0.00     0.255 A 
ATOM     12  N   UNL     1       0.657   0.894   0.097  1.00  0.00    -0.301 N 
ATOM     13  O   UNL     1       1.785  -1.042   0.387  1.00  0.00    -0.269 OA
ATOM     14  H   UNL     1       1.475   1.399  -0.115  1.00  0.00     0.172 HD
BRANCH  10  15
ATOM     15  S   UNL     1      -0.387   3.256  -0.050  1.00  0.00    -0.083 SA
BRANCH  15  16
ATOM     16  C   UNL     1      -2.137   3.708  -0.228  1.00  0.00     0.113 C 
BRANCH  16  17
ATOM     17  C   UNL     1      -2.764   3.459  -1.588  1.00  0.00    -0.036 A 
ATOM     18  C   UNL     1      -3.373   4.519  -2.278  1.00  0.00     0.005 A 
ATOM     19  C   UNL     1      -2.873   2.176  -2.148  1.00  0.00     0.025 A 
ATOM     20  C   UNL     1      -4.067   4.297  -3.473  1.00  0.00     0.002 A 
ATOM     21  C   UNL     1      -3.567   1.954  -3.336  1.00  0.00     0.041 A 
ATOM     22  C   UNL     1      -4.170   3.011  -4.001  1.00  0.00     0.020 A 
ATOM     23  Cl  UNL     1      -3.696   0.352  -3.956  1.00  0.00    -0.084 Cl
ENDBRANCH  16  17
ENDBRANCH  15  16
ENDBRANCH  10  15
ENDBRANCH   5   6
ENDBRANCH   3   5
ENDBRANCH   2   3
ENDBRANCH   1   2
BRANCH   1  24
ATOM     24  C   UNL     1       2.182  -2.784  -3.443  1.00  0.00     0.275 C 
BRANCH  24  25
ATOM     25  O   UNL     1       2.805  -3.327  -2.269  1.00  0.00    -0.458 OA
BRANCH  25  26
ATOM     26  C   UNL     1       3.708  -2.523  -1.660  1.00  0.00     0.338 C 
ATOM     27  O   UNL     1       4.133  -1.452  -2.058  1.00  0.00    -0.246 OA
BRANCH  26  28
ATOM     28  C   UNL     1       4.162  -3.159  -0.409  1.00  0.00     0.060 A 
ATOM     29  C   UNL     1       3.235  -3.569   0.550  1.00  0.00     0.016 A 
ATOM     30  C   UNL     1       5.526  -3.237  -0.137  1.00  0.00     0.016 A 
ATOM     31  C   UNL     1       3.657  -3.960   1.816  1.00  0.00     0.010 A 
ATOM     32  C   UNL     1       5.955  -3.724   1.101  1.00  0.00     0.010 A 
ATOM     33  C   UNL     1       5.024  -4.052   2.103  1.00  0.00    -0.014 A 
BRANCH  33  34
ATOM     34  C   UNL     1       5.474  -4.444   3.462  1.00  0.00     0.031 A 
ATOM     35  C   UNL     1       6.270  -3.481   4.298  1.00  0.00     0.074 A 
ATOM     36  C   UNL     1       5.157  -5.657   3.954  1.00  0.00     0.049 A 
ATOM     37  N   UNL     1       6.879  -3.680   5.441  1.00  0.00    -0.248 NA
ATOM     38  C   UNL     1       6.408  -2.112   3.776  1.00  0.00     0.031 C 
ATOM     39  C   UNL     1       4.350  -6.665   3.266  1.00  0.00     0.029 A 
ATOM     40  N   UNL     1       5.476  -6.247   5.152  1.00  0.00    -0.354 N 
ATOM     41  C   UNL     1       7.508  -2.481   5.748  1.00  0.00     0.074 A 
ATOM     42  C   UNL     1       7.216  -1.560   4.670  1.00  0.00     0.031 C 
ATOM     43  C   UNL     1       4.218  -7.739   4.060  1.00  0.00     0.029 A 
ATOM     44  C   UNL     1       4.990  -7.524   5.279  1.00  0.00     0.049 A 
ATOM     45  H   UNL     1       6.003  -5.798   5.852  1.00  0.00     0.167 HD
ATOM     46  C   UNL     1       8.260  -2.178   6.834  1.00  0.00     0.037 A 
ATOM     47  C   UNL     1       5.176  -8.436   6.252  1.00  0.00     0.037 A 
ATOM     48  C   UNL     1       8.510  -3.083   7.926  1.00  0.00     0.049 A 
ATOM     49  C   UNL     1       6.040  -8.085   7.430  1.00  0.00     0.074 A 
ATOM     50  C   UNL     1       9.246  -2.865   9.078  1.00  0.00     0.029 A 
ATOM     51  N   UNL     1       8.016  -4.377   8.007  1.00  0.00    -0.354 N 
ATOM     52  N   UNL     1       6.664  -6.963   7.694  1.00  0.00    -0.248 NA
ATOM     53  C   UNL     1       6.234  -9.133   8.441  1.00  0.00     0.031 C 
ATOM     54  C   UNL     1       9.227  -4.039   9.840  1.00  0.00     0.029 A 
ATOM     55  C   UNL     1       8.443  -4.973   9.183  1.00  0.00     0.049 A 
ATOM     56  H   UNL     1       7.448  -4.808   7.329  1.00  0.00     0.167 HD
ATOM     57  C   UNL     1       7.310  -7.163   8.905  1.00  0.00     0.074 A 
ATOM     58  C   UNL     1       6.986  -8.508   9.335  1.00  0.00     0.031 C 
ATOM     59  C   UNL     1       8.107  -6.311   9.596  1.00  0.00     0.037 A 
BRANCH  46  60
ATOM     60  C   UNL     1       8.895  -0.819   6.881  1.00  0.00     0.064 A 
ATOM     61  C   UNL     1       8.146   0.342   7.123  1.00  0.00     0.173 A 
ATOM     62  C   UNL     1      10.282  -0.683   6.717  1.00  0.00     0.173 A 
ATOM     63  F   UNL     1       6.815   0.268   7.273  1.00  0.00    -0.203 F 
ATOM     64  C   UNL     1       8.760   1.591   7.175  1.00  0.00     0.198 A 
ATOM     65  C   UNL     1      10.896   0.564   6.797  1.00  0.00     0.198 A 
ATOM     66  F   UNL     1      11.045  -1.763   6.489  1.00  0.00    -0.203 F 
ATOM     67  F   UNL     1       8.019   2.692   7.365  1.00  0.00    -0.200 F 
ATOM     68  C   UNL     1      10.133   1.700   7.019  1.00  0.00     0.200 A 
ATOM     69  F   UNL     1      12.225   0.666   6.658  1.00  0.00    -0.200 F 
ATOM     70  F   UNL     1      10.723   2.903   7.078  1.00  0.00    -0.200 F 
ENDBRANCH  46  60
BRANCH  47  71
ATOM     71  C   UNL     1       4.550  -9.778   6.135  1.00  0.00     0.064 A 
ATOM     72  C   UNL     1       3.511 -10.164   6.992  1.00  0.00     0.173 A 
ATOM     73  C   UNL     1       4.976 -10.698   5.166  1.00  0.00     0.173 A 
ATOM     74  F   UNL     1       3.088  -9.328   7.951  1.00  0.00    -0.203 F 
ATOM     75  C   UNL     1       2.930 -11.427   6.892  1.00  0.00     0.198 A 
ATOM     76  C   UNL     1       4.374 -11.948   5.048  1.00  0.00     0.198 A 
ATOM     77  F   UNL     1       5.967 -10.376   4.322  1.00  0.00    -0.203 F 
ATOM     78  F   UNL     1       1.967 -11.788   7.751  1.00  0.00    -0.200 F 
ATOM     79  C   UNL     1       3.356 -12.314   5.916  1.00  0.00     0.200 A 
ATOM     80  F   UNL     1       4.780 -12.798   4.095  1.00  0.00    -0.200 F 
ATOM     81  F   UNL     1       2.792 -13.526   5.816  1.00  0.00    -0.200 F 
ENDBRANCH  47  71
BRANCH  59  82
ATOM     82  C   UNL     1       8.653  -6.803  10.904  1.00  0.00     0.064 A 
ATOM     83  C   UNL     1       9.671  -7.766  10.959  1.00  0.00     0.173 A 
ATOM     84  C   UNL     1       8.162  -6.292  12.115  1.00  0.00     0.173 A 
ATOM     85  F   UNL     1      10.160  -8.296   9.828  1.00  0.00    -0.203 F 
ATOM     86  C   UNL     1      10.158  -8.221  12.181  1.00  0.00     0.198 A 
ATOM     87  C   UNL     1       8.671  -6.731  13.334  1.00  0.00     0.198 A 
ATOM     88  F   UNL     1       7.192  -5.366  12.115  1.00  0.00    -0.203 F 
ATOM     89  F   UNL     1      11.095  -9.180  12.211  1.00  0.00    -0.200 F 
ATOM     90  C   UNL     1       9.661  -7.700  13.367  1.00  0.00     0.200 A 
ATOM     91  F   UNL     1       8.197  -6.219  14.479  1.00  0.00    -0.200 F 
ATOM     92  F   UNL     1      10.130  -8.141  14.542  1.00  0.00    -0.200 F 
ENDBRANCH  59  82
ENDBRANCH  33  34
ENDBRANCH  26  28
ENDBRANCH  25  26
ENDBRANCH  24  25
ENDBRANCH   1  24
TORSDOF 15
