REMARK SMILES Cc1ccc(NS(=O)(=O)c2cc(C(=O)Nc3ccccc3C(=O)OCCOC(=O)c3ccc(-c4c5nc(c(-c6c(F)c(F)c(F)c(F)c6F)c6ccc([nH]6)c(-c6c(F)c(F)c(F)c(F)c6F)c6nc(c(-c7c(F)c(F)c(F)c(F)c7F)c7ccc4[nH]7)C=C6)C=C5)cc3)ccc2Br)cc1
REMARK SMILES IDX 24 1 22 2 23 3 21 4 16 5 17 6 18 7 20 8 19 9 15 10 13 11
REMARK SMILES IDX 14 12 12 14 10 15 11 16 95 17 94 18 96 19 93 20 7 21 8 22
REMARK SMILES IDX 9 23 6 24 5 26 1 27 2 28 3 29 98 30 4 31 97 32 25 33 26 34
REMARK SMILES IDX 27 35 28 36 29 37 30 38 31 39 92 40 32 41 91 42 33 43 34 44
REMARK SMILES IDX 35 45 85 46 36 47 90 48 84 49 86 50 37 51 89 52 83 53 82 54
REMARK SMILES IDX 38 56 70 57 50 58 69 59 51 60 54 61 68 62 87 63 52 64 53 65
REMARK SMILES IDX 67 67 88 68 55 69 39 70 40 71 48 72 41 73 42 74 46 75 49 76
REMARK SMILES IDX 43 77 44 78 47 79 45 80 71 81 72 82 80 83 73 84 74 85 78 86
REMARK SMILES IDX 81 87 75 88 76 89 79 90 77 91 56 92 57 93 65 94 58 95 59 96
REMARK SMILES IDX 63 97 66 98 60 99 61 100 64 101 62 102
REMARK H PARENT 15 13 6 25 86 55 54 66
REMARK Flexibility Score: inf
ROOT
ATOM      1  O   UNL     1      -1.198  -3.313   3.970  1.00  0.00    -0.458 OA
ENDROOT
BRANCH   1   2
ATOM      2  C   UNL     1      -0.323  -3.099   2.930  1.00  0.00     0.340 C 
ATOM      3  O   UNL     1       0.581  -3.904   2.860  1.00  0.00    -0.246 OA
BRANCH   2   4
ATOM      4  C   UNL     1      -0.651  -1.700   1.921  1.00  0.00     0.083 A 
ATOM      5  C   UNL     1       0.220  -1.127   0.175  1.00  0.00     0.056 A 
ATOM      6  C   UNL     1       0.097   0.523  -1.130  1.00  0.00     0.027 A 
ATOM      7  C   UNL     1      -1.419   1.664  -0.685  1.00  0.00     0.002 A 
ATOM      8  C   UNL     1      -2.141  -0.181   2.264  1.00  0.00     0.018 A 
ATOM      9  C   UNL     1      -2.360   1.187   0.921  1.00  0.00     0.001 A 
BRANCH   5  10
ATOM     10  N   UNL     1       0.848  -2.461  -0.319  1.00  0.00    -0.321 N 
ATOM     11  C   UNL     1       0.440  -3.655  -1.032  1.00  0.00     0.255 C 
ATOM     12  O   UNL     1       1.352  -4.380  -1.458  1.00  0.00    -0.269 OA
ATOM     13  H   UNL     1       1.802  -2.508  -0.077  1.00  0.00     0.170 HD
BRANCH  11  14
ATOM     14  C   UNL     1      -0.983  -4.173  -1.346  1.00  0.00     0.041 A 
ATOM     15  C   UNL     1      -3.339  -3.401  -1.285  1.00  0.00     0.102 A 
ATOM     16  C   UNL     1      -2.013  -3.300  -1.636  1.00  0.00     0.037 A 
ATOM     17  C   UNL     1      -3.769  -4.644  -0.857  1.00  0.00     0.038 A 
ATOM     18  C   UNL     1      -2.811  -5.700  -0.797  1.00  0.00     0.018 A 
ATOM     19  Br  UNL     1      -5.508  -4.959  -0.180  1.00  0.00    -0.049 Br
ATOM     20  C   UNL     1      -1.416  -5.465  -1.023  1.00  0.00     0.015 A 
BRANCH  15  21
ATOM     21  S   UNL     1      -4.167  -1.801  -1.159  1.00  0.00     0.263 S 
ATOM     22  O   UNL     1      -4.757  -1.688   0.163  1.00  0.00    -0.201 OA
ATOM     23  O   UNL     1      -5.035  -1.694  -2.309  1.00  0.00    -0.201 OA
BRANCH  21  24
ATOM     24  N   UNL     1      -3.009  -0.377  -1.271  1.00  0.00    -0.280 N 
ATOM     25  H   UNL     1      -3.392   0.467  -1.603  1.00  0.00     0.180 HD
BRANCH  24  26
ATOM     26  C   UNL     1      -1.412  -0.345  -0.882  1.00  0.00     0.049 A 
ATOM     27  C   UNL     1       3.692  -0.204  -0.670  1.00  0.00     0.044 C 
ATOM     28  C   UNL     1       2.220  -0.064  -0.901  1.00  0.00    -0.051 A 
ATOM     29  C   UNL     1       1.357  -0.957  -2.135  1.00  0.00     0.005 A 
ATOM     30  C   UNL     1       1.477   0.832   0.340  1.00  0.00     0.005 A 
ATOM     31  C   UNL     1      -0.395  -1.080  -2.205  1.00  0.00     0.027 A 
ATOM     32  C   UNL     1      -0.320   0.718   0.501  1.00  0.00     0.027 A 
ENDBRANCH  24  26
ENDBRANCH  21  24
ENDBRANCH  15  21
ENDBRANCH  11  14
ENDBRANCH   5  10
ENDBRANCH   2   4
ENDBRANCH   1   2
BRANCH   1  33
ATOM     33  C   UNL     1      -2.127  -4.377   4.396  1.00  0.00     0.275 C 
BRANCH  33  34
ATOM     34  C   UNL     1      -3.137  -4.971   3.403  1.00  0.00     0.275 C 
BRANCH  34  35
ATOM     35  O   UNL     1      -2.882  -4.827   2.036  1.00  0.00    -0.458 OA
BRANCH  35  36
ATOM     36  C   UNL     1      -2.392  -3.688   1.550  1.00  0.00     0.338 C 
ATOM     37  O   UNL     1      -1.326  -3.854   0.980  1.00  0.00    -0.246 OA
BRANCH  36  38
ATOM     38  C   UNL     1      -2.881  -2.203   1.777  1.00  0.00     0.060 A 
ATOM     39  C   UNL     1      -1.789  -1.074   0.916  1.00  0.00     0.016 A 
ATOM     40  C   UNL     1      -3.107  -1.996   3.311  1.00  0.00     0.016 A 
ATOM     41  C   UNL     1      -0.432  -0.084   2.233  1.00  0.00     0.010 A 
ATOM     42  C   UNL     1      -2.043  -1.254   4.320  1.00  0.00     0.010 A 
ATOM     43  C   UNL     1      -0.644  -0.582   3.881  1.00  0.00    -0.014 A 
BRANCH  43  44
ATOM     44  C   UNL     1       0.247  -0.365   5.042  1.00  0.00     0.031 A 
ATOM     45  C   UNL     1      -0.202   1.127   5.276  1.00  0.00     0.074 A 
ATOM     46  C   UNL     1       0.693  -1.568   5.693  1.00  0.00     0.049 A 
ATOM     47  N   UNL     1       0.247   2.085   6.007  1.00  0.00    -0.248 NA
ATOM     48  C   UNL     1      -1.283   1.817   4.451  1.00  0.00     0.031 C 
ATOM     49  C   UNL     1       0.823  -2.101   7.106  1.00  0.00     0.029 A 
ATOM     50  N   UNL     1       1.470  -2.630   5.082  1.00  0.00    -0.354 N 
ATOM     51  C   UNL     1      -0.935   2.777   6.349  1.00  0.00     0.074 A 
ATOM     52  C   UNL     1      -1.693   2.859   5.161  1.00  0.00     0.031 C 
ATOM     53  C   UNL     1       1.885  -2.930   7.282  1.00  0.00     0.029 A 
ATOM     54  C   UNL     1       2.475  -3.127   5.986  1.00  0.00     0.049 A 
ATOM     55  H   UNL     1       1.330  -2.967   4.168  1.00  0.00     0.167 HD
ATOM     56  C   UNL     1      -1.416   2.638   7.620  1.00  0.00     0.037 A 
ATOM     57  C   UNL     1       3.813  -3.020   5.740  1.00  0.00     0.037 A 
ATOM     58  C   UNL     1      -0.534   1.710   8.338  1.00  0.00     0.049 A 
ATOM     59  C   UNL     1       4.194  -1.725   6.423  1.00  0.00     0.074 A 
ATOM     60  C   UNL     1      -0.650   0.461   8.905  1.00  0.00     0.029 A 
ATOM     61  N   UNL     1       0.828   1.924   8.207  1.00  0.00    -0.354 N 
ATOM     62  N   UNL     1       3.338  -0.748   6.615  1.00  0.00    -0.248 NA
ATOM     63  C   UNL     1       5.427  -1.583   7.183  1.00  0.00     0.031 C 
ATOM     64  C   UNL     1       0.694  -0.032   9.097  1.00  0.00     0.029 A 
ATOM     65  C   UNL     1       1.605   0.840   8.511  1.00  0.00     0.049 A 
ATOM     66  H   UNL     1       1.206   2.786   7.918  1.00  0.00     0.167 HD
ATOM     67  C   UNL     1       3.769  -0.006   7.671  1.00  0.00     0.074 A 
ATOM     68  C   UNL     1       5.086  -0.557   7.975  1.00  0.00     0.031 C 
ATOM     69  C   UNL     1       3.056   0.970   8.312  1.00  0.00     0.037 A 
BRANCH  56  70
ATOM     70  C   UNL     1      -2.694   3.203   8.205  1.00  0.00     0.064 A 
ATOM     71  C   UNL     1      -2.789   3.203   9.613  1.00  0.00     0.173 A 
ATOM     72  C   UNL     1      -3.779   3.827   7.544  1.00  0.00     0.173 A 
ATOM     73  F   UNL     1      -1.827   2.658  10.369  1.00  0.00    -0.203 F 
ATOM     74  C   UNL     1      -3.841   3.799  10.307  1.00  0.00     0.198 A 
ATOM     75  C   UNL     1      -4.831   4.442   8.247  1.00  0.00     0.198 A 
ATOM     76  F   UNL     1      -3.878   3.874   6.211  1.00  0.00    -0.203 F 
ATOM     77  F   UNL     1      -3.842   3.772  11.646  1.00  0.00    -0.200 F 
ATOM     78  C   UNL     1      -4.854   4.436   9.627  1.00  0.00     0.200 A 
ATOM     79  F   UNL     1      -5.816   5.059   7.575  1.00  0.00    -0.200 F 
ATOM     80  F   UNL     1      -5.839   5.047  10.299  1.00  0.00    -0.200 F 
ENDBRANCH  56  70
BRANCH  57  81
ATOM     81  C   UNL     1       4.080  -3.429   4.339  1.00  0.00     0.064 A 
ATOM     82  C   UNL     1       3.920  -4.807   4.024  1.00  0.00     0.173 A 
ATOM     83  C   UNL     1       3.795  -2.487   3.360  1.00  0.00     0.173 A 
ATOM     84  F   UNL     1       4.174  -5.748   4.948  1.00  0.00    -0.203 F 
ATOM     85  C   UNL     1       3.304  -5.204   2.843  1.00  0.00     0.198 A 
ATOM     86  C   UNL     1       3.124  -2.891   2.223  1.00  0.00     0.198 A 
ATOM     87  F   UNL     1       3.858  -1.176   3.637  1.00  0.00    -0.203 F 
ATOM     88  F   UNL     1       2.928  -6.481   2.664  1.00  0.00    -0.200 F 
ATOM     89  C   UNL     1       2.892  -4.238   1.952  1.00  0.00     0.200 A 
ATOM     90  F   UNL     1       2.485  -1.943   1.536  1.00  0.00    -0.200 F 
ATOM     91  F   UNL     1       2.075  -4.598   0.958  1.00  0.00    -0.200 F 
ENDBRANCH  57  81
BRANCH  69  92
ATOM     92  C   UNL     1       3.792   2.196   8.826  1.00  0.00     0.064 A 
ATOM     93  C   UNL     1       5.158   2.428   8.581  1.00  0.00     0.173 A 
ATOM     94  C   UNL     1       3.142   3.254   9.505  1.00  0.00     0.173 A 
ATOM     95  F   UNL     1       5.857   1.729   7.678  1.00  0.00    -0.203 F 
ATOM     96  C   UNL     1       5.860   3.446   9.209  1.00  0.00     0.198 A 
ATOM     97  C   UNL     1       3.820   4.364   9.986  1.00  0.00     0.198 A 
ATOM     98  F   UNL     1       1.823   3.301   9.715  1.00  0.00    -0.203 F 
ATOM     99  F   UNL     1       7.194   3.479   9.106  1.00  0.00    -0.200 F 
ATOM    100  C   UNL     1       5.189   4.420   9.910  1.00  0.00     0.200 A 
ATOM    101  F   UNL     1       3.125   5.371  10.530  1.00  0.00    -0.200 F 
ATOM    102  F   UNL     1       5.856   5.431  10.474  1.00  0.00    -0.200 F 
ENDBRANCH  69  92
ENDBRANCH  43  44
ENDBRANCH  36  38
ENDBRANCH  35  36
ENDBRANCH  34  35
ENDBRANCH  33  34
ENDBRANCH   1  33
TORSDOF 16
