REMARK SMILES C=C1C=C[C@H](C(=O)OCCOC(=O)c2ccc(-c3c4nc(c(-c5c(F)c(F)c(F)c(F)c5F)c5ccc([nH]5)c(-c5c(F)c(F)c(F)c(F)c5F)c5nc(c(-c6c(F)c(F)c(F)c(F)c6F)c6ccc3[nH]6)C=C5)C=C4)cc2)C(=S)N1
REMARK SMILES IDX 10 1 9 2 8 3 6 4 7 5 5 6 1 7 2 8 3 9 79 10 4 11 77 12 78 14
REMARK SMILES IDX 11 15 12 16 13 17 14 18 15 19 76 20 16 21 75 22 17 23 18 24
REMARK SMILES IDX 19 25 69 26 20 27 74 28 68 29 70 30 21 31 73 32 67 33 66 34
REMARK SMILES IDX 22 36 54 37 34 38 53 39 35 40 38 41 52 42 71 43 36 44 37 45
REMARK SMILES IDX 51 47 72 48 39 49 23 50 24 51 32 52 25 53 26 54 30 55 33 56
REMARK SMILES IDX 27 57 28 58 31 59 29 60 55 61 56 62 64 63 57 64 58 65 62 66
REMARK SMILES IDX 65 67 59 68 60 69 63 70 61 71 40 72 41 73 49 74 42 75 43 76
REMARK SMILES IDX 47 77 50 78 44 79 45 80 48 81 46 82
REMARK H PARENT 79 13 70 35 38 46
REMARK Flexibility Score: inf
ROOT
ATOM      1  C   UNL     1      -3.214   2.165   5.346  1.00  0.00     0.275 C 
ENDROOT
BRANCH   1   2
ATOM      2  C   UNL     1      -3.326   3.491   4.598  1.00  0.00     0.274 C 
BRANCH   2   3
ATOM      3  O   UNL     1      -3.092   3.299   3.189  1.00  0.00    -0.461 OA
BRANCH   3   4
ATOM      4  C   UNL     1      -1.888   3.689   2.692  1.00  0.00     0.319 C 
ATOM      5  O   UNL     1      -1.011   4.215   3.370  1.00  0.00    -0.251 OA
BRANCH   4   6
ATOM      6  C   UNL     1      -1.797   3.478   1.174  1.00  0.00     0.180 C 
ATOM      7  C   UNL     1       0.701   0.259  -0.049  1.00  0.00     0.037 C 
ATOM      8  C   UNL     1      -0.087   1.301   0.238  1.00  0.00     0.031 C 
ATOM      9  C   UNL     1       0.428   2.645   0.352  1.00  0.00     0.022 C 
ATOM     10  N   UNL     1      -1.438   1.127   0.388  1.00  0.00    -0.350 N 
ATOM     11  C   UNL     1      -0.350   3.660   0.755  1.00  0.00    -0.003 C 
ATOM     12  C   UNL     1      -2.333   2.124   0.690  1.00  0.00     0.098 C 
ATOM     13  H   UNL     1      -1.795   0.217   0.270  1.00  0.00     0.167 HD
ATOM     14  S   UNL     1      -3.970   1.821   0.465  1.00  0.00    -0.064 S 
ENDBRANCH   4   6
ENDBRANCH   3   4
ENDBRANCH   2   3
ENDBRANCH   1   2
BRANCH   1  15
ATOM     15  O   UNL     1      -1.842   1.734   5.366  1.00  0.00    -0.458 OA
BRANCH  15  16
ATOM     16  C   UNL     1      -1.565   0.615   4.663  1.00  0.00     0.338 C 
ATOM     17  O   UNL     1      -2.334  -0.109   4.057  1.00  0.00    -0.246 OA
BRANCH  16  18
ATOM     18  C   UNL     1      -0.114   0.399   4.681  1.00  0.00     0.060 A 
ATOM     19  C   UNL     1       0.668   1.060   3.735  1.00  0.00     0.016 A 
ATOM     20  C   UNL     1       0.453  -0.532   5.550  1.00  0.00     0.016 A 
ATOM     21  C   UNL     1       2.019   0.750   3.611  1.00  0.00     0.010 A 
ATOM     22  C   UNL     1       1.822  -0.806   5.459  1.00  0.00     0.010 A 
ATOM     23  C   UNL     1       2.608  -0.191   4.468  1.00  0.00    -0.014 A 
BRANCH  23  24
ATOM     24  C   UNL     1       4.032  -0.568   4.285  1.00  0.00     0.031 A 
ATOM     25  C   UNL     1       4.388  -1.941   3.787  1.00  0.00     0.074 A 
ATOM     26  C   UNL     1       5.006   0.326   4.534  1.00  0.00     0.049 A 
ATOM     27  N   UNL     1       5.567  -2.494   3.652  1.00  0.00    -0.248 NA
ATOM     28  C   UNL     1       3.268  -2.809   3.389  1.00  0.00     0.031 C 
ATOM     29  C   UNL     1       4.796   1.702   4.982  1.00  0.00     0.029 A 
ATOM     30  N   UNL     1       6.370   0.210   4.437  1.00  0.00    -0.354 N 
ATOM     31  C   UNL     1       5.330  -3.783   3.196  1.00  0.00     0.074 A 
ATOM     32  C   UNL     1       3.896  -3.933   3.071  1.00  0.00     0.031 C 
ATOM     33  C   UNL     1       5.987   2.311   5.099  1.00  0.00     0.029 A 
ATOM     34  C   UNL     1       7.044   1.355   4.783  1.00  0.00     0.049 A 
ATOM     35  H   UNL     1       6.822  -0.615   4.146  1.00  0.00     0.167 HD
ATOM     36  C   UNL     1       6.229  -4.755   2.911  1.00  0.00     0.037 A 
ATOM     37  C   UNL     1       8.366   1.599   4.858  1.00  0.00     0.037 A 
ATOM     38  C   UNL     1       7.657  -4.599   2.993  1.00  0.00     0.049 A 
ATOM     39  C   UNL     1       9.342   0.502   4.539  1.00  0.00     0.074 A 
ATOM     40  C   UNL     1       8.646  -5.528   2.719  1.00  0.00     0.029 A 
ATOM     41  N   UNL     1       8.300  -3.429   3.366  1.00  0.00    -0.354 N 
ATOM     42  N   UNL     1       9.106  -0.727   4.153  1.00  0.00    -0.248 NA
ATOM     43  C   UNL     1      10.770   0.824   4.682  1.00  0.00     0.031 C 
ATOM     44  C   UNL     1       9.889  -4.924   2.943  1.00  0.00     0.029 A 
ATOM     45  C   UNL     1       9.672  -3.613   3.333  1.00  0.00     0.049 A 
ATOM     46  H   UNL     1       7.848  -2.591   3.617  1.00  0.00     0.167 HD
ATOM     47  C   UNL     1      10.349  -1.326   4.008  1.00  0.00     0.074 A 
ATOM     48  C   UNL     1      11.340  -0.319   4.325  1.00  0.00     0.031 C 
ATOM     49  C   UNL     1      10.642  -2.600   3.654  1.00  0.00     0.037 A 
BRANCH  36  50
ATOM     50  C   UNL     1       5.690  -6.092   2.505  1.00  0.00     0.064 A 
ATOM     51  C   UNL     1       5.204  -6.327   1.212  1.00  0.00     0.173 A 
ATOM     52  C   UNL     1       5.695  -7.160   3.415  1.00  0.00     0.173 A 
ATOM     53  F   UNL     1       5.164  -5.331   0.315  1.00  0.00    -0.203 F 
ATOM     54  C   UNL     1       4.727  -7.583   0.848  1.00  0.00     0.198 A 
ATOM     55  C   UNL     1       5.234  -8.419   3.042  1.00  0.00     0.198 A 
ATOM     56  F   UNL     1       6.152  -6.982   4.663  1.00  0.00    -0.203 F 
ATOM     57  F   UNL     1       4.237  -7.781  -0.384  1.00  0.00    -0.200 F 
ATOM     58  C   UNL     1       4.747  -8.629   1.760  1.00  0.00     0.200 A 
ATOM     59  F   UNL     1       5.259  -9.429   3.923  1.00  0.00    -0.200 F 
ATOM     60  F   UNL     1       4.291  -9.838   1.406  1.00  0.00    -0.200 F 
ENDBRANCH  36  50
BRANCH  37  61
ATOM     61  C   UNL     1       8.842   2.941   5.272  1.00  0.00     0.064 A 
ATOM     62  C   UNL     1       9.410   3.820   4.341  1.00  0.00     0.173 A 
ATOM     63  C   UNL     1       8.731   3.373   6.601  1.00  0.00     0.173 A 
ATOM     64  F   UNL     1       9.558   3.438   3.064  1.00  0.00    -0.203 F 
ATOM     65  C   UNL     1       9.855   5.082   4.726  1.00  0.00     0.198 A 
ATOM     66  C   UNL     1       9.158   4.642   6.981  1.00  0.00     0.198 A 
ATOM     67  F   UNL     1       8.197   2.563   7.527  1.00  0.00    -0.203 F 
ATOM     68  F   UNL     1      10.422   5.894   3.824  1.00  0.00    -0.200 F 
ATOM     69  C   UNL     1       9.723   5.495   6.044  1.00  0.00     0.200 A 
ATOM     70  F   UNL     1       9.023   5.040   8.253  1.00  0.00    -0.200 F 
ATOM     71  F   UNL     1      10.147   6.711   6.412  1.00  0.00    -0.200 F 
ENDBRANCH  37  61
BRANCH  49  72
ATOM     72  C   UNL     1      12.090  -2.973   3.588  1.00  0.00     0.064 A 
ATOM     73  C   UNL     1      12.823  -3.243   4.752  1.00  0.00     0.173 A 
ATOM     74  C   UNL     1      12.741  -3.093   2.352  1.00  0.00     0.173 A 
ATOM     75  F   UNL     1      12.244  -3.125   5.957  1.00  0.00    -0.203 F 
ATOM     76  C   UNL     1      14.164  -3.609   4.682  1.00  0.00     0.198 A 
ATOM     77  C   UNL     1      14.078  -3.474   2.285  1.00  0.00     0.198 A 
ATOM     78  F   UNL     1      12.079  -2.845   1.213  1.00  0.00    -0.203 F 
ATOM     79  F   UNL     1      14.856  -3.834   5.807  1.00  0.00    -0.200 F 
ATOM     80  C   UNL     1      14.789  -3.728   3.449  1.00  0.00     0.200 A 
ATOM     81  F   UNL     1      14.680  -3.593   1.094  1.00  0.00    -0.200 F 
ATOM     82  F   UNL     1      16.080  -4.081   3.383  1.00  0.00    -0.200 F 
ENDBRANCH  49  72
ENDBRANCH  23  24
ENDBRANCH  16  18
ENDBRANCH  15  16
ENDBRANCH   1  15
TORSDOF 11
