REMARK SMILES Cc1[nH]c2ccccc2c1[C@@H](C(=O)OCCOC(=O)c1ccc(-c2c3nc(c(-c4c(F)c(F)c(F)c(F)c4F)c4ccc([nH]4)c(-c4c(F)c(F)c(F)c(F)c4F)c4nc(c(-c5c(F)c(F)c(F)c(F)c5F)c5ccc2[nH]5)C=C4)C=C3)cc1)[NH+]1CCCC1
REMARK SMILES IDX 16 1 15 2 14 3 12 4 13 5 11 6 10 7 1 8 2 9 3 10 4 11 9 13
REMARK SMILES IDX 5 14 8 15 6 16 7 17 83 18 84 19 87 20 85 22 86 23 17 24
REMARK SMILES IDX 18 25 19 26 20 27 21 28 82 29 22 30 81 31 23 32 24 33 25 34
REMARK SMILES IDX 75 35 26 36 80 37 74 38 76 39 27 40 79 41 73 42 72 43 28 45
REMARK SMILES IDX 60 46 40 47 59 48 41 49 44 50 58 51 77 52 42 53 43 54 57 56
REMARK SMILES IDX 78 57 45 58 29 59 30 60 38 61 31 62 32 63 36 64 39 65 33 66
REMARK SMILES IDX 34 67 37 68 35 69 61 70 62 71 70 72 63 73 64 74 68 75 71 76
REMARK SMILES IDX 65 77 66 78 69 79 67 80 46 81 47 82 55 83 48 84 49 85 53 86
REMARK SMILES IDX 56 87 50 88 51 89 54 90 52 91
REMARK H PARENT 3 12 83 21 76 44 44 55
REMARK Flexibility Score: inf
ROOT
ATOM      1  C   UNL     1       0.374  -4.140  -3.408  1.00  0.00     0.275 C 
ENDROOT
BRANCH   1   2
ATOM      2  C   UNL     1      -1.002  -3.510  -3.201  1.00  0.00     0.274 C 
BRANCH   2   3
ATOM      3  O   UNL     1      -1.006  -2.587  -2.091  1.00  0.00    -0.457 OA
BRANCH   3   4
ATOM      4  C   UNL     1      -1.459  -3.092  -0.907  1.00  0.00     0.370 C 
ATOM      5  O   UNL     1      -1.774  -4.273  -0.761  1.00  0.00    -0.245 OA
BRANCH   4   6
ATOM      6  C   UNL     1      -1.720  -2.025   0.170  1.00  0.00     0.328 C 
BRANCH   6   7
ATOM      7  C   UNL     1      -1.232  -0.614  -0.090  1.00  0.00     0.049 A 
ATOM      8  C   UNL     1      -3.549   0.635  -0.110  1.00  0.00     0.065 C 
ATOM      9  C   UNL     1      -2.068   0.502  -0.161  1.00  0.00     0.022 A 
ATOM     10  N   UNL     1      -1.280   1.618  -0.251  1.00  0.00    -0.358 N 
ATOM     11  C   UNL     1       0.045   1.275  -0.285  1.00  0.00     0.046 A 
ATOM     12  H   UNL     1      -1.620   2.541  -0.286  1.00  0.00     0.166 HD
ATOM     13  C   UNL     1       0.112  -0.120  -0.287  1.00  0.00     0.009 A 
ATOM     14  C   UNL     1       1.175   2.102  -0.318  1.00  0.00     0.027 A 
ATOM     15  C   UNL     1       1.393  -0.704  -0.417  1.00  0.00     0.011 A 
ATOM     16  C   UNL     1       2.428   1.490  -0.377  1.00  0.00     0.002 A 
ATOM     17  C   UNL     1       2.537   0.106  -0.444  1.00  0.00     0.001 A 
ENDBRANCH   6   7
BRANCH   6  18
ATOM     18  N   UNL     1      -1.471  -2.539   1.546  1.00  0.00    -0.319 N 
ATOM     19  C   UNL     1      -2.249  -1.885   2.597  1.00  0.00     0.263 C 
ATOM     20  C   UNL     1      -0.102  -2.570   2.044  1.00  0.00     0.263 C 
ATOM     21  H   UNL     1      -1.769  -3.500   1.376  1.00  0.00     0.349 HD
ATOM     22  C   UNL     1      -1.325  -0.862   3.236  1.00  0.00     0.067 C 
ATOM     23  C   UNL     1       0.080  -1.375   2.967  1.00  0.00     0.067 C 
ENDBRANCH   6  18
ENDBRANCH   4   6
ENDBRANCH   3   4
ENDBRANCH   2   3
ENDBRANCH   1   2
BRANCH   1  24
ATOM     24  O   UNL     1       0.766  -4.844  -2.217  1.00  0.00    -0.458 OA
BRANCH  24  25
ATOM     25  C   UNL     1       2.026  -4.621  -1.778  1.00  0.00     0.338 C 
ATOM     26  O   UNL     1       2.902  -4.004  -2.360  1.00  0.00    -0.246 OA
BRANCH  25  27
ATOM     27  C   UNL     1       2.211  -5.181  -0.415  1.00  0.00     0.060 A 
ATOM     28  C   UNL     1       1.132  -5.385   0.442  1.00  0.00     0.016 A 
ATOM     29  C   UNL     1       3.506  -5.394   0.064  1.00  0.00     0.016 A 
ATOM     30  C   UNL     1       1.349  -5.681   1.789  1.00  0.00     0.010 A 
ATOM     31  C   UNL     1       3.714  -5.785   1.395  1.00  0.00     0.010 A 
ATOM     32  C   UNL     1       2.640  -5.885   2.295  1.00  0.00    -0.014 A 
BRANCH  32  33
ATOM     33  C   UNL     1       2.863  -6.144   3.752  1.00  0.00     0.031 A 
ATOM     34  C   UNL     1       3.845  -5.307   4.541  1.00  0.00     0.074 A 
ATOM     35  C   UNL     1       2.176  -7.104   4.404  1.00  0.00     0.049 A 
ATOM     36  N   UNL     1       4.347  -5.520   5.733  1.00  0.00    -0.248 NA
ATOM     37  C   UNL     1       4.341  -4.079   3.900  1.00  0.00     0.031 C 
ATOM     38  C   UNL     1       1.155  -7.971   3.815  1.00  0.00     0.029 A 
ATOM     39  N   UNL     1       2.220  -7.501   5.721  1.00  0.00    -0.354 N 
ATOM     40  C   UNL     1       5.281  -4.513   5.942  1.00  0.00     0.074 A 
ATOM     41  C   UNL     1       5.260  -3.671   4.765  1.00  0.00     0.031 C 
ATOM     42  C   UNL     1       0.618  -8.738   4.774  1.00  0.00     0.029 A 
ATOM     43  C   UNL     1       1.335  -8.507   6.023  1.00  0.00     0.049 A 
ATOM     44  H   UNL     1       2.828  -7.101   6.384  1.00  0.00     0.167 HD
ATOM     45  C   UNL     1       6.089  -4.317   7.013  1.00  0.00     0.037 A 
ATOM     46  C   UNL     1       1.146  -9.209   7.157  1.00  0.00     0.037 A 
ATOM     47  C   UNL     1       6.042  -5.091   8.228  1.00  0.00     0.049 A 
ATOM     48  C   UNL     1       2.032  -8.957   8.341  1.00  0.00     0.074 A 
ATOM     49  C   UNL     1       6.814  -4.954   9.371  1.00  0.00     0.029 A 
ATOM     50  N   UNL     1       5.149  -6.121   8.475  1.00  0.00    -0.354 N 
ATOM     51  N   UNL     1       3.002  -8.088   8.477  1.00  0.00    -0.248 NA
ATOM     52  C   UNL     1       1.819  -9.811   9.518  1.00  0.00     0.031 C 
ATOM     53  C   UNL     1       6.401  -5.914  10.301  1.00  0.00     0.029 A 
ATOM     54  C   UNL     1       5.348  -6.625   9.752  1.00  0.00     0.049 A 
ATOM     55  H   UNL     1       4.473  -6.447   7.838  1.00  0.00     0.167 HD
ATOM     56  C   UNL     1       3.524  -8.298   9.745  1.00  0.00     0.074 A 
ATOM     57  C   UNL     1       2.738  -9.351  10.354  1.00  0.00     0.031 C 
ATOM     58  C   UNL     1       4.572  -7.683  10.343  1.00  0.00     0.037 A 
BRANCH  45  59
ATOM     59  C   UNL     1       7.132  -3.241   6.919  1.00  0.00     0.064 A 
ATOM     60  C   UNL     1       6.815  -1.881   7.025  1.00  0.00     0.173 A 
ATOM     61  C   UNL     1       8.487  -3.593   6.797  1.00  0.00     0.173 A 
ATOM     62  F   UNL     1       5.536  -1.492   7.131  1.00  0.00    -0.203 F 
ATOM     63  C   UNL     1       7.815  -0.910   7.001  1.00  0.00     0.198 A 
ATOM     64  C   UNL     1       9.485  -2.622   6.800  1.00  0.00     0.198 A 
ATOM     65  F   UNL     1       8.844  -4.883   6.701  1.00  0.00    -0.203 F 
ATOM     66  F   UNL     1       7.488   0.388   7.074  1.00  0.00    -0.200 F 
ATOM     67  C   UNL     1       9.148  -1.282   6.898  1.00  0.00     0.200 A 
ATOM     68  F   UNL     1      10.772  -2.986   6.715  1.00  0.00    -0.200 F 
ATOM     69  F   UNL     1      10.108  -0.347   6.893  1.00  0.00    -0.200 F 
ENDBRANCH  45  59
BRANCH  46  70
ATOM     70  C   UNL     1       0.097 -10.260   7.200  1.00  0.00     0.064 A 
ATOM     71  C   UNL     1      -1.061 -10.088   7.970  1.00  0.00     0.173 A 
ATOM     72  C   UNL     1       0.218 -11.441   6.453  1.00  0.00     0.173 A 
ATOM     73  F   UNL     1      -1.205  -8.991   8.727  1.00  0.00    -0.203 F 
ATOM     74  C   UNL     1      -2.062 -11.057   7.986  1.00  0.00     0.198 A 
ATOM     75  C   UNL     1      -0.797 -12.393   6.444  1.00  0.00     0.198 A 
ATOM     76  F   UNL     1       1.311 -11.654   5.705  1.00  0.00    -0.203 F 
ATOM     77  F   UNL     1      -3.146 -10.884   8.754  1.00  0.00    -0.200 F 
ATOM     78  C   UNL     1      -1.935 -12.202   7.213  1.00  0.00     0.200 A 
ATOM     79  F   UNL     1      -0.677 -13.491   5.685  1.00  0.00    -0.200 F 
ATOM     80  F   UNL     1      -2.907 -13.124   7.214  1.00  0.00    -0.200 F 
ENDBRANCH  46  70
BRANCH  58  81
ATOM     81  C   UNL     1       4.922  -8.135  11.728  1.00  0.00     0.064 A 
ATOM     82  C   UNL     1       5.563  -9.363  11.954  1.00  0.00     0.173 A 
ATOM     83  C   UNL     1       4.612  -7.339  12.840  1.00  0.00     0.173 A 
ATOM     84  F   UNL     1       5.864 -10.166  10.922  1.00  0.00    -0.203 F 
ATOM     85  C   UNL     1       5.853  -9.791  13.246  1.00  0.00     0.198 A 
ATOM     86  C   UNL     1       4.923  -7.760  14.130  1.00  0.00     0.198 A 
ATOM     87  F   UNL     1       4.003  -6.156  12.675  1.00  0.00    -0.203 F 
ATOM     88  F   UNL     1       6.419 -10.989  13.443  1.00  0.00    -0.200 F 
ATOM     89  C   UNL     1       5.535  -8.989  14.332  1.00  0.00     0.200 A 
ATOM     90  F   UNL     1       4.620  -6.983  15.178  1.00  0.00    -0.200 F 
ATOM     91  F   UNL     1       5.806  -9.406  15.577  1.00  0.00    -0.200 F 
ENDBRANCH  58  81
ENDBRANCH  32  33
ENDBRANCH  25  27
ENDBRANCH  24  25
ENDBRANCH   1  24
TORSDOF 13
