REMARK SMILES CC[C@](C)(NC(=O)c1cccc2ncccc12)C(=O)OCCOC(=O)c1ccc(-c2c3nc(c(-c4c(F)c(F)c(F)c(F)c4F)c4ccc([nH]4)c(-c4c(F)c(F)c(F)c(F)c4F)c4nc(c(-c5c(F)c(F)c(F)c(F)c5F)c5ccc2[nH]5)C=C4)C=C3)cc1
REMARK SMILES IDX 21 1 20 2 18 3 19 4 3 5 4 6 2 7 1 8 5 9 6 10 7 12 8 13 9 14
REMARK SMILES IDX 17 15 10 16 12 17 16 18 11 19 13 20 15 21 14 22 22 23 23 24
REMARK SMILES IDX 24 25 25 26 26 27 27 28 88 29 28 30 87 31 29 32 30 33 31 34
REMARK SMILES IDX 81 35 32 36 86 37 80 38 82 39 33 40 85 41 79 42 78 43 34 45
REMARK SMILES IDX 66 46 46 47 65 48 47 49 50 50 64 51 83 52 48 53 49 54 63 56
REMARK SMILES IDX 84 57 51 58 35 59 36 60 44 61 37 62 38 63 42 64 45 65 39 66
REMARK SMILES IDX 40 67 43 68 41 69 67 70 68 71 76 72 69 73 70 74 74 75 77 76
REMARK SMILES IDX 71 77 72 78 75 79 73 80 52 81 53 82 61 83 54 84 55 85 59 86
REMARK SMILES IDX 62 87 56 88 57 89 60 90 58 91
REMARK H PARENT 5 11 82 44 50 55
REMARK Flexibility Score: inf
ROOT
ATOM      1  C   UNL     1       4.846  -2.472   0.633  1.00  0.00     0.274 C 
ENDROOT
BRANCH   1   2
ATOM      2  O   UNL     1       3.601  -3.171   0.411  1.00  0.00    -0.460 OA
BRANCH   2   3
ATOM      3  C   UNL     1       2.471  -2.426   0.453  1.00  0.00     0.331 C 
ATOM      4  O   UNL     1       2.473  -1.225   0.714  1.00  0.00    -0.249 OA
BRANCH   3   5
ATOM      5  C   UNL     1       1.155  -3.243   0.243  1.00  0.00     0.135 C 
ATOM      6  C   UNL     1       0.214  -2.409  -0.651  1.00  0.00     0.047 C 
BRANCH   5   7
ATOM      7  C   UNL     1       0.488  -3.427   1.647  1.00  0.00     0.037 C 
ATOM      8  C   UNL     1       0.560  -2.262   2.628  1.00  0.00     0.007 C 
ENDBRANCH   5   7
BRANCH   5   9
ATOM      9  N   UNL     1       1.234  -4.630  -0.324  1.00  0.00    -0.336 N 
ATOM     10  C   UNL     1       1.679  -4.941  -1.595  1.00  0.00     0.252 C 
ATOM     11  H   UNL     1       0.948  -5.375   0.253  1.00  0.00     0.165 HD
ATOM     12  O   UNL     1       0.858  -5.105  -2.491  1.00  0.00    -0.269 OA
BRANCH  10  13
ATOM     13  C   UNL     1       3.121  -5.303  -1.758  1.00  0.00     0.049 A 
ATOM     14  C   UNL     1       3.777  -5.843  -0.639  1.00  0.00     0.014 A 
ATOM     15  C   UNL     1       3.825  -5.131  -2.988  1.00  0.00     0.013 A 
ATOM     16  C   UNL     1       5.133  -6.127  -0.692  1.00  0.00     0.003 A 
ATOM     17  C   UNL     1       5.212  -5.407  -3.015  1.00  0.00     0.071 A 
ATOM     18  C   UNL     1       3.271  -4.656  -4.203  1.00  0.00     0.013 A 
ATOM     19  C   UNL     1       5.833  -5.891  -1.872  1.00  0.00     0.029 A 
ATOM     20  N   UNL     1       5.988  -5.208  -4.094  1.00  0.00    -0.256 NA
ATOM     21  C   UNL     1       4.067  -4.455  -5.325  1.00  0.00     0.021 A 
ATOM     22  C   UNL     1       5.411  -4.735  -5.217  1.00  0.00     0.112 A 
ENDBRANCH  10  13
ENDBRANCH   5   9
ENDBRANCH   3   5
ENDBRANCH   2   3
ENDBRANCH   1   2
BRANCH   1  23
ATOM     23  C   UNL     1       5.556  -2.085  -0.671  1.00  0.00     0.275 C 
BRANCH  23  24
ATOM     24  O   UNL     1       4.966  -0.943  -1.321  1.00  0.00    -0.458 OA
BRANCH  24  25
ATOM     25  C   UNL     1       3.929  -1.227  -2.131  1.00  0.00     0.338 C 
ATOM     26  O   UNL     1       3.417  -2.318  -2.338  1.00  0.00    -0.246 OA
BRANCH  25  27
ATOM     27  C   UNL     1       3.318  -0.008  -2.640  1.00  0.00     0.060 A 
ATOM     28  C   UNL     1       2.074   0.337  -2.113  1.00  0.00     0.016 A 
ATOM     29  C   UNL     1       3.903   0.737  -3.661  1.00  0.00     0.016 A 
ATOM     30  C   UNL     1       1.406   1.450  -2.579  1.00  0.00     0.010 A 
ATOM     31  C   UNL     1       3.254   1.890  -4.102  1.00  0.00     0.010 A 
ATOM     32  C   UNL     1       2.020   2.260  -3.538  1.00  0.00    -0.014 A 
BRANCH  32  33
ATOM     33  C   UNL     1       1.419   3.572  -3.822  1.00  0.00     0.031 A 
ATOM     34  C   UNL     1       0.716   3.824  -5.112  1.00  0.00     0.074 A 
ATOM     35  C   UNL     1       1.510   4.512  -2.863  1.00  0.00     0.049 A 
ATOM     36  N   UNL     1       0.221   4.942  -5.569  1.00  0.00    -0.248 NA
ATOM     37  C   UNL     1       0.548   2.672  -6.010  1.00  0.00     0.031 C 
ATOM     38  C   UNL     1       2.145   4.316  -1.554  1.00  0.00     0.029 A 
ATOM     39  N   UNL     1       1.070   5.806  -2.826  1.00  0.00    -0.354 N 
ATOM     40  C   UNL     1      -0.289   4.641  -6.822  1.00  0.00     0.074 A 
ATOM     41  C   UNL     1      -0.052   3.232  -7.053  1.00  0.00     0.031 C 
ATOM     42  C   UNL     1       2.036   5.443  -0.838  1.00  0.00     0.029 A 
ATOM     43  C   UNL     1       1.392   6.457  -1.661  1.00  0.00     0.049 A 
ATOM     44  H   UNL     1       0.572   6.229  -3.562  1.00  0.00     0.167 HD
ATOM     45  C   UNL     1      -0.888   5.485  -7.693  1.00  0.00     0.037 A 
ATOM     46  C   UNL     1       1.220   7.745  -1.317  1.00  0.00     0.037 A 
ATOM     47  C   UNL     1      -1.115   6.881  -7.422  1.00  0.00     0.049 A 
ATOM     48  C   UNL     1       0.576   8.658  -2.318  1.00  0.00     0.074 A 
ATOM     49  C   UNL     1      -1.704   7.837  -8.229  1.00  0.00     0.029 A 
ATOM     50  N   UNL     1      -0.761   7.519  -6.239  1.00  0.00    -0.354 N 
ATOM     51  N   UNL     1       0.124   8.378  -3.517  1.00  0.00    -0.248 NA
ATOM     52  C   UNL     1       0.435  10.066  -1.931  1.00  0.00     0.031 C 
ATOM     53  C   UNL     1      -1.675   9.060  -7.548  1.00  0.00     0.029 A 
ATOM     54  C   UNL     1      -1.103   8.859  -6.301  1.00  0.00     0.049 A 
ATOM     55  H   UNL     1      -0.330   7.082  -5.469  1.00  0.00     0.167 HD
ATOM     56  C   UNL     1      -0.353   9.571  -4.032  1.00  0.00     0.074 A 
ATOM     57  C   UNL     1      -0.165  10.573  -3.000  1.00  0.00     0.031 C 
ATOM     58  C   UNL     1      -0.888   9.823  -5.252  1.00  0.00     0.037 A 
BRANCH  45  59
ATOM     59  C   UNL     1      -1.289   4.935  -9.028  1.00  0.00     0.064 A 
ATOM     60  C   UNL     1      -2.401   4.094  -9.179  1.00  0.00     0.173 A 
ATOM     61  C   UNL     1      -0.563   5.277 -10.178  1.00  0.00     0.173 A 
ATOM     62  F   UNL     1      -3.117   3.722  -8.107  1.00  0.00    -0.203 F 
ATOM     63  C   UNL     1      -2.761   3.602 -10.432  1.00  0.00     0.198 A 
ATOM     64  C   UNL     1      -0.938   4.801 -11.432  1.00  0.00     0.198 A 
ATOM     65  F   UNL     1       0.510   6.077 -10.087  1.00  0.00    -0.203 F 
ATOM     66  F   UNL     1      -3.806   2.771 -10.550  1.00  0.00    -0.200 F 
ATOM     67  C   UNL     1      -2.034   3.961 -11.557  1.00  0.00     0.200 A 
ATOM     68  F   UNL     1      -0.237   5.154 -12.519  1.00  0.00    -0.200 F 
ATOM     69  F   UNL     1      -2.384   3.491 -12.763  1.00  0.00    -0.200 F 
ENDBRANCH  45  59
BRANCH  46  70
ATOM     70  C   UNL     1       1.702   8.232   0.000  1.00  0.00     0.064 A 
ATOM     71  C   UNL     1       0.803   8.637   0.995  1.00  0.00     0.173 A 
ATOM     72  C   UNL     1       3.072   8.278   0.301  1.00  0.00     0.173 A 
ATOM     73  F   UNL     1      -0.515   8.628   0.750  1.00  0.00    -0.203 F 
ATOM     74  C   UNL     1       1.256   9.081   2.236  1.00  0.00     0.198 A 
ATOM     75  C   UNL     1       3.523   8.693   1.552  1.00  0.00     0.198 A 
ATOM     76  F   UNL     1       3.975   7.896  -0.614  1.00  0.00    -0.203 F 
ATOM     77  F   UNL     1       0.378   9.498   3.157  1.00  0.00    -0.200 F 
ATOM     78  C   UNL     1       2.615   9.101   2.516  1.00  0.00     0.200 A 
ATOM     79  F   UNL     1       4.835   8.693   1.823  1.00  0.00    -0.200 F 
ATOM     80  F   UNL     1       3.049   9.518   3.713  1.00  0.00    -0.200 F 
ENDBRANCH  46  70
BRANCH  58  81
ATOM     81  C   UNL     1      -1.298  11.238  -5.516  1.00  0.00     0.064 A 
ATOM     82  C   UNL     1      -0.346  12.233  -5.779  1.00  0.00     0.173 A 
ATOM     83  C   UNL     1      -2.654  11.595  -5.526  1.00  0.00     0.173 A 
ATOM     84  F   UNL     1       0.962  11.937  -5.759  1.00  0.00    -0.203 F 
ATOM     85  C   UNL     1      -0.738  13.545  -6.023  1.00  0.00     0.198 A 
ATOM     86  C   UNL     1      -3.042  12.903  -5.793  1.00  0.00     0.198 A 
ATOM     87  F   UNL     1      -3.598  10.674  -5.280  1.00  0.00    -0.203 F 
ATOM     88  F   UNL     1       0.189  14.491  -6.228  1.00  0.00    -0.200 F 
ATOM     89  C   UNL     1      -2.085  13.877  -6.035  1.00  0.00     0.200 A 
ATOM     90  F   UNL     1      -4.343  13.223  -5.812  1.00  0.00    -0.200 F 
ATOM     91  F   UNL     1      -2.460  15.142  -6.271  1.00  0.00    -0.200 F 
ENDBRANCH  58  81
ENDBRANCH  32  33
ENDBRANCH  25  27
ENDBRANCH  24  25
ENDBRANCH  23  24
ENDBRANCH   1  23
TORSDOF 14
