REMARK SMILES O=C(OCCOC(=O)c1cn(-c2cc(Cl)ncn2)cn1)c1ccc(-c2c3nc(c(-c4c(F)c(F)c(F)c(F)c4F)c4ccc([nH]4)c(-c4c(F)c(F)c(F)c(F)c4F)c4nc(c(-c5c(F)c(F)c(F)c(F)c5F)c5ccc2[nH]5)C=C4)C=C3)cc1
REMARK SMILES IDX 4 1 3 2 2 3 1 4 21 5 22 6 83 7 23 8 82 9 24 10 25 11 26 12
REMARK SMILES IDX 76 13 27 14 81 15 75 16 77 17 28 18 80 19 74 20 73 21 29 23
REMARK SMILES IDX 61 24 41 25 60 26 42 27 45 28 59 29 78 30 43 31 44 32 58 34
REMARK SMILES IDX 79 35 46 36 30 37 31 38 39 39 32 40 33 41 37 42 40 43 34 44
REMARK SMILES IDX 35 45 38 46 36 47 62 48 63 49 71 50 64 51 65 52 69 53 72 54
REMARK SMILES IDX 66 55 67 56 70 57 68 58 47 59 48 60 56 61 49 62 50 63 54 64
REMARK SMILES IDX 57 65 51 66 52 67 55 68 53 69 5 70 6 71 7 72 8 73 9 74 10 75
REMARK SMILES IDX 20 76 11 77 19 78 12 79 13 80 18 81 14 82 17 83 15 84 16 85
REMARK H PARENT 77 22 45 33
REMARK Flexibility Score: inf
ROOT
ATOM      1  C   UNL     1       4.503   0.041   1.101  1.00  0.00     0.275 C 
ENDROOT
BRANCH   1   2
ATOM      2  O   UNL     1       3.322   0.854   1.290  1.00  0.00    -0.458 OA
BRANCH   2   3
ATOM      3  C   UNL     1       2.232   0.620   0.519  1.00  0.00     0.338 C 
ATOM      4  O   UNL     1       1.433  -0.281   0.707  1.00  0.00    -0.246 OA
BRANCH   3   5
ATOM      5  C   UNL     1       2.061   1.698  -0.486  1.00  0.00     0.060 A 
ATOM      6  C   UNL     1       3.156   2.445  -0.933  1.00  0.00     0.016 A 
ATOM      7  C   UNL     1       0.784   1.953  -1.003  1.00  0.00     0.016 A 
ATOM      8  C   UNL     1       2.966   3.476  -1.840  1.00  0.00     0.010 A 
ATOM      9  C   UNL     1       0.593   2.990  -1.916  1.00  0.00     0.010 A 
ATOM     10  C   UNL     1       1.682   3.768  -2.313  1.00  0.00    -0.014 A 
BRANCH  10  11
ATOM     11  C   UNL     1       1.573   4.863  -3.275  1.00  0.00     0.031 A 
ATOM     12  C   UNL     1       2.308   4.686  -4.559  1.00  0.00     0.074 A 
ATOM     13  C   UNL     1       0.841   5.978  -3.087  1.00  0.00     0.049 A 
ATOM     14  N   UNL     1       3.302   5.381  -5.012  1.00  0.00    -0.248 NA
ATOM     15  C   UNL     1       1.915   3.568  -5.426  1.00  0.00     0.031 C 
ATOM     16  C   UNL     1      -0.162   6.247  -2.059  1.00  0.00     0.029 A 
ATOM     17  N   UNL     1       0.809   7.103  -3.862  1.00  0.00    -0.354 N 
ATOM     18  C   UNL     1       3.582   4.886  -6.284  1.00  0.00     0.074 A 
ATOM     19  C   UNL     1       2.756   3.715  -6.452  1.00  0.00     0.031 C 
ATOM     20  C   UNL     1      -0.843   7.369  -2.389  1.00  0.00     0.029 A 
ATOM     21  C   UNL     1      -0.231   7.968  -3.565  1.00  0.00     0.049 A 
ATOM     22  H   UNL     1       1.469   7.283  -4.570  1.00  0.00     0.167 HD
ATOM     23  C   UNL     1       4.356   5.576  -7.168  1.00  0.00     0.037 A 
ATOM     24  C   UNL     1      -0.591   9.070  -4.265  1.00  0.00     0.037 A 
ATOM     25  C   UNL     1       5.161   6.570  -6.509  1.00  0.00     0.049 A 
ATOM     26  C   UNL     1       0.569   9.503  -5.080  1.00  0.00     0.074 A 
ATOM     27  C   UNL     1       6.129   6.540  -5.523  1.00  0.00     0.029 A 
ATOM     28  N   UNL     1       4.810   7.891  -6.627  1.00  0.00    -0.354 N 
ATOM     29  N   UNL     1       1.645  10.053  -4.593  1.00  0.00    -0.248 NA
ATOM     30  C   UNL     1       0.694   8.978  -6.431  1.00  0.00     0.031 C 
ATOM     31  C   UNL     1       5.924   7.731  -4.766  1.00  0.00     0.029 A 
ATOM     32  C   UNL     1       4.874   8.425  -5.367  1.00  0.00     0.049 A 
ATOM     33  H   UNL     1       4.561   8.363  -7.454  1.00  0.00     0.167 HD
ATOM     34  C   UNL     1       2.674   9.555  -5.375  1.00  0.00     0.074 A 
ATOM     35  C   UNL     1       2.022   9.001  -6.556  1.00  0.00     0.031 C 
ATOM     36  C   UNL     1       3.929   9.390  -4.864  1.00  0.00     0.037 A 
BRANCH  23  37
ATOM     37  C   UNL     1       4.166   5.575  -8.666  1.00  0.00     0.064 A 
ATOM     38  C   UNL     1       5.123   6.212  -9.486  1.00  0.00     0.173 A 
ATOM     39  C   UNL     1       2.943   5.259  -9.293  1.00  0.00     0.173 A 
ATOM     40  F   UNL     1       6.319   6.568  -8.993  1.00  0.00    -0.203 F 
ATOM     41  C   UNL     1       4.838   6.585 -10.803  1.00  0.00     0.198 A 
ATOM     42  C   UNL     1       2.682   5.588 -10.624  1.00  0.00     0.198 A 
ATOM     43  F   UNL     1       1.919   4.723  -8.619  1.00  0.00    -0.203 F 
ATOM     44  F   UNL     1       5.730   7.305 -11.498  1.00  0.00    -0.200 F 
ATOM     45  C   UNL     1       3.614   6.282 -11.367  1.00  0.00     0.200 A 
ATOM     46  F   UNL     1       1.484   5.297 -11.151  1.00  0.00    -0.200 F 
ATOM     47  F   UNL     1       3.313   6.698 -12.604  1.00  0.00    -0.200 F 
ENDBRANCH  23  37
BRANCH  24  48
ATOM     48  C   UNL     1      -1.941   9.643  -4.462  1.00  0.00     0.064 A 
ATOM     49  C   UNL     1      -2.113  10.960  -4.915  1.00  0.00     0.173 A 
ATOM     50  C   UNL     1      -3.080   8.816  -4.483  1.00  0.00     0.173 A 
ATOM     51  F   UNL     1      -1.069  11.800  -4.968  1.00  0.00    -0.203 F 
ATOM     52  C   UNL     1      -3.347  11.415  -5.391  1.00  0.00     0.198 A 
ATOM     53  C   UNL     1      -4.312   9.273  -4.949  1.00  0.00     0.198 A 
ATOM     54  F   UNL     1      -2.996   7.521  -4.146  1.00  0.00    -0.203 F 
ATOM     55  F   UNL     1      -3.458  12.658  -5.880  1.00  0.00    -0.200 F 
ATOM     56  C   UNL     1      -4.442  10.567  -5.418  1.00  0.00     0.200 A 
ATOM     57  F   UNL     1      -5.354   8.432  -5.004  1.00  0.00    -0.200 F 
ATOM     58  F   UNL     1      -5.607  10.981  -5.934  1.00  0.00    -0.200 F 
ENDBRANCH  24  48
BRANCH  36  59
ATOM     59  C   UNL     1       4.248  10.045  -3.552  1.00  0.00     0.064 A 
ATOM     60  C   UNL     1       3.566   9.783  -2.351  1.00  0.00     0.173 A 
ATOM     61  C   UNL     1       5.369  10.886  -3.486  1.00  0.00     0.173 A 
ATOM     62  F   UNL     1       2.557   8.902  -2.307  1.00  0.00    -0.203 F 
ATOM     63  C   UNL     1       3.951  10.388  -1.156  1.00  0.00     0.198 A 
ATOM     64  C   UNL     1       5.777  11.454  -2.283  1.00  0.00     0.198 A 
ATOM     65  F   UNL     1       6.097  11.125  -4.588  1.00  0.00    -0.203 F 
ATOM     66  F   UNL     1       3.267  10.144  -0.029  1.00  0.00    -0.200 F 
ATOM     67  C   UNL     1       5.059  11.219  -1.123  1.00  0.00     0.200 A 
ATOM     68  F   UNL     1       6.880  12.214  -2.245  1.00  0.00    -0.200 F 
ATOM     69  F   UNL     1       5.451  11.771   0.034  1.00  0.00    -0.200 F 
ENDBRANCH  36  59
ENDBRANCH  10  11
ENDBRANCH   3   5
ENDBRANCH   2   3
ENDBRANCH   1   2
BRANCH   1  70
ATOM     70  C   UNL     1       4.306  -1.342   0.489  1.00  0.00     0.275 C 
BRANCH  70  71
ATOM     71  O   UNL     1       3.830  -1.164  -0.849  1.00  0.00    -0.457 OA
BRANCH  71  72
ATOM     72  C   UNL     1       2.930  -2.087  -1.288  1.00  0.00     0.358 C 
ATOM     73  O   UNL     1       2.656  -3.138  -0.722  1.00  0.00    -0.244 OA
BRANCH  72  74
ATOM     74  C   UNL     1       2.446  -1.730  -2.611  1.00  0.00     0.166 A 
ATOM     75  C   UNL     1       2.693  -2.451  -3.760  1.00  0.00     0.130 A 
ATOM     76  N   UNL     1       1.782  -0.558  -2.921  1.00  0.00    -0.229 NA
ATOM     77  N   UNL     1       2.199  -1.693  -4.792  1.00  0.00    -0.289 N 
ATOM     78  C   UNL     1       1.643  -0.573  -4.228  1.00  0.00     0.206 A 
BRANCH  77  79
ATOM     79  C   UNL     1       2.287  -1.973  -6.175  1.00  0.00     0.142 A 
ATOM     80  C   UNL     1       2.422  -3.281  -6.582  1.00  0.00     0.088 A 
ATOM     81  N   UNL     1       2.251  -0.929  -7.033  1.00  0.00    -0.219 NA
ATOM     82  C   UNL     1       2.517  -3.452  -7.938  1.00  0.00     0.134 A 
ATOM     83  C   UNL     1       2.417  -1.229  -8.329  1.00  0.00     0.226 A 
ATOM     84  Cl  UNL     1       2.586  -5.029  -8.610  1.00  0.00    -0.062 Cl
ATOM     85  N   UNL     1       2.542  -2.458  -8.837  1.00  0.00    -0.224 NA
ENDBRANCH  77  79
ENDBRANCH  72  74
ENDBRANCH  71  72
ENDBRANCH  70  71
ENDBRANCH   1  70
TORSDOF 12
