REMARK SMILES Cc1ccc(C[N@H+]2CCC[C@@H](C(=O)OCCOC(=O)c3ccc(-c4c5nc(c(-c6c(F)c(F)c(F)c(F)c6F)c6ccc([nH]6)c(-c6c(F)c(F)c(F)c(F)c6F)c6nc(c(-c7c(F)c(F)c(F)c(F)c7F)c7ccc4[nH]7)C=C6)C=C5)cc3)C2)o1
REMARK SMILES IDX 15 1 14 2 12 3 13 4 11 5 7 6 8 7 83 8 9 10 10 11 6 12 5 13
REMARK SMILES IDX 1 14 2 15 3 16 84 17 4 18 16 19 17 20 18 21 19 22 20 23
REMARK SMILES IDX 21 24 82 25 22 26 81 27 23 28 24 29 25 30 75 31 26 32 80 33
REMARK SMILES IDX 74 34 76 35 27 36 79 37 73 38 72 39 28 41 60 42 40 43 59 44
REMARK SMILES IDX 41 45 44 46 58 47 77 48 42 49 43 50 57 52 78 53 45 54 29 55
REMARK SMILES IDX 30 56 38 57 31 58 32 59 36 60 39 61 33 62 34 63 37 64 35 65
REMARK SMILES IDX 61 66 62 67 70 68 63 69 64 70 68 71 71 72 65 73 66 74 69 75
REMARK SMILES IDX 67 76 46 77 47 78 55 79 48 80 49 81 53 82 56 83 50 84 51 85
REMARK SMILES IDX 54 86 52 87
REMARK H PARENT 7 9 76 40 44 51
REMARK Flexibility Score: inf
ROOT
ATOM      1  C   UNL     1       1.543   6.809   2.585  1.00  0.00     0.274 C 
ENDROOT
BRANCH   1   2
ATOM      2  O   UNL     1       0.236   6.210   2.681  1.00  0.00    -0.462 OA
BRANCH   2   3
ATOM      3  C   UNL     1      -0.034   5.270   1.733  1.00  0.00     0.314 C 
ATOM      4  O   UNL     1       0.727   4.979   0.817  1.00  0.00    -0.252 OA
BRANCH   3   5
ATOM      5  C   UNL     1      -1.405   4.641   1.936  1.00  0.00     0.154 C 
ATOM      6  N   UNL     1      -2.740   2.683   1.093  1.00  0.00    -0.328 N 
ATOM      7  C   UNL     1      -2.750   2.070   2.421  1.00  0.00     0.262 C 
ATOM      8  C   UNL     1      -1.541   3.510   0.903  1.00  0.00     0.278 C 
ATOM      9  H   UNL     1      -3.555   3.294   1.044  1.00  0.00     0.348 HD
ATOM     10  C   UNL     1      -2.772   3.164   3.490  1.00  0.00     0.062 C 
ATOM     11  C   UNL     1      -1.585   4.117   3.366  1.00  0.00     0.027 C 
BRANCH   6  12
ATOM     12  C   UNL     1      -2.907   1.696   0.002  1.00  0.00     0.338 C 
BRANCH  12  13
ATOM     13  C   UNL     1      -1.774   0.742  -0.202  1.00  0.00     0.158 A 
ATOM     14  C   UNL     1       1.569   0.615  -1.443  1.00  0.00     0.087 C 
ATOM     15  C   UNL     1       0.259   0.245  -0.875  1.00  0.00     0.101 A 
ATOM     16  C   UNL     1      -0.268  -0.912  -0.346  1.00  0.00     0.046 A 
ATOM     17  O   UNL     1      -0.664   1.242  -0.820  1.00  0.00    -0.460 OA
ATOM     18  C   UNL     1      -1.581  -0.593   0.086  1.00  0.00     0.052 A 
ENDBRANCH  12  13
ENDBRANCH   6  12
ENDBRANCH   3   5
ENDBRANCH   2   3
ENDBRANCH   1   2
BRANCH   1  19
ATOM     19  C   UNL     1       2.508   6.152   3.568  1.00  0.00     0.275 C 
BRANCH  19  20
ATOM     20  O   UNL     1       2.591   4.736   3.320  1.00  0.00    -0.458 OA
BRANCH  20  21
ATOM     21  C   UNL     1       2.433   3.951   4.410  1.00  0.00     0.338 C 
ATOM     22  O   UNL     1       2.240   4.304   5.560  1.00  0.00    -0.246 OA
BRANCH  21  23
ATOM     23  C   UNL     1       2.578   2.533   4.042  1.00  0.00     0.060 A 
ATOM     24  C   UNL     1       1.670   1.923   3.176  1.00  0.00     0.016 A 
ATOM     25  C   UNL     1       3.558   1.776   4.686  1.00  0.00     0.016 A 
ATOM     26  C   UNL     1       1.691   0.537   3.017  1.00  0.00     0.010 A 
ATOM     27  C   UNL     1       3.621   0.397   4.473  1.00  0.00     0.010 A 
ATOM     28  C   UNL     1       2.663  -0.240   3.668  1.00  0.00    -0.014 A 
BRANCH  28  29
ATOM     29  C   UNL     1       2.650  -1.720   3.547  1.00  0.00     0.031 A 
ATOM     30  C   UNL     1       2.317  -2.575   4.737  1.00  0.00     0.074 A 
ATOM     31  C   UNL     1       2.922  -2.300   2.364  1.00  0.00     0.049 A 
ATOM     32  N   UNL     1       2.348  -3.880   4.854  1.00  0.00    -0.248 NA
ATOM     33  C   UNL     1       1.905  -1.874   5.963  1.00  0.00     0.031 C 
ATOM     34  C   UNL     1       3.249  -1.586   1.131  1.00  0.00     0.029 A 
ATOM     35  N   UNL     1       2.948  -3.623   2.002  1.00  0.00    -0.354 N 
ATOM     36  C   UNL     1       2.020  -4.151   6.175  1.00  0.00     0.074 A 
ATOM     37  C   UNL     1       1.771  -2.878   6.819  1.00  0.00     0.031 C 
ATOM     38  C   UNL     1       3.382  -2.475   0.134  1.00  0.00     0.029 A 
ATOM     39  C   UNL     1       3.203  -3.821   0.668  1.00  0.00     0.049 A 
ATOM     40  H   UNL     1       2.799  -4.360   2.638  1.00  0.00     0.167 HD
ATOM     41  C   UNL     1       1.949  -5.351   6.797  1.00  0.00     0.037 A 
ATOM     42  C   UNL     1       3.286  -4.961  -0.042  1.00  0.00     0.037 A 
ATOM     43  C   UNL     1       2.154  -6.621   6.151  1.00  0.00     0.049 A 
ATOM     44  C   UNL     1       3.147  -6.282   0.659  1.00  0.00     0.074 A 
ATOM     45  C   UNL     1       2.124  -7.890   6.704  1.00  0.00     0.029 A 
ATOM     46  N   UNL     1       2.407  -6.780   4.798  1.00  0.00    -0.354 N 
ATOM     47  N   UNL     1       2.904  -6.523   1.924  1.00  0.00    -0.248 NA
ATOM     48  C   UNL     1       3.326  -7.488  -0.161  1.00  0.00     0.031 C 
ATOM     49  C   UNL     1       2.371  -8.818   5.685  1.00  0.00     0.029 A 
ATOM     50  C   UNL     1       2.533  -8.126   4.496  1.00  0.00     0.049 A 
ATOM     51  H   UNL     1       2.485  -6.046   4.147  1.00  0.00     0.167 HD
ATOM     52  C   UNL     1       2.923  -7.903   2.057  1.00  0.00     0.074 A 
ATOM     53  C   UNL     1       3.159  -8.450   0.737  1.00  0.00     0.031 C 
ATOM     54  C   UNL     1       2.781  -8.649   3.179  1.00  0.00     0.037 A 
BRANCH  41  55
ATOM     55  C   UNL     1       1.678  -5.345   8.269  1.00  0.00     0.064 A 
ATOM     56  C   UNL     1       0.387  -5.160   8.781  1.00  0.00     0.173 A 
ATOM     57  C   UNL     1       2.726  -5.554   9.178  1.00  0.00     0.173 A 
ATOM     58  F   UNL     1      -0.643  -4.940   7.950  1.00  0.00    -0.203 F 
ATOM     59  C   UNL     1       0.157  -5.168  10.155  1.00  0.00     0.198 A 
ATOM     60  C   UNL     1       2.490  -5.578  10.550  1.00  0.00     0.198 A 
ATOM     61  F   UNL     1       3.979  -5.737   8.734  1.00  0.00    -0.203 F 
ATOM     62  F   UNL     1      -1.080  -4.957  10.627  1.00  0.00    -0.200 F 
ATOM     63  C   UNL     1       1.207  -5.381  11.037  1.00  0.00     0.200 A 
ATOM     64  F   UNL     1       3.505  -5.787  11.400  1.00  0.00    -0.200 F 
ATOM     65  F   UNL     1       0.983  -5.389  12.358  1.00  0.00    -0.200 F 
ENDBRANCH  41  55
BRANCH  42  66
ATOM     66  C   UNL     1       3.502  -4.899  -1.507  1.00  0.00     0.064 A 
ATOM     67  C   UNL     1       2.449  -5.176  -2.390  1.00  0.00     0.173 A 
ATOM     68  C   UNL     1       4.742  -4.543  -2.054  1.00  0.00     0.173 A 
ATOM     69  F   UNL     1       1.251  -5.540  -1.909  1.00  0.00    -0.203 F 
ATOM     70  C   UNL     1       2.631  -5.102  -3.768  1.00  0.00     0.198 A 
ATOM     71  C   UNL     1       4.917  -4.450  -3.432  1.00  0.00     0.198 A 
ATOM     72  F   UNL     1       5.776  -4.267  -1.246  1.00  0.00    -0.203 F 
ATOM     73  F   UNL     1       1.616  -5.395  -4.592  1.00  0.00    -0.200 F 
ATOM     74  C   UNL     1       3.862  -4.732  -4.288  1.00  0.00     0.200 A 
ATOM     75  F   UNL     1       6.105  -4.082  -3.931  1.00  0.00    -0.200 F 
ATOM     76  F   UNL     1       4.035  -4.652  -5.615  1.00  0.00    -0.200 F 
ENDBRANCH  42  66
BRANCH  54  77
ATOM     77  C   UNL     1       2.907 -10.133   3.026  1.00  0.00     0.064 A 
ATOM     78  C   UNL     1       4.167 -10.739   2.913  1.00  0.00     0.173 A 
ATOM     79  C   UNL     1       1.772 -10.954   3.024  1.00  0.00     0.173 A 
ATOM     80  F   UNL     1       5.278  -9.989   2.896  1.00  0.00    -0.203 F 
ATOM     81  C   UNL     1       4.284 -12.120   2.788  1.00  0.00     0.198 A 
ATOM     82  C   UNL     1       1.895 -12.337   2.913  1.00  0.00     0.198 A 
ATOM     83  F   UNL     1       0.548 -10.416   3.129  1.00  0.00    -0.203 F 
ATOM     84  F   UNL     1       5.495 -12.679   2.652  1.00  0.00    -0.200 F 
ATOM     85  C   UNL     1       3.149 -12.918   2.792  1.00  0.00     0.200 A 
ATOM     86  F   UNL     1       0.798 -13.108   2.918  1.00  0.00    -0.200 F 
ATOM     87  F   UNL     1       3.264 -14.247   2.671  1.00  0.00    -0.200 F 
ENDBRANCH  54  77
ENDBRANCH  28  29
ENDBRANCH  21  23
ENDBRANCH  20  21
ENDBRANCH  19  20
ENDBRANCH   1  19
TORSDOF 13
