REMARK SMILES C[C@H]1CN(C(=O)C[N@H+]2CCO[C@H](CC(=O)OCCOC(=O)c3ccc(-c4c5nc(c(-c6c(F)c(F)c(F)c(F)c6F)c6ccc([nH]6)c(-c6c(F)c(F)c(F)c(F)c6F)c6nc(c(-c7c(F)c(F)c(F)c(F)c7F)c7ccc4[nH]7)C=C6)C=C5)cc3)C2)CCO1
REMARK SMILES IDX 17 1 16 2 14 3 15 4 13 5 12 6 8 7 9 8 85 9 10 11 11 12 7 13
REMARK SMILES IDX 5 14 6 15 4 16 1 17 2 18 3 19 88 20 87 21 86 22 18 23 19 24
REMARK SMILES IDX 20 25 21 26 22 27 23 28 84 29 24 30 83 31 25 32 26 33 27 34
REMARK SMILES IDX 77 35 28 36 82 37 76 38 78 39 29 40 81 41 75 42 74 43 30 45
REMARK SMILES IDX 62 46 42 47 61 48 43 49 46 50 60 51 79 52 44 53 45 54 59 56
REMARK SMILES IDX 80 57 47 58 31 59 32 60 40 61 33 62 34 63 38 64 41 65 35 66
REMARK SMILES IDX 36 67 39 68 37 69 63 70 64 71 72 72 65 73 66 74 70 75 73 76
REMARK SMILES IDX 67 77 68 78 71 79 69 80 48 81 49 82 57 83 50 84 51 85 55 86
REMARK SMILES IDX 58 87 52 88 53 89 56 90 54 91
REMARK H PARENT 8 10 78 44 46 55
REMARK Flexibility Score: inf
ROOT
ATOM      1  C   UNL     1      -1.497   2.296   2.000  1.00  0.00     0.274 C 
ENDROOT
BRANCH   1   2
ATOM      2  O   UNL     1      -0.909   1.579   0.870  1.00  0.00    -0.462 OA
BRANCH   2   3
ATOM      3  C   UNL     1       0.450   1.622   0.750  1.00  0.00     0.308 C 
ATOM      4  O   UNL     1       1.204   1.951   1.663  1.00  0.00    -0.252 OA
BRANCH   3   5
ATOM      5  C   UNL     1       0.965   1.415  -0.674  1.00  0.00     0.160 C 
BRANCH   5   6
ATOM      6  C   UNL     1       0.624   0.127  -1.443  1.00  0.00     0.184 C 
ATOM      7  N   UNL     1       1.414  -2.227  -2.039  1.00  0.00    -0.323 N 
ATOM      8  C   UNL     1       1.073  -1.922  -3.428  1.00  0.00     0.291 C 
ATOM      9  C   UNL     1       1.676  -1.008  -1.262  1.00  0.00     0.295 C 
ATOM     10  H   UNL     1       2.330  -2.676  -2.021  1.00  0.00     0.348 HD
ATOM     11  C   UNL     1       0.172  -0.688  -3.623  1.00  0.00     0.222 C 
ATOM     12  O   UNL     1       0.601   0.450  -2.854  1.00  0.00    -0.366 OA
BRANCH   7  13
ATOM     13  C   UNL     1       0.710  -3.370  -1.434  1.00  0.00     0.363 C 
BRANCH  13  14
ATOM     14  C   UNL     1      -0.816  -3.211  -1.234  1.00  0.00     0.277 C 
ATOM     15  O   UNL     1      -1.554  -2.977  -2.195  1.00  0.00    -0.268 OA
BRANCH  14  16
ATOM     16  N   UNL     1      -1.341  -3.325   0.057  1.00  0.00    -0.333 N 
ATOM     17  C   UNL     1       0.828  -1.383   2.309  1.00  0.00     0.040 C 
ATOM     18  C   UNL     1      -0.329  -1.732   1.424  1.00  0.00     0.134 C 
ATOM     19  C   UNL     1      -0.512  -3.226   1.250  1.00  0.00     0.151 C 
ATOM     20  O   UNL     1      -1.586  -1.171   1.821  1.00  0.00    -0.375 OA
ATOM     21  C   UNL     1      -2.570  -1.323   0.760  1.00  0.00     0.182 C 
ATOM     22  C   UNL     1      -2.692  -2.795   0.310  1.00  0.00     0.148 C 
ENDBRANCH  14  16
ENDBRANCH  13  14
ENDBRANCH   7  13
ENDBRANCH   5   6
ENDBRANCH   3   5
ENDBRANCH   2   3
ENDBRANCH   1   2
BRANCH   1  23
ATOM     23  C   UNL     1      -2.113   1.443   3.131  1.00  0.00     0.275 C 
BRANCH  23  24
ATOM     24  O   UNL     1      -1.075   0.877   3.947  1.00  0.00    -0.458 OA
BRANCH  24  25
ATOM     25  C   UNL     1      -1.371  -0.190   4.738  1.00  0.00     0.338 C 
ATOM     26  O   UNL     1      -2.475  -0.674   4.931  1.00  0.00    -0.246 OA
BRANCH  25  27
ATOM     27  C   UNL     1      -0.092  -0.756   5.282  1.00  0.00     0.060 A 
ATOM     28  C   UNL     1       1.118  -0.111   5.011  1.00  0.00     0.016 A 
ATOM     29  C   UNL     1      -0.053  -2.008   5.916  1.00  0.00     0.016 A 
ATOM     30  C   UNL     1       2.329  -0.757   5.241  1.00  0.00     0.010 A 
ATOM     31  C   UNL     1       1.180  -2.568   6.319  1.00  0.00     0.010 A 
ATOM     32  C   UNL     1       2.392  -1.929   6.010  1.00  0.00    -0.014 A 
BRANCH  32  33
ATOM     33  C   UNL     1       3.712  -2.316   6.606  1.00  0.00     0.031 A 
ATOM     34  C   UNL     1       4.302  -3.697   6.502  1.00  0.00     0.074 A 
ATOM     35  C   UNL     1       4.406  -1.363   7.271  1.00  0.00     0.049 A 
ATOM     36  N   UNL     1       5.333  -4.197   7.141  1.00  0.00    -0.248 NA
ATOM     37  C   UNL     1       3.663  -4.641   5.576  1.00  0.00     0.031 C 
ATOM     38  C   UNL     1       3.972   0.028   7.448  1.00  0.00     0.029 A 
ATOM     39  N   UNL     1       5.627  -1.393   7.899  1.00  0.00    -0.354 N 
ATOM     40  C   UNL     1       5.430  -5.527   6.748  1.00  0.00     0.074 A 
ATOM     41  C   UNL     1       4.367  -5.749   5.787  1.00  0.00     0.031 C 
ATOM     42  C   UNL     1       4.944   0.735   8.027  1.00  0.00     0.029 A 
ATOM     43  C   UNL     1       5.990  -0.182   8.441  1.00  0.00     0.049 A 
ATOM     44  H   UNL     1       6.186  -2.201   7.957  1.00  0.00     0.167 HD
ATOM     45  C   UNL     1       6.313  -6.468   7.171  1.00  0.00     0.037 A 
ATOM     46  C   UNL     1       6.998   0.164   9.261  1.00  0.00     0.037 A 
ATOM     47  C   UNL     1       7.397  -6.219   8.096  1.00  0.00     0.049 A 
ATOM     48  C   UNL     1       7.928  -0.899   9.742  1.00  0.00     0.074 A 
ATOM     49  C   UNL     1       8.342  -7.109   8.582  1.00  0.00     0.029 A 
ATOM     50  N   UNL     1       7.690  -4.987   8.665  1.00  0.00    -0.354 N 
ATOM     51  N   UNL     1       7.946  -2.173   9.439  1.00  0.00    -0.248 NA
ATOM     52  C   UNL     1       8.949  -0.489  10.711  1.00  0.00     0.031 C 
ATOM     53  C   UNL     1       9.180  -6.426   9.472  1.00  0.00     0.029 A 
ATOM     54  C   UNL     1       8.789  -5.099   9.506  1.00  0.00     0.049 A 
ATOM     55  H   UNL     1       7.190  -4.155   8.498  1.00  0.00     0.167 HD
ATOM     56  C   UNL     1       8.975  -2.721  10.184  1.00  0.00     0.074 A 
ATOM     57  C   UNL     1       9.578  -1.634  10.930  1.00  0.00     0.031 C 
ATOM     58  C   UNL     1       9.373  -4.014  10.252  1.00  0.00     0.037 A 
BRANCH  45  59
ATOM     59  C   UNL     1       6.128  -7.881   6.689  1.00  0.00     0.064 A 
ATOM     60  C   UNL     1       6.450  -8.276   5.383  1.00  0.00     0.173 A 
ATOM     61  C   UNL     1       5.692  -8.875   7.582  1.00  0.00     0.173 A 
ATOM     62  F   UNL     1       6.867  -7.369   4.488  1.00  0.00    -0.203 F 
ATOM     63  C   UNL     1       6.324  -9.606   4.984  1.00  0.00     0.198 A 
ATOM     64  C   UNL     1       5.592 -10.207   7.188  1.00  0.00     0.198 A 
ATOM     65  F   UNL     1       5.385  -8.557   8.849  1.00  0.00    -0.203 F 
ATOM     66  F   UNL     1       6.606  -9.955   3.721  1.00  0.00    -0.200 F 
ATOM     67  C   UNL     1       5.903 -10.571   5.888  1.00  0.00     0.200 A 
ATOM     68  F   UNL     1       5.201 -11.139   8.069  1.00  0.00    -0.200 F 
ATOM     69  F   UNL     1       5.793 -11.851   5.504  1.00  0.00    -0.200 F 
ENDBRANCH  45  59
BRANCH  46  70
ATOM     70  C   UNL     1       7.095   1.567   9.743  1.00  0.00     0.064 A 
ATOM     71  C   UNL     1       8.143   2.399   9.333  1.00  0.00     0.173 A 
ATOM     72  C   UNL     1       6.106   2.120  10.573  1.00  0.00     0.173 A 
ATOM     73  F   UNL     1       9.124   1.909   8.561  1.00  0.00    -0.203 F 
ATOM     74  C   UNL     1       8.193   3.734   9.728  1.00  0.00     0.198 A 
ATOM     75  C   UNL     1       6.136   3.463  10.933  1.00  0.00     0.198 A 
ATOM     76  F   UNL     1       5.077   1.365  10.989  1.00  0.00    -0.203 F 
ATOM     77  F   UNL     1       9.221   4.504   9.346  1.00  0.00    -0.200 F 
ATOM     78  C   UNL     1       7.183   4.269  10.514  1.00  0.00     0.200 A 
ATOM     79  F   UNL     1       5.141   3.980  11.668  1.00  0.00    -0.200 F 
ATOM     80  F   UNL     1       7.217   5.560  10.868  1.00  0.00    -0.200 F 
ENDBRANCH  46  70
BRANCH  58  81
ATOM     81  C   UNL     1      10.535  -4.305  11.151  1.00  0.00     0.064 A 
ATOM     82  C   UNL     1      10.400  -4.298  12.547  1.00  0.00     0.173 A 
ATOM     83  C   UNL     1      11.800  -4.577  10.611  1.00  0.00     0.173 A 
ATOM     84  F   UNL     1       9.214  -4.015  13.109  1.00  0.00    -0.203 F 
ATOM     85  C   UNL     1      11.498  -4.524  13.372  1.00  0.00     0.198 A 
ATOM     86  C   UNL     1      12.890  -4.829  11.438  1.00  0.00     0.198 A 
ATOM     87  F   UNL     1      11.979  -4.591   9.282  1.00  0.00    -0.203 F 
ATOM     88  F   UNL     1      11.360  -4.456  14.703  1.00  0.00    -0.200 F 
ATOM     89  C   UNL     1      12.741  -4.793  12.817  1.00  0.00     0.200 A 
ATOM     90  F   UNL     1      14.089  -5.092  10.902  1.00  0.00    -0.200 F 
ATOM     91  F   UNL     1      13.798  -5.005  13.612  1.00  0.00    -0.200 F 
ENDBRANCH  58  81
ENDBRANCH  32  33
ENDBRANCH  25  27
ENDBRANCH  24  25
ENDBRANCH  23  24
ENDBRANCH   1  23
TORSDOF 15
