REMARK SMILES Cc1c(Cl)cc2c(c1C)O[C@H](C(F)(F)F)C(C(=O)OCCOC(=O)c1ccc(-c3c4nc(c(-c5c(F)c(F)c(F)c(F)c5F)c5ccc([nH]5)c(-c5c(F)c(F)c(F)c(F)c5F)c5nc(c(-c6c(F)c(F)c(F)c(F)c6F)c6ccc3[nH]6)C=C5)C=C4)cc1)=C2
REMARK SMILES IDX 21 1 20 2 19 3 17 4 18 5 16 6 1 7 2 8 3 9 8 10 4 11 5 12
REMARK SMILES IDX 7 13 9 14 6 15 10 16 88 17 11 18 12 19 13 20 14 21 15 22
REMARK SMILES IDX 22 23 23 24 24 25 25 26 26 27 87 28 27 29 86 30 28 31 29 32
REMARK SMILES IDX 30 33 80 34 31 35 85 36 79 37 81 38 32 39 84 40 78 41 77 42
REMARK SMILES IDX 33 44 65 45 45 46 64 47 46 48 49 49 63 50 82 51 47 52 48 53
REMARK SMILES IDX 62 55 83 56 50 57 34 58 35 59 43 60 36 61 37 62 41 63 44 64
REMARK SMILES IDX 38 65 39 66 42 67 40 68 66 69 67 70 75 71 68 72 69 73 73 74
REMARK SMILES IDX 76 75 70 76 71 77 74 78 72 79 51 80 52 81 60 82 53 83 54 84
REMARK SMILES IDX 58 85 61 86 55 87 56 88 59 89 57 90
REMARK H PARENT 81 43 49 54
REMARK Flexibility Score: inf
ROOT
ATOM      1  C   UNL     1       0.374  -8.924   5.655  1.00  0.00     0.275 C 
ENDROOT
BRANCH   1   2
ATOM      2  C   UNL     1      -0.082  -9.021   4.199  1.00  0.00     0.275 C 
BRANCH   2   3
ATOM      3  O   UNL     1       0.319  -7.854   3.447  1.00  0.00    -0.459 OA
BRANCH   3   4
ATOM      4  C   UNL     1      -0.656  -6.946   3.215  1.00  0.00     0.338 C 
ATOM      5  O   UNL     1      -1.822  -7.019   3.571  1.00  0.00    -0.246 OA
BRANCH   4   6
ATOM      6  C   UNL     1      -0.111  -5.780   2.494  1.00  0.00     0.087 C 
ATOM      7  C   UNL     1       1.111   0.077  -0.111  1.00  0.00     0.046 C 
ATOM      8  C   UNL     1       0.740  -1.131   0.712  1.00  0.00    -0.026 A 
ATOM      9  C   UNL     1      -0.004  -1.004   1.900  1.00  0.00     0.045 A 
ATOM     10  C   UNL     1       1.130  -2.431   0.286  1.00  0.00    -0.004 A 
ATOM     11  Cl  UNL     1      -0.520   0.523   2.528  1.00  0.00    -0.084 Cl
ATOM     12  C   UNL     1      -0.375  -2.131   2.632  1.00  0.00     0.032 A 
ATOM     13  C   UNL     1       0.757  -3.560   1.047  1.00  0.00     0.131 A 
ATOM     14  C   UNL     1       1.932  -2.660  -0.972  1.00  0.00     0.049 C 
ATOM     15  C   UNL     1      -0.009  -3.405   2.199  1.00  0.00     0.019 A 
ATOM     16  O   UNL     1       1.192  -4.785   0.612  1.00  0.00    -0.475 OA
ATOM     17  C   UNL     1      -0.453  -4.567   2.938  1.00  0.00     0.027 C 
ATOM     18  C   UNL     1       0.689  -5.997   1.242  1.00  0.00     0.316 C 
BRANCH  18  19
ATOM     19  C   UNL     1      -0.117  -6.792   0.201  1.00  0.00     0.430 C 
ATOM     20  F   UNL     1       0.588  -6.969  -0.941  1.00  0.00    -0.167 F 
ATOM     21  F   UNL     1      -0.435  -8.028   0.656  1.00  0.00    -0.167 F 
ATOM     22  F   UNL     1      -1.274  -6.173  -0.127  1.00  0.00    -0.167 F 
ENDBRANCH  18  19
ENDBRANCH   4   6
ENDBRANCH   3   4
ENDBRANCH   2   3
ENDBRANCH   1   2
BRANCH   1  23
ATOM     23  O   UNL     1      -0.315  -7.849   6.319  1.00  0.00    -0.458 OA
BRANCH  23  24
ATOM     24  C   UNL     1       0.455  -6.809   6.713  1.00  0.00     0.338 C 
ATOM     25  O   UNL     1       1.664  -6.693   6.608  1.00  0.00    -0.246 OA
BRANCH  24  26
ATOM     26  C   UNL     1      -0.398  -5.742   7.260  1.00  0.00     0.060 A 
ATOM     27  C   UNL     1      -1.305  -5.114   6.415  1.00  0.00     0.016 A 
ATOM     28  C   UNL     1      -0.203  -5.260   8.552  1.00  0.00     0.016 A 
ATOM     29  C   UNL     1      -1.919  -3.929   6.802  1.00  0.00     0.010 A 
ATOM     30  C   UNL     1      -0.936  -4.147   8.992  1.00  0.00     0.010 A 
ATOM     31  C   UNL     1      -1.774  -3.441   8.109  1.00  0.00    -0.014 A 
BRANCH  31  32
ATOM     32  C   UNL     1      -2.496  -2.201   8.526  1.00  0.00     0.031 A 
ATOM     33  C   UNL     1      -1.744  -1.019   9.084  1.00  0.00     0.074 A 
ATOM     34  C   UNL     1      -3.834  -2.113   8.363  1.00  0.00     0.049 A 
ATOM     35  N   UNL     1      -2.213   0.089   9.604  1.00  0.00    -0.248 NA
ATOM     36  C   UNL     1      -0.275  -1.092   9.069  1.00  0.00     0.031 C 
ATOM     37  C   UNL     1      -4.688  -3.162   7.802  1.00  0.00     0.029 A 
ATOM     38  N   UNL     1      -4.710  -1.086   8.622  1.00  0.00    -0.354 N 
ATOM     39  C   UNL     1      -1.104   0.816  10.020  1.00  0.00     0.074 A 
ATOM     40  C   UNL     1       0.063   0.022   9.704  1.00  0.00     0.031 C 
ATOM     41  C   UNL     1      -5.939  -2.698   7.678  1.00  0.00     0.029 A 
ATOM     42  C   UNL     1      -6.005  -1.359   8.250  1.00  0.00     0.049 A 
ATOM     43  H   UNL     1      -4.436  -0.235   9.034  1.00  0.00     0.167 HD
ATOM     44  C   UNL     1      -1.065   2.037  10.607  1.00  0.00     0.037 A 
ATOM     45  C   UNL     1      -7.132  -0.632   8.379  1.00  0.00     0.037 A 
ATOM     46  C   UNL     1      -2.223   2.852  10.867  1.00  0.00     0.049 A 
ATOM     47  C   UNL     1      -7.066   0.704   9.061  1.00  0.00     0.074 A 
ATOM     48  C   UNL     1      -2.284   4.099  11.465  1.00  0.00     0.029 A 
ATOM     49  N   UNL     1      -3.522   2.512  10.520  1.00  0.00    -0.354 N 
ATOM     50  N   UNL     1      -6.018   1.344   9.518  1.00  0.00    -0.248 NA
ATOM     51  C   UNL     1      -8.339   1.406   9.274  1.00  0.00     0.031 C 
ATOM     52  C   UNL     1      -3.622   4.501  11.508  1.00  0.00     0.029 A 
ATOM     53  C   UNL     1      -4.391   3.524  10.898  1.00  0.00     0.049 A 
ATOM     54  H   UNL     1      -3.788   1.677  10.072  1.00  0.00     0.167 HD
ATOM     55  C   UNL     1      -6.500   2.525  10.062  1.00  0.00     0.074 A 
ATOM     56  C   UNL     1      -7.935   2.523   9.863  1.00  0.00     0.031 C 
ATOM     57  C   UNL     1      -5.814   3.515  10.681  1.00  0.00     0.037 A 
BRANCH  44  58
ATOM     58  C   UNL     1       0.273   2.573  11.030  1.00  0.00     0.064 A 
ATOM     59  C   UNL     1       1.206   3.051  10.099  1.00  0.00     0.173 A 
ATOM     60  C   UNL     1       0.593   2.679  12.393  1.00  0.00     0.173 A 
ATOM     61  F   UNL     1       0.953   2.964   8.785  1.00  0.00    -0.203 F 
ATOM     62  C   UNL     1       2.416   3.602  10.516  1.00  0.00     0.198 A 
ATOM     63  C   UNL     1       1.792   3.255  12.807  1.00  0.00     0.198 A 
ATOM     64  F   UNL     1      -0.268   2.244  13.326  1.00  0.00    -0.203 F 
ATOM     65  F   UNL     1       3.306   4.024   9.608  1.00  0.00    -0.200 F 
ATOM     66  C   UNL     1       2.703   3.712  11.869  1.00  0.00     0.200 A 
ATOM     67  F   UNL     1       2.060   3.374  14.115  1.00  0.00    -0.200 F 
ATOM     68  F   UNL     1       3.860   4.258  12.268  1.00  0.00    -0.200 F 
ENDBRANCH  44  58
BRANCH  45  69
ATOM     69  C   UNL     1      -8.420  -1.167   7.862  1.00  0.00     0.064 A 
ATOM     70  C   UNL     1      -9.050  -0.576   6.759  1.00  0.00     0.173 A 
ATOM     71  C   UNL     1      -9.027  -2.297   8.431  1.00  0.00     0.173 A 
ATOM     72  F   UNL     1      -8.524   0.521   6.196  1.00  0.00    -0.203 F 
ATOM     73  C   UNL     1     -10.236  -1.096   6.243  1.00  0.00     0.198 A 
ATOM     74  C   UNL     1     -10.195  -2.835   7.896  1.00  0.00     0.198 A 
ATOM     75  F   UNL     1      -8.466  -2.900   9.490  1.00  0.00    -0.203 F 
ATOM     76  F   UNL     1     -10.834  -0.494   5.206  1.00  0.00    -0.200 F 
ATOM     77  C   UNL     1     -10.801  -2.232   6.804  1.00  0.00     0.200 A 
ATOM     78  F   UNL     1     -10.727  -3.942   8.431  1.00  0.00    -0.200 F 
ATOM     79  F   UNL     1     -11.930  -2.743   6.296  1.00  0.00    -0.200 F 
ENDBRANCH  45  69
BRANCH  57  80
ATOM     80  C   UNL     1      -6.593   4.698  11.169  1.00  0.00     0.064 A 
ATOM     81  C   UNL     1      -7.379   4.627  12.327  1.00  0.00     0.173 A 
ATOM     82  C   UNL     1      -6.487   5.935  10.516  1.00  0.00     0.173 A 
ATOM     83  F   UNL     1      -7.521   3.462  12.976  1.00  0.00    -0.203 F 
ATOM     84  C   UNL     1      -8.037   5.754  12.813  1.00  0.00     0.198 A 
ATOM     85  C   UNL     1      -7.126   7.065  11.018  1.00  0.00     0.198 A 
ATOM     86  F   UNL     1      -5.741   6.053   9.407  1.00  0.00    -0.203 F 
ATOM     87  F   UNL     1      -8.802   5.660  13.908  1.00  0.00    -0.200 F 
ATOM     88  C   UNL     1      -7.902   6.973  12.164  1.00  0.00     0.200 A 
ATOM     89  F   UNL     1      -6.985   8.244  10.397  1.00  0.00    -0.200 F 
ATOM     90  F   UNL     1      -8.521   8.060  12.643  1.00  0.00    -0.200 F 
ENDBRANCH  57  80
ENDBRANCH  31  32
ENDBRANCH  24  26
ENDBRANCH  23  24
ENDBRANCH   1  23
TORSDOF 12
