REMARK SMILES O=C(OCCOC(=O)[C@H]1CC2=c3ccccc3=N[C@H]2[C@@H](c2ccccc2)[NH2+]1)c1ccc(-c2c3nc(c(-c4c(F)c(F)c(F)c(F)c4F)c4ccc([nH]4)c(-c4c(F)c(F)c(F)c(F)c4F)c4nc(c(-c5c(F)c(F)c(F)c(F)c5F)c5ccc2[nH]5)C=C4)C=C3)cc1
REMARK SMILES IDX 4 1 3 2 2 3 1 4 28 5 29 6 90 7 30 8 89 9 31 10 32 11 33 12
REMARK SMILES IDX 83 13 34 14 88 15 82 16 84 17 35 18 87 19 81 20 80 21 36 23
REMARK SMILES IDX 68 24 48 25 67 26 49 27 52 28 66 29 85 30 50 31 51 32 65 34
REMARK SMILES IDX 86 35 53 36 37 37 38 38 46 39 39 40 40 41 44 42 47 43 41 44
REMARK SMILES IDX 42 45 45 46 43 47 69 48 70 49 78 50 71 51 72 52 76 53 79 54
REMARK SMILES IDX 73 55 74 56 77 57 75 58 54 59 55 60 63 61 56 62 57 63 61 64
REMARK SMILES IDX 64 65 58 66 59 67 62 68 60 69 5 70 6 71 7 72 8 73 9 74 10 75
REMARK SMILES IDX 27 76 11 77 20 78 12 81 19 82 13 83 17 84 18 85 14 86 16 87
REMARK SMILES IDX 15 88 21 89 22 90 26 91 23 92 25 93 24 94
REMARK H PARENT 84 22 52 33 27 79 27 80
REMARK Flexibility Score: inf
ROOT
ATOM      1  C   UNL     1       3.691  -1.429   0.651  1.00  0.00     0.275 C 
ENDROOT
BRANCH   1   2
ATOM      2  O   UNL     1       3.545  -0.129   1.215  1.00  0.00    -0.458 OA
BRANCH   2   3
ATOM      3  C   UNL     1       3.645   1.033   0.540  1.00  0.00     0.338 C 
ATOM      4  O   UNL     1       2.974   1.986   0.940  1.00  0.00    -0.246 OA
BRANCH   3   5
ATOM      5  C   UNL     1       4.526   1.233  -0.672  1.00  0.00     0.060 A 
ATOM      6  C   UNL     1       4.392   2.484  -1.238  1.00  0.00     0.016 A 
ATOM      7  C   UNL     1       5.399   0.355  -1.339  1.00  0.00     0.016 A 
ATOM      8  C   UNL     1       4.968   2.761  -2.475  1.00  0.00     0.010 A 
ATOM      9  C   UNL     1       5.987   0.666  -2.611  1.00  0.00     0.010 A 
ATOM     10  C   UNL     1       5.725   1.867  -3.260  1.00  0.00    -0.014 A 
BRANCH  10  11
ATOM     11  C   UNL     1       6.095   2.292  -4.693  1.00  0.00     0.031 A 
ATOM     12  C   UNL     1       5.882   1.435  -5.961  1.00  0.00     0.074 A 
ATOM     13  C   UNL     1       6.426   3.593  -4.899  1.00  0.00     0.049 A 
ATOM     14  N   UNL     1       5.867   1.804  -7.234  1.00  0.00    -0.248 NA
ATOM     15  C   UNL     1       5.687  -0.011  -5.804  1.00  0.00     0.031 C 
ATOM     16  C   UNL     1       6.684   4.574  -3.839  1.00  0.00     0.029 A 
ATOM     17  N   UNL     1       6.508   4.351  -6.048  1.00  0.00    -0.354 N 
ATOM     18  C   UNL     1       5.577   0.661  -7.998  1.00  0.00     0.074 A 
ATOM     19  C   UNL     1       5.526  -0.429  -7.058  1.00  0.00     0.031 C 
ATOM     20  C   UNL     1       6.667   5.805  -4.354  1.00  0.00     0.029 A 
ATOM     21  C   UNL     1       6.683   5.695  -5.803  1.00  0.00     0.049 A 
ATOM     22  H   UNL     1       6.448   3.969  -6.953  1.00  0.00     0.167 HD
ATOM     23  C   UNL     1       5.355   0.542  -9.341  1.00  0.00     0.037 A 
ATOM     24  C   UNL     1       6.932   6.737  -6.621  1.00  0.00     0.037 A 
ATOM     25  C   UNL     1       5.611   1.598 -10.292  1.00  0.00     0.049 A 
ATOM     26  C   UNL     1       7.059   6.478  -8.085  1.00  0.00     0.074 A 
ATOM     27  C   UNL     1       5.562   1.535 -11.677  1.00  0.00     0.029 A 
ATOM     28  N   UNL     1       6.018   2.876  -9.964  1.00  0.00    -0.354 N 
ATOM     29  N   UNL     1       6.662   5.438  -8.769  1.00  0.00    -0.248 NA
ATOM     30  C   UNL     1       7.735   7.510  -8.881  1.00  0.00     0.031 C 
ATOM     31  C   UNL     1       5.987   2.757 -12.188  1.00  0.00     0.029 A 
ATOM     32  C   UNL     1       6.311   3.576 -11.122  1.00  0.00     0.049 A 
ATOM     33  H   UNL     1       6.088   3.233  -9.050  1.00  0.00     0.167 HD
ATOM     34  C   UNL     1       7.048   5.682 -10.076  1.00  0.00     0.074 A 
ATOM     35  C   UNL     1       7.679   6.983 -10.097  1.00  0.00     0.031 C 
ATOM     36  C   UNL     1       6.909   4.879 -11.153  1.00  0.00     0.037 A 
BRANCH  23  37
ATOM     37  C   UNL     1       4.819  -0.735  -9.973  1.00  0.00     0.064 A 
ATOM     38  C   UNL     1       3.590  -0.687 -10.672  1.00  0.00     0.173 A 
ATOM     39  C   UNL     1       5.560  -1.915 -10.103  1.00  0.00     0.173 A 
ATOM     40  F   UNL     1       2.838   0.427 -10.641  1.00  0.00    -0.203 F 
ATOM     41  C   UNL     1       3.103  -1.774 -11.401  1.00  0.00     0.198 A 
ATOM     42  C   UNL     1       5.065  -3.008 -10.828  1.00  0.00     0.198 A 
ATOM     43  F   UNL     1       6.783  -2.005  -9.563  1.00  0.00    -0.203 F 
ATOM     44  F   UNL     1       1.905  -1.697 -12.001  1.00  0.00    -0.200 F 
ATOM     45  C   UNL     1       3.833  -2.943 -11.462  1.00  0.00     0.200 A 
ATOM     46  F   UNL     1       5.795  -4.128 -10.930  1.00  0.00    -0.200 F 
ATOM     47  F   UNL     1       3.349  -4.005 -12.123  1.00  0.00    -0.200 F 
ENDBRANCH  23  37
BRANCH  24  48
ATOM     48  C   UNL     1       7.242   8.072  -6.037  1.00  0.00     0.064 A 
ATOM     49  C   UNL     1       6.447   9.191  -6.302  1.00  0.00     0.173 A 
ATOM     50  C   UNL     1       8.322   8.236  -5.151  1.00  0.00     0.173 A 
ATOM     51  F   UNL     1       5.433   9.104  -7.176  1.00  0.00    -0.203 F 
ATOM     52  C   UNL     1       6.693  10.410  -5.668  1.00  0.00     0.198 A 
ATOM     53  C   UNL     1       8.534   9.435  -4.480  1.00  0.00     0.198 A 
ATOM     54  F   UNL     1       9.140   7.205  -4.886  1.00  0.00    -0.203 F 
ATOM     55  F   UNL     1       5.928  11.474  -5.948  1.00  0.00    -0.200 F 
ATOM     56  C   UNL     1       7.719  10.523  -4.739  1.00  0.00     0.200 A 
ATOM     57  F   UNL     1       9.508   9.524  -3.565  1.00  0.00    -0.200 F 
ATOM     58  F   UNL     1       7.921  11.679  -4.094  1.00  0.00    -0.200 F 
ENDBRANCH  24  48
BRANCH  36  59
ATOM     59  C   UNL     1       7.443   5.359 -12.463  1.00  0.00     0.064 A 
ATOM     60  C   UNL     1       8.822   5.395 -12.707  1.00  0.00     0.173 A 
ATOM     61  C   UNL     1       6.574   5.684 -13.514  1.00  0.00     0.173 A 
ATOM     62  F   UNL     1       9.689   5.093 -11.728  1.00  0.00    -0.203 F 
ATOM     63  C   UNL     1       9.315   5.755 -13.955  1.00  0.00     0.198 A 
ATOM     64  C   UNL     1       7.069   6.008 -14.772  1.00  0.00     0.198 A 
ATOM     65  F   UNL     1       5.245   5.641 -13.332  1.00  0.00    -0.203 F 
ATOM     66  F   UNL     1      10.638   5.817 -14.158  1.00  0.00    -0.200 F 
ATOM     67  C   UNL     1       8.438   6.050 -14.990  1.00  0.00     0.200 A 
ATOM     68  F   UNL     1       6.221   6.264 -15.778  1.00  0.00    -0.200 F 
ATOM     69  F   UNL     1       8.915   6.374 -16.199  1.00  0.00    -0.200 F 
ENDBRANCH  36  59
ENDBRANCH  10  11
ENDBRANCH   3   5
ENDBRANCH   2   3
ENDBRANCH   1   2
BRANCH   1  70
ATOM     70  C   UNL     1       2.737  -1.764  -0.499  1.00  0.00     0.274 C 
BRANCH  70  71
ATOM     71  O   UNL     1       2.514  -0.702  -1.443  1.00  0.00    -0.458 OA
BRANCH  71  72
ATOM     72  C   UNL     1       1.236  -0.206  -1.622  1.00  0.00     0.365 C 
ATOM     73  O   UNL     1       0.346  -0.292  -0.800  1.00  0.00    -0.245 OA
BRANCH  72  74
ATOM     74  C   UNL     1       1.027   0.241  -3.105  1.00  0.00     0.298 C 
ATOM     75  C   UNL     1       0.317   1.637  -3.476  1.00  0.00     0.111 C 
ATOM     76  N   UNL     1       2.285  -0.017  -3.848  1.00  0.00    -0.326 N 
ATOM     77  C   UNL     1       0.783   2.458  -4.816  1.00  0.00    -0.024 C 
ATOM     78  C   UNL     1       1.982   0.360  -5.216  1.00  0.00     0.243 C 
ATOM     79  H   UNL     1       2.541  -1.003  -3.793  1.00  0.00     0.347 HD
ATOM     80  H   UNL     1       3.075   0.505  -3.467  1.00  0.00     0.347 HD
ATOM     81  C   UNL     1       0.978   3.793  -4.758  1.00  0.00     0.002 A 
ATOM     82  C   UNL     1       2.098   1.891  -5.319  1.00  0.00     0.196 C 
ATOM     83  C   UNL     1       1.268   4.804  -5.792  1.00  0.00     0.010 A 
ATOM     84  C   UNL     1       2.269   3.642  -4.027  1.00  0.00     0.066 A 
ATOM     85  N   UNL     1       2.968   2.569  -4.292  1.00  0.00    -0.270 NA
ATOM     86  C   UNL     1       2.018   5.872  -5.424  1.00  0.00     0.001 A 
ATOM     87  C   UNL     1       2.593   4.886  -3.283  1.00  0.00     0.028 A 
ATOM     88  C   UNL     1       2.458   5.994  -4.035  1.00  0.00     0.002 A 
BRANCH  78  89
ATOM     89  C   UNL     1       2.402  -0.644  -6.257  1.00  0.00     0.012 A 
ATOM     90  C   UNL     1       1.948  -0.424  -7.559  1.00  0.00     0.010 A 
ATOM     91  C   UNL     1       2.831  -1.938  -5.898  1.00  0.00     0.010 A 
ATOM     92  C   UNL     1       1.784  -1.501  -8.420  1.00  0.00     0.001 A 
ATOM     93  C   UNL     1       2.784  -2.987  -6.814  1.00  0.00     0.001 A 
ATOM     94  C   UNL     1       2.232  -2.772  -8.070  1.00  0.00     0.000 A 
ENDBRANCH  78  89
ENDBRANCH  72  74
ENDBRANCH  71  72
ENDBRANCH  70  71
ENDBRANCH   1  70
TORSDOF 12
