REMARK SMILES C[C@@H](Sc1nnc(-c2ccc3c(c2)OCCCO3)n1C1CC1)C(=O)OCCOC(=O)c1ccc(-c2c3nc(c(-c4c(F)c(F)c(F)c(F)c4F)c4ccc([nH]4)c(-c4c(F)c(F)c(F)c(F)c4F)c4nc(c(-c5c(F)c(F)c(F)c(F)c5F)c5ccc2[nH]5)C=C4)C=C3)cc1
REMARK SMILES IDX 23 1 24 2 2 3 1 4 3 5 4 6 5 7 19 8 6 9 7 10 20 11 21 12
REMARK SMILES IDX 22 13 8 14 9 15 13 16 10 17 12 18 11 19 14 20 15 21 16 22
REMARK SMILES IDX 18 24 17 25 25 27 26 28 27 29 28 30 29 31 30 32 31 33 32 34
REMARK SMILES IDX 93 35 33 36 92 37 34 38 35 39 36 40 86 41 37 42 91 43 85 44
REMARK SMILES IDX 87 45 38 46 90 47 84 48 83 49 39 51 71 52 51 53 70 54 52 55
REMARK SMILES IDX 55 56 69 57 88 58 53 59 54 60 68 62 89 63 56 64 40 65 41 66
REMARK SMILES IDX 49 67 42 68 43 69 47 70 50 71 44 72 45 73 48 74 46 75 72 76
REMARK SMILES IDX 73 77 81 78 74 79 75 80 79 81 82 82 76 83 77 84 80 85 78 86
REMARK SMILES IDX 57 87 58 88 66 89 59 90 60 91 64 92 67 93 61 94 62 95 65 96
REMARK SMILES IDX 63 97
REMARK H PARENT 87 50 55 61
REMARK Flexibility Score: 80.00
ROOT
ATOM      1  C   UNL     1      -0.470   0.887   1.723  1.00  0.00     0.319 C 
ATOM      2  O   UNL     1      -0.815   1.178   2.862  1.00  0.00    -0.251 OA
ENDROOT
BRANCH   1   3
ATOM      3  C   UNL     1       0.999   0.676   1.274  1.00  0.00     0.161 C 
ATOM      4  C   UNL     1       1.204   0.936  -0.209  1.00  0.00     0.032 C 
BRANCH   3   5
ATOM      5  S   UNL     1       2.112   1.706   2.307  1.00  0.00    -0.071 SA
BRANCH   5   6
ATOM      6  C   UNL     1       3.786   1.454   1.884  1.00  0.00     0.192 A 
ATOM      7  N   UNL     1       4.579   2.491   1.667  1.00  0.00    -0.123 NA
ATOM      8  N   UNL     1       4.593   0.350   2.055  1.00  0.00    -0.299 N 
ATOM      9  N   UNL     1       5.899   2.075   1.703  1.00  0.00    -0.129 NA
ATOM     10  C   UNL     1       5.904   0.783   1.940  1.00  0.00     0.165 A 
BRANCH   8  11
ATOM     11  C   UNL     1       4.344  -1.042   2.324  1.00  0.00     0.091 C 
ATOM     12  C   UNL     1       3.132  -1.571   2.956  1.00  0.00     0.028 C 
ATOM     13  C   UNL     1       3.411  -1.909   1.525  1.00  0.00     0.028 C 
ENDBRANCH   8  11
BRANCH  10  14
ATOM     14  C   UNL     1       7.032  -0.151   2.039  1.00  0.00     0.023 A 
ATOM     15  C   UNL     1       7.679  -0.353   3.268  1.00  0.00     0.016 A 
ATOM     16  C   UNL     1       7.180  -1.111   1.024  1.00  0.00     0.062 A 
ATOM     17  C   UNL     1       8.424  -1.518   3.493  1.00  0.00     0.051 A 
ATOM     18  C   UNL     1       7.895  -2.282   1.264  1.00  0.00     0.161 A 
ATOM     19  C   UNL     1       8.534  -2.479   2.488  1.00  0.00     0.161 A 
BRANCH  18  20
ATOM     20  O   UNL     1       7.755  -3.285   0.343  1.00  0.00    -0.490 OA
BRANCH  20  21
ATOM     21  C   UNL     1       9.000  -3.616  -0.266  1.00  0.00     0.233 C 
BRANCH  21  22
ATOM     22  C   UNL     1       9.846  -4.534   0.604  1.00  0.00     0.083 CG0
ATOM     23  G   UNL     1      10.284  -3.858   1.896  1.00  0.00     0.000 G0
ENDBRANCH  21  22
ENDBRANCH  20  21
ENDBRANCH  18  20
BRANCH  19  24
ATOM     24  O   UNL     1       9.193  -3.638   2.794  1.00  0.00    -0.490 OA
BRANCH  24  25
ATOM     25  C   UNL     1      10.284  -3.858   1.896  1.00  0.00     0.233 CG0
ATOM     26  G   UNL     1       9.846  -4.534   0.604  1.00  0.00     0.000 G0
ENDBRANCH  24  25
ENDBRANCH  19  24
ENDBRANCH  10  14
ENDBRANCH   5   6
ENDBRANCH   3   5
ENDBRANCH   1   3
BRANCH   1  27
ATOM     27  O   UNL     1      -1.362   0.605   0.720  1.00  0.00    -0.461 OA
BRANCH  27  28
ATOM     28  C   UNL     1      -2.767   0.835   1.004  1.00  0.00     0.274 C 
BRANCH  28  29
ATOM     29  C   UNL     1      -3.642  -0.214   0.302  1.00  0.00     0.275 C 
BRANCH  29  30
ATOM     30  O   UNL     1      -3.635  -1.409   1.098  1.00  0.00    -0.458 OA
BRANCH  30  31
ATOM     31  C   UNL     1      -2.742  -2.339   0.694  1.00  0.00     0.338 C 
ATOM     32  O   UNL     1      -2.445  -2.619  -0.453  1.00  0.00    -0.246 OA
BRANCH  31  33
ATOM     33  C   UNL     1      -1.910  -2.661   1.872  1.00  0.00     0.060 A 
ATOM     34  C   UNL     1      -2.359  -2.551   3.196  1.00  0.00     0.016 A 
ATOM     35  C   UNL     1      -0.567  -2.880   1.610  1.00  0.00     0.016 A 
ATOM     36  C   UNL     1      -1.440  -2.535   4.254  1.00  0.00     0.010 A 
ATOM     37  C   UNL     1       0.323  -2.885   2.667  1.00  0.00     0.010 A 
ATOM     38  C   UNL     1      -0.074  -2.640   3.990  1.00  0.00    -0.014 A 
BRANCH  38  39
ATOM     39  C   UNL     1       0.928  -2.680   5.075  1.00  0.00     0.031 A 
ATOM     40  C   UNL     1       1.479  -4.038   5.338  1.00  0.00     0.074 A 
ATOM     41  C   UNL     1       1.530  -1.633   5.704  1.00  0.00     0.049 A 
ATOM     42  N   UNL     1       1.235  -4.759   6.382  1.00  0.00    -0.248 NA
ATOM     43  C   UNL     1       2.334  -4.712   4.345  1.00  0.00     0.031 C 
ATOM     44  C   UNL     1       1.426  -0.206   5.382  1.00  0.00     0.029 A 
ATOM     45  N   UNL     1       2.512  -1.642   6.675  1.00  0.00    -0.354 N 
ATOM     46  C   UNL     1       2.058  -5.870   6.269  1.00  0.00     0.074 A 
ATOM     47  C   UNL     1       2.573  -5.885   4.931  1.00  0.00     0.031 C 
ATOM     48  C   UNL     1       2.454   0.471   5.955  1.00  0.00     0.029 A 
ATOM     49  C   UNL     1       3.163  -0.418   6.862  1.00  0.00     0.049 A 
ATOM     50  H   UNL     1       2.736  -2.447   7.196  1.00  0.00     0.167 HD
ATOM     51  C   UNL     1       2.498  -6.522   7.373  1.00  0.00     0.037 A 
ATOM     52  C   UNL     1       4.172  -0.128   7.728  1.00  0.00     0.037 A 
ATOM     53  C   UNL     1       1.813  -6.087   8.557  1.00  0.00     0.049 A 
ATOM     54  C   UNL     1       4.080  -1.090   8.846  1.00  0.00     0.074 A 
ATOM     55  C   UNL     1       0.541  -6.201   9.071  1.00  0.00     0.029 A 
ATOM     56  N   UNL     1       2.431  -5.062   9.216  1.00  0.00    -0.354 N 
ATOM     57  N   UNL     1       3.119  -1.080   9.725  1.00  0.00    -0.248 NA
ATOM     58  C   UNL     1       4.994  -2.224   8.926  1.00  0.00     0.031 C 
ATOM     59  C   UNL     1       0.360  -5.085   9.941  1.00  0.00     0.029 A 
ATOM     60  C   UNL     1       1.529  -4.330   9.943  1.00  0.00     0.049 A 
ATOM     61  H   UNL     1       3.396  -4.875   9.175  1.00  0.00     0.167 HD
ATOM     62  C   UNL     1       3.036  -2.389  10.129  1.00  0.00     0.074 A 
ATOM     63  C   UNL     1       4.326  -2.977   9.803  1.00  0.00     0.031 C 
ATOM     64  C   UNL     1       1.815  -2.962  10.311  1.00  0.00     0.037 A 
BRANCH  51  65
ATOM     65  C   UNL     1       3.839  -7.194   7.465  1.00  0.00     0.064 A 
ATOM     66  C   UNL     1       4.057  -8.144   8.477  1.00  0.00     0.173 A 
ATOM     67  C   UNL     1       4.988  -6.720   6.796  1.00  0.00     0.173 A 
ATOM     68  F   UNL     1       3.030  -8.605   9.206  1.00  0.00    -0.203 F 
ATOM     69  C   UNL     1       5.343  -8.573   8.811  1.00  0.00     0.198 A 
ATOM     70  C   UNL     1       6.264  -7.193   7.093  1.00  0.00     0.198 A 
ATOM     71  F   UNL     1       4.925  -5.703   5.925  1.00  0.00    -0.203 F 
ATOM     72  F   UNL     1       5.519  -9.399   9.850  1.00  0.00    -0.200 F 
ATOM     73  C   UNL     1       6.444  -8.103   8.115  1.00  0.00     0.200 A 
ATOM     74  F   UNL     1       7.322  -6.700   6.434  1.00  0.00    -0.200 F 
ATOM     75  F   UNL     1       7.681  -8.482   8.462  1.00  0.00    -0.200 F 
ENDBRANCH  51  65
BRANCH  52  76
ATOM     76  C   UNL     1       5.230   0.917   7.774  1.00  0.00     0.064 A 
ATOM     77  C   UNL     1       5.864   1.257   8.990  1.00  0.00     0.173 A 
ATOM     78  C   UNL     1       5.866   1.357   6.603  1.00  0.00     0.173 A 
ATOM     79  F   UNL     1       5.347   0.861  10.162  1.00  0.00    -0.203 F 
ATOM     80  C   UNL     1       7.089   1.929   9.029  1.00  0.00     0.198 A 
ATOM     81  C   UNL     1       7.088   2.042   6.645  1.00  0.00     0.198 A 
ATOM     82  F   UNL     1       5.375   1.024   5.401  1.00  0.00    -0.203 F 
ATOM     83  F   UNL     1       7.700   2.139  10.204  1.00  0.00    -0.200 F 
ATOM     84  C   UNL     1       7.710   2.306   7.854  1.00  0.00     0.200 A 
ATOM     85  F   UNL     1       7.710   2.368   5.503  1.00  0.00    -0.200 F 
ATOM     86  F   UNL     1       8.925   2.870   7.884  1.00  0.00    -0.200 F 
ENDBRANCH  52  76
BRANCH  64  87
ATOM     87  C   UNL     1       0.677  -2.067  10.702  1.00  0.00     0.064 A 
ATOM     88  C   UNL     1       0.159  -1.028   9.911  1.00  0.00     0.173 A 
ATOM     89  C   UNL     1       0.039  -2.326  11.922  1.00  0.00     0.173 A 
ATOM     90  F   UNL     1       0.660  -0.762   8.698  1.00  0.00    -0.203 F 
ATOM     91  C   UNL     1      -0.924  -0.264  10.342  1.00  0.00     0.198 A 
ATOM     92  C   UNL     1      -1.069  -1.591  12.331  1.00  0.00     0.198 A 
ATOM     93  F   UNL     1       0.472  -3.325  12.708  1.00  0.00    -0.203 F 
ATOM     94  F   UNL     1      -1.387   0.738   9.580  1.00  0.00    -0.200 F 
ATOM     95  C   UNL     1      -1.543  -0.554  11.547  1.00  0.00     0.200 A 
ATOM     96  F   UNL     1      -1.688  -1.904  13.478  1.00  0.00    -0.200 F 
ATOM     97  F   UNL     1      -2.612   0.152  11.942  1.00  0.00    -0.200 F 
ENDBRANCH  64  87
ENDBRANCH  38  39
ENDBRANCH  31  33
ENDBRANCH  30  31
ENDBRANCH  29  30
ENDBRANCH  28  29
ENDBRANCH  27  28
ENDBRANCH   1  27
TORSDOF 15
