REMARK SMILES CC[C@@H](C)N1C(=O)/C(=C/Nc2cccc(C(=O)OCCOC(=O)c3ccc(-c4c5nc(c(-c6c(F)c(F)c(F)c(F)c6F)c6ccc([nH]6)c(-c6c(F)c(F)c(F)c(F)c6F)c6nc(c(-c7c(F)c(F)c(F)c(F)c7F)c7ccc4[nH]7)C=C6)C=C5)cc3)c2)C(=O)NC1=S
REMARK SMILES IDX 19 1 18 2 16 3 17 4 15 5 11 6 12 7 87 8 13 9 14 10 10 11
REMARK SMILES IDX 9 13 5 14 6 15 91 16 7 17 8 18 90 19 92 20 88 21 89 23 3 24
REMARK SMILES IDX 4 25 2 26 1 27 20 28 21 29 22 30 23 31 24 32 25 33 86 34
REMARK SMILES IDX 26 35 85 36 27 37 28 38 29 39 79 40 30 41 84 42 78 43 80 44
REMARK SMILES IDX 31 45 83 46 77 47 76 48 32 50 64 51 44 52 63 53 45 54 48 55
REMARK SMILES IDX 62 56 81 57 46 58 47 59 61 61 82 62 49 63 33 64 34 65 42 66
REMARK SMILES IDX 35 67 36 68 40 69 43 70 37 71 38 72 41 73 39 74 65 75 66 76
REMARK SMILES IDX 74 77 67 78 68 79 72 80 75 81 69 82 70 83 73 84 71 85 50 86
REMARK SMILES IDX 51 87 59 88 52 89 53 90 57 91 60 92 54 93 55 94 58 95 56 96
REMARK H PARENT 10 12 90 22 80 49 48 60
REMARK Flexibility Score: inf
ROOT
ATOM      1  C   UNL     1       6.986   5.866   2.304  1.00  0.00     0.275 C 
ENDROOT
BRANCH   1   2
ATOM      2  O   UNL     1       5.821   6.556   1.804  1.00  0.00    -0.458 OA
BRANCH   2   3
ATOM      3  C   UNL     1       5.281   7.504   2.611  1.00  0.00     0.338 C 
ATOM      4  O   UNL     1       5.681   7.831   3.718  1.00  0.00    -0.246 OA
BRANCH   3   5
ATOM      5  C   UNL     1       4.186   8.217   1.906  1.00  0.00     0.062 A 
ATOM      6  C   UNL     1       2.410   8.283   0.245  1.00  0.00     0.039 A 
ATOM      7  C   UNL     1       2.254   9.652   0.489  1.00  0.00     0.026 A 
ATOM      8  C   UNL     1       3.399   7.578   0.948  1.00  0.00     0.041 A 
ATOM      9  C   UNL     1       3.013  10.292   1.467  1.00  0.00     0.003 A 
ATOM     10  C   UNL     1       3.946   9.564   2.203  1.00  0.00     0.016 A 
BRANCH   6  11
ATOM     11  N   UNL     1       1.504   7.634  -0.604  1.00  0.00    -0.361 N 
ATOM     12  H   UNL     1       1.123   8.162  -1.342  1.00  0.00     0.166 HD
BRANCH  11  13
ATOM     13  C   UNL     1       1.101   6.327  -0.497  1.00  0.00     0.102 C 
ATOM     14  N   UNL     1       0.215   3.249  -2.092  1.00  0.00    -0.282 N 
ATOM     15  C   UNL     1       0.192   4.162  -1.027  1.00  0.00     0.267 C 
ATOM     16  C   UNL     1      -0.174   3.696  -3.364  1.00  0.00     0.183 C 
ATOM     17  O   UNL     1      -0.034   3.891   0.149  1.00  0.00    -0.268 OA
ATOM     18  C   UNL     1       0.436   5.570  -1.381  1.00  0.00     0.121 C 
ATOM     19  N   UNL     1      -0.297   5.059  -3.543  1.00  0.00    -0.298 N 
ATOM     20  S   UNL     1      -0.556   2.842  -4.753  1.00  0.00    -0.040 S 
ATOM     21  C   UNL     1       0.041   6.065  -2.689  1.00  0.00     0.264 C 
ATOM     22  H   UNL     1      -0.680   5.342  -4.404  1.00  0.00     0.172 HD
ATOM     23  O   UNL     1       0.036   7.247  -3.012  1.00  0.00    -0.269 OA
BRANCH  14  24
ATOM     24  C   UNL     1       0.814   1.878  -1.752  1.00  0.00     0.090 C 
ATOM     25  C   UNL     1       0.681   0.762  -2.794  1.00  0.00     0.031 C 
BRANCH  24  26
ATOM     26  C   UNL     1       0.439   1.318  -0.343  1.00  0.00     0.022 C 
ATOM     27  C   UNL     1       0.969  -0.070   0.005  1.00  0.00     0.006 C 
ENDBRANCH  24  26
ENDBRANCH  14  24
ENDBRANCH  11  13
ENDBRANCH   6  11
ENDBRANCH   3   5
ENDBRANCH   2   3
ENDBRANCH   1   2
BRANCH   1  28
ATOM     28  C   UNL     1       8.254   6.356   1.603  1.00  0.00     0.275 C 
BRANCH  28  29
ATOM     29  O   UNL     1       8.508   7.726   1.965  1.00  0.00    -0.458 OA
BRANCH  29  30
ATOM     30  C   UNL     1       8.502   8.617   0.949  1.00  0.00     0.338 C 
ATOM     31  O   UNL     1       8.394   8.398  -0.244  1.00  0.00    -0.246 OA
BRANCH  30  32
ATOM     32  C   UNL     1       8.554   9.975   1.509  1.00  0.00     0.060 A 
ATOM     33  C   UNL     1       7.392  10.486   2.076  1.00  0.00     0.016 A 
ATOM     34  C   UNL     1       9.675  10.786   1.361  1.00  0.00     0.016 A 
ATOM     35  C   UNL     1       7.310  11.824   2.444  1.00  0.00     0.010 A 
ATOM     36  C   UNL     1       9.620  12.115   1.803  1.00  0.00     0.010 A 
ATOM     37  C   UNL     1       8.427  12.659   2.319  1.00  0.00    -0.014 A 
BRANCH  37  38
ATOM     38  C   UNL     1       8.316  14.103   2.669  1.00  0.00     0.031 A 
ATOM     39  C   UNL     1       8.551  15.154   1.617  1.00  0.00     0.074 A 
ATOM     40  C   UNL     1       7.973  14.483   3.916  1.00  0.00     0.049 A 
ATOM     41  N   UNL     1       8.645  16.454   1.747  1.00  0.00    -0.248 NA
ATOM     42  C   UNL     1       8.715  14.677   0.236  1.00  0.00     0.031 C 
ATOM     43  C   UNL     1       7.668  13.576   5.023  1.00  0.00     0.029 A 
ATOM     44  N   UNL     1       7.819  15.735   4.461  1.00  0.00    -0.354 N 
ATOM     45  C   UNL     1       8.942  16.942   0.480  1.00  0.00     0.074 A 
ATOM     46  C   UNL     1       9.013  15.798  -0.405  1.00  0.00     0.031 C 
ATOM     47  C   UNL     1       7.337  14.298   6.104  1.00  0.00     0.029 A 
ATOM     48  C   UNL     1       7.486  15.716   5.794  1.00  0.00     0.049 A 
ATOM     49  H   UNL     1       7.935  16.566   3.946  1.00  0.00     0.167 HD
ATOM     50  C   UNL     1       9.139  18.225   0.092  1.00  0.00     0.037 A 
ATOM     51  C   UNL     1       7.357  16.721   6.682  1.00  0.00     0.037 A 
ATOM     52  C   UNL     1       9.005  19.367   0.961  1.00  0.00     0.049 A 
ATOM     53  C   UNL     1       7.594  18.136   6.233  1.00  0.00     0.074 A 
ATOM     54  C   UNL     1       9.144  20.709   0.651  1.00  0.00     0.029 A 
ATOM     55  N   UNL     1       8.691  19.300   2.311  1.00  0.00    -0.354 N 
ATOM     56  N   UNL     1       7.911  18.583   5.043  1.00  0.00    -0.248 NA
ATOM     57  C   UNL     1       7.471  19.184   7.256  1.00  0.00     0.031 C 
ATOM     58  C   UNL     1       8.958  21.452   1.822  1.00  0.00     0.029 A 
ATOM     59  C   UNL     1       8.653  20.577   2.852  1.00  0.00     0.049 A 
ATOM     60  H   UNL     1       8.520  18.470   2.811  1.00  0.00     0.167 HD
ATOM     61  C   UNL     1       8.018  19.961   5.169  1.00  0.00     0.074 A 
ATOM     62  C   UNL     1       7.707  20.279   6.548  1.00  0.00     0.031 C 
ATOM     63  C   UNL     1       8.350  20.879   4.228  1.00  0.00     0.037 A 
BRANCH  50  64
ATOM     64  C   UNL     1       9.568  18.462  -1.327  1.00  0.00     0.064 A 
ATOM     65  C   UNL     1       8.700  18.282  -2.413  1.00  0.00     0.173 A 
ATOM     66  C   UNL     1      10.875  18.899  -1.600  1.00  0.00     0.173 A 
ATOM     67  F   UNL     1       7.445  17.854  -2.210  1.00  0.00    -0.203 F 
ATOM     68  C   UNL     1       9.133  18.495  -3.721  1.00  0.00     0.198 A 
ATOM     69  C   UNL     1      11.295  19.142  -2.905  1.00  0.00     0.198 A 
ATOM     70  F   UNL     1      11.745  19.096  -0.598  1.00  0.00    -0.203 F 
ATOM     71  F   UNL     1       8.302  18.262  -4.746  1.00  0.00    -0.200 F 
ATOM     72  C   UNL     1      10.427  18.930  -3.965  1.00  0.00     0.200 A 
ATOM     73  F   UNL     1      12.542  19.576  -3.136  1.00  0.00    -0.200 F 
ATOM     74  F   UNL     1      10.841  19.137  -5.222  1.00  0.00    -0.200 F 
ENDBRANCH  50  64
BRANCH  51  75
ATOM     75  C   UNL     1       7.027  16.410   8.098  1.00  0.00     0.064 A 
ATOM     76  C   UNL     1       5.786  16.759   8.646  1.00  0.00     0.173 A 
ATOM     77  C   UNL     1       7.941  15.739   8.924  1.00  0.00     0.173 A 
ATOM     78  F   UNL     1       4.890  17.427   7.905  1.00  0.00    -0.203 F 
ATOM     79  C   UNL     1       5.472  16.449   9.968  1.00  0.00     0.198 A 
ATOM     80  C   UNL     1       7.614  15.402  10.235  1.00  0.00     0.198 A 
ATOM     81  F   UNL     1       9.144  15.386   8.448  1.00  0.00    -0.203 F 
ATOM     82  F   UNL     1       4.292  16.824  10.479  1.00  0.00    -0.200 F 
ATOM     83  C   UNL     1       6.382  15.762  10.758  1.00  0.00     0.200 A 
ATOM     84  F   UNL     1       8.491  14.725  10.989  1.00  0.00    -0.200 F 
ATOM     85  F   UNL     1       6.073  15.451  12.024  1.00  0.00    -0.200 F 
ENDBRANCH  51  75
BRANCH  63  86
ATOM     86  C   UNL     1       8.374  22.318   4.655  1.00  0.00     0.064 A 
ATOM     87  C   UNL     1       9.388  22.821   5.484  1.00  0.00     0.173 A 
ATOM     88  C   UNL     1       7.387  23.210   4.209  1.00  0.00     0.173 A 
ATOM     89  F   UNL     1      10.346  22.005   5.950  1.00  0.00    -0.203 F 
ATOM     90  C   UNL     1       9.397  24.158   5.872  1.00  0.00     0.198 A 
ATOM     91  C   UNL     1       7.416  24.552   4.576  1.00  0.00     0.198 A 
ATOM     92  F   UNL     1       6.399  22.780   3.410  1.00  0.00    -0.203 F 
ATOM     93  F   UNL     1      10.348  24.606   6.704  1.00  0.00    -0.200 F 
ATOM     94  C   UNL     1       8.415  25.024   5.413  1.00  0.00     0.200 A 
ATOM     95  F   UNL     1       6.473  25.389   4.122  1.00  0.00    -0.200 F 
ATOM     96  F   UNL     1       8.427  26.311   5.785  1.00  0.00    -0.200 F 
ENDBRANCH  63  86
ENDBRANCH  37  38
ENDBRANCH  30  32
ENDBRANCH  29  30
ENDBRANCH  28  29
ENDBRANCH   1  28
TORSDOF 15
