REMARK SMILES COc1ccc(CCN2C(=O)CC[C@@H](C(=O)OCCOC(=O)c3ccc(-c4c5nc(c(-c6c(F)c(F)c(F)c(F)c6F)c6ccc([nH]6)c(-c6c(F)c(F)c(F)c(F)c6F)c6nc(c(-c7c(F)c(F)c(F)c(F)c7F)c7ccc4[nH]7)C=C6)C=C5)cc3)[C@@H]2c2ccc(Cl)cc2)cc1OC
REMARK SMILES IDX 18 1 17 2 15 3 16 4 14 5 9 6 10 7 86 8 11 9 12 10 13 11 8 12
REMARK SMILES IDX 7 13 6 14 3 15 4 16 95 17 5 18 94 19 2 20 1 21 96 22 97 23
REMARK SMILES IDX 87 24 88 25 93 26 89 27 92 28 90 29 91 30 19 31 20 32 21 33
REMARK SMILES IDX 22 34 23 35 24 36 85 37 25 38 84 39 26 40 27 41 28 42 78 43
REMARK SMILES IDX 29 44 83 45 77 46 79 47 30 48 82 49 76 50 75 51 31 53 63 54
REMARK SMILES IDX 43 55 62 56 44 57 47 58 61 59 80 60 45 61 46 62 60 64 81 65
REMARK SMILES IDX 48 66 32 67 33 68 41 69 34 70 35 71 39 72 42 73 36 74 37 75
REMARK SMILES IDX 40 76 38 77 64 78 65 79 73 80 66 81 67 82 71 83 74 84 68 85
REMARK SMILES IDX 69 86 72 87 70 88 49 89 50 90 58 91 51 92 52 93 56 94 59 95
REMARK SMILES IDX 53 96 54 97 57 98 55 99
REMARK H PARENT 79 52 47 63
REMARK Flexibility Score: inf
ROOT
ATOM      1  C   UNL     1      -3.251  -2.989   3.803  1.00  0.00     0.274 C 
ENDROOT
BRANCH   1   2
ATOM      2  O   UNL     1      -2.805  -3.070   5.176  1.00  0.00    -0.462 OA
BRANCH   2   3
ATOM      3  C   UNL     1      -2.202  -4.231   5.534  1.00  0.00     0.311 C 
ATOM      4  O   UNL     1      -1.996  -5.166   4.767  1.00  0.00    -0.252 OA
BRANCH   3   5
ATOM      5  C   UNL     1      -1.876  -4.316   7.015  1.00  0.00     0.127 C 
ATOM      6  N   UNL     1       0.508  -3.693   6.863  1.00  0.00    -0.334 N 
ATOM      7  C   UNL     1       0.363  -2.511   7.589  1.00  0.00     0.223 C 
ATOM      8  C   UNL     1      -0.417  -4.787   7.206  1.00  0.00     0.129 C 
ATOM      9  O   UNL     1       1.320  -1.827   7.947  1.00  0.00    -0.275 OA
ATOM     10  C   UNL     1      -1.054  -2.039   7.873  1.00  0.00     0.101 C 
ATOM     11  C   UNL     1      -2.163  -3.076   7.860  1.00  0.00     0.028 C 
BRANCH   6  12
ATOM     12  C   UNL     1       1.817  -4.027   6.243  1.00  0.00     0.125 C 
BRANCH  12  13
ATOM     13  C   UNL     1       1.802  -4.623   4.807  1.00  0.00     0.057 C 
BRANCH  13  14
ATOM     14  C   UNL     1       1.724  -3.663   3.634  1.00  0.00    -0.042 A 
ATOM     15  C   UNL     1       1.554  -1.763   1.503  1.00  0.00     0.160 A 
ATOM     16  C   UNL     1       0.418  -2.408   2.000  1.00  0.00     0.051 A 
ATOM     17  C   UNL     1       2.802  -2.145   2.013  1.00  0.00     0.160 A 
ATOM     18  C   UNL     1       0.506  -3.341   3.047  1.00  0.00     0.008 A 
ATOM     19  C   UNL     1       2.869  -3.104   3.053  1.00  0.00     0.054 A 
BRANCH  15  20
ATOM     20  O   UNL     1       1.499  -0.760   0.576  1.00  0.00    -0.493 OA
ATOM     21  C   UNL     1       0.274  -0.520  -0.102  1.00  0.00     0.278 C 
ENDBRANCH  15  20
BRANCH  17  22
ATOM     22  O   UNL     1       4.042  -1.681   1.648  1.00  0.00    -0.493 OA
ATOM     23  C   UNL     1       4.147  -0.813   0.526  1.00  0.00     0.278 C 
ENDBRANCH  17  22
ENDBRANCH  13  14
ENDBRANCH  12  13
ENDBRANCH   6  12
BRANCH   8  24
ATOM     24  C   UNL     1      -0.188  -5.345   8.635  1.00  0.00    -0.024 A 
ATOM     25  C   UNL     1       0.807  -4.862   9.510  1.00  0.00     0.007 A 
ATOM     26  C   UNL     1      -1.018  -6.374   9.117  1.00  0.00     0.007 A 
ATOM     27  C   UNL     1       0.918  -5.326  10.825  1.00  0.00     0.021 A 
ATOM     28  C   UNL     1      -0.909  -6.841  10.432  1.00  0.00     0.021 A 
ATOM     29  C   UNL     1       0.051  -6.307  11.285  1.00  0.00     0.041 A 
ATOM     30  Cl  UNL     1       0.168  -6.863  12.907  1.00  0.00    -0.084 Cl
ENDBRANCH   8  24
ENDBRANCH   3   5
ENDBRANCH   2   3
ENDBRANCH   1   2
BRANCH   1  31
ATOM     31  C   UNL     1      -3.320  -1.521   3.383  1.00  0.00     0.275 C 
BRANCH  31  32
ATOM     32  O   UNL     1      -1.988  -0.987   3.473  1.00  0.00    -0.458 OA
BRANCH  32  33
ATOM     33  C   UNL     1      -1.850   0.276   3.942  1.00  0.00     0.338 C 
ATOM     34  O   UNL     1      -2.734   1.090   4.127  1.00  0.00    -0.246 OA
BRANCH  33  35
ATOM     35  C   UNL     1      -0.420   0.501   4.268  1.00  0.00     0.060 A 
ATOM     36  C   UNL     1       0.283  -0.503   4.921  1.00  0.00     0.016 A 
ATOM     37  C   UNL     1       0.208   1.723   4.030  1.00  0.00     0.016 A 
ATOM     38  C   UNL     1       1.575  -0.271   5.385  1.00  0.00     0.010 A 
ATOM     39  C   UNL     1       1.537   1.928   4.456  1.00  0.00     0.010 A 
ATOM     40  C   UNL     1       2.231   0.940   5.177  1.00  0.00    -0.014 A 
BRANCH  40  41
ATOM     41  C   UNL     1       3.549   1.190   5.848  1.00  0.00     0.031 A 
ATOM     42  C   UNL     1       3.666   2.313   6.834  1.00  0.00     0.074 A 
ATOM     43  C   UNL     1       4.616   0.370   5.731  1.00  0.00     0.049 A 
ATOM     44  N   UNL     1       4.739   2.865   7.338  1.00  0.00    -0.248 NA
ATOM     45  C   UNL     1       2.404   2.878   7.330  1.00  0.00     0.031 C 
ATOM     46  C   UNL     1       4.624  -0.881   4.994  1.00  0.00     0.029 A 
ATOM     47  N   UNL     1       5.892   0.440   6.245  1.00  0.00    -0.354 N 
ATOM     48  C   UNL     1       4.284   3.887   8.154  1.00  0.00     0.074 A 
ATOM     49  C   UNL     1       2.837   3.867   8.097  1.00  0.00     0.031 C 
ATOM     50  C   UNL     1       5.813  -1.485   5.117  1.00  0.00     0.029 A 
ATOM     51  C   UNL     1       6.704  -0.600   5.853  1.00  0.00     0.049 A 
ATOM     52  H   UNL     1       6.194   1.166   6.838  1.00  0.00     0.167 HD
ATOM     53  C   UNL     1       5.014   4.769   8.874  1.00  0.00     0.037 A 
ATOM     54  C   UNL     1       8.029  -0.796   6.000  1.00  0.00     0.037 A 
ATOM     55  C   UNL     1       6.447   4.741   8.989  1.00  0.00     0.049 A 
ATOM     56  C   UNL     1       8.844   0.261   6.688  1.00  0.00     0.074 A 
ATOM     57  C   UNL     1       7.281   5.636   9.635  1.00  0.00     0.029 A 
ATOM     58  N   UNL     1       7.257   3.740   8.474  1.00  0.00    -0.354 N 
ATOM     59  N   UNL     1       8.438   1.349   7.293  1.00  0.00    -0.248 NA
ATOM     60  C   UNL     1      10.304   0.087   6.680  1.00  0.00     0.031 C 
ATOM     61  C   UNL     1       8.600   5.190   9.489  1.00  0.00     0.029 A 
ATOM     62  C   UNL     1       8.584   4.000   8.781  1.00  0.00     0.049 A 
ATOM     63  H   UNL     1       6.938   2.959   7.966  1.00  0.00     0.167 HD
ATOM     64  C   UNL     1       9.584   1.985   7.744  1.00  0.00     0.074 A 
ATOM     65  C   UNL     1      10.705   1.151   7.362  1.00  0.00     0.031 C 
ATOM     66  C   UNL     1       9.692   3.161   8.405  1.00  0.00     0.037 A 
BRANCH  53  67
ATOM     67  C   UNL     1       4.266   5.891   9.520  1.00  0.00     0.064 A 
ATOM     68  C   UNL     1       3.513   5.715  10.687  1.00  0.00     0.173 A 
ATOM     69  C   UNL     1       4.302   7.168   8.940  1.00  0.00     0.173 A 
ATOM     70  F   UNL     1       3.427   4.505  11.259  1.00  0.00    -0.203 F 
ATOM     71  C   UNL     1       2.802   6.776  11.240  1.00  0.00     0.198 A 
ATOM     72  C   UNL     1       3.610   8.232   9.509  1.00  0.00     0.198 A 
ATOM     73  F   UNL     1       5.006   7.382   7.818  1.00  0.00    -0.203 F 
ATOM     74  F   UNL     1       2.047   6.579  12.330  1.00  0.00    -0.200 F 
ATOM     75  C   UNL     1       2.855   8.033  10.654  1.00  0.00     0.200 A 
ATOM     76  F   UNL     1       3.666   9.445   8.943  1.00  0.00    -0.200 F 
ATOM     77  F   UNL     1       2.168   9.053  11.188  1.00  0.00    -0.200 F 
ENDBRANCH  53  67
BRANCH  54  78
ATOM     78  C   UNL     1       8.689  -1.990   5.403  1.00  0.00     0.064 A 
ATOM     79  C   UNL     1       9.296  -2.964   6.209  1.00  0.00     0.173 A 
ATOM     80  C   UNL     1       8.759  -2.164   4.011  1.00  0.00     0.173 A 
ATOM     81  F   UNL     1       9.292  -2.827   7.543  1.00  0.00    -0.203 F 
ATOM     82  C   UNL     1       9.952  -4.059   5.647  1.00  0.00     0.198 A 
ATOM     83  C   UNL     1       9.387  -3.275   3.452  1.00  0.00     0.198 A 
ATOM     84  F   UNL     1       8.214  -1.254   3.192  1.00  0.00    -0.203 F 
ATOM     85  F   UNL     1      10.565  -4.949   6.438  1.00  0.00    -0.200 F 
ATOM     86  C   UNL     1       9.990  -4.218   4.269  1.00  0.00     0.200 A 
ATOM     87  F   UNL     1       9.415  -3.427   2.121  1.00  0.00    -0.200 F 
ATOM     88  F   UNL     1      10.619  -5.271   3.730  1.00  0.00    -0.200 F 
ENDBRANCH  54  78
BRANCH  66  89
ATOM     89  C   UNL     1      11.070   3.605   8.785  1.00  0.00     0.064 A 
ATOM     90  C   UNL     1      11.957   4.130   7.834  1.00  0.00     0.173 A 
ATOM     91  C   UNL     1      11.496   3.537  10.120  1.00  0.00     0.173 A 
ATOM     92  F   UNL     1      11.600   4.196   6.543  1.00  0.00    -0.203 F 
ATOM     93  C   UNL     1      13.228   4.558   8.204  1.00  0.00     0.198 A 
ATOM     94  C   UNL     1      12.760   3.986  10.490  1.00  0.00     0.198 A 
ATOM     95  F   UNL     1      10.683   3.041  11.065  1.00  0.00    -0.203 F 
ATOM     96  F   UNL     1      14.074   5.023   7.274  1.00  0.00    -0.200 F 
ATOM     97  C   UNL     1      13.626   4.492   9.532  1.00  0.00     0.200 A 
ATOM     98  F   UNL     1      13.141   3.929  11.773  1.00  0.00    -0.200 F 
ATOM     99  F   UNL     1      14.849   4.910   9.887  1.00  0.00    -0.200 F 
ENDBRANCH  66  89
ENDBRANCH  40  41
ENDBRANCH  33  35
ENDBRANCH  32  33
ENDBRANCH  31  32
ENDBRANCH   1  31
TORSDOF 17
