REMARK SMILES [NH3+][C@@H]1CCCCC[C@H]1C(=O)Nc1cncc(C(=O)OCCOC(=O)c2ccc(-c3c4nc(c(-c5c(F)c(F)c(F)c(F)c5F)c5ccc([nH]5)c(-c5c(F)c(F)c(F)c(F)c5F)c5nc(c(-c6c(F)c(F)c(F)c(F)c6F)c6ccc3[nH]6)C=C5)C=C4)cc2)c1
REMARK SMILES IDX 19 1 17 2 18 3 16 4 12 5 13 6 88 7 14 8 15 9 11 10 9 11
REMARK SMILES IDX 10 12 8 14 2 15 1 16 3 20 4 21 7 23 6 24 5 25 20 27 21 28
REMARK SMILES IDX 22 29 23 30 24 31 25 32 26 33 87 34 27 35 86 36 28 37 29 38
REMARK SMILES IDX 30 39 80 40 31 41 85 42 79 43 81 44 32 45 84 46 78 47 77 48
REMARK SMILES IDX 33 50 65 51 45 52 64 53 46 54 49 55 63 56 82 57 47 58 48 59
REMARK SMILES IDX 62 61 83 62 50 63 34 64 35 65 43 66 36 67 37 68 41 69 44 70
REMARK SMILES IDX 38 71 39 72 42 73 40 74 66 75 67 76 75 77 68 78 69 79 73 80
REMARK SMILES IDX 76 81 70 82 71 83 74 84 72 85 51 86 52 87 60 88 53 89 54 90
REMARK SMILES IDX 58 91 61 92 55 93 56 94 59 95 57 96
REMARK H PARENT 11 13 1 17 1 18 1 19 81 49 49 60
REMARK Flexibility Score: 90.00
ROOT
ATOM      1  O   UNL     1      -2.166  -2.321   0.089  1.00  0.00    -0.458 OA
ENDROOT
BRANCH   1   2
ATOM      2  C   UNL     1      -2.457  -2.463  -1.228  1.00  0.00     0.339 C 
ATOM      3  O   UNL     1      -2.488  -3.514  -1.845  1.00  0.00    -0.246 OA
BRANCH   2   4
ATOM      4  C   UNL     1      -2.652  -1.165  -1.906  1.00  0.00     0.080 A 
ATOM      5  C   UNL     1      -1.707   0.953  -2.438  1.00  0.00     0.060 A 
ATOM      6  C   UNL     1      -2.503   0.994  -3.577  1.00  0.00     0.137 A 
ATOM      7  C   UNL     1      -1.937  -0.046  -1.510  1.00  0.00     0.045 A 
ATOM      8  N   UNL     1      -3.330  -0.015  -3.929  1.00  0.00    -0.262 NA
ATOM      9  C   UNL     1      -3.315  -1.107  -3.126  1.00  0.00     0.126 A 
BRANCH   5  10
ATOM     10  N   UNL     1      -0.615   1.810  -2.311  1.00  0.00    -0.324 N 
ATOM     11  C   UNL     1       0.714   1.494  -2.155  1.00  0.00     0.233 C 
ATOM     12  O   UNL     1       1.494   2.456  -2.107  1.00  0.00    -0.274 OA
ATOM     13  H   UNL     1      -0.823   2.772  -2.336  1.00  0.00     0.169 HD
BRANCH  11  14
ATOM     14  C   UNL     1       1.301   0.050  -2.220  1.00  0.00     0.137 C 
BRANCH  14  15
ATOM     15  C   UNL     1       1.131  -0.825  -0.959  1.00  0.00     0.193 C 
BRANCH  15  16
ATOM     16  N   UNL     1       1.606  -0.116   0.232  1.00  0.00    -0.354 N 
ATOM     17  H   UNL     1       1.485  -0.711   1.052  1.00  0.00     0.344 HD
ATOM     18  H   UNL     1       1.070   0.743   0.352  1.00  0.00     0.344 HD
ATOM     19  H   UNL     1       2.594   0.112   0.120  1.00  0.00     0.344 HD
ENDBRANCH  15  16
BRANCH  15  20
ATOM     20  C   UNL     1       1.767  -2.229  -1.012  1.00  0.00     0.066 C 
BRANCH  20  21
ATOM     21  C   UNL     1       1.037  -3.168  -1.972  1.00  0.00     0.006 CG0
ATOM     22  G   UNL     1       1.518  -3.132  -3.413  1.00  0.00     0.000 G0
ENDBRANCH  20  21
ENDBRANCH  15  20
ENDBRANCH  14  15
BRANCH  14  23
ATOM     23  C   UNL     1       0.935  -0.630  -3.559  1.00  0.00     0.020 C 
BRANCH  23  24
ATOM     24  C   UNL     1       1.892  -1.757  -3.956  1.00  0.00     0.001 C 
BRANCH  24  25
ATOM     25  C   UNL     1       1.518  -3.132  -3.413  1.00  0.00     0.000 CG0
ATOM     26  G   UNL     1       1.037  -3.168  -1.972  1.00  0.00     0.000 G0
ENDBRANCH  24  25
ENDBRANCH  23  24
ENDBRANCH  14  23
ENDBRANCH  11  14
ENDBRANCH   5  10
ENDBRANCH   2   4
ENDBRANCH   1   2
BRANCH   1  27
ATOM     27  C   UNL     1      -1.855  -3.546   0.787  1.00  0.00     0.275 C 
BRANCH  27  28
ATOM     28  C   UNL     1      -3.054  -4.058   1.584  1.00  0.00     0.275 C 
BRANCH  28  29
ATOM     29  O   UNL     1      -4.147  -4.390   0.707  1.00  0.00    -0.458 OA
BRANCH  29  30
ATOM     30  C   UNL     1      -5.098  -3.438   0.600  1.00  0.00     0.338 C 
ATOM     31  O   UNL     1      -5.162  -2.374   1.200  1.00  0.00    -0.246 OA
BRANCH  30  32
ATOM     32  C   UNL     1      -6.048  -3.789  -0.462  1.00  0.00     0.060 A 
ATOM     33  C   UNL     1      -5.673  -3.551  -1.779  1.00  0.00     0.016 A 
ATOM     34  C   UNL     1      -7.354  -4.162  -0.169  1.00  0.00     0.016 A 
ATOM     35  C   UNL     1      -6.599  -3.580  -2.805  1.00  0.00     0.010 A 
ATOM     36  C   UNL     1      -8.271  -4.298  -1.218  1.00  0.00     0.010 A 
ATOM     37  C   UNL     1      -7.909  -3.974  -2.541  1.00  0.00    -0.014 A 
BRANCH  37  38
ATOM     38  C   UNL     1      -8.902  -3.970  -3.641  1.00  0.00     0.031 A 
ATOM     39  C   UNL     1     -10.109  -3.084  -3.540  1.00  0.00     0.074 A 
ATOM     40  C   UNL     1      -8.699  -4.714  -4.745  1.00  0.00     0.049 A 
ATOM     41  N   UNL     1     -11.193  -3.070  -4.271  1.00  0.00    -0.248 NA
ATOM     42  C   UNL     1     -10.100  -2.088  -2.457  1.00  0.00     0.031 C 
ATOM     43  C   UNL     1      -7.515  -5.535  -5.012  1.00  0.00     0.029 A 
ATOM     44  N   UNL     1      -9.480  -4.891  -5.859  1.00  0.00    -0.354 N 
ATOM     45  C   UNL     1     -12.019  -2.112  -3.699  1.00  0.00     0.074 A 
ATOM     46  C   UNL     1     -11.316  -1.572  -2.556  1.00  0.00     0.031 C 
ATOM     47  C   UNL     1      -7.631  -6.095  -6.225  1.00  0.00     0.029 A 
ATOM     48  C   UNL     1      -8.939  -5.762  -6.773  1.00  0.00     0.049 A 
ATOM     49  H   UNL     1     -10.344  -4.438  -5.990  1.00  0.00     0.167 HD
ATOM     50  C   UNL     1     -13.255  -1.728  -4.097  1.00  0.00     0.037 A 
ATOM     51  C   UNL     1      -9.463  -6.277  -7.900  1.00  0.00     0.037 A 
ATOM     52  C   UNL     1     -13.916  -2.248  -5.266  1.00  0.00     0.049 A 
ATOM     53  C   UNL     1     -10.868  -5.901  -8.275  1.00  0.00     0.074 A 
ATOM     54  C   UNL     1     -15.171  -1.942  -5.761  1.00  0.00     0.029 A 
ATOM     55  N   UNL     1     -13.361  -3.181  -6.134  1.00  0.00    -0.354 N 
ATOM     56  N   UNL     1     -11.685  -5.061  -7.687  1.00  0.00    -0.248 NA
ATOM     57  C   UNL     1     -11.433  -6.563  -9.457  1.00  0.00     0.031 C 
ATOM     58  C   UNL     1     -15.392  -2.722  -6.902  1.00  0.00     0.029 A 
ATOM     59  C   UNL     1     -14.255  -3.474  -7.151  1.00  0.00     0.049 A 
ATOM     60  H   UNL     1     -12.464  -3.575  -6.039  1.00  0.00     0.167 HD
ATOM     61  C   UNL     1     -12.852  -5.076  -8.436  1.00  0.00     0.074 A 
ATOM     62  C   UNL     1     -12.630  -5.999  -9.532  1.00  0.00     0.031 C 
ATOM     63  C   UNL     1     -14.005  -4.391  -8.235  1.00  0.00     0.037 A 
BRANCH  50  64
ATOM     64  C   UNL     1     -13.984  -0.742  -3.228  1.00  0.00     0.064 A 
ATOM     65  C   UNL     1     -13.578   0.595  -3.109  1.00  0.00     0.173 A 
ATOM     66  C   UNL     1     -15.105  -1.152  -2.488  1.00  0.00     0.173 A 
ATOM     67  F   UNL     1     -12.503   1.037  -3.779  1.00  0.00    -0.203 F 
ATOM     68  C   UNL     1     -14.239   1.472  -2.251  1.00  0.00     0.198 A 
ATOM     69  C   UNL     1     -15.785  -0.264  -1.659  1.00  0.00     0.198 A 
ATOM     70  F   UNL     1     -15.540  -2.419  -2.565  1.00  0.00    -0.203 F 
ATOM     71  F   UNL     1     -13.790   2.727  -2.102  1.00  0.00    -0.200 F 
ATOM     72  C   UNL     1     -15.344   1.044  -1.531  1.00  0.00     0.200 A 
ATOM     73  F   UNL     1     -16.860  -0.678  -0.974  1.00  0.00    -0.200 F 
ATOM     74  F   UNL     1     -15.976   1.888  -0.704  1.00  0.00    -0.200 F 
ENDBRANCH  50  64
BRANCH  51  75
ATOM     75  C   UNL     1      -8.670  -7.229  -8.720  1.00  0.00     0.064 A 
ATOM     76  C   UNL     1      -8.233  -6.878 -10.004  1.00  0.00     0.173 A 
ATOM     77  C   UNL     1      -8.318  -8.499  -8.237  1.00  0.00     0.173 A 
ATOM     78  F   UNL     1      -8.565  -5.685 -10.521  1.00  0.00    -0.203 F 
ATOM     79  C   UNL     1      -7.478  -7.760 -10.774  1.00  0.00     0.198 A 
ATOM     80  C   UNL     1      -7.536  -9.368  -8.995  1.00  0.00     0.198 A 
ATOM     81  F   UNL     1      -8.713  -8.888  -7.016  1.00  0.00    -0.203 F 
ATOM     82  F   UNL     1      -7.103  -7.412 -12.013  1.00  0.00    -0.200 F 
ATOM     83  C   UNL     1      -7.122  -9.000 -10.266  1.00  0.00     0.200 A 
ATOM     84  F   UNL     1      -7.181 -10.558  -8.492  1.00  0.00    -0.200 F 
ATOM     85  F   UNL     1      -6.384  -9.843 -11.002  1.00  0.00    -0.200 F 
ENDBRANCH  51  75
BRANCH  63  86
ATOM     86  C   UNL     1     -15.094  -4.582  -9.250  1.00  0.00     0.064 A 
ATOM     87  C   UNL     1     -15.829  -5.774  -9.328  1.00  0.00     0.173 A 
ATOM     88  C   UNL     1     -15.421  -3.546 -10.137  1.00  0.00     0.173 A 
ATOM     89  F   UNL     1     -15.540  -6.800  -8.514  1.00  0.00    -0.203 F 
ATOM     90  C   UNL     1     -16.835  -5.930 -10.277  1.00  0.00     0.198 A 
ATOM     91  C   UNL     1     -16.449  -3.695 -11.063  1.00  0.00     0.198 A 
ATOM     92  F   UNL     1     -14.750  -2.385 -10.099  1.00  0.00    -0.203 F 
ATOM     93  F   UNL     1     -17.490  -7.096 -10.370  1.00  0.00    -0.200 F 
ATOM     94  C   UNL     1     -17.149  -4.889 -11.138  1.00  0.00     0.200 A 
ATOM     95  F   UNL     1     -16.759  -2.683 -11.885  1.00  0.00    -0.200 F 
ATOM     96  F   UNL     1     -18.122  -5.040 -12.047  1.00  0.00    -0.200 F 
ENDBRANCH  63  86
ENDBRANCH  37  38
ENDBRANCH  30  32
ENDBRANCH  29  30
ENDBRANCH  28  29
ENDBRANCH  27  28
ENDBRANCH   1  27
TORSDOF 14
