REMARK SMILES C[C@@H]1[C@@H](C(=O)OCCOC(=O)c2ccc(-c3c4nc(c(-c5c(F)c(F)c(F)c(F)c5F)c5ccc([nH]5)c(-c5c(F)c(F)c(F)c(F)c5F)c5nc(c(-c6c(F)c(F)c(F)c(F)c6F)c6ccc3[nH]6)C=C5)C=C4)cc2)CCN1C(=O)N1CCC[C@H]2CCC[C@@H]21
REMARK SMILES IDX 7 1 6 2 4 3 5 4 3 5 1 6 2 7 77 8 75 9 76 10 78 11 79 12
REMARK SMILES IDX 80 13 81 14 88 15 82 16 84 17 87 18 83 19 85 20 86 21 8 22
REMARK SMILES IDX 9 23 10 24 11 25 12 26 13 27 74 28 14 29 73 30 15 31 16 32
REMARK SMILES IDX 17 33 67 34 18 35 72 36 66 37 68 38 19 39 71 40 65 41 64 42
REMARK SMILES IDX 20 44 52 45 32 46 51 47 33 48 36 49 50 50 69 51 34 52 35 53
REMARK SMILES IDX 49 55 70 56 37 57 21 58 22 59 30 60 23 61 24 62 28 63 31 64
REMARK SMILES IDX 25 65 26 66 29 67 27 68 53 69 54 70 62 71 55 72 56 73 60 74
REMARK SMILES IDX 63 75 57 76 58 77 61 78 59 79 38 80 39 81 47 82 40 83 41 84
REMARK SMILES IDX 45 85 48 86 42 87 43 88 46 89 44 90
REMARK H PARENT 68 43 36 54
REMARK Flexibility Score: inf
ROOT
ATOM      1  C   UNL     1      -2.063   1.978  -3.485  1.00  0.00     0.274 C 
ENDROOT
BRANCH   1   2
ATOM      2  O   UNL     1      -1.682   1.815  -2.105  1.00  0.00    -0.462 OA
BRANCH   2   3
ATOM      3  C   UNL     1      -0.843   0.775  -1.833  1.00  0.00     0.311 C 
ATOM      4  O   UNL     1      -0.412  -0.004  -2.673  1.00  0.00    -0.252 OA
BRANCH   3   5
ATOM      5  C   UNL     1      -0.430   0.801  -0.371  1.00  0.00     0.123 C 
ATOM      6  C   UNL     1       1.462   0.070   1.108  1.00  0.00     0.032 C 
ATOM      7  C   UNL     1       0.535  -0.350  -0.039  1.00  0.00     0.098 C 
ATOM      8  N   UNL     1      -0.355  -1.458   0.331  1.00  0.00    -0.321 N 
ATOM      9  C   UNL     1      -1.594   0.551   0.587  1.00  0.00     0.039 C 
ATOM     10  C   UNL     1      -1.680  -0.968   0.669  1.00  0.00     0.122 C 
BRANCH   8  11
ATOM     11  C   UNL     1      -0.234  -2.785  -0.060  1.00  0.00     0.320 C 
ATOM     12  O   UNL     1      -1.183  -3.567  -0.029  1.00  0.00    -0.248 OA
BRANCH  11  13
ATOM     13  N   UNL     1       0.969  -3.131  -0.622  1.00  0.00    -0.321 N 
ATOM     14  C   UNL     1       2.185  -3.230   0.173  1.00  0.00     0.121 C 
ATOM     15  C   UNL     1       1.049  -3.817  -1.895  1.00  0.00     0.090 C 
ATOM     16  C   UNL     1       3.379  -2.649  -0.586  1.00  0.00     0.022 C 
ATOM     17  C   UNL     1       2.106  -3.083  -2.722  1.00  0.00     0.012 C 
ATOM     18  C   UNL     1      -0.147  -3.818  -2.839  1.00  0.00     0.025 C 
ATOM     19  C   UNL     1       3.466  -3.170  -2.030  1.00  0.00     0.007 C 
ATOM     20  C   UNL     1       1.960  -3.715  -4.098  1.00  0.00     0.006 C 
ATOM     21  C   UNL     1       0.470  -4.052  -4.222  1.00  0.00     0.002 C 
ENDBRANCH  11  13
ENDBRANCH   8  11
ENDBRANCH   3   5
ENDBRANCH   2   3
ENDBRANCH   1   2
BRANCH   1  22
ATOM     22  C   UNL     1      -1.183   3.003  -4.212  1.00  0.00     0.275 C 
BRANCH  22  23
ATOM     23  O   UNL     1       0.146   2.505  -4.467  1.00  0.00    -0.458 OA
BRANCH  23  24
ATOM     24  C   UNL     1       1.058   2.776  -3.503  1.00  0.00     0.338 C 
ATOM     25  O   UNL     1       0.877   3.417  -2.482  1.00  0.00    -0.246 OA
BRANCH  24  26
ATOM     26  C   UNL     1       2.314   2.043  -3.763  1.00  0.00     0.060 A 
ATOM     27  C   UNL     1       2.857   1.322  -2.697  1.00  0.00     0.016 A 
ATOM     28  C   UNL     1       2.986   2.095  -4.988  1.00  0.00     0.016 A 
ATOM     29  C   UNL     1       4.056   0.633  -2.854  1.00  0.00     0.010 A 
ATOM     30  C   UNL     1       4.208   1.420  -5.139  1.00  0.00     0.010 A 
ATOM     31  C   UNL     1       4.748   0.684  -4.072  1.00  0.00    -0.014 A 
BRANCH  31  32
ATOM     32  C   UNL     1       6.061  -0.003  -4.156  1.00  0.00     0.031 A 
ATOM     33  C   UNL     1       7.291   0.695  -3.667  1.00  0.00     0.074 A 
ATOM     34  C   UNL     1       6.125  -1.292  -4.535  1.00  0.00     0.049 A 
ATOM     35  N   UNL     1       8.511   0.236  -3.558  1.00  0.00    -0.248 NA
ATOM     36  C   UNL     1       7.132   2.099  -3.263  1.00  0.00     0.031 C 
ATOM     37  C   UNL     1       4.990  -2.068  -5.015  1.00  0.00     0.029 A 
ATOM     38  N   UNL     1       7.158  -2.199  -4.500  1.00  0.00    -0.354 N 
ATOM     39  C   UNL     1       9.279   1.310  -3.139  1.00  0.00     0.074 A 
ATOM     40  C   UNL     1       8.379   2.430  -2.957  1.00  0.00     0.031 C 
ATOM     41  C   UNL     1       5.346  -3.361  -5.093  1.00  0.00     0.029 A 
ATOM     42  C   UNL     1       6.753  -3.494  -4.733  1.00  0.00     0.049 A 
ATOM     43  H   UNL     1       8.093  -1.947  -4.324  1.00  0.00     0.167 HD
ATOM     44  C   UNL     1      10.622   1.361  -2.974  1.00  0.00     0.037 A 
ATOM     45  C   UNL     1       7.439  -4.652  -4.642  1.00  0.00     0.037 A 
ATOM     46  C   UNL     1      11.505   0.241  -3.171  1.00  0.00     0.049 A 
ATOM     47  C   UNL     1       8.922  -4.580  -4.380  1.00  0.00     0.074 A 
ATOM     48  C   UNL     1      12.887   0.208  -3.124  1.00  0.00     0.029 A 
ATOM     49  N   UNL     1      11.084  -1.053  -3.444  1.00  0.00    -0.354 N 
ATOM     50  N   UNL     1       9.658  -3.544  -4.060  1.00  0.00    -0.248 NA
ATOM     51  C   UNL     1       9.680  -5.832  -4.530  1.00  0.00     0.031 C 
ATOM     52  C   UNL     1      13.305  -1.098  -3.404  1.00  0.00     0.029 A 
ATOM     53  C   UNL     1      12.181  -1.890  -3.575  1.00  0.00     0.049 A 
ATOM     54  H   UNL     1      10.145  -1.335  -3.532  1.00  0.00     0.167 HD
ATOM     55  C   UNL     1      10.965  -4.007  -4.011  1.00  0.00     0.074 A 
ATOM     56  C   UNL     1      10.914  -5.434  -4.255  1.00  0.00     0.031 C 
ATOM     57  C   UNL     1      12.110  -3.306  -3.829  1.00  0.00     0.037 A 
BRANCH  44  58
ATOM     58  C   UNL     1      11.219   2.701  -2.671  1.00  0.00     0.064 A 
ATOM     59  C   UNL     1      11.108   3.301  -1.410  1.00  0.00     0.173 A 
ATOM     60  C   UNL     1      11.912   3.398  -3.674  1.00  0.00     0.173 A 
ATOM     61  F   UNL     1      10.431   2.688  -0.428  1.00  0.00    -0.203 F 
ATOM     62  C   UNL     1      11.652   4.561  -1.170  1.00  0.00     0.198 A 
ATOM     63  C   UNL     1      12.477   4.644  -3.423  1.00  0.00     0.198 A 
ATOM     64  F   UNL     1      12.040   2.868  -4.900  1.00  0.00    -0.203 F 
ATOM     65  F   UNL     1      11.493   5.140   0.029  1.00  0.00    -0.200 F 
ATOM     66  C   UNL     1      12.340   5.228  -2.174  1.00  0.00     0.200 A 
ATOM     67  F   UNL     1      13.145   5.283  -4.393  1.00  0.00    -0.200 F 
ATOM     68  F   UNL     1      12.861   6.441  -1.940  1.00  0.00    -0.200 F 
ENDBRANCH  44  58
BRANCH  45  69
ATOM     69  C   UNL     1       6.768  -5.974  -4.801  1.00  0.00     0.064 A 
ATOM     70  C   UNL     1       6.775  -6.907  -3.750  1.00  0.00     0.173 A 
ATOM     71  C   UNL     1       6.148  -6.362  -5.997  1.00  0.00     0.173 A 
ATOM     72  F   UNL     1       7.380  -6.604  -2.591  1.00  0.00    -0.203 F 
ATOM     73  C   UNL     1       6.211  -8.173  -3.897  1.00  0.00     0.198 A 
ATOM     74  C   UNL     1       5.548  -7.613  -6.131  1.00  0.00     0.198 A 
ATOM     75  F   UNL     1       6.124  -5.525  -7.045  1.00  0.00    -0.203 F 
ATOM     76  F   UNL     1       6.292  -9.062  -2.898  1.00  0.00    -0.200 F 
ATOM     77  C   UNL     1       5.590  -8.523  -5.086  1.00  0.00     0.200 A 
ATOM     78  F   UNL     1       4.938  -7.941  -7.278  1.00  0.00    -0.200 F 
ATOM     79  F   UNL     1       5.047  -9.739  -5.229  1.00  0.00    -0.200 F 
ENDBRANCH  45  69
BRANCH  57  80
ATOM     80  C   UNL     1      13.399  -4.068  -3.921  1.00  0.00     0.064 A 
ATOM     81  C   UNL     1      13.877  -4.538  -5.155  1.00  0.00     0.173 A 
ATOM     82  C   UNL     1      14.183  -4.293  -2.782  1.00  0.00     0.173 A 
ATOM     83  F   UNL     1      13.156  -4.357  -6.272  1.00  0.00    -0.203 F 
ATOM     84  C   UNL     1      15.083  -5.228  -5.239  1.00  0.00     0.198 A 
ATOM     85  C   UNL     1      15.401  -4.961  -2.874  1.00  0.00     0.198 A 
ATOM     86  F   UNL     1      13.772  -3.859  -1.581  1.00  0.00    -0.203 F 
ATOM     87  F   UNL     1      15.499  -5.705  -6.420  1.00  0.00    -0.200 F 
ATOM     88  C   UNL     1      15.847  -5.433  -4.100  1.00  0.00     0.200 A 
ATOM     89  F   UNL     1      16.145  -5.149  -1.775  1.00  0.00    -0.200 F 
ATOM     90  F   UNL     1      17.011  -6.092  -4.183  1.00  0.00    -0.200 F 
ENDBRANCH  57  80
ENDBRANCH  31  32
ENDBRANCH  24  26
ENDBRANCH  23  24
ENDBRANCH  22  23
ENDBRANCH   1  22
TORSDOF 13
