REMARK SMILES C=CC[N@H+](CC(=O)OCCOC(=O)c1ccc(-c2c3nc(c(-c4c(F)c(F)c(F)c(F)c4F)c4ccc([nH]4)c(-c4c(F)c(F)c(F)c(F)c4F)c4nc(c(-c5c(F)c(F)c(F)c(F)c5F)c5ccc2[nH]5)C=C4)C=C3)cc1)Cc1ccccc1C#N
REMARK SMILES IDX 9 1 8 2 6 3 7 4 5 5 4 6 3 8 2 9 1 10 77 11 78 12 79 13 83 14
REMARK SMILES IDX 80 15 82 16 81 17 84 18 85 19 10 20 11 21 12 22 13 23 14 24
REMARK SMILES IDX 15 25 76 26 16 27 75 28 17 29 18 30 19 31 69 32 20 33 74 34
REMARK SMILES IDX 68 35 70 36 21 37 73 38 67 39 66 40 22 42 54 43 34 44 53 45
REMARK SMILES IDX 35 46 38 47 52 48 71 49 36 50 37 51 51 53 72 54 39 55 23 56
REMARK SMILES IDX 24 57 32 58 25 59 26 60 30 61 33 62 27 63 28 64 31 65 29 66
REMARK SMILES IDX 55 67 56 68 64 69 57 70 58 71 62 72 65 73 59 74 60 75 63 76
REMARK SMILES IDX 61 77 40 78 41 79 49 80 42 81 43 82 47 83 50 84 44 85 45 86
REMARK SMILES IDX 48 87 46 88
REMARK H PARENT 4 7 70 41 38 52
REMARK Flexibility Score: inf
ROOT
ATOM      1  C   UNL     1      -4.878   0.329   1.393  1.00  0.00     0.274 C 
ENDROOT
BRANCH   1   2
ATOM      2  O   UNL     1      -3.816   0.233   0.416  1.00  0.00    -0.458 OA
BRANCH   2   3
ATOM      3  C   UNL     1      -4.136   0.427  -0.887  1.00  0.00     0.361 C 
ATOM      4  O   UNL     1      -5.292   0.572  -1.287  1.00  0.00    -0.245 OA
BRANCH   3   5
ATOM      5  C   UNL     1      -2.952   0.449  -1.866  1.00  0.00     0.387 C 
BRANCH   5   6
ATOM      6  N   UNL     1      -1.595   0.496  -1.273  1.00  0.00    -0.319 N 
ATOM      7  H   UNL     1      -1.707   0.212  -0.300  1.00  0.00     0.349 HD
BRANCH   6   8
ATOM      8  C   UNL     1      -0.703  -0.528  -1.817  1.00  0.00     0.291 C 
BRANCH   8   9
ATOM      9  C   UNL     1       0.770  -0.222  -1.827  1.00  0.00     0.025 C 
ATOM     10  C   UNL     1       1.607  -0.334  -0.788  1.00  0.00     0.010 C 
ENDBRANCH   8   9
ENDBRANCH   6   8
BRANCH   6  11
ATOM     11  C   UNL     1      -1.041   1.834  -1.055  1.00  0.00     0.301 C 
BRANCH  11  12
ATOM     12  C   UNL     1      -0.806   2.227   0.409  1.00  0.00     0.024 A 
ATOM     13  C   UNL     1      -0.694   3.621   0.661  1.00  0.00     0.011 A 
ATOM     14  C   UNL     1      -0.912   1.366   1.524  1.00  0.00     0.061 A 
ATOM     15  C   UNL     1      -0.812   4.141   1.955  1.00  0.00     0.001 A 
ATOM     16  C   UNL     1      -0.981   1.907   2.822  1.00  0.00     0.020 A 
ATOM     17  C   UNL     1      -0.967   3.282   3.035  1.00  0.00     0.001 A 
BRANCH  14  18
ATOM     18  C   UNL     1      -1.054  -0.060   1.455  1.00  0.00     0.100 C 
ATOM     19  N   UNL     1      -1.159  -1.220   1.516  1.00  0.00    -0.192 NA
ENDBRANCH  14  18
ENDBRANCH  11  12
ENDBRANCH   6  11
ENDBRANCH   5   6
ENDBRANCH   3   5
ENDBRANCH   2   3
ENDBRANCH   1   2
BRANCH   1  20
ATOM     20  C   UNL     1      -4.897   1.674   2.146  1.00  0.00     0.275 C 
BRANCH  20  21
ATOM     21  O   UNL     1      -5.381   2.782   1.349  1.00  0.00    -0.458 OA
BRANCH  21  22
ATOM     22  C   UNL     1      -4.426   3.247   0.529  1.00  0.00     0.338 C 
ATOM     23  O   UNL     1      -3.308   2.795   0.417  1.00  0.00    -0.246 OA
BRANCH  22  24
ATOM     24  C   UNL     1      -4.766   4.301  -0.395  1.00  0.00     0.060 A 
ATOM     25  C   UNL     1      -4.870   3.933  -1.740  1.00  0.00     0.016 A 
ATOM     26  C   UNL     1      -4.663   5.635  -0.009  1.00  0.00     0.016 A 
ATOM     27  C   UNL     1      -4.988   4.908  -2.710  1.00  0.00     0.010 A 
ATOM     28  C   UNL     1      -4.858   6.617  -0.972  1.00  0.00     0.010 A 
ATOM     29  C   UNL     1      -5.096   6.243  -2.307  1.00  0.00    -0.014 A 
BRANCH  29  30
ATOM     30  C   UNL     1      -5.763   7.192  -3.213  1.00  0.00     0.031 A 
ATOM     31  C   UNL     1      -5.043   8.353  -3.798  1.00  0.00     0.074 A 
ATOM     32  C   UNL     1      -7.080   6.989  -3.412  1.00  0.00     0.049 A 
ATOM     33  N   UNL     1      -5.532   9.350  -4.485  1.00  0.00    -0.248 NA
ATOM     34  C   UNL     1      -3.592   8.417  -3.575  1.00  0.00     0.031 C 
ATOM     35  C   UNL     1      -7.852   5.864  -2.866  1.00  0.00     0.029 A 
ATOM     36  N   UNL     1      -8.008   7.714  -4.106  1.00  0.00    -0.354 N 
ATOM     37  C   UNL     1      -4.455  10.171  -4.771  1.00  0.00     0.074 A 
ATOM     38  C   UNL     1      -3.287   9.567  -4.163  1.00  0.00     0.031 C 
ATOM     39  C   UNL     1      -9.126   5.965  -3.258  1.00  0.00     0.029 A 
ATOM     40  C   UNL     1      -9.279   7.204  -4.001  1.00  0.00     0.049 A 
ATOM     41  H   UNL     1      -7.788   8.520  -4.627  1.00  0.00     0.167 HD
ATOM     42  C   UNL     1      -4.465  11.325  -5.479  1.00  0.00     0.037 A 
ATOM     43  C   UNL     1     -10.453   7.710  -4.412  1.00  0.00     0.037 A 
ATOM     44  C   UNL     1      -5.657  11.899  -6.052  1.00  0.00     0.049 A 
ATOM     45  C   UNL     1     -10.434   9.030  -5.121  1.00  0.00     0.074 A 
ATOM     46  C   UNL     1      -5.783  13.048  -6.811  1.00  0.00     0.029 A 
ATOM     47  N   UNL     1      -6.937  11.372  -5.911  1.00  0.00    -0.354 N 
ATOM     48  N   UNL     1      -9.407   9.786  -5.428  1.00  0.00    -0.248 NA
ATOM     49  C   UNL     1     -11.731   9.571  -5.535  1.00  0.00     0.031 C 
ATOM     50  C   UNL     1      -7.142  13.256  -7.065  1.00  0.00     0.029 A 
ATOM     51  C   UNL     1      -7.862  12.199  -6.531  1.00  0.00     0.049 A 
ATOM     52  H   UNL     1      -7.154  10.535  -5.440  1.00  0.00     0.167 HD
ATOM     53  C   UNL     1      -9.930  10.886  -6.087  1.00  0.00     0.074 A 
ATOM     54  C   UNL     1     -11.364  10.680  -6.160  1.00  0.00     0.031 C 
ATOM     55  C   UNL     1      -9.286  11.972  -6.580  1.00  0.00     0.037 A 
BRANCH  42  56
ATOM     56  C   UNL     1      -3.164  12.058  -5.635  1.00  0.00     0.064 A 
ATOM     57  C   UNL     1      -2.111  11.546  -6.407  1.00  0.00     0.173 A 
ATOM     58  C   UNL     1      -2.981  13.310  -5.028  1.00  0.00     0.173 A 
ATOM     59  F   UNL     1      -2.228  10.348  -7.000  1.00  0.00    -0.203 F 
ATOM     60  C   UNL     1      -0.914  12.245  -6.542  1.00  0.00     0.198 A 
ATOM     61  C   UNL     1      -1.796  14.022  -5.192  1.00  0.00     0.198 A 
ATOM     62  F   UNL     1      -3.955  13.849  -4.279  1.00  0.00    -0.203 F 
ATOM     63  F   UNL     1       0.097  11.711  -7.241  1.00  0.00    -0.200 F 
ATOM     64  C   UNL     1      -0.760  13.486  -5.941  1.00  0.00     0.200 A 
ATOM     65  F   UNL     1      -1.656  15.227  -4.622  1.00  0.00    -0.200 F 
ATOM     66  F   UNL     1       0.390  14.161  -6.078  1.00  0.00    -0.200 F 
ENDBRANCH  42  56
BRANCH  43  67
ATOM     67  C   UNL     1     -11.716   6.983  -4.132  1.00  0.00     0.064 A 
ATOM     68  C   UNL     1     -12.482   6.448  -5.174  1.00  0.00     0.173 A 
ATOM     69  C   UNL     1     -12.178   6.795  -2.819  1.00  0.00     0.173 A 
ATOM     70  F   UNL     1     -12.086   6.609  -6.446  1.00  0.00    -0.203 F 
ATOM     71  C   UNL     1     -13.677   5.779  -4.919  1.00  0.00     0.198 A 
ATOM     72  C   UNL     1     -13.353   6.093  -2.562  1.00  0.00     0.198 A 
ATOM     73  F   UNL     1     -11.476   7.274  -1.781  1.00  0.00    -0.203 F 
ATOM     74  F   UNL     1     -14.418   5.326  -5.939  1.00  0.00    -0.200 F 
ATOM     75  C   UNL     1     -14.108   5.597  -3.613  1.00  0.00     0.200 A 
ATOM     76  F   UNL     1     -13.752   5.898  -1.298  1.00  0.00    -0.200 F 
ATOM     77  F   UNL     1     -15.256   4.950  -3.369  1.00  0.00    -0.200 F 
ENDBRANCH  43  67
BRANCH  55  78
ATOM     78  C   UNL     1     -10.135  13.008  -7.257  1.00  0.00     0.064 A 
ATOM     79  C   UNL     1     -11.021  13.818  -6.533  1.00  0.00     0.173 A 
ATOM     80  C   UNL     1     -10.035  13.213  -8.641  1.00  0.00     0.173 A 
ATOM     81  F   UNL     1     -11.169  13.645  -5.210  1.00  0.00    -0.203 F 
ATOM     82  C   UNL     1     -11.797  14.779  -7.175  1.00  0.00     0.198 A 
ATOM     83  C   UNL     1     -10.781  14.202  -9.273  1.00  0.00     0.198 A 
ATOM     84  F   UNL     1      -9.200  12.466  -9.378  1.00  0.00    -0.203 F 
ATOM     85  F   UNL     1     -12.679  15.502  -6.472  1.00  0.00    -0.200 F 
ATOM     86  C   UNL     1     -11.668  14.978  -8.541  1.00  0.00     0.200 A 
ATOM     87  F   UNL     1     -10.642  14.405 -10.590  1.00  0.00    -0.200 F 
ATOM     88  F   UNL     1     -12.405  15.913  -9.155  1.00  0.00    -0.200 F 
ENDBRANCH  55  78
ENDBRANCH  29  30
ENDBRANCH  22  24
ENDBRANCH  21  22
ENDBRANCH  20  21
ENDBRANCH   1  20
TORSDOF 17
