REMARK SMILES CC1=C(C(=O)Nc2ccccc2)[C@@H](c2ccc(C(=O)OCCOC(=O)c3ccc(-c4c5nc(c(-c6c(F)c(F)c(F)c(F)c6F)c6ccc([nH]6)c(-c6c(F)c(F)c(F)c(F)c6F)c6nc(c(-c7c(F)c(F)c(F)c(F)c7F)c7ccc4[nH]7)C=C6)C=C5)cc3)cc2)n2ncnc2N1
REMARK SMILES IDX 21 1 20 2 18 3 19 4 17 5 14 6 15 7 90 8 16 9 89 10 13 11
REMARK SMILES IDX 1 12 2 13 3 14 96 15 95 16 91 18 94 19 92 20 93 21 4 22 5 23
REMARK SMILES IDX 6 24 7 26 8 27 12 28 9 29 11 30 10 31 22 32 23 33 24 34
REMARK SMILES IDX 25 35 26 36 27 37 88 38 28 39 87 40 29 41 30 42 31 43 81 44
REMARK SMILES IDX 32 45 86 46 80 47 82 48 33 49 85 50 79 51 78 52 34 54 66 55
REMARK SMILES IDX 46 56 65 57 47 58 50 59 64 60 83 61 48 62 49 63 63 65 84 66
REMARK SMILES IDX 51 67 35 68 36 69 44 70 37 71 38 72 42 73 45 74 39 75 40 76
REMARK SMILES IDX 43 77 41 78 67 79 68 80 76 81 69 82 70 83 74 84 77 85 71 86
REMARK SMILES IDX 72 87 75 88 73 89 52 90 53 91 61 92 54 93 55 94 59 95 62 96
REMARK SMILES IDX 56 97 57 98 60 99 58 100
REMARK H PARENT 96 17 6 25 82 53 50 64
REMARK Flexibility Score: inf
ROOT
ATOM      1  C   UNL     1      -0.103  10.526  -0.784  1.00  0.00     0.275 C 
ENDROOT
BRANCH   1   2
ATOM      2  O   UNL     1       0.129   9.291  -0.087  1.00  0.00    -0.458 OA
BRANCH   2   3
ATOM      3  C   UNL     1      -0.872   8.376  -0.145  1.00  0.00     0.338 C 
ATOM      4  O   UNL     1      -2.001   8.570  -0.579  1.00  0.00    -0.246 OA
BRANCH   3   5
ATOM      5  C   UNL     1      -0.387   7.039   0.287  1.00  0.00     0.060 A 
ATOM      6  C   UNL     1       0.388   4.489   1.188  1.00  0.00    -0.019 A 
ATOM      7  C   UNL     1      -0.754   4.633   0.391  1.00  0.00     0.007 A 
ATOM      8  C   UNL     1       1.181   5.626   1.451  1.00  0.00     0.007 A 
ATOM      9  C   UNL     1      -1.141   5.904  -0.050  1.00  0.00     0.016 A 
ATOM     10  C   UNL     1       0.799   6.890   1.007  1.00  0.00     0.016 A 
BRANCH   6  11
ATOM     11  C   UNL     1       0.716   3.202   1.935  1.00  0.00     0.179 C 
ATOM     12  C   UNL     1       1.497  -0.573   1.370  1.00  0.00     0.065 C 
ATOM     13  C   UNL     1       0.790   0.727   1.671  1.00  0.00     0.026 C 
ATOM     14  C   UNL     1       1.098   1.943   1.138  1.00  0.00     0.065 C 
ATOM     15  N   UNL     1      -0.159   0.620   2.682  1.00  0.00    -0.328 N 
ATOM     16  C   UNL     1      -0.736   1.672   3.279  1.00  0.00     0.226 A 
ATOM     17  H   UNL     1      -0.422  -0.282   2.976  1.00  0.00     0.169 HD
ATOM     18  N   UNL     1      -0.333   2.929   2.933  1.00  0.00    -0.219 N 
ATOM     19  N   UNL     1      -1.638   1.741   4.224  1.00  0.00    -0.200 NA
ATOM     20  N   UNL     1      -0.914   3.858   3.725  1.00  0.00    -0.157 NA
ATOM     21  C   UNL     1      -1.720   3.087   4.462  1.00  0.00     0.248 A 
BRANCH  14  22
ATOM     22  C   UNL     1       2.070   2.188   0.035  1.00  0.00     0.255 C 
ATOM     23  O   UNL     1       2.916   3.073   0.183  1.00  0.00    -0.269 OA
ATOM     24  N   UNL     1       2.117   1.449  -1.115  1.00  0.00    -0.322 N 
ATOM     25  H   UNL     1       2.807   1.745  -1.751  1.00  0.00     0.170 HD
BRANCH  24  26
ATOM     26  C   UNL     1       1.368   0.349  -1.559  1.00  0.00     0.041 A 
ATOM     27  C   UNL     1       2.102  -0.718  -2.098  1.00  0.00     0.026 A 
ATOM     28  C   UNL     1      -0.013   0.226  -1.406  1.00  0.00     0.026 A 
ATOM     29  C   UNL     1       1.485  -1.945  -2.343  1.00  0.00     0.002 A 
ATOM     30  C   UNL     1      -0.636  -0.994  -1.696  1.00  0.00     0.002 A 
ATOM     31  C   UNL     1       0.117  -2.087  -2.128  1.00  0.00     0.000 A 
ENDBRANCH  24  26
ENDBRANCH  14  22
ENDBRANCH   6  11
ENDBRANCH   3   5
ENDBRANCH   2   3
ENDBRANCH   1   2
BRANCH   1  32
ATOM     32  C   UNL     1       0.356  10.429  -2.233  1.00  0.00     0.275 C 
BRANCH  32  33
ATOM     33  O   UNL     1      -0.478   9.549  -2.984  1.00  0.00    -0.458 OA
BRANCH  33  34
ATOM     34  C   UNL     1      -0.039   8.273  -3.069  1.00  0.00     0.338 C 
ATOM     35  O   UNL     1       0.853   7.751  -2.424  1.00  0.00    -0.246 OA
BRANCH  34  36
ATOM     36  C   UNL     1      -0.647   7.636  -4.241  1.00  0.00     0.060 A 
ATOM     37  C   UNL     1      -0.359   6.284  -4.459  1.00  0.00     0.016 A 
ATOM     38  C   UNL     1      -1.220   8.440  -5.235  1.00  0.00     0.016 A 
ATOM     39  C   UNL     1      -0.480   5.782  -5.738  1.00  0.00     0.010 A 
ATOM     40  C   UNL     1      -1.323   7.945  -6.512  1.00  0.00     0.010 A 
ATOM     41  C   UNL     1      -0.880   6.647  -6.761  1.00  0.00    -0.014 A 
BRANCH  41  42
ATOM     42  C   UNL     1      -0.869   6.157  -8.124  1.00  0.00     0.031 A 
ATOM     43  C   UNL     1      -1.982   5.236  -8.456  1.00  0.00     0.074 A 
ATOM     44  C   UNL     1      -0.013   6.657  -9.034  1.00  0.00     0.049 A 
ATOM     45  N   UNL     1      -1.923   4.052  -8.969  1.00  0.00    -0.248 NA
ATOM     46  C   UNL     1      -3.341   5.665  -8.081  1.00  0.00     0.031 C 
ATOM     47  C   UNL     1       0.911   7.786  -8.877  1.00  0.00     0.029 A 
ATOM     48  N   UNL     1       0.118   6.333 -10.348  1.00  0.00    -0.354 N 
ATOM     49  C   UNL     1      -3.245   3.648  -9.132  1.00  0.00     0.074 A 
ATOM     50  C   UNL     1      -4.065   4.610  -8.447  1.00  0.00     0.031 C 
ATOM     51  C   UNL     1       1.334   8.185 -10.097  1.00  0.00     0.029 A 
ATOM     52  C   UNL     1       0.806   7.273 -11.097  1.00  0.00     0.049 A 
ATOM     53  H   UNL     1      -0.245   5.502 -10.733  1.00  0.00     0.167 HD
ATOM     54  C   UNL     1      -3.588   2.677 -10.018  1.00  0.00     0.037 A 
ATOM     55  C   UNL     1       0.853   7.340 -12.450  1.00  0.00     0.037 A 
ATOM     56  C   UNL     1      -2.474   1.823 -10.330  1.00  0.00     0.049 A 
ATOM     57  C   UNL     1       0.439   6.014 -12.976  1.00  0.00     0.074 A 
ATOM     58  C   UNL     1      -1.665   0.983  -9.590  1.00  0.00     0.029 A 
ATOM     59  N   UNL     1      -1.823   2.008 -11.523  1.00  0.00    -0.354 N 
ATOM     60  N   UNL     1       1.137   4.920 -12.842  1.00  0.00    -0.248 NA
ATOM     61  C   UNL     1      -0.967   5.819 -13.298  1.00  0.00     0.031 C 
ATOM     62  C   UNL     1      -0.373   1.093 -10.182  1.00  0.00     0.029 A 
ATOM     63  C   UNL     1      -0.478   1.970 -11.262  1.00  0.00     0.049 A 
ATOM     64  H   UNL     1      -2.244   2.142 -12.403  1.00  0.00     0.167 HD
ATOM     65  C   UNL     1       0.195   3.918 -12.655  1.00  0.00     0.074 A 
ATOM     66  C   UNL     1      -1.077   4.511 -13.052  1.00  0.00     0.031 C 
ATOM     67  C   UNL     1       0.494   2.800 -11.932  1.00  0.00     0.037 A 
BRANCH  54  68
ATOM     68  C   UNL     1      -4.836   2.736 -10.861  1.00  0.00     0.064 A 
ATOM     69  C   UNL     1      -5.202   1.615 -11.630  1.00  0.00     0.173 A 
ATOM     70  C   UNL     1      -5.512   3.938 -11.171  1.00  0.00     0.173 A 
ATOM     71  F   UNL     1      -4.604   0.430 -11.438  1.00  0.00    -0.203 F 
ATOM     72  C   UNL     1      -6.123   1.711 -12.676  1.00  0.00     0.198 A 
ATOM     73  C   UNL     1      -6.472   4.015 -12.177  1.00  0.00     0.198 A 
ATOM     74  F   UNL     1      -5.194   5.105 -10.599  1.00  0.00    -0.203 F 
ATOM     75  F   UNL     1      -6.346   0.650 -13.463  1.00  0.00    -0.200 F 
ATOM     76  C   UNL     1      -6.754   2.911 -12.952  1.00  0.00     0.200 A 
ATOM     77  F   UNL     1      -7.056   5.193 -12.441  1.00  0.00    -0.200 F 
ATOM     78  F   UNL     1      -7.589   3.019 -13.992  1.00  0.00    -0.200 F 
ENDBRANCH  54  68
BRANCH  55  79
ATOM     79  C   UNL     1       0.921   8.554 -13.297  1.00  0.00     0.064 A 
ATOM     80  C   UNL     1       1.283   8.474 -14.650  1.00  0.00     0.173 A 
ATOM     81  C   UNL     1       0.388   9.785 -12.864  1.00  0.00     0.173 A 
ATOM     82  F   UNL     1       1.751   7.324 -15.156  1.00  0.00    -0.203 F 
ATOM     83  C   UNL     1       1.108   9.555 -15.521  1.00  0.00     0.198 A 
ATOM     84  C   UNL     1       0.226  10.867 -13.730  1.00  0.00     0.198 A 
ATOM     85  F   UNL     1      -0.076   9.936 -11.616  1.00  0.00    -0.203 F 
ATOM     86  F   UNL     1       1.409   9.423 -16.820  1.00  0.00    -0.200 F 
ATOM     87  C   UNL     1       0.574  10.748 -15.061  1.00  0.00     0.200 A 
ATOM     88  F   UNL     1      -0.325  12.002 -13.278  1.00  0.00    -0.200 F 
ATOM     89  F   UNL     1       0.357  11.766 -15.906  1.00  0.00    -0.200 F 
ENDBRANCH  55  79
BRANCH  67  90
ATOM     90  C   UNL     1       1.936   2.567 -11.579  1.00  0.00     0.064 A 
ATOM     91  C   UNL     1       2.667   3.404 -10.717  1.00  0.00     0.173 A 
ATOM     92  C   UNL     1       2.549   1.381 -12.001  1.00  0.00     0.173 A 
ATOM     93  F   UNL     1       2.112   4.499 -10.187  1.00  0.00    -0.203 F 
ATOM     94  C   UNL     1       3.969   3.087 -10.334  1.00  0.00     0.198 A 
ATOM     95  C   UNL     1       3.836   1.049 -11.586  1.00  0.00     0.198 A 
ATOM     96  F   UNL     1       1.876   0.514 -12.773  1.00  0.00    -0.203 F 
ATOM     97  F   UNL     1       4.647   3.907  -9.517  1.00  0.00    -0.200 F 
ATOM     98  C   UNL     1       4.549   1.906 -10.762  1.00  0.00     0.200 A 
ATOM     99  F   UNL     1       4.375  -0.120 -11.960  1.00  0.00    -0.200 F 
ATOM    100  F   UNL     1       5.784   1.577 -10.356  1.00  0.00    -0.200 F 
ENDBRANCH  67  90
ENDBRANCH  41  42
ENDBRANCH  34  36
ENDBRANCH  33  34
ENDBRANCH  32  33
ENDBRANCH   1  32
TORSDOF 14
