REMARK SMILES O=C(OCCOC(=O)c1n[nH]c2cc(Br)cc(Cl)c12)c1ccc(-c2c3nc(c(-c4c(F)c(F)c(F)c(F)c4F)c4ccc([nH]4)c(-c4c(F)c(F)c(F)c(F)c4F)c4nc(c(-c5c(F)c(F)c(F)c(F)c5F)c5ccc2[nH]5)C=C4)C=C3)cc1
REMARK SMILES IDX 4 1 3 2 2 3 1 4 20 5 21 6 82 7 22 8 81 9 23 10 24 11 25 12
REMARK SMILES IDX 75 13 26 14 80 15 74 16 76 17 27 18 79 19 73 20 72 21 28 23
REMARK SMILES IDX 60 24 40 25 59 26 41 27 44 28 58 29 77 30 42 31 43 32 57 34
REMARK SMILES IDX 78 35 45 36 29 37 30 38 38 39 31 40 32 41 36 42 39 43 33 44
REMARK SMILES IDX 34 45 37 46 35 47 61 48 62 49 70 50 63 51 64 52 68 53 71 54
REMARK SMILES IDX 65 55 66 56 69 57 67 58 46 59 47 60 55 61 48 62 49 63 53 64
REMARK SMILES IDX 56 65 50 66 51 67 54 68 52 69 5 70 6 71 7 72 8 73 9 74 10 75
REMARK SMILES IDX 19 76 11 77 12 78 17 79 13 81 16 82 18 83 14 84 15 85
REMARK H PARENT 76 22 44 33 11 80
REMARK Flexibility Score: inf
ROOT
ATOM      1  C   UNL     1       4.637   0.454  -1.450  1.00  0.00     0.275 C 
ENDROOT
BRANCH   1   2
ATOM      2  O   UNL     1       3.348  -0.095  -1.784  1.00  0.00    -0.458 OA
BRANCH   2   3
ATOM      3  C   UNL     1       2.294  -0.120  -0.940  1.00  0.00     0.338 C 
ATOM      4  O   UNL     1       1.212   0.351  -1.267  1.00  0.00    -0.246 OA
BRANCH   3   5
ATOM      5  C   UNL     1       2.393  -1.015   0.248  1.00  0.00     0.060 A 
ATOM      6  C   UNL     1       3.585  -1.522   0.785  1.00  0.00     0.016 A 
ATOM      7  C   UNL     1       1.170  -1.408   0.811  1.00  0.00     0.016 A 
ATOM      8  C   UNL     1       3.558  -2.529   1.732  1.00  0.00     0.010 A 
ATOM      9  C   UNL     1       1.135  -2.383   1.786  1.00  0.00     0.010 A 
ATOM     10  C   UNL     1       2.325  -3.004   2.156  1.00  0.00    -0.014 A 
BRANCH  10  11
ATOM     11  C   UNL     1       2.278  -4.204   2.971  1.00  0.00     0.031 A 
ATOM     12  C   UNL     1       2.764  -4.049   4.370  1.00  0.00     0.074 A 
ATOM     13  C   UNL     1       1.661  -5.291   2.461  1.00  0.00     0.049 A 
ATOM     14  N   UNL     1       3.644  -4.753   5.007  1.00  0.00    -0.248 NA
ATOM     15  C   UNL     1       2.282  -2.881   5.132  1.00  0.00     0.031 C 
ATOM     16  C   UNL     1       0.963  -5.414   1.173  1.00  0.00     0.029 A 
ATOM     17  N   UNL     1       1.398  -6.483   3.057  1.00  0.00    -0.354 N 
ATOM     18  C   UNL     1       3.691  -4.235   6.301  1.00  0.00     0.074 A 
ATOM     19  C   UNL     1       2.944  -3.005   6.281  1.00  0.00     0.031 C 
ATOM     20  C   UNL     1       0.148  -6.491   1.201  1.00  0.00     0.029 A 
ATOM     21  C   UNL     1       0.381  -7.208   2.436  1.00  0.00     0.049 A 
ATOM     22  H   UNL     1       1.880  -6.805   3.853  1.00  0.00     0.167 HD
ATOM     23  C   UNL     1       4.159  -4.961   7.353  1.00  0.00     0.037 A 
ATOM     24  C   UNL     1      -0.280  -8.248   3.002  1.00  0.00     0.037 A 
ATOM     25  C   UNL     1       4.971  -6.064   6.922  1.00  0.00     0.049 A 
ATOM     26  C   UNL     1       0.579  -8.742   4.115  1.00  0.00     0.074 A 
ATOM     27  C   UNL     1       6.181  -6.161   6.264  1.00  0.00     0.029 A 
ATOM     28  N   UNL     1       4.380  -7.297   6.798  1.00  0.00    -0.354 N 
ATOM     29  N   UNL     1       1.752  -9.287   3.925  1.00  0.00    -0.248 NA
ATOM     30  C   UNL     1       0.365  -8.151   5.430  1.00  0.00     0.031 C 
ATOM     31  C   UNL     1       6.016  -7.247   5.356  1.00  0.00     0.029 A 
ATOM     32  C   UNL     1       4.755  -7.800   5.576  1.00  0.00     0.049 A 
ATOM     33  H   UNL     1       3.798  -7.737   7.459  1.00  0.00     0.167 HD
ATOM     34  C   UNL     1       2.555  -8.758   4.926  1.00  0.00     0.074 A 
ATOM     35  C   UNL     1       1.634  -8.090   5.845  1.00  0.00     0.031 C 
ATOM     36  C   UNL     1       3.907  -8.646   4.771  1.00  0.00     0.037 A 
BRANCH  23  37
ATOM     37  C   UNL     1       3.611  -4.856   8.749  1.00  0.00     0.064 A 
ATOM     38  C   UNL     1       4.316  -5.412   9.833  1.00  0.00     0.173 A 
ATOM     39  C   UNL     1       2.277  -4.474   9.015  1.00  0.00     0.173 A 
ATOM     40  F   UNL     1       5.578  -5.839   9.677  1.00  0.00    -0.203 F 
ATOM     41  C   UNL     1       3.712  -5.608  11.079  1.00  0.00     0.198 A 
ATOM     42  C   UNL     1       1.695  -4.625  10.271  1.00  0.00     0.198 A 
ATOM     43  F   UNL     1       1.461  -4.042   8.045  1.00  0.00    -0.203 F 
ATOM     44  F   UNL     1       4.385  -6.232  12.055  1.00  0.00    -0.200 F 
ATOM     45  C   UNL     1       2.403  -5.215  11.296  1.00  0.00     0.200 A 
ATOM     46  F   UNL     1       0.418  -4.258  10.453  1.00  0.00    -0.200 F 
ATOM     47  F   UNL     1       1.807  -5.447  12.473  1.00  0.00    -0.200 F 
ENDBRANCH  23  37
BRANCH  24  48
ATOM     48  C   UNL     1      -1.742  -8.501   2.943  1.00  0.00     0.064 A 
ATOM     49  C   UNL     1      -2.276  -9.750   3.297  1.00  0.00     0.173 A 
ATOM     50  C   UNL     1      -2.664  -7.443   2.807  1.00  0.00     0.173 A 
ATOM     51  F   UNL     1      -1.461 -10.797   3.495  1.00  0.00    -0.203 F 
ATOM     52  C   UNL     1      -3.647  -9.925   3.519  1.00  0.00     0.198 A 
ATOM     53  C   UNL     1      -4.031  -7.619   3.025  1.00  0.00     0.198 A 
ATOM     54  F   UNL     1      -2.247  -6.194   2.556  1.00  0.00    -0.203 F 
ATOM     55  F   UNL     1      -4.115 -11.118   3.912  1.00  0.00    -0.200 F 
ATOM     56  C   UNL     1      -4.521  -8.857   3.393  1.00  0.00     0.200 A 
ATOM     57  F   UNL     1      -4.859  -6.568   2.939  1.00  0.00    -0.200 F 
ATOM     58  F   UNL     1      -5.824  -9.009   3.669  1.00  0.00    -0.200 F 
ENDBRANCH  24  48
BRANCH  36  59
ATOM     59  C   UNL     1       4.531  -9.261   3.547  1.00  0.00     0.064 A 
ATOM     60  C   UNL     1       4.277  -8.823   2.234  1.00  0.00     0.173 A 
ATOM     61  C   UNL     1       5.551 -10.203   3.719  1.00  0.00     0.173 A 
ATOM     62  F   UNL     1       3.396  -7.846   1.995  1.00  0.00    -0.203 F 
ATOM     63  C   UNL     1       4.982  -9.335   1.145  1.00  0.00     0.198 A 
ATOM     64  C   UNL     1       6.279 -10.688   2.635  1.00  0.00     0.198 A 
ATOM     65  F   UNL     1       5.885 -10.611   4.953  1.00  0.00    -0.203 F 
ATOM     66  F   UNL     1       4.718  -8.897  -0.095  1.00  0.00    -0.200 F 
ATOM     67  C   UNL     1       5.989 -10.262   1.349  1.00  0.00     0.200 A 
ATOM     68  F   UNL     1       7.290 -11.543   2.843  1.00  0.00    -0.200 F 
ATOM     69  F   UNL     1       6.702 -10.721   0.310  1.00  0.00    -0.200 F 
ENDBRANCH  36  59
ENDBRANCH  10  11
ENDBRANCH   3   5
ENDBRANCH   2   3
ENDBRANCH   1   2
BRANCH   1  70
ATOM     70  C   UNL     1       4.634   1.744  -0.629  1.00  0.00     0.275 C 
BRANCH  70  71
ATOM     71  O   UNL     1       4.117   1.549   0.699  1.00  0.00    -0.457 OA
BRANCH  71  72
ATOM     72  C   UNL     1       2.977   2.238   1.017  1.00  0.00     0.359 C 
ATOM     73  O   UNL     1       2.377   2.987   0.248  1.00  0.00    -0.244 OA
BRANCH  72  74
ATOM     74  C   UNL     1       2.534   1.968   2.382  1.00  0.00     0.179 A 
ATOM     75  N   UNL     1       1.449   1.209   2.635  1.00  0.00    -0.167 NA
ATOM     76  C   UNL     1       3.122   2.443   3.591  1.00  0.00     0.053 A 
ATOM     77  N   UNL     1       1.357   1.187   3.968  1.00  0.00    -0.277 N 
ATOM     78  C   UNL     1       2.329   1.906   4.606  1.00  0.00     0.069 A 
ATOM     79  C   UNL     1       4.194   3.269   3.973  1.00  0.00     0.054 A 
ATOM     80  H   UNL     1       0.651   0.697   4.448  1.00  0.00     0.190 HD
ATOM     81  C   UNL     1       2.560   2.142   5.967  1.00  0.00     0.044 A 
ATOM     82  C   UNL     1       4.450   3.539   5.317  1.00  0.00     0.037 A 
ATOM     83  Cl  UNL     1       5.147   3.953   2.733  1.00  0.00    -0.083 Cl
ATOM     84  C   UNL     1       3.635   2.975   6.294  1.00  0.00     0.021 A 
ATOM     85  Br  UNL     1       3.976   3.359   8.116  1.00  0.00    -0.051 Br
ENDBRANCH  72  74
ENDBRANCH  71  72
ENDBRANCH  70  71
ENDBRANCH   1  70
TORSDOF 11
