REMARK SMILES Cc1cc(C)cc(-c2ccc([C@@H](C)C(=O)OCCOC(=O)c3ccc(-c4c5nc(c(-c6c(F)c(F)c(F)c(F)c6F)c6ccc([nH]6)c(-c6c(F)c(F)c(F)c(F)c6F)c6nc(c(-c7c(F)c(F)c(F)c(F)c7F)c7ccc4[nH]7)C=C6)C=C5)cc3)cc2F)c1
REMARK SMILES IDX 17 1 16 2 14 3 15 4 12 5 13 6 11 7 8 8 9 9 86 10 10 11 85 12
REMARK SMILES IDX 87 13 7 14 1 15 2 16 3 17 88 18 4 19 5 20 6 21 18 22 19 23
REMARK SMILES IDX 20 24 21 25 22 26 23 27 84 28 24 29 83 30 25 31 26 32 27 33
REMARK SMILES IDX 77 34 28 35 82 36 76 37 78 38 29 39 81 40 75 41 74 42 30 44
REMARK SMILES IDX 62 45 42 46 61 47 43 48 46 49 60 50 79 51 44 52 45 53 59 55
REMARK SMILES IDX 80 56 47 57 31 58 32 59 40 60 33 61 34 62 38 63 41 64 35 65
REMARK SMILES IDX 36 66 39 67 37 68 63 69 64 70 72 71 65 72 66 73 70 74 73 75
REMARK SMILES IDX 67 76 68 77 71 78 69 79 48 80 49 81 57 82 50 83 51 84 55 85
REMARK SMILES IDX 58 86 52 87 53 88 56 89 54 90
REMARK H PARENT 78 43 46 54
REMARK Flexibility Score: inf
ROOT
ATOM      1  C   UNL     1       1.033  -8.277  -3.424  1.00  0.00     0.274 C 
ENDROOT
BRANCH   1   2
ATOM      2  O   UNL     1       0.264  -7.618  -2.399  1.00  0.00    -0.462 OA
BRANCH   2   3
ATOM      3  C   UNL     1       0.082  -8.298  -1.237  1.00  0.00     0.313 C 
ATOM      4  O   UNL     1       0.483  -9.441  -1.034  1.00  0.00    -0.252 OA
BRANCH   3   5
ATOM      5  C   UNL     1      -0.728  -7.530  -0.199  1.00  0.00     0.126 C 
ATOM      6  C   UNL     1      -2.196  -7.945  -0.277  1.00  0.00     0.025 C 
BRANCH   5   7
ATOM      7  C   UNL     1      -0.543  -6.021  -0.199  1.00  0.00    -0.031 A 
ATOM      8  C   UNL     1      -0.219  -3.192  -0.122  1.00  0.00     0.017 A 
ATOM      9  C   UNL     1      -0.932  -3.816  -1.159  1.00  0.00     0.012 A 
ATOM     10  C   UNL     1       0.347  -4.015   0.856  1.00  0.00     0.131 A 
ATOM     11  C   UNL     1      -1.091  -5.206  -1.198  1.00  0.00     0.005 A 
ATOM     12  C   UNL     1       0.183  -5.401   0.830  1.00  0.00     0.044 A 
ATOM     13  F   UNL     1       1.038  -3.482   1.877  1.00  0.00    -0.206 F 
BRANCH   8  14
ATOM     14  C   UNL     1      -0.122  -1.726  -0.062  1.00  0.00    -0.015 A 
ATOM     15  C   UNL     1       2.522   1.031   0.043  1.00  0.00     0.044 C 
ATOM     16  C   UNL     1       1.196   0.331   0.016  1.00  0.00    -0.050 A 
ATOM     17  C   UNL     1       0.014   1.083   0.026  1.00  0.00     0.006 A 
ATOM     18  C   UNL     1       1.118  -1.069  -0.025  1.00  0.00     0.012 A 
ATOM     19  C   UNL     1      -1.235   0.454   0.001  1.00  0.00    -0.050 A 
ATOM     20  C   UNL     1      -2.492   1.270   0.013  1.00  0.00     0.044 C 
ATOM     21  C   UNL     1      -1.290  -0.944  -0.046  1.00  0.00     0.012 A 
ENDBRANCH   8  14
ENDBRANCH   5   7
ENDBRANCH   3   5
ENDBRANCH   2   3
ENDBRANCH   1   2
BRANCH   1  22
ATOM     22  C   UNL     1       2.479  -7.774  -3.454  1.00  0.00     0.275 C 
BRANCH  22  23
ATOM     23  O   UNL     1       3.206  -8.199  -2.287  1.00  0.00    -0.458 OA
BRANCH  23  24
ATOM     24  C   UNL     1       3.268  -7.286  -1.291  1.00  0.00     0.338 C 
ATOM     25  O   UNL     1       2.833  -6.148  -1.297  1.00  0.00    -0.246 OA
BRANCH  24  26
ATOM     26  C   UNL     1       3.840  -7.906  -0.087  1.00  0.00     0.060 A 
ATOM     27  C   UNL     1       3.015  -8.031   1.031  1.00  0.00     0.016 A 
ATOM     28  C   UNL     1       5.186  -8.271  -0.020  1.00  0.00     0.016 A 
ATOM     29  C   UNL     1       3.530  -8.497   2.235  1.00  0.00     0.010 A 
ATOM     30  C   UNL     1       5.704  -8.750   1.189  1.00  0.00     0.010 A 
ATOM     31  C   UNL     1       4.883  -8.849   2.326  1.00  0.00    -0.014 A 
BRANCH  31  32
ATOM     32  C   UNL     1       5.429  -9.272   3.636  1.00  0.00     0.031 A 
ATOM     33  C   UNL     1       6.258  -8.319   4.446  1.00  0.00     0.074 A 
ATOM     34  C   UNL     1       5.125 -10.489   4.124  1.00  0.00     0.049 A 
ATOM     35  N   UNL     1       6.839  -8.507   5.604  1.00  0.00    -0.248 NA
ATOM     36  C   UNL     1       6.456  -6.975   3.883  1.00  0.00     0.031 C 
ATOM     37  C   UNL     1       4.285 -11.478   3.451  1.00  0.00     0.029 A 
ATOM     38  N   UNL     1       5.477 -11.092   5.305  1.00  0.00    -0.354 N 
ATOM     39  C   UNL     1       7.481  -7.313   5.902  1.00  0.00     0.074 A 
ATOM     40  C   UNL     1       7.232  -6.410   4.798  1.00  0.00     0.031 C 
ATOM     41  C   UNL     1       4.171 -12.561   4.238  1.00  0.00     0.029 A 
ATOM     42  C   UNL     1       4.962 -12.355   5.449  1.00  0.00     0.049 A 
ATOM     43  H   UNL     1       6.044 -10.659   5.984  1.00  0.00     0.167 HD
ATOM     44  C   UNL     1       8.206  -7.000   7.002  1.00  0.00     0.037 A 
ATOM     45  C   UNL     1       5.121 -13.251   6.442  1.00  0.00     0.037 A 
ATOM     46  C   UNL     1       8.436  -7.892   8.107  1.00  0.00     0.049 A 
ATOM     47  C   UNL     1       5.972 -12.896   7.629  1.00  0.00     0.074 A 
ATOM     48  C   UNL     1       9.160  -7.663   9.264  1.00  0.00     0.029 A 
ATOM     49  N   UNL     1       7.940  -9.184   8.194  1.00  0.00    -0.354 N 
ATOM     50  N   UNL     1       6.598 -11.774   7.889  1.00  0.00    -0.248 NA
ATOM     51  C   UNL     1       6.146 -13.933   8.656  1.00  0.00     0.031 C 
ATOM     52  C   UNL     1       9.129  -8.828  10.038  1.00  0.00     0.029 A 
ATOM     53  C   UNL     1       8.355  -9.770   9.380  1.00  0.00     0.049 A 
ATOM     54  H   UNL     1       7.377  -9.621   7.515  1.00  0.00     0.167 HD
ATOM     55  C   UNL     1       7.231 -11.964   9.109  1.00  0.00     0.074 A 
ATOM     56  C   UNL     1       6.900 -13.304   9.548  1.00  0.00     0.031 C 
ATOM     57  C   UNL     1       8.020 -11.106   9.799  1.00  0.00     0.037 A 
BRANCH  44  58
ATOM     58  C   UNL     1       8.824  -5.636   7.060  1.00  0.00     0.064 A 
ATOM     59  C   UNL     1      10.207  -5.479   6.888  1.00  0.00     0.173 A 
ATOM     60  C   UNL     1       8.060  -4.495   7.341  1.00  0.00     0.173 A 
ATOM     61  F   UNL     1      10.981  -6.542   6.620  1.00  0.00    -0.203 F 
ATOM     62  C   UNL     1      10.805  -4.227   7.006  1.00  0.00     0.198 A 
ATOM     63  C   UNL     1       8.658  -3.242   7.439  1.00  0.00     0.198 A 
ATOM     64  F   UNL     1       6.732  -4.595   7.501  1.00  0.00    -0.203 F 
ATOM     65  F   UNL     1      12.132  -4.103   6.861  1.00  0.00    -0.200 F 
ATOM     66  C   UNL     1      10.030  -3.110   7.279  1.00  0.00     0.200 A 
ATOM     67  F   UNL     1       7.907  -2.159   7.683  1.00  0.00    -0.200 F 
ATOM     68  F   UNL     1      10.606  -1.904   7.384  1.00  0.00    -0.200 F 
ENDBRANCH  44  58
BRANCH  45  69
ATOM     69  C   UNL     1       4.457 -14.575   6.345  1.00  0.00     0.064 A 
ATOM     70  C   UNL     1       4.886 -15.536   5.418  1.00  0.00     0.173 A 
ATOM     71  C   UNL     1       3.365 -14.894   7.163  1.00  0.00     0.173 A 
ATOM     72  F   UNL     1       5.928 -15.277   4.616  1.00  0.00    -0.203 F 
ATOM     73  C   UNL     1       4.232 -16.760   5.298  1.00  0.00     0.198 A 
ATOM     74  C   UNL     1       2.727 -16.128   7.058  1.00  0.00     0.198 A 
ATOM     75  F   UNL     1       2.937 -14.016   8.081  1.00  0.00    -0.203 F 
ATOM     76  F   UNL     1       4.643 -17.650   4.385  1.00  0.00    -0.200 F 
ATOM     77  C   UNL     1       3.155 -17.056   6.120  1.00  0.00     0.200 A 
ATOM     78  F   UNL     1       1.702 -16.421   7.869  1.00  0.00    -0.200 F 
ATOM     79  F   UNL     1       2.534 -18.238   6.012  1.00  0.00    -0.200 F 
ENDBRANCH  45  69
BRANCH  57  80
ATOM     80  C   UNL     1       8.579 -11.583  11.106  1.00  0.00     0.064 A 
ATOM     81  C   UNL     1       8.084 -11.082  12.319  1.00  0.00     0.173 A 
ATOM     82  C   UNL     1       9.648 -12.489  11.153  1.00  0.00     0.173 A 
ATOM     83  F   UNL     1       7.066 -10.207  12.323  1.00  0.00    -0.203 F 
ATOM     84  C   UNL     1       8.646 -11.465  13.533  1.00  0.00     0.198 A 
ATOM     85  C   UNL     1      10.193 -12.887  12.371  1.00  0.00     0.198 A 
ATOM     86  F   UNL     1      10.146 -13.005  10.019  1.00  0.00    -0.203 F 
ATOM     87  F   UNL     1       8.173 -10.956  14.679  1.00  0.00    -0.200 F 
ATOM     88  C   UNL     1       9.697 -12.369  13.558  1.00  0.00     0.200 A 
ATOM     89  F   UNL     1      11.195 -13.776  12.396  1.00  0.00    -0.200 F 
ATOM     90  F   UNL     1      10.230 -12.745  14.729  1.00  0.00    -0.200 F 
ENDBRANCH  57  80
ENDBRANCH  31  32
ENDBRANCH  24  26
ENDBRANCH  23  24
ENDBRANCH  22  23
ENDBRANCH   1  22
TORSDOF 13
