REMARK SMILES COc1ccc(Cc2ncc(C(=O)OCCOC(=O)c3ccc(-c4c5nc(c(-c6c(F)c(F)c(F)c(F)c6F)c6ccc([nH]6)c(-c6c(F)c(F)c(F)c(F)c6F)c6nc(c(-c7c(F)c(F)c(F)c(F)c7F)c7ccc4[nH]7)C=C6)C=C5)cc3)c(C)n2)cn1
REMARK SMILES IDX 15 1 14 2 12 3 13 4 11 5 8 6 9 7 85 8 10 9 83 10 84 11 7 12
REMARK SMILES IDX 6 13 3 14 4 15 87 16 5 17 86 18 2 19 1 20 16 21 17 22 18 23
REMARK SMILES IDX 19 24 20 25 21 26 82 27 22 28 81 29 23 30 24 31 25 32 75 33
REMARK SMILES IDX 26 34 80 35 74 36 76 37 27 38 79 39 73 40 72 41 28 43 60 44
REMARK SMILES IDX 40 45 59 46 41 47 44 48 58 49 77 50 42 51 43 52 57 54 78 55
REMARK SMILES IDX 45 56 29 57 30 58 38 59 31 60 32 61 36 62 39 63 33 64 34 65
REMARK SMILES IDX 37 66 35 67 61 68 62 69 70 70 63 71 64 72 68 73 71 74 65 75
REMARK SMILES IDX 66 76 69 77 67 78 46 79 47 80 55 81 48 82 49 83 53 84 56 85
REMARK SMILES IDX 50 86 51 87 54 88 52 89
REMARK H PARENT 76 42 44 53
REMARK Flexibility Score: inf
ROOT
ATOM      1  C   UNL     1       1.697   9.687  -7.215  1.00  0.00     0.275 C 
ENDROOT
BRANCH   1   2
ATOM      2  O   UNL     1       2.030   9.084  -5.946  1.00  0.00    -0.458 OA
BRANCH   2   3
ATOM      3  C   UNL     1       1.365   9.538  -4.857  1.00  0.00     0.341 C 
ATOM      4  O   UNL     1       0.488  10.382  -4.850  1.00  0.00    -0.246 OA
BRANCH   3   5
ATOM      5  C   UNL     1       1.714   8.763  -3.652  1.00  0.00     0.099 A 
ATOM      6  C   UNL     1       2.036   7.262  -1.397  1.00  0.00     0.133 A 
ATOM      7  N   UNL     1       0.815   7.771  -1.634  1.00  0.00    -0.240 NA
ATOM      8  N   UNL     1       3.116   7.502  -2.172  1.00  0.00    -0.237 NA
ATOM      9  C   UNL     1       0.695   8.522  -2.749  1.00  0.00     0.130 A 
ATOM     10  C   UNL     1       2.951   8.255  -3.297  1.00  0.00     0.056 A 
ATOM     11  C   UNL     1       4.232   8.622  -3.986  1.00  0.00     0.068 C 
BRANCH   6  12
ATOM     12  C   UNL     1       2.205   6.396  -0.171  1.00  0.00     0.114 C 
BRANCH  12  13
ATOM     13  C   UNL     1       1.847   4.947  -0.381  1.00  0.00    -0.022 A 
ATOM     14  C   UNL     1       1.107   2.328  -0.761  1.00  0.00     0.212 A 
ATOM     15  C   UNL     1       2.445   2.613  -0.533  1.00  0.00     0.069 A 
ATOM     16  N   UNL     1       0.147   3.270  -0.820  1.00  0.00    -0.222 NA
ATOM     17  C   UNL     1       2.816   3.942  -0.334  1.00  0.00     0.011 A 
ATOM     18  C   UNL     1       0.534   4.552  -0.627  1.00  0.00     0.119 A 
BRANCH  14  19
ATOM     19  O   UNL     1       0.686   1.054  -1.036  1.00  0.00    -0.481 OA
ATOM     20  C   UNL     1       0.935   0.172   0.053  1.00  0.00     0.280 C 
ENDBRANCH  14  19
ENDBRANCH  12  13
ENDBRANCH   6  12
ENDBRANCH   3   5
ENDBRANCH   2   3
ENDBRANCH   1   2
BRANCH   1  21
ATOM     21  C   UNL     1       1.138   8.642  -8.183  1.00  0.00     0.275 C 
BRANCH  21  22
ATOM     22  O   UNL     1      -0.150   8.180  -7.732  1.00  0.00    -0.458 OA
BRANCH  22  23
ATOM     23  C   UNL     1      -0.139   6.984  -7.102  1.00  0.00     0.338 C 
ATOM     24  O   UNL     1       0.813   6.246  -6.917  1.00  0.00    -0.246 OA
BRANCH  23  25
ATOM     25  C   UNL     1      -1.465   6.728  -6.527  1.00  0.00     0.060 A 
ATOM     26  C   UNL     1      -1.680   7.118  -5.207  1.00  0.00     0.016 A 
ATOM     27  C   UNL     1      -2.431   5.995  -7.213  1.00  0.00     0.016 A 
ATOM     28  C   UNL     1      -2.838   6.731  -4.540  1.00  0.00     0.010 A 
ATOM     29  C   UNL     1      -3.621   5.652  -6.558  1.00  0.00     0.010 A 
ATOM     30  C   UNL     1      -3.824   5.991  -5.206  1.00  0.00    -0.014 A 
BRANCH  30  31
ATOM     31  C   UNL     1      -5.026   5.516  -4.465  1.00  0.00     0.031 A 
ATOM     32  C   UNL     1      -5.263   4.040  -4.282  1.00  0.00     0.074 A 
ATOM     33  C   UNL     1      -5.888   6.397  -3.921  1.00  0.00     0.049 A 
ATOM     34  N   UNL     1      -6.318   3.419  -3.813  1.00  0.00    -0.248 NA
ATOM     35  C   UNL     1      -4.173   3.143  -4.693  1.00  0.00     0.031 C 
ATOM     36  C   UNL     1      -5.753   7.853  -3.966  1.00  0.00     0.029 A 
ATOM     37  N   UNL     1      -7.048   6.194  -3.212  1.00  0.00    -0.354 N 
ATOM     38  C   UNL     1      -6.036   2.063  -3.919  1.00  0.00     0.074 A 
ATOM     39  C   UNL     1      -4.717   1.950  -4.503  1.00  0.00     0.031 C 
ATOM     40  C   UNL     1      -6.769   8.410  -3.288  1.00  0.00     0.029 A 
ATOM     41  C   UNL     1      -7.668   7.357  -2.827  1.00  0.00     0.049 A 
ATOM     42  H   UNL     1      -7.401   5.300  -3.001  1.00  0.00     0.167 HD
ATOM     43  C   UNL     1      -6.809   1.009  -3.559  1.00  0.00     0.037 A 
ATOM     44  C   UNL     1      -8.846   7.557  -2.204  1.00  0.00     0.037 A 
ATOM     45  C   UNL     1      -8.095   1.123  -2.920  1.00  0.00     0.049 A 
ATOM     46  C   UNL     1      -9.697   6.372  -1.838  1.00  0.00     0.074 A 
ATOM     47  C   UNL     1      -8.953   0.114  -2.518  1.00  0.00     0.029 A 
ATOM     48  N   UNL     1      -8.696   2.321  -2.567  1.00  0.00    -0.354 N 
ATOM     49  N   UNL     1      -9.454   5.095  -2.006  1.00  0.00    -0.248 NA
ATOM     50  C   UNL     1     -10.995   6.658  -1.209  1.00  0.00     0.031 C 
ATOM     51  C   UNL     1     -10.087   0.703  -1.948  1.00  0.00     0.029 A 
ATOM     52  C   UNL     1      -9.917   2.077  -1.958  1.00  0.00     0.049 A 
ATOM     53  H   UNL     1      -8.313   3.214  -2.726  1.00  0.00     0.167 HD
ATOM     54  C   UNL     1     -10.556   4.426  -1.492  1.00  0.00     0.074 A 
ATOM     55  C   UNL     1     -11.461   5.438  -0.987  1.00  0.00     0.031 C 
ATOM     56  C   UNL     1     -10.800   3.094  -1.449  1.00  0.00     0.037 A 
BRANCH  43  57
ATOM     57  C   UNL     1      -6.299  -0.367  -3.878  1.00  0.00     0.064 A 
ATOM     58  C   UNL     1      -5.242  -0.952  -3.166  1.00  0.00     0.173 A 
ATOM     59  C   UNL     1      -6.909  -1.126  -4.890  1.00  0.00     0.173 A 
ATOM     60  F   UNL     1      -4.622  -0.267  -2.194  1.00  0.00    -0.203 F 
ATOM     61  C   UNL     1      -4.796  -2.236  -3.474  1.00  0.00     0.198 A 
ATOM     62  C   UNL     1      -6.479  -2.419  -5.175  1.00  0.00     0.198 A 
ATOM     63  F   UNL     1      -7.931  -0.618  -5.594  1.00  0.00    -0.203 F 
ATOM     64  F   UNL     1      -3.758  -2.761  -2.809  1.00  0.00    -0.200 F 
ATOM     65  C   UNL     1      -5.419  -2.970  -4.472  1.00  0.00     0.200 A 
ATOM     66  F   UNL     1      -7.094  -3.133  -6.129  1.00  0.00    -0.200 F 
ATOM     67  F   UNL     1      -4.995  -4.209  -4.760  1.00  0.00    -0.200 F 
ENDBRANCH  43  57
BRANCH  44  68
ATOM     68  C   UNL     1      -9.307   8.941  -1.915  1.00  0.00     0.064 A 
ATOM     69  C   UNL     1      -9.404   9.410  -0.598  1.00  0.00     0.173 A 
ATOM     70  C   UNL     1      -9.670   9.818  -2.949  1.00  0.00     0.173 A 
ATOM     71  F   UNL     1      -9.098   8.600   0.426  1.00  0.00    -0.203 F 
ATOM     72  C   UNL     1      -9.857  10.700  -0.326  1.00  0.00     0.198 A 
ATOM     73  C   UNL     1     -10.093  11.117  -2.676  1.00  0.00     0.198 A 
ATOM     74  F   UNL     1      -9.601   9.416  -4.226  1.00  0.00    -0.203 F 
ATOM     75  F   UNL     1      -9.984  11.108   0.944  1.00  0.00    -0.200 F 
ATOM     76  C   UNL     1     -10.193  11.554  -1.365  1.00  0.00     0.200 A 
ATOM     77  F   UNL     1     -10.404  11.943  -3.684  1.00  0.00    -0.200 F 
ATOM     78  F   UNL     1     -10.623  12.796  -1.102  1.00  0.00    -0.200 F 
ENDBRANCH  44  68
BRANCH  56  79
ATOM     79  C   UNL     1     -12.078   2.653  -0.800  1.00  0.00     0.064 A 
ATOM     80  C   UNL     1     -13.319   2.822  -1.431  1.00  0.00     0.173 A 
ATOM     81  C   UNL     1     -12.057   2.029   0.457  1.00  0.00     0.173 A 
ATOM     82  F   UNL     1     -13.392   3.428  -2.625  1.00  0.00    -0.203 F 
ATOM     83  C   UNL     1     -14.496   2.405  -0.815  1.00  0.00     0.198 A 
ATOM     84  C   UNL     1     -13.234   1.590   1.057  1.00  0.00     0.198 A 
ATOM     85  F   UNL     1     -10.895   1.840   1.099  1.00  0.00    -0.203 F 
ATOM     86  F   UNL     1     -15.676   2.618  -1.415  1.00  0.00    -0.200 F 
ATOM     87  C   UNL     1     -14.452   1.785   0.425  1.00  0.00     0.200 A 
ATOM     88  F   UNL     1     -13.189   0.983   2.251  1.00  0.00    -0.200 F 
ATOM     89  F   UNL     1     -15.586   1.383   1.015  1.00  0.00    -0.200 F 
ENDBRANCH  56  79
ENDBRANCH  30  31
ENDBRANCH  23  25
ENDBRANCH  22  23
ENDBRANCH  21  22
ENDBRANCH   1  21
TORSDOF 14
