REMARK SMILES O=C(C[C@@H](C(=O)OCCOC(=O)c1ccc(-c2c3nc(c(-c4c(F)c(F)c(F)c(F)c4F)c4ccc([nH]4)c(-c4c(F)c(F)c(F)c(F)c4F)c4nc(c(-c5c(F)c(F)c(F)c(F)c5F)c5ccc2[nH]5)C=C4)C=C3)cc1)c1ccccc1)Nc1cc(C(F)(F)F)ccc1-n1cncn1
REMARK SMILES IDX 8 1 7 2 5 3 6 4 4 5 3 6 2 7 1 8 82 9 83 11 84 12 92 13 85 14
REMARK SMILES IDX 91 15 90 16 93 17 94 18 97 19 95 20 96 21 86 22 87 23 88 24
REMARK SMILES IDX 89 25 76 26 77 27 81 28 78 29 80 30 79 31 9 32 10 33 11 34
REMARK SMILES IDX 12 35 13 36 14 37 75 38 15 39 74 40 16 41 17 42 18 43 68 44
REMARK SMILES IDX 19 45 73 46 67 47 69 48 20 49 72 50 66 51 65 52 21 54 53 55
REMARK SMILES IDX 33 56 52 57 34 58 37 59 51 60 70 61 35 62 36 63 50 65 71 66
REMARK SMILES IDX 38 67 22 68 23 69 31 70 24 71 25 72 29 73 32 74 26 75 27 76
REMARK SMILES IDX 30 77 28 78 54 79 55 80 63 81 56 82 57 83 61 84 64 85 58 86
REMARK SMILES IDX 59 87 62 88 60 89 39 90 40 91 48 92 41 93 42 94 46 95 49 96
REMARK SMILES IDX 43 97 44 98 47 99 45 100
REMARK H PARENT 82 10 69 53 37 64
REMARK Flexibility Score: inf
ROOT
ATOM      1  C   UNL     1       5.962   2.139  -0.133  1.00  0.00     0.274 C 
ENDROOT
BRANCH   1   2
ATOM      2  O   UNL     1       4.928   1.193  -0.504  1.00  0.00    -0.462 OA
BRANCH   2   3
ATOM      3  C   UNL     1       4.604   1.122  -1.828  1.00  0.00     0.314 C 
ATOM      4  O   UNL     1       5.152   1.810  -2.682  1.00  0.00    -0.252 OA
BRANCH   3   5
ATOM      5  C   UNL     1       3.490   0.091  -2.135  1.00  0.00     0.138 C 
BRANCH   5   6
ATOM      6  C   UNL     1       2.827  -0.479  -0.871  1.00  0.00     0.120 C 
BRANCH   6   7
ATOM      7  C   UNL     1       2.029   0.544  -0.099  1.00  0.00     0.225 C 
ATOM      8  O   UNL     1       0.902   0.877  -0.446  1.00  0.00    -0.275 OA
ATOM      9  N   UNL     1       2.689   1.036   1.014  1.00  0.00    -0.324 N 
ATOM     10  H   UNL     1       3.636   0.798   1.140  1.00  0.00     0.170 HD
BRANCH   9  11
ATOM     11  C   UNL     1       2.071   1.860   1.973  1.00  0.00     0.067 A 
ATOM     12  C   UNL     1       2.735   3.057   2.271  1.00  0.00     0.041 A 
ATOM     13  C   UNL     1       0.821   1.598   2.562  1.00  0.00     0.090 A 
ATOM     14  C   UNL     1       2.134   4.042   3.072  1.00  0.00     0.058 A 
ATOM     15  C   UNL     1       0.207   2.590   3.346  1.00  0.00     0.031 A 
ATOM     16  C   UNL     1       0.859   3.801   3.596  1.00  0.00     0.015 A 
BRANCH  13  17
ATOM     17  N   UNL     1       0.196   0.324   2.496  1.00  0.00    -0.219 N 
ATOM     18  C   UNL     1       0.776  -0.913   2.321  1.00  0.00     0.226 A 
ATOM     19  N   UNL     1      -1.129   0.149   2.744  1.00  0.00    -0.155 NA
ATOM     20  N   UNL     1      -0.137  -1.856   2.290  1.00  0.00    -0.223 NA
ATOM     21  C   UNL     1      -1.282  -1.158   2.523  1.00  0.00     0.246 A 
ENDBRANCH  13  17
BRANCH  14  22
ATOM     22  C   UNL     1       2.838   5.359   3.291  1.00  0.00     0.416 C 
ATOM     23  F   UNL     1       4.163   5.197   3.567  1.00  0.00    -0.166 F 
ATOM     24  F   UNL     1       2.787   6.159   2.191  1.00  0.00    -0.166 F 
ATOM     25  F   UNL     1       2.327   6.091   4.317  1.00  0.00    -0.166 F 
ENDBRANCH  14  22
ENDBRANCH   9  11
ENDBRANCH   6   7
ENDBRANCH   5   6
BRANCH   5  26
ATOM     26  C   UNL     1       3.978  -1.017  -3.093  1.00  0.00    -0.033 A 
ATOM     27  C   UNL     1       3.916  -2.389  -2.775  1.00  0.00     0.004 A 
ATOM     28  C   UNL     1       4.510  -0.673  -4.349  1.00  0.00     0.004 A 
ATOM     29  C   UNL     1       4.376  -3.368  -3.663  1.00  0.00     0.000 A 
ATOM     30  C   UNL     1       4.986  -1.652  -5.230  1.00  0.00     0.000 A 
ATOM     31  C   UNL     1       4.917  -2.999  -4.889  1.00  0.00     0.000 A 
ENDBRANCH   5  26
ENDBRANCH   3   5
ENDBRANCH   2   3
ENDBRANCH   1   2
BRANCH   1  32
ATOM     32  C   UNL     1       6.687   1.640   1.124  1.00  0.00     0.275 C 
BRANCH  32  33
ATOM     33  O   UNL     1       7.535   0.531   0.774  1.00  0.00    -0.458 OA
BRANCH  33  34
ATOM     34  C   UNL     1       6.932  -0.679   0.783  1.00  0.00     0.338 C 
ATOM     35  O   UNL     1       5.838  -0.959   1.255  1.00  0.00    -0.246 OA
BRANCH  34  36
ATOM     36  C   UNL     1       7.656  -1.525  -0.173  1.00  0.00     0.060 A 
ATOM     37  C   UNL     1       7.103  -1.619  -1.446  1.00  0.00     0.016 A 
ATOM     38  C   UNL     1       8.845  -2.184   0.129  1.00  0.00     0.016 A 
ATOM     39  C   UNL     1       7.713  -2.386  -2.425  1.00  0.00     0.010 A 
ATOM     40  C   UNL     1       9.479  -2.938  -0.872  1.00  0.00     0.010 A 
ATOM     41  C   UNL     1       8.916  -3.043  -2.158  1.00  0.00    -0.014 A 
BRANCH  41  42
ATOM     42  C   UNL     1       9.547  -3.845  -3.236  1.00  0.00     0.031 A 
ATOM     43  C   UNL     1       9.614  -5.338  -3.120  1.00  0.00     0.074 A 
ATOM     44  C   UNL     1       9.993  -3.245  -4.357  1.00  0.00     0.049 A 
ATOM     45  N   UNL     1      10.246  -6.200  -3.874  1.00  0.00    -0.248 NA
ATOM     46  C   UNL     1       8.859  -5.941  -2.013  1.00  0.00     0.031 C 
ATOM     47  C   UNL     1       9.885  -1.815  -4.649  1.00  0.00     0.029 A 
ATOM     48  N   UNL     1      10.616  -3.765  -5.465  1.00  0.00    -0.354 N 
ATOM     49  C   UNL     1      10.000  -7.444  -3.311  1.00  0.00     0.074 A 
ATOM     50  C   UNL     1       9.155  -7.225  -2.155  1.00  0.00     0.031 C 
ATOM     51  C   UNL     1      10.412  -1.574  -5.859  1.00  0.00     0.029 A 
ATOM     52  C   UNL     1      10.973  -2.814  -6.388  1.00  0.00     0.049 A 
ATOM     53  H   UNL     1      10.791  -4.727  -5.585  1.00  0.00     0.167 HD
ATOM     54  C   UNL     1      10.450  -8.655  -3.719  1.00  0.00     0.037 A 
ATOM     55  C   UNL     1      11.720  -2.914  -7.505  1.00  0.00     0.037 A 
ATOM     56  C   UNL     1      11.270  -8.866  -4.884  1.00  0.00     0.049 A 
ATOM     57  C   UNL     1      12.296  -4.249  -7.884  1.00  0.00     0.074 A 
ATOM     58  C   UNL     1      11.788 -10.052  -5.374  1.00  0.00     0.029 A 
ATOM     59  N   UNL     1      11.688  -7.862  -5.746  1.00  0.00    -0.354 N 
ATOM     60  N   UNL     1      12.133  -5.413  -7.302  1.00  0.00    -0.248 NA
ATOM     61  C   UNL     1      13.183  -4.281  -9.054  1.00  0.00     0.031 C 
ATOM     62  C   UNL     1      12.558  -9.760  -6.506  1.00  0.00     0.029 A 
ATOM     63  C   UNL     1      12.484  -8.397  -6.747  1.00  0.00     0.049 A 
ATOM     64  H   UNL     1      11.454  -6.910  -5.659  1.00  0.00     0.167 HD
ATOM     65  C   UNL     1      12.903  -6.312  -8.026  1.00  0.00     0.074 A 
ATOM     66  C   UNL     1      13.508  -5.566  -9.110  1.00  0.00     0.031 C 
ATOM     67  C   UNL     1      13.098  -7.636  -7.805  1.00  0.00     0.037 A 
BRANCH  54  68
ATOM     68  C   UNL     1      10.117  -9.834  -2.855  1.00  0.00     0.064 A 
ATOM     69  C   UNL     1       8.827 -10.380  -2.802  1.00  0.00     0.173 A 
ATOM     70  C   UNL     1      11.115 -10.425  -2.064  1.00  0.00     0.173 A 
ATOM     71  F   UNL     1       7.835  -9.838  -3.524  1.00  0.00    -0.203 F 
ATOM     72  C   UNL     1       8.541 -11.455  -1.964  1.00  0.00     0.198 A 
ATOM     73  C   UNL     1      10.831 -11.516  -1.248  1.00  0.00     0.198 A 
ATOM     74  F   UNL     1      12.366  -9.940  -2.080  1.00  0.00    -0.203 F 
ATOM     75  F   UNL     1       7.289 -11.928  -1.887  1.00  0.00    -0.200 F 
ATOM     76  C   UNL     1       9.543 -12.024  -1.192  1.00  0.00     0.200 A 
ATOM     77  F   UNL     1      11.803 -12.068  -0.508  1.00  0.00    -0.200 F 
ATOM     78  F   UNL     1       9.264 -13.056  -0.382  1.00  0.00    -0.200 F 
ENDBRANCH  54  68
BRANCH  55  79
ATOM     79  C   UNL     1      12.032  -1.690  -8.288  1.00  0.00     0.064 A 
ATOM     80  C   UNL     1      11.512  -1.493  -9.572  1.00  0.00     0.173 A 
ATOM     81  C   UNL     1      12.847  -0.680  -7.751  1.00  0.00     0.173 A 
ATOM     82  F   UNL     1      10.754  -2.443 -10.141  1.00  0.00    -0.203 F 
ATOM     83  C   UNL     1      11.790  -0.331 -10.289  1.00  0.00     0.198 A 
ATOM     84  C   UNL     1      13.099   0.494  -8.455  1.00  0.00     0.198 A 
ATOM     85  F   UNL     1      13.377  -0.824  -6.527  1.00  0.00    -0.203 F 
ATOM     86  F   UNL     1      11.305  -0.178 -11.529  1.00  0.00    -0.200 F 
ATOM     87  C   UNL     1      12.574   0.666  -9.726  1.00  0.00     0.200 A 
ATOM     88  F   UNL     1      13.845   1.459  -7.899  1.00  0.00    -0.200 F 
ATOM     89  F   UNL     1      12.826   1.791 -10.409  1.00  0.00    -0.200 F 
ENDBRANCH  55  79
BRANCH  67  90
ATOM     90  C   UNL     1      14.018  -8.357  -8.745  1.00  0.00     0.064 A 
ATOM     91  C   UNL     1      15.408  -8.183  -8.679  1.00  0.00     0.173 A 
ATOM     92  C   UNL     1      13.511  -9.261  -9.690  1.00  0.00     0.173 A 
ATOM     93  F   UNL     1      15.938  -7.315  -7.804  1.00  0.00    -0.203 F 
ATOM     94  C   UNL     1      16.257  -8.877  -9.537  1.00  0.00     0.198 A 
ATOM     95  C   UNL     1      14.365  -9.972 -10.529  1.00  0.00     0.198 A 
ATOM     96  F   UNL     1      12.189  -9.465  -9.790  1.00  0.00    -0.203 F 
ATOM     97  F   UNL     1      17.580  -8.668  -9.481  1.00  0.00    -0.200 F 
ATOM     98  C   UNL     1      15.736  -9.776 -10.455  1.00  0.00     0.200 A 
ATOM     99  F   UNL     1      13.861 -10.848 -11.409  1.00  0.00    -0.200 F 
ATOM    100  F   UNL     1      16.555 -10.450 -11.274  1.00  0.00    -0.200 F 
ENDBRANCH  67  90
ENDBRANCH  41  42
ENDBRANCH  34  36
ENDBRANCH  33  34
ENDBRANCH  32  33
ENDBRANCH   1  32
TORSDOF 17
