REMARK SMILES CC(C)[C@H](C)CNC(=O)N1CC(n2cc(C(=O)OCCOC(=O)c3ccc(-c4c5nc(c(-c6c(F)c(F)c(F)c(F)c6F)c6ccc([nH]6)c(-c6c(F)c(F)c(F)c(F)c6F)c6nc(c(-c7c(F)c(F)c(F)c(F)c7F)c7ccc4[nH]7)C=C6)C=C5)cc3)nn2)C1
REMARK SMILES IDX 19 1 18 2 16 3 17 4 15 5 13 6 14 7 88 8 87 9 12 10 7 11 8 12
REMARK SMILES IDX 9 14 10 15 11 16 89 17 6 18 4 19 5 20 2 21 1 22 3 23 20 24
REMARK SMILES IDX 21 25 22 26 23 27 24 28 25 29 86 30 26 31 85 32 27 33 28 34
REMARK SMILES IDX 29 35 79 36 30 37 84 38 78 39 80 40 31 41 83 42 77 43 76 44
REMARK SMILES IDX 32 46 64 47 44 48 63 49 45 50 48 51 62 52 81 53 46 54 47 55
REMARK SMILES IDX 61 57 82 58 49 59 33 60 34 61 42 62 35 63 36 64 40 65 43 66
REMARK SMILES IDX 37 67 38 68 41 69 39 70 65 71 66 72 74 73 67 74 68 75 72 76
REMARK SMILES IDX 75 77 69 78 70 79 73 80 71 81 50 82 51 83 59 84 52 85 53 86
REMARK SMILES IDX 57 87 60 88 54 89 55 90 58 91 56 92
REMARK H PARENT 7 13 80 45 48 56
REMARK Flexibility Score: inf
ROOT
ATOM      1  C   UNL     1     -10.826  -5.364   2.056  1.00  0.00     0.275 C 
ENDROOT
BRANCH   1   2
ATOM      2  O   UNL     1      -9.635  -4.662   2.442  1.00  0.00    -0.457 OA
BRANCH   2   3
ATOM      3  C   UNL     1      -9.645  -3.311   2.188  1.00  0.00     0.360 C 
ATOM      4  O   UNL     1     -10.494  -2.748   1.523  1.00  0.00    -0.244 OA
BRANCH   3   5
ATOM      5  C   UNL     1      -8.536  -2.624   2.835  1.00  0.00     0.190 A 
ATOM      6  N   UNL     1      -6.722  -2.076   3.880  1.00  0.00    -0.245 N 
ATOM      7  C   UNL     1      -7.484  -3.160   3.552  1.00  0.00     0.147 A 
ATOM      8  N   UNL     1      -7.277  -0.937   3.440  1.00  0.00    -0.066 NA
ATOM      9  N   UNL     1      -8.399  -1.256   2.808  1.00  0.00    -0.123 NA
BRANCH   6  10
ATOM     10  C   UNL     1      -5.429  -2.170   4.480  1.00  0.00     0.148 C 
ATOM     11  N   UNL     1      -1.332  -1.998   3.505  1.00  0.00    -0.338 N 
ATOM     12  C   UNL     1      -2.240  -1.402   4.318  1.00  0.00     0.317 C 
ATOM     13  H   UNL     1      -0.467  -2.196   3.930  1.00  0.00     0.165 HD
ATOM     14  O   UNL     1      -1.830  -0.819   5.321  1.00  0.00    -0.249 OA
ATOM     15  N   UNL     1      -3.557  -1.468   4.013  1.00  0.00    -0.320 N 
ATOM     16  C   UNL     1      -4.683  -0.851   4.712  1.00  0.00     0.150 C 
ATOM     17  C   UNL     1      -4.371  -2.503   3.409  1.00  0.00     0.150 C 
BRANCH  11  18
ATOM     18  C   UNL     1      -1.427  -2.396   2.103  1.00  0.00     0.121 C 
BRANCH  18  19
ATOM     19  C   UNL     1      -1.041  -1.239   1.153  1.00  0.00     0.008 C 
ATOM     20  C   UNL     1       0.459  -0.912   1.268  1.00  0.00     0.010 C 
BRANCH  19  21
ATOM     21  C   UNL     1      -1.467  -1.461  -0.332  1.00  0.00    -0.013 C 
ATOM     22  C   UNL     1      -0.660  -2.533  -1.074  1.00  0.00     0.008 C 
ATOM     23  C   UNL     1      -2.962  -1.775  -0.472  1.00  0.00     0.008 C 
ENDBRANCH  19  21
ENDBRANCH  18  19
ENDBRANCH  11  18
ENDBRANCH   6  10
ENDBRANCH   3   5
ENDBRANCH   2   3
ENDBRANCH   1   2
BRANCH   1  24
ATOM     24  C   UNL     1     -11.849  -5.365   3.183  1.00  0.00     0.275 C 
BRANCH  24  25
ATOM     25  O   UNL     1     -12.425  -4.074   3.390  1.00  0.00    -0.458 OA
BRANCH  25  26
ATOM     26  C   UNL     1     -11.870  -3.354   4.392  1.00  0.00     0.338 C 
ATOM     27  O   UNL     1     -10.735  -3.456   4.828  1.00  0.00    -0.246 OA
BRANCH  26  28
ATOM     28  C   UNL     1     -12.928  -2.606   5.084  1.00  0.00     0.060 A 
ATOM     29  C   UNL     1     -12.549  -1.707   6.084  1.00  0.00     0.016 A 
ATOM     30  C   UNL     1     -14.266  -2.992   4.915  1.00  0.00     0.016 A 
ATOM     31  C   UNL     1     -13.502  -1.289   6.996  1.00  0.00     0.010 A 
ATOM     32  C   UNL     1     -15.209  -2.595   5.837  1.00  0.00     0.010 A 
ATOM     33  C   UNL     1     -14.809  -1.788   6.898  1.00  0.00    -0.014 A 
BRANCH  33  34
ATOM     34  C   UNL     1     -15.823  -1.253   7.791  1.00  0.00     0.031 A 
ATOM     35  C   UNL     1     -16.123   0.164   7.470  1.00  0.00     0.074 A 
ATOM     36  C   UNL     1     -16.497  -1.997   8.692  1.00  0.00     0.049 A 
ATOM     37  N   UNL     1     -15.858   1.196   8.197  1.00  0.00    -0.248 NA
ATOM     38  C   UNL     1     -16.576   0.497   6.107  1.00  0.00     0.031 C 
ATOM     39  C   UNL     1     -16.432  -3.450   8.869  1.00  0.00     0.029 A 
ATOM     40  N   UNL     1     -17.461  -1.627   9.586  1.00  0.00    -0.354 N 
ATOM     41  C   UNL     1     -16.331   2.289   7.478  1.00  0.00     0.074 A 
ATOM     42  C   UNL     1     -16.553   1.830   6.136  1.00  0.00     0.031 C 
ATOM     43  C   UNL     1     -17.470  -3.857   9.636  1.00  0.00     0.029 A 
ATOM     44  C   UNL     1     -18.197  -2.690  10.107  1.00  0.00     0.049 A 
ATOM     45  H   UNL     1     -17.623  -0.689   9.841  1.00  0.00     0.167 HD
ATOM     46  C   UNL     1     -16.833   3.360   8.149  1.00  0.00     0.037 A 
ATOM     47  C   UNL     1     -19.347  -2.605  10.825  1.00  0.00     0.037 A 
ATOM     48  C   UNL     1     -16.372   3.345   9.517  1.00  0.00     0.049 A 
ATOM     49  C   UNL     1     -19.410  -1.235  11.381  1.00  0.00     0.074 A 
ATOM     50  C   UNL     1     -15.166   3.477  10.171  1.00  0.00     0.029 A 
ATOM     51  N   UNL     1     -17.232   2.722  10.380  1.00  0.00    -0.354 N 
ATOM     52  N   UNL     1     -18.610  -0.795  12.311  1.00  0.00    -0.248 NA
ATOM     53  C   UNL     1     -20.128  -0.210  10.636  1.00  0.00     0.031 C 
ATOM     54  C   UNL     1     -15.276   2.682  11.353  1.00  0.00     0.029 A 
ATOM     55  C   UNL     1     -16.561   2.144  11.416  1.00  0.00     0.049 A 
ATOM     56  H   UNL     1     -18.210   2.694  10.267  1.00  0.00     0.167 HD
ATOM     57  C   UNL     1     -18.374   0.521  11.961  1.00  0.00     0.074 A 
ATOM     58  C   UNL     1     -19.457   0.869  11.046  1.00  0.00     0.031 C 
ATOM     59  C   UNL     1     -17.149   1.078  12.195  1.00  0.00     0.037 A 
BRANCH  46  60
ATOM     60  C   UNL     1     -18.155   4.028   7.784  1.00  0.00     0.064 A 
ATOM     61  C   UNL     1     -18.607   5.092   8.594  1.00  0.00     0.173 A 
ATOM     62  C   UNL     1     -19.137   3.461   6.940  1.00  0.00     0.173 A 
ATOM     63  F   UNL     1     -17.773   5.699   9.452  1.00  0.00    -0.203 F 
ATOM     64  C   UNL     1     -19.951   5.482   8.628  1.00  0.00     0.198 A 
ATOM     65  C   UNL     1     -20.465   3.884   6.942  1.00  0.00     0.198 A 
ATOM     66  F   UNL     1     -18.901   2.402   6.160  1.00  0.00    -0.203 F 
ATOM     67  F   UNL     1     -20.355   6.399   9.516  1.00  0.00    -0.200 F 
ATOM     68  C   UNL     1     -20.880   4.870   7.809  1.00  0.00     0.200 A 
ATOM     69  F   UNL     1     -21.355   3.258   6.159  1.00  0.00    -0.200 F 
ATOM     70  F   UNL     1     -22.178   5.190   7.888  1.00  0.00    -0.200 F 
ENDBRANCH  46  60
BRANCH  47  71
ATOM     71  C   UNL     1     -20.528  -3.508  10.856  1.00  0.00     0.064 A 
ATOM     72  C   UNL     1     -21.532  -3.361  11.833  1.00  0.00     0.173 A 
ATOM     73  C   UNL     1     -20.852  -4.326   9.757  1.00  0.00     0.173 A 
ATOM     74  F   UNL     1     -21.329  -2.569  12.897  1.00  0.00    -0.203 F 
ATOM     75  C   UNL     1     -22.792  -3.955  11.694  1.00  0.00     0.198 A 
ATOM     76  C   UNL     1     -22.108  -4.923   9.623  1.00  0.00     0.198 A 
ATOM     77  F   UNL     1     -19.993  -4.481   8.740  1.00  0.00    -0.203 F 
ATOM     78  F   UNL     1     -23.746  -3.726  12.609  1.00  0.00    -0.200 F 
ATOM     79  C   UNL     1     -23.084  -4.724  10.581  1.00  0.00     0.200 A 
ATOM     80  F   UNL     1     -22.388  -5.636   8.523  1.00  0.00    -0.200 F 
ATOM     81  F   UNL     1     -24.311  -5.234  10.410  1.00  0.00    -0.200 F 
ENDBRANCH  47  71
BRANCH  59  82
ATOM     82  C   UNL     1     -16.291   0.436  13.242  1.00  0.00     0.064 A 
ATOM     83  C   UNL     1     -15.757  -0.861  13.163  1.00  0.00     0.173 A 
ATOM     84  C   UNL     1     -15.925   1.222  14.344  1.00  0.00     0.173 A 
ATOM     85  F   UNL     1     -15.992  -1.644  12.101  1.00  0.00    -0.203 F 
ATOM     86  C   UNL     1     -14.928  -1.357  14.169  1.00  0.00     0.198 A 
ATOM     87  C   UNL     1     -15.065   0.740  15.322  1.00  0.00     0.198 A 
ATOM     88  F   UNL     1     -16.375   2.483  14.447  1.00  0.00    -0.203 F 
ATOM     89  F   UNL     1     -14.447  -2.607  14.088  1.00  0.00    -0.200 F 
ATOM     90  C   UNL     1     -14.577  -0.553  15.242  1.00  0.00     0.200 A 
ATOM     91  F   UNL     1     -14.694   1.538  16.333  1.00  0.00    -0.200 F 
ATOM     92  F   UNL     1     -13.751  -1.017  16.190  1.00  0.00    -0.200 F 
ENDBRANCH  59  82
ENDBRANCH  33  34
ENDBRANCH  26  28
ENDBRANCH  25  26
ENDBRANCH  24  25
ENDBRANCH   1  24
TORSDOF 15
