REMARK SMILES C[C@@H]1[C@H](C(=O)OCCOC(=O)c2ccc(-c3c4nc(c(-c5c(F)c(F)c(F)c(F)c5F)c5ccc([nH]5)c(-c5c(F)c(F)c(F)c(F)c5F)c5nc(c(-c6c(F)c(F)c(F)c(F)c6F)c6ccc3[nH]6)C=C5)C=C4)cc2)CC[N@@H+]1Cc1ccc2c(c1)CCN2C
REMARK SMILES IDX 7 1 6 2 4 3 5 4 3 5 1 6 2 7 77 8 75 9 76 10 78 12 79 13
REMARK SMILES IDX 80 14 84 15 81 16 83 17 82 18 85 19 87 20 86 21 88 22 8 23
REMARK SMILES IDX 9 24 10 25 11 26 12 27 13 28 74 29 14 30 73 31 15 32 16 33
REMARK SMILES IDX 17 34 67 35 18 36 72 37 66 38 68 39 19 40 71 41 65 42 64 43
REMARK SMILES IDX 20 45 52 46 32 47 51 48 33 49 36 50 50 51 69 52 34 53 35 54
REMARK SMILES IDX 49 56 70 57 37 58 21 59 22 60 30 61 23 62 24 63 28 64 31 65
REMARK SMILES IDX 25 66 26 67 29 68 27 69 53 70 54 71 62 72 55 73 56 74 60 75
REMARK SMILES IDX 63 76 57 77 58 78 61 79 59 80 38 81 39 82 47 83 40 84 41 85
REMARK SMILES IDX 45 86 48 87 42 88 43 89 46 90 44 91
REMARK H PARENT 77 11 68 44 36 55
REMARK Flexibility Score: inf
ROOT
ATOM      1  C   UNL     1       1.934   3.897   1.089  1.00  0.00     0.274 C 
ENDROOT
BRANCH   1   2
ATOM      2  O   UNL     1       1.528   2.548   0.792  1.00  0.00    -0.462 OA
BRANCH   2   3
ATOM      3  C   UNL     1       0.289   2.367   0.293  1.00  0.00     0.315 C 
ATOM      4  O   UNL     1      -0.542   3.264   0.178  1.00  0.00    -0.252 OA
BRANCH   3   5
ATOM      5  C   UNL     1       0.013   0.971  -0.229  1.00  0.00     0.162 C 
ATOM      6  C   UNL     1       2.237  -0.080   0.713  1.00  0.00     0.076 C 
ATOM      7  C   UNL     1       0.985  -0.224  -0.139  1.00  0.00     0.195 C 
ATOM      8  N   UNL     1       0.115  -1.402   0.077  1.00  0.00    -0.328 N 
ATOM      9  C   UNL     1      -1.305   0.449   0.321  1.00  0.00     0.083 C 
ATOM     10  C   UNL     1      -1.276  -1.003  -0.102  1.00  0.00     0.263 C 
ATOM     11  H   UNL     1       0.406  -2.052  -0.653  1.00  0.00     0.348 HD
BRANCH   8  12
ATOM     12  C   UNL     1       0.380  -2.362   1.145  1.00  0.00     0.299 C 
BRANCH  12  13
ATOM     13  C   UNL     1       0.271  -1.881   2.579  1.00  0.00     0.007 A 
ATOM     14  C   UNL     1       1.429  -1.800   3.385  1.00  0.00     0.012 A 
ATOM     15  C   UNL     1      -0.962  -1.530   3.143  1.00  0.00     0.015 A 
ATOM     16  C   UNL     1       1.379  -1.306   4.693  1.00  0.00     0.026 A 
ATOM     17  C   UNL     1      -0.994  -1.043   4.440  1.00  0.00    -0.022 A 
ATOM     18  C   UNL     1       0.160  -0.917   5.212  1.00  0.00     0.040 A 
ATOM     19  C   UNL     1      -2.153  -0.465   5.179  1.00  0.00     0.059 C 
ATOM     20  N   UNL     1      -0.101  -0.379   6.473  1.00  0.00    -0.374 N 
ATOM     21  C   UNL     1      -1.564  -0.348   6.596  1.00  0.00     0.121 C 
ATOM     22  C   UNL     1       0.705   0.726   6.943  1.00  0.00     0.143 C 
ENDBRANCH  12  13
ENDBRANCH   8  12
ENDBRANCH   3   5
ENDBRANCH   2   3
ENDBRANCH   1   2
BRANCH   1  23
ATOM     23  C   UNL     1       2.974   4.355   0.067  1.00  0.00     0.275 C 
BRANCH  23  24
ATOM     24  O   UNL     1       2.383   4.479  -1.242  1.00  0.00    -0.458 OA
BRANCH  24  25
ATOM     25  C   UNL     1       2.570   3.424  -2.063  1.00  0.00     0.338 C 
ATOM     26  O   UNL     1       3.202   2.400  -1.841  1.00  0.00    -0.246 OA
BRANCH  25  27
ATOM     27  C   UNL     1       1.810   3.621  -3.301  1.00  0.00     0.060 A 
ATOM     28  C   UNL     1       0.524   3.089  -3.381  1.00  0.00     0.016 A 
ATOM     29  C   UNL     1       2.405   4.207  -4.416  1.00  0.00     0.016 A 
ATOM     30  C   UNL     1      -0.152   3.075  -4.594  1.00  0.00     0.010 A 
ATOM     31  C   UNL     1       1.696   4.256  -5.621  1.00  0.00     0.010 A 
ATOM     32  C   UNL     1       0.422   3.668  -5.724  1.00  0.00    -0.014 A 
BRANCH  32  33
ATOM     33  C   UNL     1      -0.310   3.652  -7.014  1.00  0.00     0.031 A 
ATOM     34  C   UNL     1       0.224   2.862  -8.173  1.00  0.00     0.074 A 
ATOM     35  C   UNL     1      -1.471   4.324  -7.132  1.00  0.00     0.049 A 
ATOM     36  N   UNL     1      -0.186   2.836  -9.416  1.00  0.00    -0.248 NA
ATOM     37  C   UNL     1       1.374   1.986  -7.900  1.00  0.00     0.031 C 
ATOM     38  C   UNL     1      -2.126   5.074  -6.060  1.00  0.00     0.029 A 
ATOM     39  N   UNL     1      -2.311   4.476  -8.206  1.00  0.00    -0.354 N 
ATOM     40  C   UNL     1       0.677   1.975 -10.080  1.00  0.00     0.074 A 
ATOM     41  C   UNL     1       1.634   1.497  -9.105  1.00  0.00     0.031 C 
ATOM     42  C   UNL     1      -3.277   5.587  -6.522  1.00  0.00     0.029 A 
ATOM     43  C   UNL     1      -3.404   5.263  -7.939  1.00  0.00     0.049 A 
ATOM     44  H   UNL     1      -2.146   4.062  -9.084  1.00  0.00     0.167 HD
ATOM     45  C   UNL     1       0.669   1.622 -11.388  1.00  0.00     0.037 A 
ATOM     46  C   UNL     1      -4.380   5.704  -8.754  1.00  0.00     0.037 A 
ATOM     47  C   UNL     1      -0.306   2.075 -12.345  1.00  0.00     0.049 A 
ATOM     48  C   UNL     1      -4.340   5.332 -10.209  1.00  0.00     0.074 A 
ATOM     49  C   UNL     1      -0.389   1.791 -13.697  1.00  0.00     0.029 A 
ATOM     50  N   UNL     1      -1.380   2.899 -12.042  1.00  0.00    -0.354 N 
ATOM     51  N   UNL     1      -3.479   4.575 -10.845  1.00  0.00    -0.248 NA
ATOM     52  C   UNL     1      -5.395   5.894 -11.063  1.00  0.00     0.031 C 
ATOM     53  C   UNL     1      -1.503   2.461 -14.217  1.00  0.00     0.029 A 
ATOM     54  C   UNL     1      -2.129   3.137 -13.183  1.00  0.00     0.049 A 
ATOM     55  H   UNL     1      -1.580   3.261 -11.149  1.00  0.00     0.167 HD
ATOM     56  C   UNL     1      -3.890   4.563 -12.169  1.00  0.00     0.074 A 
ATOM     57  C   UNL     1      -5.089   5.373 -12.243  1.00  0.00     0.031 C 
ATOM     58  C   UNL     1      -3.320   3.943 -13.231  1.00  0.00     0.037 A 
BRANCH  45  59
ATOM     59  C   UNL     1       1.769   0.724 -11.867  1.00  0.00     0.064 A 
ATOM     60  C   UNL     1       1.775  -0.649 -11.587  1.00  0.00     0.173 A 
ATOM     61  C   UNL     1       2.814   1.243 -12.646  1.00  0.00     0.173 A 
ATOM     62  F   UNL     1       0.805  -1.188 -10.832  1.00  0.00    -0.203 F 
ATOM     63  C   UNL     1       2.798  -1.469 -12.056  1.00  0.00     0.198 A 
ATOM     64  C   UNL     1       3.824   0.417 -13.131  1.00  0.00     0.198 A 
ATOM     65  F   UNL     1       2.852   2.551 -12.942  1.00  0.00    -0.203 F 
ATOM     66  F   UNL     1       2.803  -2.774 -11.749  1.00  0.00    -0.200 F 
ATOM     67  C   UNL     1       3.818  -0.937 -12.832  1.00  0.00     0.200 A 
ATOM     68  F   UNL     1       4.805   0.931 -13.886  1.00  0.00    -0.200 F 
ATOM     69  F   UNL     1       4.799  -1.729 -13.287  1.00  0.00    -0.200 F 
ENDBRANCH  45  59
BRANCH  46  70
ATOM     70  C   UNL     1      -5.454   6.574  -8.215  1.00  0.00     0.064 A 
ATOM     71  C   UNL     1      -6.766   6.100  -8.084  1.00  0.00     0.173 A 
ATOM     72  C   UNL     1      -5.189   7.892  -7.813  1.00  0.00     0.173 A 
ATOM     73  F   UNL     1      -7.070   4.856  -8.479  1.00  0.00    -0.203 F 
ATOM     74  C   UNL     1      -7.775   6.915  -7.575  1.00  0.00     0.198 A 
ATOM     75  C   UNL     1      -6.194   8.696  -7.281  1.00  0.00     0.198 A 
ATOM     76  F   UNL     1      -3.950   8.391  -7.921  1.00  0.00    -0.203 F 
ATOM     77  F   UNL     1      -9.029   6.450  -7.490  1.00  0.00    -0.200 F 
ATOM     78  C   UNL     1      -7.487   8.209  -7.167  1.00  0.00     0.200 A 
ATOM     79  F   UNL     1      -5.909   9.942  -6.878  1.00  0.00    -0.200 F 
ATOM     80  F   UNL     1      -8.457   8.989  -6.671  1.00  0.00    -0.200 F 
ENDBRANCH  46  70
BRANCH  58  81
ATOM     81  C   UNL     1      -4.002   4.103 -14.554  1.00  0.00     0.064 A 
ATOM     82  C   UNL     1      -3.886   5.288 -15.294  1.00  0.00     0.173 A 
ATOM     83  C   UNL     1      -4.753   3.052 -15.098  1.00  0.00     0.173 A 
ATOM     84  F   UNL     1      -3.191   6.325 -14.804  1.00  0.00    -0.203 F 
ATOM     85  C   UNL     1      -4.515   5.421 -16.529  1.00  0.00     0.198 A 
ATOM     86  C   UNL     1      -5.365   3.182 -16.341  1.00  0.00     0.198 A 
ATOM     87  F   UNL     1      -4.890   1.900 -14.425  1.00  0.00    -0.203 F 
ATOM     88  F   UNL     1      -4.422   6.574 -17.205  1.00  0.00    -0.200 F 
ATOM     89  C   UNL     1      -5.249   4.367 -17.053  1.00  0.00     0.200 A 
ATOM     90  F   UNL     1      -6.070   2.162 -16.850  1.00  0.00    -0.200 F 
ATOM     91  F   UNL     1      -5.853   4.496 -18.242  1.00  0.00    -0.200 F 
ENDBRANCH  58  81
ENDBRANCH  32  33
ENDBRANCH  25  27
ENDBRANCH  24  25
ENDBRANCH  23  24
ENDBRANCH   1  23
TORSDOF 13
