REMARK SMILES CC(C)(C[N@H+]1C[C@@H]2C[NH2+]C[C@H]2C1(C)C)C(=O)OCCOC(=O)c1ccc(-c2c3nc(c(-c4c(F)c(F)c(F)c(F)c4F)c4ccc([nH]4)c(-c4c(F)c(F)c(F)c(F)c4F)c4nc(c(-c5c(F)c(F)c(F)c(F)c5F)c5ccc2[nH]5)C=C4)C=C3)cc1
REMARK SMILES IDX 18 1 17 2 15 3 16 4 2 5 1 6 3 7 4 8 5 9 6 10 12 11 7 13
REMARK SMILES IDX 11 14 13 15 14 16 8 17 10 18 9 19 19 22 20 23 21 24 22 25
REMARK SMILES IDX 23 26 24 27 85 28 25 29 84 30 26 31 27 32 28 33 78 34 29 35
REMARK SMILES IDX 83 36 77 37 79 38 30 39 82 40 76 41 75 42 31 44 63 45 43 46
REMARK SMILES IDX 62 47 44 48 47 49 61 50 80 51 45 52 46 53 60 55 81 56 48 57
REMARK SMILES IDX 32 58 33 59 41 60 34 61 35 62 39 63 42 64 36 65 37 66 40 67
REMARK SMILES IDX 38 68 64 69 65 70 73 71 66 72 67 73 71 74 74 75 68 76 69 77
REMARK SMILES IDX 72 78 70 79 49 80 50 81 58 82 51 83 52 84 56 85 59 86 53 87
REMARK SMILES IDX 54 88 57 89 55 90
REMARK H PARENT 5 12 9 20 9 21 79 43 47 54
REMARK Flexibility Score: inf
ROOT
ATOM      1  C   UNL     1       1.678   2.280  -3.934  1.00  0.00     0.274 C 
ENDROOT
BRANCH   1   2
ATOM      2  O   UNL     1       0.742   1.429  -3.239  1.00  0.00    -0.461 OA
BRANCH   2   3
ATOM      3  C   UNL     1       1.270   0.591  -2.305  1.00  0.00     0.317 C 
ATOM      4  O   UNL     1       2.464   0.549  -2.023  1.00  0.00    -0.251 OA
BRANCH   3   5
ATOM      5  C   UNL     1       0.248  -0.389  -1.716  1.00  0.00     0.111 C 
ATOM      6  C   UNL     1       0.521  -0.610  -0.218  1.00  0.00     0.029 C 
ATOM      7  C   UNL     1       0.559  -1.714  -2.455  1.00  0.00     0.029 C 
BRANCH   5   8
ATOM      8  C   UNL     1      -1.245  -0.033  -1.989  1.00  0.00     0.280 C 
BRANCH   8   9
ATOM      9  N   UNL     1      -2.016   0.767  -1.012  1.00  0.00    -0.329 N 
ATOM     10  C   UNL     1      -1.460   2.125  -0.749  1.00  0.00     0.272 C 
ATOM     11  C   UNL     1      -3.476   0.960  -1.412  1.00  0.00     0.101 C 
ATOM     12  H   UNL     1      -1.944   0.204  -0.165  1.00  0.00     0.348 HD
ATOM     13  C   UNL     1      -2.250   2.980  -1.690  1.00  0.00     0.114 C 
ATOM     14  C   UNL     1      -3.645   2.482  -1.413  1.00  0.00     0.119 C 
ATOM     15  C   UNL     1      -3.949   0.332  -2.736  1.00  0.00     0.079 C 
ATOM     16  C   UNL     1      -4.324   0.345  -0.281  1.00  0.00     0.079 C 
ATOM     17  C   UNL     1      -2.464   4.463  -1.558  1.00  0.00     0.270 C 
ATOM     18  C   UNL     1      -4.407   3.322  -2.409  1.00  0.00     0.271 C 
ATOM     19  N   UNL     1      -3.754   4.655  -2.284  1.00  0.00    -0.345 N 
ATOM     20  H   UNL     1      -3.578   5.044  -3.210  1.00  0.00     0.346 HD
ATOM     21  H   UNL     1      -4.357   5.302  -1.774  1.00  0.00     0.346 HD
ENDBRANCH   8   9
ENDBRANCH   5   8
ENDBRANCH   3   5
ENDBRANCH   2   3
ENDBRANCH   1   2
BRANCH   1  22
ATOM     22  C   UNL     1       1.746   3.662  -3.289  1.00  0.00     0.275 C 
BRANCH  22  23
ATOM     23  O   UNL     1       2.131   3.520  -1.913  1.00  0.00    -0.458 OA
BRANCH  23  24
ATOM     24  C   UNL     1       1.572   4.392  -1.050  1.00  0.00     0.338 C 
ATOM     25  O   UNL     1       0.884   5.365  -1.336  1.00  0.00    -0.246 OA
BRANCH  24  26
ATOM     26  C   UNL     1       1.869   3.999   0.345  1.00  0.00     0.060 A 
ATOM     27  C   UNL     1       2.136   2.672   0.693  1.00  0.00     0.016 A 
ATOM     28  C   UNL     1       1.821   4.975   1.343  1.00  0.00     0.016 A 
ATOM     29  C   UNL     1       2.328   2.313   2.025  1.00  0.00     0.010 A 
ATOM     30  C   UNL     1       2.093   4.630   2.669  1.00  0.00     0.010 A 
ATOM     31  C   UNL     1       2.353   3.296   3.021  1.00  0.00    -0.014 A 
BRANCH  31  32
ATOM     32  C   UNL     1       2.729   2.956   4.416  1.00  0.00     0.031 A 
ATOM     33  C   UNL     1       1.771   3.189   5.547  1.00  0.00     0.074 A 
ATOM     34  C   UNL     1       3.969   2.494   4.666  1.00  0.00     0.049 A 
ATOM     35  N   UNL     1       1.996   3.171   6.837  1.00  0.00    -0.248 NA
ATOM     36  C   UNL     1       0.380   3.495   5.182  1.00  0.00     0.031 C 
ATOM     37  C   UNL     1       4.984   2.204   3.651  1.00  0.00     0.029 A 
ATOM     38  N   UNL     1       4.593   2.200   5.852  1.00  0.00    -0.354 N 
ATOM     39  C   UNL     1       0.790   3.506   7.436  1.00  0.00     0.074 A 
ATOM     40  C   UNL     1      -0.168   3.717   6.370  1.00  0.00     0.031 C 
ATOM     41  C   UNL     1       6.095   1.757   4.254  1.00  0.00     0.029 A 
ATOM     42  C   UNL     1       5.900   1.807   5.697  1.00  0.00     0.049 A 
ATOM     43  H   UNL     1       4.148   2.264   6.728  1.00  0.00     0.167 HD
ATOM     44  C   UNL     1       0.517   3.630   8.757  1.00  0.00     0.037 A 
ATOM     45  C   UNL     1       6.855   1.563   6.613  1.00  0.00     0.037 A 
ATOM     46  C   UNL     1       1.469   3.385   9.811  1.00  0.00     0.049 A 
ATOM     47  C   UNL     1       6.534   1.738   8.067  1.00  0.00     0.074 A 
ATOM     48  C   UNL     1       1.282   3.465  11.180  1.00  0.00     0.029 A 
ATOM     49  N   UNL     1       2.788   3.004   9.610  1.00  0.00    -0.354 N 
ATOM     50  N   UNL     1       5.406   2.102   8.624  1.00  0.00    -0.248 NA
ATOM     51  C   UNL     1       7.626   1.493   9.018  1.00  0.00     0.031 C 
ATOM     52  C   UNL     1       2.496   3.162  11.807  1.00  0.00     0.029 A 
ATOM     53  C   UNL     1       3.429   2.857  10.830  1.00  0.00     0.049 A 
ATOM     54  H   UNL     1       3.206   2.859   8.731  1.00  0.00     0.167 HD
ATOM     55  C   UNL     1       5.647   2.128   9.989  1.00  0.00     0.074 A 
ATOM     56  C   UNL     1       7.026   1.722  10.178  1.00  0.00     0.031 C 
ATOM     57  C   UNL     1       4.804   2.464  10.995  1.00  0.00     0.037 A 
BRANCH  44  58
ATOM     58  C   UNL     1      -0.860   4.078   9.146  1.00  0.00     0.064 A 
ATOM     59  C   UNL     1      -1.963   3.216   9.083  1.00  0.00     0.173 A 
ATOM     60  C   UNL     1      -1.065   5.373   9.648  1.00  0.00     0.173 A 
ATOM     61  F   UNL     1      -1.821   1.973   8.599  1.00  0.00    -0.203 F 
ATOM     62  C   UNL     1      -3.225   3.637   9.498  1.00  0.00     0.198 A 
ATOM     63  C   UNL     1      -2.322   5.784  10.081  1.00  0.00     0.198 A 
ATOM     64  F   UNL     1      -0.041   6.236   9.731  1.00  0.00    -0.203 F 
ATOM     65  F   UNL     1      -4.272   2.806   9.404  1.00  0.00    -0.200 F 
ATOM     66  C   UNL     1      -3.402   4.917  10.003  1.00  0.00     0.200 A 
ATOM     67  F   UNL     1      -2.489   7.018  10.578  1.00  0.00    -0.200 F 
ATOM     68  F   UNL     1      -4.614   5.316  10.413  1.00  0.00    -0.200 F 
ENDBRANCH  44  58
BRANCH  45  69
ATOM     69  C   UNL     1       8.210   1.162   6.163  1.00  0.00     0.064 A 
ATOM     70  C   UNL     1       8.665  -0.151   6.338  1.00  0.00     0.173 A 
ATOM     71  C   UNL     1       9.058   2.068   5.509  1.00  0.00     0.173 A 
ATOM     72  F   UNL     1       7.897  -1.044   6.979  1.00  0.00    -0.203 F 
ATOM     73  C   UNL     1       9.917  -0.544   5.873  1.00  0.00     0.198 A 
ATOM     74  C   UNL     1      10.299   1.667   5.021  1.00  0.00     0.198 A 
ATOM     75  F   UNL     1       8.666   3.336   5.316  1.00  0.00    -0.203 F 
ATOM     76  F   UNL     1      10.339  -1.800   6.073  1.00  0.00    -0.200 F 
ATOM     77  C   UNL     1      10.728   0.361   5.205  1.00  0.00     0.200 A 
ATOM     78  F   UNL     1      11.073   2.541   4.363  1.00  0.00    -0.200 F 
ATOM     79  F   UNL     1      11.925  -0.023   4.742  1.00  0.00    -0.200 F 
ENDBRANCH  45  69
BRANCH  57  80
ATOM     80  C   UNL     1       5.354   2.393  12.386  1.00  0.00     0.064 A 
ATOM     81  C   UNL     1       6.231   3.372  12.875  1.00  0.00     0.173 A 
ATOM     82  C   UNL     1       4.995   1.341  13.240  1.00  0.00     0.173 A 
ATOM     83  F   UNL     1       6.617   4.386  12.086  1.00  0.00    -0.203 F 
ATOM     84  C   UNL     1       6.747   3.288  14.164  1.00  0.00     0.198 A 
ATOM     85  C   UNL     1       5.496   1.271  14.537  1.00  0.00     0.198 A 
ATOM     86  F   UNL     1       4.158   0.381  12.817  1.00  0.00    -0.203 F 
ATOM     87  F   UNL     1       7.617   4.209  14.598  1.00  0.00    -0.200 F 
ATOM     88  C   UNL     1       6.376   2.240  14.995  1.00  0.00     0.200 A 
ATOM     89  F   UNL     1       5.134   0.261  15.340  1.00  0.00    -0.200 F 
ATOM     90  F   UNL     1       6.877   2.158  16.235  1.00  0.00    -0.200 F 
ENDBRANCH  57  80
ENDBRANCH  31  32
ENDBRANCH  24  26
ENDBRANCH  23  24
ENDBRANCH  22  23
ENDBRANCH   1  22
TORSDOF 13
