REMARK SMILES CC1CCN(C(=O)N[C@@H]2C=C[C@H](C(=O)OCCOC(=O)c3ccc(-c4c5nc(c(-c6c(F)c(F)c(F)c(F)c6F)c6ccc([nH]6)c(-c6c(F)c(F)c(F)c(F)c6F)c6nc(c(-c7c(F)c(F)c(F)c(F)c7F)c7ccc4[nH]7)C=C6)C=C5)cc3)C2)CC1
REMARK SMILES IDX 17 1 16 2 15 3 13 4 14 5 12 6 9 7 10 8 84 9 11 10 8 11 1 12
REMARK SMILES IDX 2 13 3 14 86 15 4 16 85 17 5 18 6 19 7 20 18 22 19 23 20 24
REMARK SMILES IDX 21 25 22 26 83 27 23 28 82 29 24 30 25 31 26 32 76 33 27 34
REMARK SMILES IDX 81 35 75 36 77 37 28 38 80 39 74 40 73 41 29 43 61 44 41 45
REMARK SMILES IDX 60 46 42 47 45 48 59 49 78 50 43 51 44 52 58 54 79 55 46 56
REMARK SMILES IDX 30 57 31 58 39 59 32 60 33 61 37 62 40 63 34 64 35 65 38 66
REMARK SMILES IDX 36 67 62 68 63 69 71 70 64 71 65 72 69 73 72 74 66 75 67 76
REMARK SMILES IDX 70 77 68 78 47 79 48 80 56 81 49 82 50 83 54 84 57 85 51 86
REMARK SMILES IDX 52 87 55 88 53 89
REMARK H PARENT 8 21 77 42 45 53
REMARK Flexibility Score: inf
ROOT
ATOM      1  C   UNL     1       0.322  -7.312   2.640  1.00  0.00     0.275 C 
ENDROOT
BRANCH   1   2
ATOM      2  C   UNL     1      -0.271  -7.092   1.169  1.00  0.00     0.274 C 
BRANCH   2   3
ATOM      3  O   UNL     1       0.679  -6.845   0.051  1.00  0.00    -0.462 OA
BRANCH   3   4
ATOM      4  C   UNL     1       0.205  -6.154  -1.060  1.00  0.00     0.312 C 
ATOM      5  O   UNL     1      -0.973  -5.827  -1.168  1.00  0.00    -0.252 OA
BRANCH   4   6
ATOM      6  C   UNL     1       1.272  -5.917  -2.206  1.00  0.00     0.124 C 
ATOM      7  C   UNL     1       2.329  -3.645  -2.562  1.00  0.00     0.107 C 
ATOM      8  C   UNL     1       1.302  -3.970  -3.602  1.00  0.00    -0.006 C 
ATOM      9  C   UNL     1       2.539  -5.056  -2.000  1.00  0.00     0.048 C 
ATOM     10  C   UNL     1       0.715  -5.162  -3.399  1.00  0.00    -0.014 C 
BRANCH   7  11
ATOM     11  N   UNL     1       1.758  -2.574  -1.767  1.00  0.00    -0.332 N 
ATOM     12  C   UNL     1       3.485  -6.764   0.860  1.00  0.00     0.008 C 
ATOM     13  C   UNL     1       3.285  -5.337   1.403  1.00  0.00    -0.011 C 
ATOM     14  C   UNL     1       1.915  -4.668   1.244  1.00  0.00     0.025 C 
ATOM     15  C   UNL     1       4.439  -4.405   0.985  1.00  0.00     0.025 C 
ATOM     16  C   UNL     1       1.919  -3.187   1.490  1.00  0.00     0.121 C 
ATOM     17  C   UNL     1       4.076  -3.051   0.326  1.00  0.00     0.121 C 
ATOM     18  N   UNL     1       2.675  -2.675   0.388  1.00  0.00    -0.325 N 
ATOM     19  C   UNL     1       1.938  -2.030  -0.549  1.00  0.00     0.317 C 
ATOM     20  O   UNL     1       1.223  -1.070  -0.250  1.00  0.00    -0.249 OA
ATOM     21  H   UNL     1       1.037  -2.116  -2.255  1.00  0.00     0.165 HD
ENDBRANCH   7  11
ENDBRANCH   4   6
ENDBRANCH   3   4
ENDBRANCH   2   3
ENDBRANCH   1   2
BRANCH   1  22
ATOM     22  O   UNL     1       0.495  -6.092   3.469  1.00  0.00    -0.458 OA
BRANCH  22  23
ATOM     23  C   UNL     1       1.487  -6.083   4.424  1.00  0.00     0.338 C 
ATOM     24  O   UNL     1       2.117  -7.061   4.785  1.00  0.00    -0.246 OA
BRANCH  23  25
ATOM     25  C   UNL     1       1.910  -4.679   4.813  1.00  0.00     0.060 A 
ATOM     26  C   UNL     1       3.232  -4.284   4.554  1.00  0.00     0.016 A 
ATOM     27  C   UNL     1       1.070  -3.728   5.392  1.00  0.00     0.016 A 
ATOM     28  C   UNL     1       3.628  -2.934   4.621  1.00  0.00     0.010 A 
ATOM     29  C   UNL     1       1.523  -2.394   5.602  1.00  0.00     0.010 A 
ATOM     30  C   UNL     1       2.789  -1.953   5.162  1.00  0.00    -0.014 A 
BRANCH  30  31
ATOM     31  C   UNL     1       3.252  -0.522   5.303  1.00  0.00     0.031 A 
ATOM     32  C   UNL     1       4.511  -0.176   6.078  1.00  0.00     0.074 A 
ATOM     33  C   UNL     1       2.615   0.506   4.696  1.00  0.00     0.049 A 
ATOM     34  N   UNL     1       5.005   1.003   6.390  1.00  0.00    -0.248 NA
ATOM     35  C   UNL     1       5.348  -1.296   6.529  1.00  0.00     0.031 C 
ATOM     36  C   UNL     1       1.513   0.383   3.744  1.00  0.00     0.029 A 
ATOM     37  N   UNL     1       2.816   1.873   4.785  1.00  0.00    -0.354 N 
ATOM     38  C   UNL     1       6.205   0.760   7.047  1.00  0.00     0.074 A 
ATOM     39  C   UNL     1       6.388  -0.674   7.062  1.00  0.00     0.031 C 
ATOM     40  C   UNL     1       1.107   1.613   3.376  1.00  0.00     0.029 A 
ATOM     41  C   UNL     1       1.889   2.620   4.093  1.00  0.00     0.049 A 
ATOM     42  H   UNL     1       3.555   2.274   5.297  1.00  0.00     0.167 HD
ATOM     43  C   UNL     1       7.067   1.628   7.630  1.00  0.00     0.037 A 
ATOM     44  C   UNL     1       1.659   3.953   4.069  1.00  0.00     0.037 A 
ATOM     45  C   UNL     1       6.878   3.049   7.728  1.00  0.00     0.049 A 
ATOM     46  C   UNL     1       2.515   4.894   4.888  1.00  0.00     0.074 A 
ATOM     47  C   UNL     1       7.629   3.974   8.435  1.00  0.00     0.029 A 
ATOM     48  N   UNL     1       5.856   3.750   7.114  1.00  0.00    -0.354 N 
ATOM     49  N   UNL     1       3.583   4.636   5.600  1.00  0.00    -0.248 NA
ATOM     50  C   UNL     1       2.115   6.313   4.917  1.00  0.00     0.031 C 
ATOM     51  C   UNL     1       7.035   5.232   8.281  1.00  0.00     0.029 A 
ATOM     52  C   UNL     1       5.944   5.094   7.441  1.00  0.00     0.049 A 
ATOM     53  H   UNL     1       5.168   3.353   6.532  1.00  0.00     0.167 HD
ATOM     54  C   UNL     1       3.989   5.852   6.142  1.00  0.00     0.074 A 
ATOM     55  C   UNL     1       3.064   6.856   5.668  1.00  0.00     0.031 C 
ATOM     56  C   UNL     1       5.035   6.104   6.966  1.00  0.00     0.037 A 
BRANCH  43  57
ATOM     57  C   UNL     1       8.257   1.025   8.314  1.00  0.00     0.064 A 
ATOM     58  C   UNL     1       9.364   0.559   7.591  1.00  0.00     0.173 A 
ATOM     59  C   UNL     1       8.265   0.874   9.709  1.00  0.00     0.173 A 
ATOM     60  F   UNL     1       9.387   0.658   6.253  1.00  0.00    -0.203 F 
ATOM     61  C   UNL     1      10.425  -0.067   8.240  1.00  0.00     0.198 A 
ATOM     62  C   UNL     1       9.336   0.267  10.355  1.00  0.00     0.198 A 
ATOM     63  F   UNL     1       7.225   1.301  10.440  1.00  0.00    -0.203 F 
ATOM     64  F   UNL     1      11.448  -0.558   7.528  1.00  0.00    -0.200 F 
ATOM     65  C   UNL     1      10.410  -0.212   9.620  1.00  0.00     0.200 A 
ATOM     66  F   UNL     1       9.320   0.128  11.688  1.00  0.00    -0.200 F 
ATOM     67  F   UNL     1      11.424  -0.831  10.241  1.00  0.00    -0.200 F 
ENDBRANCH  43  57
BRANCH  44  68
ATOM     68  C   UNL     1       0.499   4.504   3.308  1.00  0.00     0.064 A 
ATOM     69  C   UNL     1       0.679   5.363   2.214  1.00  0.00     0.173 A 
ATOM     70  C   UNL     1      -0.818   4.251   3.723  1.00  0.00     0.173 A 
ATOM     71  F   UNL     1       1.918   5.686   1.812  1.00  0.00    -0.203 F 
ATOM     72  C   UNL     1      -0.410   5.955   1.574  1.00  0.00     0.198 A 
ATOM     73  C   UNL     1      -1.907   4.820   3.065  1.00  0.00     0.198 A 
ATOM     74  F   UNL     1      -1.048   3.467   4.787  1.00  0.00    -0.203 F 
ATOM     75  F   UNL     1      -0.207   6.823   0.573  1.00  0.00    -0.200 F 
ATOM     76  C   UNL     1      -1.702   5.678   1.996  1.00  0.00     0.200 A 
ATOM     77  F   UNL     1      -3.152   4.558   3.484  1.00  0.00    -0.200 F 
ATOM     78  F   UNL     1      -2.748   6.258   1.390  1.00  0.00    -0.200 F 
ENDBRANCH  44  68
BRANCH  56  79
ATOM     79  C   UNL     1       5.269   7.521   7.403  1.00  0.00     0.064 A 
ATOM     80  C   UNL     1       4.455   8.139   8.363  1.00  0.00     0.173 A 
ATOM     81  C   UNL     1       6.365   8.246   6.908  1.00  0.00     0.173 A 
ATOM     82  F   UNL     1       3.390   7.493   8.861  1.00  0.00    -0.203 F 
ATOM     83  C   UNL     1       4.723   9.433   8.804  1.00  0.00     0.198 A 
ATOM     84  C   UNL     1       6.641   9.532   7.366  1.00  0.00     0.198 A 
ATOM     85  F   UNL     1       7.179   7.699   5.993  1.00  0.00    -0.203 F 
ATOM     86  F   UNL     1       3.917  10.013   9.705  1.00  0.00    -0.200 F 
ATOM     87  C   UNL     1       5.819  10.126   8.312  1.00  0.00     0.200 A 
ATOM     88  F   UNL     1       7.708  10.194   6.898  1.00  0.00    -0.200 F 
ATOM     89  F   UNL     1       6.082  11.366   8.746  1.00  0.00    -0.200 F 
ENDBRANCH  56  79
ENDBRANCH  30  31
ENDBRANCH  23  25
ENDBRANCH  22  23
ENDBRANCH   1  22
TORSDOF 12
