REMARK SMILES [NH3+][C@@H](Cc1c[nH]c2ccccc12)C(=O)N[C@@H](CS)C(=O)N[C@@H](CO)C(=O)OCCOC(=O)c1ccc(-c2c3nc(c(-c4c(F)c(F)c(F)c(F)c4F)c4ccc([nH]4)c(-c4c(F)c(F)c(F)c(F)c4F)c4nc(c(-c5c(F)c(F)c(F)c(F)c5F)c5ccc2[nH]5)C=C4)C=C3)cc1
REMARK SMILES IDX 25 1 26 2 22 3 21 4 19 5 20 6 16 8 15 9 13 10 14 11 2 13
REMARK SMILES IDX 1 14 3 18 4 19 5 20 12 21 6 22 7 23 11 24 8 26 10 27 9 28
REMARK SMILES IDX 17 29 18 30 23 32 24 33 27 35 28 36 29 37 30 38 31 39 32 40
REMARK SMILES IDX 33 41 34 42 95 43 35 44 94 45 36 46 37 47 38 48 88 49 39 50
REMARK SMILES IDX 93 51 87 52 89 53 40 54 92 55 86 56 85 57 41 59 73 60 53 61
REMARK SMILES IDX 72 62 54 63 57 64 71 65 90 66 55 67 56 68 70 70 91 71 58 72
REMARK SMILES IDX 42 73 43 74 51 75 44 76 45 77 49 78 52 79 46 80 47 81 50 82
REMARK SMILES IDX 48 83 74 84 75 85 83 86 76 87 77 88 81 89 84 90 78 91 79 92
REMARK SMILES IDX 82 93 80 94 59 95 60 96 68 97 61 98 62 99 66 100 69 101
REMARK SMILES IDX 63 102 64 103 67 104 65 105
REMARK H PARENT 21 7 15 12 1 15 1 16 1 17 6 25 18 31 24 34 89 58 57 69
REMARK Flexibility Score: inf
ROOT
ATOM      1  C   UNL     1      -5.585  -1.880  -3.517  1.00  0.00     0.331 C 
ATOM      2  O   UNL     1      -6.606  -2.231  -2.937  1.00  0.00    -0.250 OA
ENDROOT
BRANCH   1   3
ATOM      3  C   UNL     1      -4.852  -0.582  -3.181  1.00  0.00     0.218 C 
BRANCH   3   4
ATOM      4  N   UNL     1      -3.491  -0.473  -3.737  1.00  0.00    -0.339 N 
ATOM      5  C   UNL     1      -2.691   0.538  -3.270  1.00  0.00     0.244 C 
ATOM      6  O   UNL     1      -2.802   1.653  -3.784  1.00  0.00    -0.273 OA
ATOM      7  H   UNL     1      -3.168  -1.104  -4.420  1.00  0.00     0.164 HD
BRANCH   5   8
ATOM      8  C   UNL     1      -1.646   0.204  -2.169  1.00  0.00     0.181 C 
BRANCH   8   9
ATOM      9  N   UNL     1      -1.478   1.395  -1.334  1.00  0.00    -0.338 N 
ATOM     10  C   UNL     1      -0.413   1.968  -0.727  1.00  0.00     0.279 C 
ATOM     11  O   UNL     1      -0.654   2.990  -0.071  1.00  0.00    -0.268 OA
ATOM     12  H   UNL     1      -2.320   1.882  -1.181  1.00  0.00     0.164 HD
BRANCH  10  13
ATOM     13  C   UNL     1       1.032   1.433  -0.801  1.00  0.00     0.275 C 
BRANCH  13  14
ATOM     14  N   UNL     1       1.133   0.078  -0.215  1.00  0.00    -0.347 N 
ATOM     15  H   UNL     1       2.097  -0.249  -0.278  1.00  0.00     0.345 HD
ATOM     16  H   UNL     1       0.524  -0.560  -0.726  1.00  0.00     0.345 HD
ATOM     17  H   UNL     1       0.848   0.109   0.764  1.00  0.00     0.345 HD
ENDBRANCH  13  14
BRANCH  13  18
ATOM     18  C   UNL     1       1.756   1.685  -2.146  1.00  0.00     0.113 C 
BRANCH  18  19
ATOM     19  C   UNL     1       1.619   0.629  -3.209  1.00  0.00    -0.016 A 
ATOM     20  C   UNL     1       2.128  -0.658  -3.178  1.00  0.00     0.087 A 
ATOM     21  C   UNL     1       0.928   0.758  -4.463  1.00  0.00     0.003 A 
ATOM     22  N   UNL     1       1.671  -1.334  -4.277  1.00  0.00    -0.361 N 
ATOM     23  C   UNL     1       0.908  -0.503  -5.061  1.00  0.00     0.046 A 
ATOM     24  C   UNL     1       0.250   1.814  -5.106  1.00  0.00     0.010 A 
ATOM     25  H   UNL     1       1.861  -2.279  -4.478  1.00  0.00     0.166 HD
ATOM     26  C   UNL     1       0.205  -0.773  -6.240  1.00  0.00     0.026 A 
ATOM     27  C   UNL     1      -0.442   1.565  -6.298  1.00  0.00     0.001 A 
ATOM     28  C   UNL     1      -0.475   0.286  -6.846  1.00  0.00     0.002 A 
ENDBRANCH  18  19
ENDBRANCH  13  18
ENDBRANCH  10  13
ENDBRANCH   8   9
BRANCH   8  29
ATOM     29  C   UNL     1      -1.904  -1.081  -1.376  1.00  0.00     0.101 C 
BRANCH  29  30
ATOM     30  S   UNL     1      -3.001  -0.847   0.062  1.00  0.00    -0.177 SA
ATOM     31  H   UNL     1      -2.421   0.016   0.939  1.00  0.00     0.102 HD
ENDBRANCH  29  30
ENDBRANCH   8  29
ENDBRANCH   5   8
ENDBRANCH   3   4
BRANCH   3  32
ATOM     32  C   UNL     1      -5.735   0.593  -3.637  1.00  0.00     0.193 C 
BRANCH  32  33
ATOM     33  O   UNL     1      -5.536   0.858  -5.029  1.00  0.00    -0.394 OA
ATOM     34  H   UNL     1      -4.607   1.091  -5.184  1.00  0.00     0.210 HD
ENDBRANCH  32  33
ENDBRANCH   3  32
ENDBRANCH   1   3
BRANCH   1  35
ATOM     35  O   UNL     1      -5.011  -2.544  -4.558  1.00  0.00    -0.460 OA
BRANCH  35  36
ATOM     36  C   UNL     1      -5.678  -3.750  -4.984  1.00  0.00     0.274 C 
BRANCH  36  37
ATOM     37  C   UNL     1      -4.689  -4.908  -4.944  1.00  0.00     0.275 C 
BRANCH  37  38
ATOM     38  O   UNL     1      -4.254  -5.088  -3.583  1.00  0.00    -0.458 OA
BRANCH  38  39
ATOM     39  C   UNL     1      -2.939  -5.362  -3.416  1.00  0.00     0.338 C 
ATOM     40  O   UNL     1      -2.111  -5.552  -4.290  1.00  0.00    -0.246 OA
BRANCH  39  41
ATOM     41  C   UNL     1      -2.599  -5.370  -1.974  1.00  0.00     0.060 A 
ATOM     42  C   UNL     1      -3.222  -4.500  -1.083  1.00  0.00     0.016 A 
ATOM     43  C   UNL     1      -1.551  -6.177  -1.524  1.00  0.00     0.016 A 
ATOM     44  C   UNL     1      -2.722  -4.367   0.217  1.00  0.00     0.010 A 
ATOM     45  C   UNL     1      -1.118  -6.098  -0.192  1.00  0.00     0.010 A 
ATOM     46  C   UNL     1      -1.655  -5.146   0.693  1.00  0.00    -0.014 A 
BRANCH  46  47
ATOM     47  C   UNL     1      -1.044  -4.910   2.049  1.00  0.00     0.031 A 
ATOM     48  C   UNL     1       0.459  -4.790   2.198  1.00  0.00     0.074 A 
ATOM     49  C   UNL     1      -1.786  -4.744   3.165  1.00  0.00     0.049 A 
ATOM     50  N   UNL     1       1.203  -4.898   3.273  1.00  0.00    -0.248 NA
ATOM     51  C   UNL     1       1.230  -4.534   0.972  1.00  0.00     0.031 C 
ATOM     52  C   UNL     1      -3.246  -4.740   3.233  1.00  0.00     0.029 A 
ATOM     53  N   UNL     1      -1.401  -4.522   4.471  1.00  0.00    -0.354 N 
ATOM     54  C   UNL     1       2.522  -4.835   2.837  1.00  0.00     0.074 A 
ATOM     55  C   UNL     1       2.479  -4.649   1.402  1.00  0.00     0.031 C 
ATOM     56  C   UNL     1      -3.631  -4.435   4.480  1.00  0.00     0.029 A 
ATOM     57  C   UNL     1      -2.455  -4.375   5.341  1.00  0.00     0.049 A 
ATOM     58  H   UNL     1      -0.459  -4.472   4.753  1.00  0.00     0.167 HD
ATOM     59  C   UNL     1       3.661  -4.936   3.565  1.00  0.00     0.037 A 
ATOM     60  C   UNL     1      -2.495  -4.277   6.685  1.00  0.00     0.037 A 
ATOM     61  C   UNL     1       3.713  -4.986   5.005  1.00  0.00     0.049 A 
ATOM     62  C   UNL     1      -1.226  -4.388   7.481  1.00  0.00     0.074 A 
ATOM     63  C   UNL     1       4.825  -5.076   5.828  1.00  0.00     0.029 A 
ATOM     64  N   UNL     1       2.610  -4.896   5.840  1.00  0.00    -0.354 N 
ATOM     65  N   UNL     1       0.006  -4.519   7.058  1.00  0.00    -0.248 NA
ATOM     66  C   UNL     1      -1.361  -4.391   8.945  1.00  0.00     0.031 C 
ATOM     67  C   UNL     1       4.393  -5.063   7.159  1.00  0.00     0.029 A 
ATOM     68  C   UNL     1       3.016  -4.927   7.165  1.00  0.00     0.049 A 
ATOM     69  H   UNL     1       1.677  -4.822   5.536  1.00  0.00     0.167 HD
ATOM     70  C   UNL     1       0.789  -4.632   8.198  1.00  0.00     0.074 A 
ATOM     71  C   UNL     1      -0.101  -4.521   9.334  1.00  0.00     0.031 C 
ATOM     72  C   UNL     1       2.127  -4.828   8.291  1.00  0.00     0.037 A 
BRANCH  59  73
ATOM     73  C   UNL     1       4.964  -5.047   2.826  1.00  0.00     0.064 A 
ATOM     74  C   UNL     1       5.566  -3.954   2.190  1.00  0.00     0.173 A 
ATOM     75  C   UNL     1       5.658  -6.270   2.826  1.00  0.00     0.173 A 
ATOM     76  F   UNL     1       4.939  -2.770   2.144  1.00  0.00    -0.203 F 
ATOM     77  C   UNL     1       6.808  -4.083   1.569  1.00  0.00     0.198 A 
ATOM     78  C   UNL     1       6.911  -6.388   2.231  1.00  0.00     0.198 A 
ATOM     79  F   UNL     1       5.129  -7.347   3.427  1.00  0.00    -0.203 F 
ATOM     80  F   UNL     1       7.348  -3.034   0.933  1.00  0.00    -0.200 F 
ATOM     81  C   UNL     1       7.483  -5.295   1.600  1.00  0.00     0.200 A 
ATOM     82  F   UNL     1       7.565  -7.556   2.274  1.00  0.00    -0.200 F 
ATOM     83  F   UNL     1       8.683  -5.411   1.015  1.00  0.00    -0.200 F 
ENDBRANCH  59  73
BRANCH  60  84
ATOM     84  C   UNL     1      -3.809  -4.158   7.372  1.00  0.00     0.064 A 
ATOM     85  C   UNL     1      -4.174  -2.984   8.044  1.00  0.00     0.173 A 
ATOM     86  C   UNL     1      -4.735  -5.213   7.351  1.00  0.00     0.173 A 
ATOM     87  F   UNL     1      -3.308  -1.964   8.129  1.00  0.00    -0.203 F 
ATOM     88  C   UNL     1      -5.419  -2.867   8.659  1.00  0.00     0.198 A 
ATOM     89  C   UNL     1      -5.992  -5.081   7.933  1.00  0.00     0.198 A 
ATOM     90  F   UNL     1      -4.428  -6.364   6.734  1.00  0.00    -0.203 F 
ATOM     91  F   UNL     1      -5.732  -1.748   9.326  1.00  0.00    -0.200 F 
ATOM     92  C   UNL     1      -6.332  -3.909   8.590  1.00  0.00     0.200 A 
ATOM     93  F   UNL     1      -6.874  -6.086   7.849  1.00  0.00    -0.200 F 
ATOM     94  F   UNL     1      -7.538  -3.787   9.161  1.00  0.00    -0.200 F 
ENDBRANCH  60  84
BRANCH  72  95
ATOM     95  C   UNL     1       2.709  -4.922   9.670  1.00  0.00     0.064 A 
ATOM     96  C   UNL     1       2.539  -6.071  10.457  1.00  0.00     0.173 A 
ATOM     97  C   UNL     1       3.452  -3.860  10.206  1.00  0.00     0.173 A 
ATOM     98  F   UNL     1       1.824  -7.107   9.993  1.00  0.00    -0.203 F 
ATOM     99  C   UNL     1       3.070  -6.142  11.742  1.00  0.00     0.198 A 
ATOM    100  C   UNL     1       3.999  -3.943  11.483  1.00  0.00     0.198 A 
ATOM    101  F   UNL     1       3.646  -2.743   9.490  1.00  0.00    -0.203 F 
ATOM    102  F   UNL     1       2.857  -7.231  12.494  1.00  0.00    -0.200 F 
ATOM    103  C   UNL     1       3.802  -5.080  12.253  1.00  0.00     0.200 A 
ATOM    104  F   UNL     1       4.712  -2.920  11.973  1.00  0.00    -0.200 F 
ATOM    105  F   UNL     1       4.308  -5.148  13.492  1.00  0.00    -0.200 F 
ENDBRANCH  72  95
ENDBRANCH  46  47
ENDBRANCH  39  41
ENDBRANCH  38  39
ENDBRANCH  37  38
ENDBRANCH  36  37
ENDBRANCH  35  36
ENDBRANCH   1  35
TORSDOF 22
