REMARK SMILES O=C(OCCOC(=O)[C@H]1CC(=O)N(Cc2ccc(OCc3ccccc3)cc2)C1)c1ccc(-c2c3nc(c(-c4c(F)c(F)c(F)c(F)c4F)c4ccc([nH]4)c(-c4c(F)c(F)c(F)c(F)c4F)c4nc(c(-c5c(F)c(F)c(F)c(F)c5F)c5ccc2[nH]5)C=C4)C=C3)cc1
REMARK SMILES IDX 6 1 5 2 4 3 3 4 2 5 1 6 30 7 31 8 92 9 32 10 91 11 33 12
REMARK SMILES IDX 34 13 35 14 85 15 36 16 90 17 84 18 86 19 37 20 89 21 83 22
REMARK SMILES IDX 82 23 38 25 70 26 50 27 69 28 51 29 54 30 68 31 87 32 52 33
REMARK SMILES IDX 53 34 67 36 88 37 55 38 39 39 40 40 48 41 41 42 42 43 46 44
REMARK SMILES IDX 49 45 43 46 44 47 47 48 45 49 71 50 72 51 80 52 73 53 74 54
REMARK SMILES IDX 78 55 81 56 75 57 76 58 79 59 77 60 56 61 57 62 65 63 58 64
REMARK SMILES IDX 59 65 63 66 66 67 60 68 61 69 64 70 62 71 7 72 8 73 9 74
REMARK SMILES IDX 10 75 29 76 11 77 13 78 12 79 14 80 15 81 16 82 28 83 17 84
REMARK SMILES IDX 27 85 18 86 19 87 20 88 21 89 22 90 26 91 23 92 25 93 24 94
REMARK H PARENT 86 24 54 35
REMARK Flexibility Score: inf
ROOT
ATOM      1  O   UNL     1       0.626  -1.026  -3.909  1.00  0.00    -0.462 OA
ENDROOT
BRANCH   1   2
ATOM      2  C   UNL     1      -0.746  -1.444  -4.003  1.00  0.00     0.274 C 
BRANCH   2   3
ATOM      3  C   UNL     1      -1.423  -1.461  -2.630  1.00  0.00     0.275 C 
BRANCH   3   4
ATOM      4  O   UNL     1      -1.212  -0.249  -1.878  1.00  0.00    -0.458 OA
BRANCH   4   5
ATOM      5  C   UNL     1      -0.246   0.084  -0.992  1.00  0.00     0.338 C 
ATOM      6  O   UNL     1      -0.396   1.108  -0.326  1.00  0.00    -0.246 OA
BRANCH   5   7
ATOM      7  C   UNL     1       1.079  -0.613  -0.877  1.00  0.00     0.060 A 
ATOM      8  C   UNL     1       1.373  -1.918  -1.281  1.00  0.00     0.016 A 
ATOM      9  C   UNL     1       2.137   0.163  -0.358  1.00  0.00     0.016 A 
ATOM     10  C   UNL     1       2.685  -2.402  -1.273  1.00  0.00     0.010 A 
ATOM     11  C   UNL     1       3.450  -0.312  -0.342  1.00  0.00     0.010 A 
ATOM     12  C   UNL     1       3.727  -1.600  -0.808  1.00  0.00    -0.014 A 
BRANCH  12  13
ATOM     13  C   UNL     1       5.064  -2.190  -0.609  1.00  0.00     0.031 A 
ATOM     14  C   UNL     1       5.390  -2.696   0.759  1.00  0.00     0.074 A 
ATOM     15  C   UNL     1       5.946  -2.279  -1.618  1.00  0.00     0.049 A 
ATOM     16  N   UNL     1       6.497  -3.215   1.214  1.00  0.00    -0.248 NA
ATOM     17  C   UNL     1       4.309  -2.597   1.755  1.00  0.00     0.031 C 
ATOM     18  C   UNL     1       5.698  -1.853  -2.992  1.00  0.00     0.029 A 
ATOM     19  N   UNL     1       7.236  -2.741  -1.637  1.00  0.00    -0.354 N 
ATOM     20  C   UNL     1       6.248  -3.499   2.548  1.00  0.00     0.074 A 
ATOM     21  C   UNL     1       4.903  -3.060   2.841  1.00  0.00     0.031 C 
ATOM     22  C   UNL     1       6.815  -2.038  -3.717  1.00  0.00     0.029 A 
ATOM     23  C   UNL     1       7.859  -2.578  -2.850  1.00  0.00     0.049 A 
ATOM     24  H   UNL     1       7.674  -3.151  -0.856  1.00  0.00     0.167 HD
ATOM     25  C   UNL     1       7.073  -4.083   3.446  1.00  0.00     0.037 A 
ATOM     26  C   UNL     1       9.139  -2.815  -3.200  1.00  0.00     0.037 A 
ATOM     27  C   UNL     1       8.418  -4.476   3.139  1.00  0.00     0.049 A 
ATOM     28  C   UNL     1      10.071  -3.392  -2.165  1.00  0.00     0.074 A 
ATOM     29  C   UNL     1       9.357  -5.064   3.963  1.00  0.00     0.029 A 
ATOM     30  N   UNL     1       9.023  -4.293   1.900  1.00  0.00    -0.354 N 
ATOM     31  N   UNL     1       9.824  -3.699  -0.913  1.00  0.00    -0.248 NA
ATOM     32  C   UNL     1      11.451  -3.665  -2.586  1.00  0.00     0.031 C 
ATOM     33  C   UNL     1      10.550  -5.181   3.240  1.00  0.00     0.029 A 
ATOM     34  C   UNL     1      10.334  -4.729   1.946  1.00  0.00     0.049 A 
ATOM     35  H   UNL     1       8.582  -3.909   1.108  1.00  0.00     0.167 HD
ATOM     36  C   UNL     1      11.002  -4.228  -0.405  1.00  0.00     0.074 A 
ATOM     37  C   UNL     1      11.967  -4.200  -1.487  1.00  0.00     0.031 C 
ATOM     38  C   UNL     1      11.261  -4.701   0.840  1.00  0.00     0.037 A 
BRANCH  25  39
ATOM     39  C   UNL     1       6.538  -4.248   4.838  1.00  0.00     0.064 A 
ATOM     40  C   UNL     1       5.476  -5.122   5.124  1.00  0.00     0.173 A 
ATOM     41  C   UNL     1       7.036  -3.457   5.883  1.00  0.00     0.173 A 
ATOM     42  F   UNL     1       4.944  -5.879   4.152  1.00  0.00    -0.203 F 
ATOM     43  C   UNL     1       4.893  -5.150   6.388  1.00  0.00     0.198 A 
ATOM     44  C   UNL     1       6.474  -3.515   7.155  1.00  0.00     0.198 A 
ATOM     45  F   UNL     1       8.046  -2.603   5.663  1.00  0.00    -0.203 F 
ATOM     46  F   UNL     1       3.818  -5.919   6.611  1.00  0.00    -0.200 F 
ATOM     47  C   UNL     1       5.392  -4.347   7.402  1.00  0.00     0.200 A 
ATOM     48  F   UNL     1       6.960  -2.742   8.135  1.00  0.00    -0.200 F 
ATOM     49  F   UNL     1       4.815  -4.357   8.611  1.00  0.00    -0.200 F 
ENDBRANCH  25  39
BRANCH  26  50
ATOM     50  C   UNL     1       9.600  -2.498  -4.578  1.00  0.00     0.064 A 
ATOM     51  C   UNL     1       9.922  -3.511  -5.491  1.00  0.00     0.173 A 
ATOM     52  C   UNL     1       9.706  -1.169  -5.018  1.00  0.00     0.173 A 
ATOM     53  F   UNL     1       9.861  -4.797  -5.114  1.00  0.00    -0.203 F 
ATOM     54  C   UNL     1      10.335  -3.208  -6.788  1.00  0.00     0.198 A 
ATOM     55  C   UNL     1      10.095  -0.868  -6.322  1.00  0.00     0.198 A 
ATOM     56  F   UNL     1       9.420  -0.162  -4.181  1.00  0.00    -0.203 F 
ATOM     57  F   UNL     1      10.668  -4.196  -7.631  1.00  0.00    -0.200 F 
ATOM     58  C   UNL     1      10.413  -1.888  -7.206  1.00  0.00     0.200 A 
ATOM     59  F   UNL     1      10.166   0.409  -6.723  1.00  0.00    -0.200 F 
ATOM     60  F   UNL     1      10.802  -1.600  -8.456  1.00  0.00    -0.200 F 
ENDBRANCH  26  50
BRANCH  38  61
ATOM     61  C   UNL     1      12.623  -5.276   1.097  1.00  0.00     0.064 A 
ATOM     62  C   UNL     1      13.751  -4.460   1.255  1.00  0.00     0.173 A 
ATOM     63  C   UNL     1      12.770  -6.656   1.308  1.00  0.00     0.173 A 
ATOM     64  F   UNL     1      13.661  -3.137   1.052  1.00  0.00    -0.203 F 
ATOM     65  C   UNL     1      14.979  -5.006   1.617  1.00  0.00     0.198 A 
ATOM     66  C   UNL     1      13.991  -7.194   1.699  1.00  0.00     0.198 A 
ATOM     67  F   UNL     1      11.716  -7.476   1.177  1.00  0.00    -0.203 F 
ATOM     68  F   UNL     1      16.051  -4.212   1.746  1.00  0.00    -0.200 F 
ATOM     69  C   UNL     1      15.095  -6.368   1.853  1.00  0.00     0.200 A 
ATOM     70  F   UNL     1      14.095  -8.507   1.946  1.00  0.00    -0.200 F 
ATOM     71  F   UNL     1      16.271  -6.886   2.232  1.00  0.00    -0.200 F 
ENDBRANCH  38  61
ENDBRANCH  12  13
ENDBRANCH   5   7
ENDBRANCH   4   5
ENDBRANCH   3   4
ENDBRANCH   2   3
ENDBRANCH   1   2
BRANCH   1  72
ATOM     72  C   UNL     1       0.925   0.219  -4.379  1.00  0.00     0.311 C 
ATOM     73  O   UNL     1       0.171   0.923  -5.031  1.00  0.00    -0.252 OA
BRANCH  72  74
ATOM     74  C   UNL     1       2.307   0.618  -3.941  1.00  0.00     0.128 C 
ATOM     75  C   UNL     1       3.326   0.705  -5.065  1.00  0.00     0.117 C 
ATOM     76  C   UNL     1       2.331   2.015  -3.349  1.00  0.00     0.135 C 
ATOM     77  C   UNL     1       4.341   1.672  -4.491  1.00  0.00     0.223 C 
ATOM     78  N   UNL     1       3.720   2.388  -3.481  1.00  0.00    -0.337 N 
ATOM     79  O   UNL     1       5.493   1.785  -4.875  1.00  0.00    -0.275 OA
BRANCH  78  80
ATOM     80  C   UNL     1       4.335   3.466  -2.714  1.00  0.00     0.155 C 
BRANCH  80  81
ATOM     81  C   UNL     1       3.625   4.779  -2.937  1.00  0.00    -0.028 A 
ATOM     82  C   UNL     1       3.991   5.601  -4.009  1.00  0.00     0.009 A 
ATOM     83  C   UNL     1       2.506   5.127  -2.166  1.00  0.00     0.009 A 
ATOM     84  C   UNL     1       3.181   6.675  -4.375  1.00  0.00     0.047 A 
ATOM     85  C   UNL     1       1.694   6.202  -2.536  1.00  0.00     0.047 A 
ATOM     86  C   UNL     1       1.987   6.921  -3.694  1.00  0.00     0.119 A 
BRANCH  86  87
ATOM     87  O   UNL     1       1.141   7.782  -4.336  1.00  0.00    -0.489 OA
BRANCH  87  88
ATOM     88  C   UNL     1      -0.264   7.697  -4.064  1.00  0.00     0.265 C 
BRANCH  88  89
ATOM     89  C   UNL     1      -1.034   6.479  -4.565  1.00  0.00    -0.011 A 
ATOM     90  C   UNL     1      -2.432   6.580  -4.691  1.00  0.00     0.007 A 
ATOM     91  C   UNL     1      -0.451   5.229  -4.817  1.00  0.00     0.007 A 
ATOM     92  C   UNL     1      -3.213   5.466  -5.015  1.00  0.00     0.000 A 
ATOM     93  C   UNL     1      -1.234   4.112  -5.116  1.00  0.00     0.000 A 
ATOM     94  C   UNL     1      -2.614   4.225  -5.207  1.00  0.00     0.000 A 
ENDBRANCH  88  89
ENDBRANCH  87  88
ENDBRANCH  86  87
ENDBRANCH  80  81
ENDBRANCH  78  80
ENDBRANCH  72  74
ENDBRANCH   1  72
TORSDOF 16
