REMARK SMILES O=C(OCCOC(=O)[C@H]1CC2=c3ccccc3=N[C@H]2[C@H](c2ccccc2F)[NH2+]1)c1ccc(-c2c3nc(c(-c4c(F)c(F)c(F)c(F)c4F)c4ccc([nH]4)c(-c4c(F)c(F)c(F)c(F)c4F)c4nc(c(-c5c(F)c(F)c(F)c(F)c5F)c5ccc2[nH]5)C=C4)C=C3)cc1
REMARK SMILES IDX 4 1 3 2 2 3 1 4 29 5 30 6 91 7 31 8 90 9 32 10 33 11 34 12
REMARK SMILES IDX 84 13 35 14 89 15 83 16 85 17 36 18 88 19 82 20 81 21 37 23
REMARK SMILES IDX 69 24 49 25 68 26 50 27 53 28 67 29 86 30 51 31 52 32 66 34
REMARK SMILES IDX 87 35 54 36 38 37 39 38 47 39 40 40 41 41 45 42 48 43 42 44
REMARK SMILES IDX 43 45 46 46 44 47 70 48 71 49 79 50 72 51 73 52 77 53 80 54
REMARK SMILES IDX 74 55 75 56 78 57 76 58 55 59 56 60 64 61 57 62 58 63 62 64
REMARK SMILES IDX 65 65 59 66 60 67 63 68 61 69 5 70 6 71 7 72 8 73 9 74 10 75
REMARK SMILES IDX 28 76 11 77 20 78 12 81 19 82 13 83 17 84 18 85 14 86 16 87
REMARK SMILES IDX 15 88 21 89 22 90 26 91 23 92 25 93 27 94 24 95
REMARK H PARENT 85 22 53 33 28 79 28 80
REMARK Flexibility Score: inf
ROOT
ATOM      1  C   UNL     1       4.262  -1.195   1.236  1.00  0.00     0.275 C 
ENDROOT
BRANCH   1   2
ATOM      2  O   UNL     1       3.877   0.188   1.251  1.00  0.00    -0.458 OA
BRANCH   2   3
ATOM      3  C   UNL     1       4.244   1.109   0.332  1.00  0.00     0.338 C 
ATOM      4  O   UNL     1       3.872   2.277   0.412  1.00  0.00    -0.246 OA
BRANCH   3   5
ATOM      5  C   UNL     1       4.954   0.676  -0.893  1.00  0.00     0.060 A 
ATOM      6  C   UNL     1       4.265   0.907  -2.071  1.00  0.00     0.016 A 
ATOM      7  C   UNL     1       6.242   0.124  -0.955  1.00  0.00     0.016 A 
ATOM      8  C   UNL     1       4.828   0.513  -3.273  1.00  0.00     0.010 A 
ATOM      9  C   UNL     1       6.816  -0.240  -2.200  1.00  0.00     0.010 A 
ATOM     10  C   UNL     1       6.099  -0.048  -3.382  1.00  0.00    -0.014 A 
BRANCH  10  11
ATOM     11  C   UNL     1       6.557  -0.226  -4.796  1.00  0.00     0.031 A 
ATOM     12  C   UNL     1       6.148  -1.433  -5.600  1.00  0.00     0.074 A 
ATOM     13  C   UNL     1       6.936   0.887  -5.465  1.00  0.00     0.049 A 
ATOM     14  N   UNL     1       6.192  -1.616  -6.898  1.00  0.00    -0.248 NA
ATOM     15  C   UNL     1       5.583  -2.566  -4.854  1.00  0.00     0.031 C 
ATOM     16  C   UNL     1       7.127   2.194  -4.840  1.00  0.00     0.029 A 
ATOM     17  N   UNL     1       7.070   1.141  -6.814  1.00  0.00    -0.354 N 
ATOM     18  C   UNL     1       5.659  -2.876  -7.128  1.00  0.00     0.074 A 
ATOM     19  C   UNL     1       5.284  -3.412  -5.834  1.00  0.00     0.031 C 
ATOM     20  C   UNL     1       7.219   3.127  -5.799  1.00  0.00     0.029 A 
ATOM     21  C   UNL     1       7.188   2.482  -7.112  1.00  0.00     0.049 A 
ATOM     22  H   UNL     1       7.081   0.432  -7.498  1.00  0.00     0.167 HD
ATOM     23  C   UNL     1       5.526  -3.537  -8.305  1.00  0.00     0.037 A 
ATOM     24  C   UNL     1       7.258   3.126  -8.298  1.00  0.00     0.037 A 
ATOM     25  C   UNL     1       5.942  -3.035  -9.591  1.00  0.00     0.049 A 
ATOM     26  C   UNL     1       7.314   2.314  -9.566  1.00  0.00     0.074 A 
ATOM     27  C   UNL     1       6.023  -3.712 -10.798  1.00  0.00     0.029 A 
ATOM     28  N   UNL     1       6.346  -1.735  -9.841  1.00  0.00    -0.354 N 
ATOM     29  N   UNL     1       6.989   1.062  -9.764  1.00  0.00    -0.248 NA
ATOM     30  C   UNL     1       7.829   2.996 -10.764  1.00  0.00     0.031 C 
ATOM     31  C   UNL     1       6.548  -2.841 -11.760  1.00  0.00     0.029 A 
ATOM     32  C   UNL     1       6.739  -1.606 -11.166  1.00  0.00     0.049 A 
ATOM     33  H   UNL     1       6.353  -1.008  -9.177  1.00  0.00     0.167 HD
ATOM     34  C   UNL     1       7.305   0.793 -11.091  1.00  0.00     0.074 A 
ATOM     35  C   UNL     1       7.775   2.031 -11.672  1.00  0.00     0.031 C 
ATOM     36  C   UNL     1       7.248  -0.391 -11.747  1.00  0.00     0.037 A 
BRANCH  23  37
ATOM     37  C   UNL     1       5.019  -4.947  -8.257  1.00  0.00     0.064 A 
ATOM     38  C   UNL     1       3.653  -5.249  -8.212  1.00  0.00     0.173 A 
ATOM     39  C   UNL     1       5.931  -6.010  -8.359  1.00  0.00     0.173 A 
ATOM     40  F   UNL     1       2.745  -4.266  -8.113  1.00  0.00    -0.203 F 
ATOM     41  C   UNL     1       3.217  -6.572  -8.271  1.00  0.00     0.198 A 
ATOM     42  C   UNL     1       5.491  -7.326  -8.435  1.00  0.00     0.198 A 
ATOM     43  F   UNL     1       7.249  -5.764  -8.419  1.00  0.00    -0.203 F 
ATOM     44  F   UNL     1       1.906  -6.848  -8.222  1.00  0.00    -0.200 F 
ATOM     45  C   UNL     1       4.135  -7.607  -8.391  1.00  0.00     0.200 A 
ATOM     46  F   UNL     1       6.380  -8.321  -8.568  1.00  0.00    -0.200 F 
ATOM     47  F   UNL     1       3.712  -8.876  -8.469  1.00  0.00    -0.200 F 
ENDBRANCH  23  37
BRANCH  24  48
ATOM     48  C   UNL     1       7.358   4.616  -8.364  1.00  0.00     0.064 A 
ATOM     49  C   UNL     1       6.436   5.376  -9.101  1.00  0.00     0.173 A 
ATOM     50  C   UNL     1       8.394   5.314  -7.723  1.00  0.00     0.173 A 
ATOM     51  F   UNL     1       5.455   4.766  -9.783  1.00  0.00    -0.203 F 
ATOM     52  C   UNL     1       6.539   6.766  -9.178  1.00  0.00     0.198 A 
ATOM     53  C   UNL     1       8.464   6.704  -7.754  1.00  0.00     0.198 A 
ATOM     54  F   UNL     1       9.340   4.644  -7.048  1.00  0.00    -0.203 F 
ATOM     55  F   UNL     1       5.676   7.461  -9.931  1.00  0.00    -0.200 F 
ATOM     56  C   UNL     1       7.541   7.430  -8.487  1.00  0.00     0.200 A 
ATOM     57  F   UNL     1       9.430   7.336  -7.073  1.00  0.00    -0.200 F 
ATOM     58  F   UNL     1       7.626   8.766  -8.538  1.00  0.00    -0.200 F 
ENDBRANCH  24  48
BRANCH  36  59
ATOM     59  C   UNL     1       7.789  -0.441 -13.149  1.00  0.00     0.064 A 
ATOM     60  C   UNL     1       9.170  -0.345 -13.389  1.00  0.00     0.173 A 
ATOM     61  C   UNL     1       6.949  -0.651 -14.252  1.00  0.00     0.173 A 
ATOM     62  F   UNL     1      10.018  -0.135 -12.371  1.00  0.00    -0.203 F 
ATOM     63  C   UNL     1       9.685  -0.439 -14.679  1.00  0.00     0.198 A 
ATOM     64  C   UNL     1       7.471  -0.771 -15.539  1.00  0.00     0.198 A 
ATOM     65  F   UNL     1       5.623  -0.759 -14.082  1.00  0.00    -0.203 F 
ATOM     66  F   UNL     1      11.004  -0.309 -14.883  1.00  0.00    -0.200 F 
ATOM     67  C   UNL     1       8.837  -0.660 -15.752  1.00  0.00     0.200 A 
ATOM     68  F   UNL     1       6.651  -0.999 -16.575  1.00  0.00    -0.200 F 
ATOM     69  F   UNL     1       9.335  -0.763 -16.992  1.00  0.00    -0.200 F 
ENDBRANCH  36  59
ENDBRANCH  10  11
ENDBRANCH   3   5
ENDBRANCH   2   3
ENDBRANCH   1   2
BRANCH   1  70
ATOM     70  C   UNL     1       3.350  -2.122   0.426  1.00  0.00     0.274 C 
BRANCH  70  71
ATOM     71  O   UNL     1       3.031  -1.691  -0.912  1.00  0.00    -0.458 OA
BRANCH  71  72
ATOM     72  C   UNL     1       1.799  -1.111  -1.046  1.00  0.00     0.365 C 
ATOM     73  O   UNL     1       1.135  -0.713  -0.092  1.00  0.00    -0.245 OA
BRANCH  72  74
ATOM     74  C   UNL     1       1.238  -1.110  -2.487  1.00  0.00     0.298 C 
ATOM     75  C   UNL     1       0.503   0.213  -2.838  1.00  0.00     0.111 C 
ATOM     76  N   UNL     1       2.174  -1.667  -3.522  1.00  0.00    -0.326 N 
ATOM     77  C   UNL     1       1.073   0.881  -4.040  1.00  0.00    -0.024 C 
ATOM     78  C   UNL     1       1.701  -1.458  -4.928  1.00  0.00     0.246 C 
ATOM     79  H   UNL     1       2.275  -2.669  -3.360  1.00  0.00     0.347 HD
ATOM     80  H   UNL     1       3.059  -1.169  -3.425  1.00  0.00     0.347 HD
ATOM     81  C   UNL     1       1.481   2.137  -4.166  1.00  0.00     0.002 A 
ATOM     82  C   UNL     1       1.492   0.082  -5.232  1.00  0.00     0.196 C 
ATOM     83  C   UNL     1       1.331   3.308  -3.375  1.00  0.00     0.010 A 
ATOM     84  C   UNL     1       2.549   1.986  -5.173  1.00  0.00     0.066 A 
ATOM     85  N   UNL     1       2.673   0.825  -5.763  1.00  0.00    -0.270 NA
ATOM     86  C   UNL     1       2.253   4.275  -3.483  1.00  0.00     0.001 A 
ATOM     87  C   UNL     1       3.533   3.096  -5.221  1.00  0.00     0.028 A 
ATOM     88  C   UNL     1       3.402   4.122  -4.360  1.00  0.00     0.002 A 
BRANCH  78  89
ATOM     89  C   UNL     1       0.383  -2.195  -5.271  1.00  0.00     0.048 A 
ATOM     90  C   UNL     1      -0.307  -1.830  -6.442  1.00  0.00     0.013 A 
ATOM     91  C   UNL     1      -0.299  -3.030  -4.385  1.00  0.00     0.132 A 
ATOM     92  C   UNL     1      -1.696  -1.933  -6.505  1.00  0.00     0.001 A 
ATOM     93  C   UNL     1      -1.687  -3.127  -4.426  1.00  0.00     0.040 A 
ATOM     94  F   UNL     1       0.340  -3.687  -3.405  1.00  0.00    -0.206 F 
ATOM     95  C   UNL     1      -2.394  -2.512  -5.453  1.00  0.00     0.003 A 
ENDBRANCH  78  89
ENDBRANCH  72  74
ENDBRANCH  71  72
ENDBRANCH  70  71
ENDBRANCH   1  70
TORSDOF 12
