REMARK SMILES CC(C)[C@@H](NC(=O)[C@@](C)([NH3+])C(F)(F)F)C(=O)OCCOC(=O)c1ccc(-c2c3nc(c(-c4c(F)c(F)c(F)c(F)c4F)c4ccc([nH]4)c(-c4c(F)c(F)c(F)c(F)c4F)c4nc(c(-c5c(F)c(F)c(F)c(F)c5F)c5ccc2[nH]5)C=C4)C=C3)cc1
REMARK SMILES IDX 18 1 17 2 15 3 16 4 4 5 2 6 1 7 3 8 5 9 6 10 7 12 8 13 9 14
REMARK SMILES IDX 10 15 11 19 12 20 13 21 14 22 19 23 20 24 21 25 22 26 23 27
REMARK SMILES IDX 24 28 85 29 25 30 84 31 26 32 27 33 28 34 78 35 29 36 83 37
REMARK SMILES IDX 77 38 79 39 30 40 82 41 76 42 75 43 31 45 63 46 43 47 62 48
REMARK SMILES IDX 44 49 47 50 61 51 80 52 45 53 46 54 60 56 81 57 48 58 32 59
REMARK SMILES IDX 33 60 41 61 34 62 35 63 39 64 42 65 36 66 37 67 40 68 38 69
REMARK SMILES IDX 64 70 65 71 73 72 66 73 67 74 71 75 74 76 68 77 69 78 72 79
REMARK SMILES IDX 70 80 49 81 50 82 58 83 51 84 52 85 56 86 59 87 53 88 54 89
REMARK SMILES IDX 57 90 55 91
REMARK H PARENT 5 11 10 16 10 17 10 18 79 44 47 55
REMARK Flexibility Score: inf
ROOT
ATOM      1  C   UNL     1      -1.242  -5.426  -0.052  1.00  0.00     0.274 C 
ENDROOT
BRANCH   1   2
ATOM      2  O   UNL     1      -0.644  -4.115  -0.163  1.00  0.00    -0.461 OA
BRANCH   2   3
ATOM      3  C   UNL     1      -1.439  -3.064   0.163  1.00  0.00     0.329 C 
ATOM      4  O   UNL     1      -2.551  -3.181   0.671  1.00  0.00    -0.250 OA
BRANCH   3   5
ATOM      5  C   UNL     1      -0.909  -1.698  -0.307  1.00  0.00     0.195 C 
BRANCH   5   6
ATOM      6  C   UNL     1       0.613  -1.528  -0.573  1.00  0.00     0.017 C 
ATOM      7  C   UNL     1       0.975  -0.035  -0.716  1.00  0.00     0.010 C 
ATOM      8  C   UNL     1       1.483  -2.082   0.566  1.00  0.00     0.010 C 
ENDBRANCH   5   6
BRANCH   5   9
ATOM      9  N   UNL     1      -1.762  -1.001  -1.311  1.00  0.00    -0.337 N 
ATOM     10  C   UNL     1      -2.362  -1.301  -2.505  1.00  0.00     0.291 C 
ATOM     11  H   UNL     1      -1.945  -0.072  -1.042  1.00  0.00     0.164 HD
ATOM     12  O   UNL     1      -2.541  -0.329  -3.244  1.00  0.00    -0.267 OA
BRANCH  10  13
ATOM     13  C   UNL     1      -2.865  -2.713  -2.879  1.00  0.00     0.267 C 
ATOM     14  C   UNL     1      -1.693  -3.680  -3.095  1.00  0.00     0.100 C 
BRANCH  13  15
ATOM     15  N   UNL     1      -3.799  -3.194  -1.812  1.00  0.00    -0.337 N 
ATOM     16  H   UNL     1      -3.298  -3.261  -0.926  1.00  0.00     0.345 HD
ATOM     17  H   UNL     1      -4.163  -4.112  -2.067  1.00  0.00     0.345 HD
ATOM     18  H   UNL     1      -4.573  -2.536  -1.716  1.00  0.00     0.345 HD
ENDBRANCH  13  15
BRANCH  13  19
ATOM     19  C   UNL     1      -3.630  -2.610  -4.236  1.00  0.00     0.453 C 
ATOM     20  F   UNL     1      -4.713  -1.804  -4.184  1.00  0.00    -0.164 F 
ATOM     21  F   UNL     1      -2.842  -2.202  -5.256  1.00  0.00    -0.164 F 
ATOM     22  F   UNL     1      -4.088  -3.848  -4.586  1.00  0.00    -0.164 F 
ENDBRANCH  13  19
ENDBRANCH  10  13
ENDBRANCH   5   9
ENDBRANCH   3   5
ENDBRANCH   2   3
ENDBRANCH   1   2
BRANCH   1  23
ATOM     23  C   UNL     1      -0.907  -6.144   1.255  1.00  0.00     0.275 C 
BRANCH  23  24
ATOM     24  O   UNL     1      -1.438  -5.439   2.387  1.00  0.00    -0.458 OA
BRANCH  24  25
ATOM     25  C   UNL     1      -0.561  -4.592   2.971  1.00  0.00     0.338 C 
ATOM     26  O   UNL     1       0.620  -4.450   2.707  1.00  0.00    -0.246 OA
BRANCH  25  27
ATOM     27  C   UNL     1      -1.273  -3.685   3.878  1.00  0.00     0.060 A 
ATOM     28  C   UNL     1      -1.197  -2.319   3.594  1.00  0.00     0.016 A 
ATOM     29  C   UNL     1      -1.905  -4.143   5.034  1.00  0.00     0.016 A 
ATOM     30  C   UNL     1      -1.727  -1.391   4.476  1.00  0.00     0.010 A 
ATOM     31  C   UNL     1      -2.425  -3.208   5.933  1.00  0.00     0.010 A 
ATOM     32  C   UNL     1      -2.308  -1.833   5.667  1.00  0.00    -0.014 A 
BRANCH  32  33
ATOM     33  C   UNL     1      -2.645  -0.825   6.691  1.00  0.00     0.031 A 
ATOM     34  C   UNL     1      -1.660  -0.560   7.790  1.00  0.00     0.074 A 
ATOM     35  C   UNL     1      -3.771  -0.103   6.578  1.00  0.00     0.049 A 
ATOM     36  N   UNL     1      -1.748   0.260   8.805  1.00  0.00    -0.248 NA
ATOM     37  C   UNL     1      -0.398  -1.317   7.734  1.00  0.00     0.031 C 
ATOM     38  C   UNL     1      -4.749  -0.232   5.498  1.00  0.00     0.029 A 
ATOM     39  N   UNL     1      -4.274   0.891   7.375  1.00  0.00    -0.354 N 
ATOM     40  C   UNL     1      -0.565   0.105   9.515  1.00  0.00     0.074 A 
ATOM     41  C   UNL     1       0.222  -0.892   8.824  1.00  0.00     0.031 C 
ATOM     42  C   UNL     1      -5.741   0.651   5.703  1.00  0.00     0.029 A 
ATOM     43  C   UNL     1      -5.482   1.377   6.944  1.00  0.00     0.049 A 
ATOM     44  H   UNL     1      -3.813   1.223   8.179  1.00  0.00     0.167 HD
ATOM     45  C   UNL     1      -0.177   0.742  10.645  1.00  0.00     0.037 A 
ATOM     46  C   UNL     1      -6.291   2.293   7.507  1.00  0.00     0.037 A 
ATOM     47  C   UNL     1      -0.973   1.732  11.320  1.00  0.00     0.049 A 
ATOM     48  C   UNL     1      -5.858   2.949   8.790  1.00  0.00     0.074 A 
ATOM     49  C   UNL     1      -0.699   2.415  12.490  1.00  0.00     0.029 A 
ATOM     50  N   UNL     1      -2.208   2.181  10.873  1.00  0.00    -0.354 N 
ATOM     51  N   UNL     1      -4.757   2.773   9.480  1.00  0.00    -0.248 NA
ATOM     52  C   UNL     1      -6.781   3.932   9.372  1.00  0.00     0.031 C 
ATOM     53  C   UNL     1      -1.784   3.255  12.768  1.00  0.00     0.029 A 
ATOM     54  C   UNL     1      -2.713   3.128  11.748  1.00  0.00     0.049 A 
ATOM     55  H   UNL     1      -2.659   1.872  10.054  1.00  0.00     0.167 HD
ATOM     56  C   UNL     1      -4.842   3.635  10.564  1.00  0.00     0.074 A 
ATOM     57  C   UNL     1      -6.098   4.346  10.430  1.00  0.00     0.031 C 
ATOM     58  C   UNL     1      -3.965   3.821  11.582  1.00  0.00     0.037 A 
BRANCH  45  59
ATOM     59  C   UNL     1       1.143   0.346  11.236  1.00  0.00     0.064 A 
ATOM     60  C   UNL     1       2.360   0.718  10.644  1.00  0.00     0.173 A 
ATOM     61  C   UNL     1       1.191  -0.420  12.409  1.00  0.00     0.173 A 
ATOM     62  F   UNL     1       2.367   1.430   9.507  1.00  0.00    -0.203 F 
ATOM     63  C   UNL     1       3.575   0.316  11.193  1.00  0.00     0.198 A 
ATOM     64  C   UNL     1       2.408  -0.800  12.969  1.00  0.00     0.198 A 
ATOM     65  F   UNL     1       0.056  -0.806  13.012  1.00  0.00    -0.203 F 
ATOM     66  F   UNL     1       4.724   0.640  10.583  1.00  0.00    -0.200 F 
ATOM     67  C   UNL     1       3.599  -0.438  12.357  1.00  0.00     0.200 A 
ATOM     68  F   UNL     1       2.429  -1.524  14.096  1.00  0.00    -0.200 F 
ATOM     69  F   UNL     1       4.769  -0.827  12.882  1.00  0.00    -0.200 F 
ENDBRANCH  45  59
BRANCH  46  70
ATOM     70  C   UNL     1      -7.588   2.629   6.867  1.00  0.00     0.064 A 
ATOM     71  C   UNL     1      -7.804   3.883   6.282  1.00  0.00     0.173 A 
ATOM     72  C   UNL     1      -8.638   1.699   6.825  1.00  0.00     0.173 A 
ATOM     73  F   UNL     1      -6.839   4.814   6.317  1.00  0.00    -0.203 F 
ATOM     74  C   UNL     1      -9.026   4.200   5.692  1.00  0.00     0.198 A 
ATOM     75  C   UNL     1      -9.850   2.007   6.212  1.00  0.00     0.198 A 
ATOM     76  F   UNL     1      -8.481   0.484   7.373  1.00  0.00    -0.203 F 
ATOM     77  F   UNL     1      -9.222   5.421   5.176  1.00  0.00    -0.200 F 
ATOM     78  C   UNL     1     -10.045   3.260   5.651  1.00  0.00     0.200 A 
ATOM     79  F   UNL     1     -10.827   1.092   6.167  1.00  0.00    -0.200 F 
ATOM     80  F   UNL     1     -11.219   3.564   5.080  1.00  0.00    -0.200 F 
ENDBRANCH  46  70
BRANCH  58  81
ATOM     81  C   UNL     1      -4.325   4.859  12.602  1.00  0.00     0.064 A 
ATOM     82  C   UNL     1      -5.334   4.638  13.551  1.00  0.00     0.173 A 
ATOM     83  C   UNL     1      -3.638   6.082  12.641  1.00  0.00     0.173 A 
ATOM     84  F   UNL     1      -6.027   3.489  13.543  1.00  0.00    -0.203 F 
ATOM     85  C   UNL     1      -5.663   5.617  14.483  1.00  0.00     0.198 A 
ATOM     86  C   UNL     1      -3.953   7.048  13.591  1.00  0.00     0.198 A 
ATOM     87  F   UNL     1      -2.660   6.336  11.759  1.00  0.00    -0.203 F 
ATOM     88  F   UNL     1      -6.665   5.406  15.347  1.00  0.00    -0.200 F 
ATOM     89  C   UNL     1      -4.970   6.819  14.505  1.00  0.00     0.200 A 
ATOM     90  F   UNL     1      -3.275   8.204  13.619  1.00  0.00    -0.200 F 
ATOM     91  F   UNL     1      -5.291   7.761  15.402  1.00  0.00    -0.200 F 
ENDBRANCH  58  81
ENDBRANCH  32  33
ENDBRANCH  25  27
ENDBRANCH  24  25
ENDBRANCH  23  24
ENDBRANCH   1  23
TORSDOF 16
