REMARK SMILES CC[C@@H](C)N(CC(=O)OCCOC(=O)c1ccc(-c2c3nc(c(-c4c(F)c(F)c(F)c(F)c4F)c4ccc([nH]4)c(-c4c(F)c(F)c(F)c(F)c4F)c4nc(c(-c5c(F)c(F)c(F)c(F)c5F)c5ccc2[nH]5)C=C4)C=C3)cc1)C(=O)c1ccc(F)c(F)c1F
REMARK SMILES IDX 10 1 9 2 7 3 8 4 6 5 5 6 3 7 4 8 2 9 1 10 78 11 79 12 80 13
REMARK SMILES IDX 81 14 87 15 82 16 85 17 88 18 83 19 86 20 84 21 11 22 12 23
REMARK SMILES IDX 13 24 14 25 15 26 16 27 77 28 17 29 76 30 18 31 19 32 20 33
REMARK SMILES IDX 70 34 21 35 75 36 69 37 71 38 22 39 74 40 68 41 67 42 23 44
REMARK SMILES IDX 55 45 35 46 54 47 36 48 39 49 53 50 72 51 37 52 38 53 52 55
REMARK SMILES IDX 73 56 40 57 24 58 25 59 33 60 26 61 27 62 31 63 34 64 28 65
REMARK SMILES IDX 29 66 32 67 30 68 56 69 57 70 65 71 58 72 59 73 63 74 66 75
REMARK SMILES IDX 60 76 61 77 64 78 62 79 41 80 42 81 50 82 43 83 44 84 48 85
REMARK SMILES IDX 51 86 45 87 46 88 49 89 47 90
REMARK H PARENT 71 43 39 54
REMARK Flexibility Score: inf
ROOT
ATOM      1  C   UNL     1       1.682   7.151   1.223  1.00  0.00     0.274 C 
ENDROOT
BRANCH   1   2
ATOM      2  O   UNL     1       1.008   5.875   1.198  1.00  0.00    -0.461 OA
BRANCH   2   3
ATOM      3  C   UNL     1       1.470   4.966   2.094  1.00  0.00     0.325 C 
ATOM      4  O   UNL     1       2.400   5.170   2.871  1.00  0.00    -0.250 OA
BRANCH   3   5
ATOM      5  C   UNL     1       0.582   3.733   2.233  1.00  0.00     0.242 C 
BRANCH   5   6
ATOM      6  N   UNL     1      -0.133   3.203   1.066  1.00  0.00    -0.325 N 
BRANCH   6   7
ATOM      7  C   UNL     1       0.670   2.339   0.172  1.00  0.00     0.082 C 
ATOM      8  C   UNL     1       0.464   2.648  -1.315  1.00  0.00     0.031 C 
BRANCH   7   9
ATOM      9  C   UNL     1       0.451   0.855   0.531  1.00  0.00     0.021 C 
ATOM     10  C   UNL     1       1.315  -0.109  -0.267  1.00  0.00     0.006 C 
ENDBRANCH   7   9
ENDBRANCH   6   7
BRANCH   6  11
ATOM     11  C   UNL     1      -1.513   3.301   0.864  1.00  0.00     0.257 C 
ATOM     12  O   UNL     1      -2.128   2.688  -0.005  1.00  0.00    -0.269 OA
BRANCH  11  13
ATOM     13  C   UNL     1      -2.342   4.129   1.746  1.00  0.00     0.079 A 
ATOM     14  C   UNL     1      -2.710   3.659   3.016  1.00  0.00     0.020 A 
ATOM     15  C   UNL     1      -2.886   5.310   1.241  1.00  0.00     0.174 A 
ATOM     16  C   UNL     1      -3.575   4.419   3.804  1.00  0.00     0.043 A 
ATOM     17  C   UNL     1      -3.761   6.054   2.024  1.00  0.00     0.195 A 
ATOM     18  F   UNL     1      -2.559   5.745   0.015  1.00  0.00    -0.203 F 
ATOM     19  C   UNL     1      -4.089   5.616   3.304  1.00  0.00     0.161 A 
ATOM     20  F   UNL     1      -4.273   7.202   1.558  1.00  0.00    -0.200 F 
ATOM     21  F   UNL     1      -4.909   6.342   4.077  1.00  0.00    -0.204 F 
ENDBRANCH  11  13
ENDBRANCH   6  11
ENDBRANCH   5   6
ENDBRANCH   3   5
ENDBRANCH   2   3
ENDBRANCH   1   2
BRANCH   1  22
ATOM     22  C   UNL     1       0.983   8.170   2.132  1.00  0.00     0.275 C 
BRANCH  22  23
ATOM     23  O   UNL     1       0.901   7.727   3.504  1.00  0.00    -0.458 OA
BRANCH  23  24
ATOM     24  C   UNL     1      -0.273   7.137   3.809  1.00  0.00     0.338 C 
ATOM     25  O   UNL     1      -1.203   6.927   3.048  1.00  0.00    -0.246 OA
BRANCH  24  26
ATOM     26  C   UNL     1      -0.357   6.690   5.202  1.00  0.00     0.060 A 
ATOM     27  C   UNL     1       0.241   5.485   5.575  1.00  0.00     0.016 A 
ATOM     28  C   UNL     1      -1.250   7.338   6.059  1.00  0.00     0.016 A 
ATOM     29  C   UNL     1      -0.092   4.902   6.795  1.00  0.00     0.010 A 
ATOM     30  C   UNL     1      -1.539   6.780   7.306  1.00  0.00     0.010 A 
ATOM     31  C   UNL     1      -0.981   5.546   7.671  1.00  0.00    -0.014 A 
BRANCH  31  32
ATOM     32  C   UNL     1      -1.258   4.951   8.998  1.00  0.00     0.031 A 
ATOM     33  C   UNL     1      -2.570   4.293   9.306  1.00  0.00     0.074 A 
ATOM     34  C   UNL     1      -0.288   5.000   9.928  1.00  0.00     0.049 A 
ATOM     35  N   UNL     1      -2.955   3.703  10.410  1.00  0.00    -0.248 NA
ATOM     36  C   UNL     1      -3.581   4.290   8.239  1.00  0.00     0.031 C 
ATOM     37  C   UNL     1       1.025   5.618   9.736  1.00  0.00     0.029 A 
ATOM     38  N   UNL     1      -0.251   4.521  11.211  1.00  0.00    -0.354 N 
ATOM     39  C   UNL     1      -4.247   3.255  10.172  1.00  0.00     0.074 A 
ATOM     40  C   UNL     1      -4.590   3.654   8.822  1.00  0.00     0.031 C 
ATOM     41  C   UNL     1       1.746   5.467  10.857  1.00  0.00     0.029 A 
ATOM     42  C   UNL     1       0.934   4.774  11.851  1.00  0.00     0.049 A 
ATOM     43  H   UNL     1      -1.002   4.042  11.631  1.00  0.00     0.167 HD
ATOM     44  C   UNL     1      -5.067   2.572  11.007  1.00  0.00     0.037 A 
ATOM     45  C   UNL     1       1.322   4.491  13.108  1.00  0.00     0.037 A 
ATOM     46  C   UNL     1      -4.729   2.191  12.354  1.00  0.00     0.049 A 
ATOM     47  C   UNL     1       0.382   3.766  14.021  1.00  0.00     0.074 A 
ATOM     48  C   UNL     1      -5.490   1.485  13.271  1.00  0.00     0.029 A 
ATOM     49  N   UNL     1      -3.531   2.496  12.982  1.00  0.00    -0.354 N 
ATOM     50  N   UNL     1      -0.829   3.329  13.776  1.00  0.00    -0.248 NA
ATOM     51  C   UNL     1       0.859   3.498  15.383  1.00  0.00     0.031 C 
ATOM     52  C   UNL     1      -4.763   1.388  14.464  1.00  0.00     0.029 A 
ATOM     53  C   UNL     1      -3.539   2.010  14.281  1.00  0.00     0.049 A 
ATOM     54  H   UNL     1      -2.784   2.985  12.567  1.00  0.00     0.167 HD
ATOM     55  C   UNL     1      -1.263   2.738  14.951  1.00  0.00     0.074 A 
ATOM     56  C   UNL     1      -0.176   2.853  15.904  1.00  0.00     0.031 C 
ATOM     57  C   UNL     1      -2.457   2.156  15.218  1.00  0.00     0.037 A 
BRANCH  44  58
ATOM     58  C   UNL     1      -6.423   2.198  10.493  1.00  0.00     0.064 A 
ATOM     59  C   UNL     1      -6.601   1.094   9.647  1.00  0.00     0.173 A 
ATOM     60  C   UNL     1      -7.562   2.906  10.902  1.00  0.00     0.173 A 
ATOM     61  F   UNL     1      -5.539   0.393   9.222  1.00  0.00    -0.203 F 
ATOM     62  C   UNL     1      -7.873   0.715   9.225  1.00  0.00     0.198 A 
ATOM     63  C   UNL     1      -8.833   2.518  10.487  1.00  0.00     0.198 A 
ATOM     64  F   UNL     1      -7.441   3.968  11.713  1.00  0.00    -0.203 F 
ATOM     65  F   UNL     1      -8.020  -0.334   8.403  1.00  0.00    -0.200 F 
ATOM     66  C   UNL     1      -8.988   1.423   9.649  1.00  0.00     0.200 A 
ATOM     67  F   UNL     1      -9.910   3.200  10.902  1.00  0.00    -0.200 F 
ATOM     68  F   UNL     1     -10.211   1.052   9.248  1.00  0.00    -0.200 F 
ENDBRANCH  44  58
BRANCH  45  69
ATOM     69  C   UNL     1       2.671   4.909  13.552  1.00  0.00     0.064 A 
ATOM     70  C   UNL     1       3.712   3.980  13.658  1.00  0.00     0.173 A 
ATOM     71  C   UNL     1       2.958   6.257  13.809  1.00  0.00     0.173 A 
ATOM     72  F   UNL     1       3.475   2.680  13.433  1.00  0.00    -0.203 F 
ATOM     73  C   UNL     1       5.000   4.387  13.999  1.00  0.00     0.198 A 
ATOM     74  C   UNL     1       4.250   6.664  14.132  1.00  0.00     0.198 A 
ATOM     75  F   UNL     1       1.990   7.180  13.711  1.00  0.00    -0.203 F 
ATOM     76  F   UNL     1       5.981   3.480  14.102  1.00  0.00    -0.200 F 
ATOM     77  C   UNL     1       5.269   5.729  14.226  1.00  0.00     0.200 A 
ATOM     78  F   UNL     1       4.509   7.963  14.336  1.00  0.00    -0.200 F 
ATOM     79  F   UNL     1       6.513   6.122  14.534  1.00  0.00    -0.200 F 
ENDBRANCH  45  69
BRANCH  57  80
ATOM     80  C   UNL     1      -2.645   1.617  16.601  1.00  0.00     0.064 A 
ATOM     81  C   UNL     1      -2.942   2.470  17.674  1.00  0.00     0.173 A 
ATOM     82  C   UNL     1      -2.534   0.244  16.856  1.00  0.00     0.173 A 
ATOM     83  F   UNL     1      -3.039   3.793  17.477  1.00  0.00    -0.203 F 
ATOM     84  C   UNL     1      -3.101   1.966  18.961  1.00  0.00     0.198 A 
ATOM     85  C   UNL     1      -2.708  -0.258  18.142  1.00  0.00     0.198 A 
ATOM     86  F   UNL     1      -2.249  -0.607  15.859  1.00  0.00    -0.203 F 
ATOM     87  F   UNL     1      -3.346   2.801  19.980  1.00  0.00    -0.200 F 
ATOM     88  C   UNL     1      -2.986   0.604  19.194  1.00  0.00     0.200 A 
ATOM     89  F   UNL     1      -2.597  -1.574  18.367  1.00  0.00    -0.200 F 
ATOM     90  F   UNL     1      -3.131   0.121  20.436  1.00  0.00    -0.200 F 
ENDBRANCH  57  80
ENDBRANCH  31  32
ENDBRANCH  24  26
ENDBRANCH  23  24
ENDBRANCH  22  23
ENDBRANCH   1  22
TORSDOF 16
