REMARK SMILES C/C(=C(/F)C(=O)OCCOC(=O)c1ccc(-c2c3nc(c(-c4c(F)c(F)c(F)c(F)c4F)c4ccc([nH]4)c(-c4c(F)c(F)c(F)c(F)c4F)c4nc(c(-c5c(F)c(F)c(F)c(F)c5F)c5ccc2[nH]5)C=C4)C=C3)cc1)c1cccc(-n2cnnn2)c1
REMARK SMILES IDX 8 1 7 2 5 3 6 4 3 5 1 6 2 7 4 8 76 9 77 10 86 11 78 12 80 13
REMARK SMILES IDX 79 14 81 15 82 16 85 17 83 18 84 19 9 20 10 21 11 22 12 23
REMARK SMILES IDX 13 24 14 25 75 26 15 27 74 28 16 29 17 30 18 31 68 32 19 33
REMARK SMILES IDX 73 34 67 35 69 36 20 37 72 38 66 39 65 40 21 42 53 43 33 44
REMARK SMILES IDX 52 45 34 46 37 47 51 48 70 49 35 50 36 51 50 53 71 54 38 55
REMARK SMILES IDX 22 56 23 57 31 58 24 59 25 60 29 61 32 62 26 63 27 64 30 65
REMARK SMILES IDX 28 66 54 67 55 68 63 69 56 70 57 71 61 72 64 73 58 74 59 75
REMARK SMILES IDX 62 76 60 77 39 78 40 79 48 80 41 81 42 82 46 83 49 84 43 85
REMARK SMILES IDX 44 86 47 87 45 88
REMARK H PARENT 69 41 37 52
REMARK Flexibility Score: inf
ROOT
ATOM      1  C   UNL     1      -1.782   3.122   2.835  1.00  0.00     0.275 C 
ENDROOT
BRANCH   1   2
ATOM      2  O   UNL     1      -1.272   1.823   3.207  1.00  0.00    -0.457 OA
BRANCH   2   3
ATOM      3  C   UNL     1      -1.310   0.876   2.235  1.00  0.00     0.367 C 
ATOM      4  O   UNL     1      -1.765   1.028   1.110  1.00  0.00    -0.243 OA
BRANCH   3   5
ATOM      5  C   UNL     1      -0.690  -0.387   2.717  1.00  0.00     0.211 C 
ATOM      6  C   UNL     1       0.566  -0.840   0.568  1.00  0.00     0.048 C 
ATOM      7  C   UNL     1       0.116  -1.162   1.967  1.00  0.00    -0.000 C 
ATOM      8  F   UNL     1      -1.007  -0.728   3.986  1.00  0.00    -0.199 F 
BRANCH   7   9
ATOM      9  C   UNL     1       0.613  -2.484   2.409  1.00  0.00    -0.017 A 
ATOM     10  C   UNL     1      -0.294  -3.524   2.643  1.00  0.00     0.008 A 
ATOM     11  C   UNL     1       1.986  -2.773   2.329  1.00  0.00     0.037 A 
ATOM     12  C   UNL     1       0.157  -4.842   2.728  1.00  0.00     0.003 A 
ATOM     13  C   UNL     1       2.436  -4.100   2.373  1.00  0.00     0.069 A 
ATOM     14  C   UNL     1       1.513  -5.135   2.569  1.00  0.00     0.028 A 
BRANCH  13  15
ATOM     15  N   UNL     1       3.798  -4.406   2.138  1.00  0.00    -0.201 N 
ATOM     16  C   UNL     1       4.869  -3.561   1.984  1.00  0.00     0.252 A 
ATOM     17  N   UNL     1       4.244  -5.672   1.970  1.00  0.00    -0.040 NA
ATOM     18  N   UNL     1       5.940  -4.262   1.693  1.00  0.00    -0.117 NA
ATOM     19  N   UNL     1       5.534  -5.570   1.680  1.00  0.00    -0.024 NA
ENDBRANCH  13  15
ENDBRANCH   7   9
ENDBRANCH   3   5
ENDBRANCH   2   3
ENDBRANCH   1   2
BRANCH   1  20
ATOM     20  C   UNL     1      -0.629   4.090   2.566  1.00  0.00     0.275 C 
BRANCH  20  21
ATOM     21  O   UNL     1       0.062   3.690   1.368  1.00  0.00    -0.458 OA
BRANCH  21  22
ATOM     22  C   UNL     1       1.412   3.772   1.390  1.00  0.00     0.338 C 
ATOM     23  O   UNL     1       2.103   4.196   2.309  1.00  0.00    -0.246 OA
BRANCH  22  24
ATOM     24  C   UNL     1       1.990   3.221   0.141  1.00  0.00     0.060 A 
ATOM     25  C   UNL     1       1.307   2.259  -0.595  1.00  0.00     0.016 A 
ATOM     26  C   UNL     1       3.282   3.577  -0.252  1.00  0.00     0.016 A 
ATOM     27  C   UNL     1       1.961   1.551  -1.608  1.00  0.00     0.010 A 
ATOM     28  C   UNL     1       3.879   2.964  -1.366  1.00  0.00     0.010 A 
ATOM     29  C   UNL     1       3.250   1.902  -2.039  1.00  0.00    -0.014 A 
BRANCH  29  30
ATOM     30  C   UNL     1       3.939   1.158  -3.151  1.00  0.00     0.031 A 
ATOM     31  C   UNL     1       5.376   0.703  -3.004  1.00  0.00     0.074 A 
ATOM     32  C   UNL     1       3.303   0.860  -4.306  1.00  0.00     0.049 A 
ATOM     33  N   UNL     1       6.226   0.319  -3.926  1.00  0.00    -0.248 NA
ATOM     34  C   UNL     1       5.937   0.694  -1.644  1.00  0.00     0.031 C 
ATOM     35  C   UNL     1       1.908   1.168  -4.619  1.00  0.00     0.029 A 
ATOM     36  N   UNL     1       3.750   0.213  -5.439  1.00  0.00    -0.354 N 
ATOM     37  C   UNL     1       7.439   0.124  -3.276  1.00  0.00     0.074 A 
ATOM     38  C   UNL     1       7.211   0.402  -1.873  1.00  0.00     0.031 C 
ATOM     39  C   UNL     1       1.589   0.640  -5.808  1.00  0.00     0.029 A 
ATOM     40  C   UNL     1       2.793   0.089  -6.418  1.00  0.00     0.049 A 
ATOM     41  H   UNL     1       4.668  -0.128  -5.537  1.00  0.00     0.167 HD
ATOM     42  C   UNL     1       8.635  -0.240  -3.802  1.00  0.00     0.037 A 
ATOM     43  C   UNL     1       2.870  -0.345  -7.691  1.00  0.00     0.037 A 
ATOM     44  C   UNL     1       8.842  -0.622  -5.176  1.00  0.00     0.049 A 
ATOM     45  C   UNL     1       4.201  -0.740  -8.259  1.00  0.00     0.074 A 
ATOM     46  C   UNL     1      10.015  -1.026  -5.795  1.00  0.00     0.029 A 
ATOM     47  N   UNL     1       7.846  -0.685  -6.138  1.00  0.00    -0.354 N 
ATOM     48  N   UNL     1       5.369  -0.783  -7.669  1.00  0.00    -0.248 NA
ATOM     49  C   UNL     1       4.233  -1.097  -9.685  1.00  0.00     0.031 C 
ATOM     50  C   UNL     1       9.732  -1.308  -7.136  1.00  0.00     0.029 A 
ATOM     51  C   UNL     1       8.378  -1.115  -7.344  1.00  0.00     0.049 A 
ATOM     52  H   UNL     1       6.900  -0.458  -5.986  1.00  0.00     0.167 HD
ATOM     53  C   UNL     1       6.275  -1.160  -8.649  1.00  0.00     0.074 A 
ATOM     54  C   UNL     1       5.519  -1.365  -9.867  1.00  0.00     0.031 C 
ATOM     55  C   UNL     1       7.618  -1.305  -8.551  1.00  0.00     0.037 A 
BRANCH  42  56
ATOM     56  C   UNL     1       9.841  -0.206  -2.905  1.00  0.00     0.064 A 
ATOM     57  C   UNL     1      10.073  -1.176  -1.921  1.00  0.00     0.173 A 
ATOM     58  C   UNL     1      10.817   0.788  -3.090  1.00  0.00     0.173 A 
ATOM     59  F   UNL     1       9.167  -2.139  -1.698  1.00  0.00    -0.203 F 
ATOM     60  C   UNL     1      11.229  -1.143  -1.142  1.00  0.00     0.198 A 
ATOM     61  C   UNL     1      11.983   0.802  -2.329  1.00  0.00     0.198 A 
ATOM     62  F   UNL     1      10.649   1.735  -4.025  1.00  0.00    -0.203 F 
ATOM     63  F   UNL     1      11.415  -2.059  -0.182  1.00  0.00    -0.200 F 
ATOM     64  C   UNL     1      12.186  -0.160  -1.352  1.00  0.00     0.200 A 
ATOM     65  F   UNL     1      12.912   1.744  -2.545  1.00  0.00    -0.200 F 
ATOM     66  F   UNL     1      13.302  -0.138  -0.611  1.00  0.00    -0.200 F 
ENDBRANCH  42  56
BRANCH  43  67
ATOM     67  C   UNL     1       1.650  -0.341  -8.543  1.00  0.00     0.064 A 
ATOM     68  C   UNL     1       1.059  -1.540  -8.963  1.00  0.00     0.173 A 
ATOM     69  C   UNL     1       1.034   0.860  -8.927  1.00  0.00     0.173 A 
ATOM     70  F   UNL     1       1.630  -2.713  -8.652  1.00  0.00    -0.203 F 
ATOM     71  C   UNL     1      -0.107  -1.537  -9.726  1.00  0.00     0.198 A 
ATOM     72  C   UNL     1      -0.151   0.861  -9.659  1.00  0.00     0.198 A 
ATOM     73  F   UNL     1       1.564   2.035  -8.557  1.00  0.00    -0.203 F 
ATOM     74  F   UNL     1      -0.638  -2.696 -10.139  1.00  0.00    -0.200 F 
ATOM     75  C   UNL     1      -0.719  -0.337 -10.060  1.00  0.00     0.200 A 
ATOM     76  F   UNL     1      -0.747   2.022  -9.961  1.00  0.00    -0.200 F 
ATOM     77  F   UNL     1      -1.854  -0.336 -10.772  1.00  0.00    -0.200 F 
ENDBRANCH  43  67
BRANCH  55  78
ATOM     78  C   UNL     1       8.352  -1.713  -9.792  1.00  0.00     0.064 A 
ATOM     79  C   UNL     1       8.593  -0.799 -10.828  1.00  0.00     0.173 A 
ATOM     80  C   UNL     1       8.835  -3.021  -9.938  1.00  0.00     0.173 A 
ATOM     81  F   UNL     1       8.133   0.458 -10.740  1.00  0.00    -0.203 F 
ATOM     82  C   UNL     1       9.274  -1.188 -11.978  1.00  0.00     0.198 A 
ATOM     83  C   UNL     1       9.534  -3.401 -11.081  1.00  0.00     0.198 A 
ATOM     84  F   UNL     1       8.630  -3.930  -8.973  1.00  0.00    -0.203 F 
ATOM     85  F   UNL     1       9.458  -0.311 -12.975  1.00  0.00    -0.200 F 
ATOM     86  C   UNL     1       9.748  -2.486 -12.102  1.00  0.00     0.200 A 
ATOM     87  F   UNL     1       9.996  -4.653 -11.197  1.00  0.00    -0.200 F 
ATOM     88  F   UNL     1      10.402  -2.859 -13.210  1.00  0.00    -0.200 F 
ENDBRANCH  55  78
ENDBRANCH  29  30
ENDBRANCH  22  24
ENDBRANCH  21  22
ENDBRANCH  20  21
ENDBRANCH   1  20
TORSDOF 13
