REMARK SMILES CC[C@@H](C)c1ccccc1OCC(C)(C)C(=O)OCCOC(=O)c1ccc(-c2c3nc(c(-c4c(F)c(F)c(F)c(F)c4F)c4ccc([nH]4)c(-c4c(F)c(F)c(F)c(F)c4F)c4nc(c(-c5c(F)c(F)c(F)c(F)c5F)c5ccc2[nH]5)C=C4)C=C3)cc1
REMARK SMILES IDX 18 1 16 2 17 3 13 4 14 5 15 6 12 7 11 8 10 9 5 10 6 11 7 12
REMARK SMILES IDX 9 13 8 14 3 15 4 16 2 17 1 18 19 19 20 20 21 21 22 22 23 23
REMARK SMILES IDX 24 24 25 25 86 26 26 27 85 28 27 29 28 30 29 31 79 32 30 33
REMARK SMILES IDX 84 34 78 35 80 36 31 37 83 38 77 39 76 40 32 42 64 43 44 44
REMARK SMILES IDX 63 45 45 46 48 47 62 48 81 49 46 50 47 51 61 53 82 54 49 55
REMARK SMILES IDX 33 56 34 57 42 58 35 59 36 60 40 61 43 62 37 63 38 64 41 65
REMARK SMILES IDX 39 66 65 67 66 68 74 69 67 70 68 71 72 72 75 73 69 74 70 75
REMARK SMILES IDX 73 76 71 77 50 78 51 79 59 80 52 81 53 82 57 83 60 84 54 85
REMARK SMILES IDX 55 86 58 87 56 88
REMARK H PARENT 80 41 48 52
REMARK Flexibility Score: inf
ROOT
ATOM      1  O   UNL     1      -3.909  -0.048   1.275  1.00  0.00    -0.462 OA
ENDROOT
BRANCH   1   2
ATOM      2  C   UNL     1      -2.820   0.318   2.006  1.00  0.00     0.315 C 
ATOM      3  O   UNL     1      -2.807   0.390   3.228  1.00  0.00    -0.251 OA
BRANCH   2   4
ATOM      4  C   UNL     1      -1.625   0.658   1.112  1.00  0.00     0.096 C 
ATOM      5  C   UNL     1      -1.572   2.176   0.978  1.00  0.00     0.027 C 
ATOM      6  C   UNL     1      -1.825   0.071  -0.313  1.00  0.00     0.027 C 
BRANCH   4   7
ATOM      7  C   UNL     1      -0.364  -0.057   1.663  1.00  0.00     0.247 C 
BRANCH   7   8
ATOM      8  O   UNL     1       0.476   0.378   2.733  1.00  0.00    -0.492 OA
BRANCH   8   9
ATOM      9  C   UNL     1       0.498   1.658   3.184  1.00  0.00     0.122 A 
ATOM     10  C   UNL     1       1.335   2.679   2.688  1.00  0.00    -0.003 A 
ATOM     11  C   UNL     1       1.364   3.890   3.429  1.00  0.00     0.008 A 
ATOM     12  C   UNL     1       0.614   4.084   4.591  1.00  0.00     0.001 A 
ATOM     13  C   UNL     1      -0.220   1.848   4.380  1.00  0.00     0.047 A 
ATOM     14  C   UNL     1      -0.178   3.056   5.072  1.00  0.00     0.004 A 
BRANCH  10  15
ATOM     15  C   UNL     1       2.275   2.627   1.469  1.00  0.00     0.019 C 
ATOM     16  C   UNL     1       1.982   3.813   0.522  1.00  0.00     0.013 C 
BRANCH  15  17
ATOM     17  C   UNL     1       2.330   1.316   0.668  1.00  0.00     0.005 C 
ATOM     18  C   UNL     1       3.468   1.212  -0.341  1.00  0.00     0.004 C 
ENDBRANCH  15  17
ENDBRANCH  10  15
ENDBRANCH   8   9
ENDBRANCH   7   8
ENDBRANCH   4   7
ENDBRANCH   2   4
ENDBRANCH   1   2
BRANCH   1  19
ATOM     19  C   UNL     1      -5.080  -0.463   2.004  1.00  0.00     0.274 C 
BRANCH  19  20
ATOM     20  C   UNL     1      -5.121  -1.986   2.085  1.00  0.00     0.275 C 
BRANCH  20  21
ATOM     21  O   UNL     1      -4.047  -2.444   2.928  1.00  0.00    -0.458 OA
BRANCH  21  22
ATOM     22  C   UNL     1      -3.306  -3.463   2.445  1.00  0.00     0.338 C 
ATOM     23  O   UNL     1      -3.478  -4.071   1.396  1.00  0.00    -0.246 OA
BRANCH  22  24
ATOM     24  C   UNL     1      -2.197  -3.773   3.367  1.00  0.00     0.060 A 
ATOM     25  C   UNL     1      -1.384  -2.757   3.865  1.00  0.00     0.016 A 
ATOM     26  C   UNL     1      -1.877  -5.103   3.633  1.00  0.00     0.016 A 
ATOM     27  C   UNL     1      -0.183  -3.070   4.503  1.00  0.00     0.010 A 
ATOM     28  C   UNL     1      -0.745  -5.408   4.399  1.00  0.00     0.010 A 
ATOM     29  C   UNL     1       0.147  -4.399   4.808  1.00  0.00    -0.014 A 
BRANCH  29  30
ATOM     30  C   UNL     1       1.421  -4.747   5.514  1.00  0.00     0.031 A 
ATOM     31  C   UNL     1       2.340  -5.803   4.949  1.00  0.00     0.074 A 
ATOM     32  C   UNL     1       1.780  -4.134   6.662  1.00  0.00     0.049 A 
ATOM     33  N   UNL     1       3.312  -6.459   5.535  1.00  0.00    -0.248 NA
ATOM     34  C   UNL     1       2.124  -6.188   3.545  1.00  0.00     0.031 C 
ATOM     35  C   UNL     1       1.044  -3.058   7.324  1.00  0.00     0.029 A 
ATOM     36  N   UNL     1       2.872  -4.331   7.476  1.00  0.00    -0.354 N 
ATOM     37  C   UNL     1       3.762  -7.387   4.604  1.00  0.00     0.074 A 
ATOM     38  C   UNL     1       2.972  -7.199   3.405  1.00  0.00     0.031 C 
ATOM     39  C   UNL     1       1.729  -2.650   8.403  1.00  0.00     0.029 A 
ATOM     40  C   UNL     1       2.892  -3.511   8.578  1.00  0.00     0.049 A 
ATOM     41  H   UNL     1       3.573  -4.996   7.287  1.00  0.00     0.167 HD
ATOM     42  C   UNL     1       4.738  -8.318   4.741  1.00  0.00     0.037 A 
ATOM     43  C   UNL     1       3.714  -3.483   9.645  1.00  0.00     0.037 A 
ATOM     44  C   UNL     1       5.584  -8.449   5.900  1.00  0.00     0.049 A 
ATOM     45  C   UNL     1       4.807  -4.505   9.766  1.00  0.00     0.074 A 
ATOM     46  C   UNL     1       6.578  -9.382   6.147  1.00  0.00     0.029 A 
ATOM     47  N   UNL     1       5.566  -7.591   6.988  1.00  0.00    -0.354 N 
ATOM     48  N   UNL     1       5.123  -5.477   8.947  1.00  0.00    -0.248 NA
ATOM     49  C   UNL     1       5.635  -4.448  10.979  1.00  0.00     0.031 C 
ATOM     50  C   UNL     1       7.158  -9.091   7.387  1.00  0.00     0.029 A 
ATOM     51  C   UNL     1       6.543  -7.961   7.898  1.00  0.00     0.049 A 
ATOM     52  H   UNL     1       4.950  -6.831   7.098  1.00  0.00     0.167 HD
ATOM     53  C   UNL     1       6.176  -6.152   9.548  1.00  0.00     0.074 A 
ATOM     54  C   UNL     1       6.471  -5.458  10.783  1.00  0.00     0.031 C 
ATOM     55  C   UNL     1       6.825  -7.262   9.123  1.00  0.00     0.037 A 
BRANCH  42  56
ATOM     56  C   UNL     1       4.934  -9.297   3.622  1.00  0.00     0.064 A 
ATOM     57  C   UNL     1       5.576  -8.941   2.429  1.00  0.00     0.173 A 
ATOM     58  C   UNL     1       4.527 -10.632   3.778  1.00  0.00     0.173 A 
ATOM     59  F   UNL     1       5.971  -7.676   2.227  1.00  0.00    -0.203 F 
ATOM     60  C   UNL     1       5.792  -9.884   1.426  1.00  0.00     0.198 A 
ATOM     61  C   UNL     1       4.766 -11.576   2.784  1.00  0.00     0.198 A 
ATOM     62  F   UNL     1       3.914 -11.025   4.905  1.00  0.00    -0.203 F 
ATOM     63  F   UNL     1       6.381  -9.516   0.279  1.00  0.00    -0.200 F 
ATOM     64  C   UNL     1       5.396 -11.201   1.607  1.00  0.00     0.200 A 
ATOM     65  F   UNL     1       4.394 -12.851   2.967  1.00  0.00    -0.200 F 
ATOM     66  F   UNL     1       5.618 -12.108   0.646  1.00  0.00    -0.200 F 
ENDBRANCH  42  56
BRANCH  43  67
ATOM     67  C   UNL     1       3.487  -2.487  10.724  1.00  0.00     0.064 A 
ATOM     68  C   UNL     1       4.389  -1.437  10.938  1.00  0.00     0.173 A 
ATOM     69  C   UNL     1       2.363  -2.565  11.560  1.00  0.00     0.173 A 
ATOM     70  F   UNL     1       5.495  -1.341  10.185  1.00  0.00    -0.203 F 
ATOM     71  C   UNL     1       4.178  -0.504  11.951  1.00  0.00     0.198 A 
ATOM     72  C   UNL     1       2.137  -1.614  12.552  1.00  0.00     0.198 A 
ATOM     73  F   UNL     1       1.473  -3.555  11.399  1.00  0.00    -0.203 F 
ATOM     74  F   UNL     1       5.077   0.466  12.163  1.00  0.00    -0.200 F 
ATOM     75  C   UNL     1       3.048  -0.589  12.751  1.00  0.00     0.200 A 
ATOM     76  F   UNL     1       1.037  -1.692  13.313  1.00  0.00    -0.200 F 
ATOM     77  F   UNL     1       2.841   0.314  13.720  1.00  0.00    -0.200 F 
ENDBRANCH  43  67
BRANCH  55  78
ATOM     78  C   UNL     1       7.925  -7.781   9.997  1.00  0.00     0.064 A 
ATOM     79  C   UNL     1       7.644  -8.480  11.180  1.00  0.00     0.173 A 
ATOM     80  C   UNL     1       9.268  -7.588   9.645  1.00  0.00     0.173 A 
ATOM     81  F   UNL     1       6.374  -8.674  11.565  1.00  0.00    -0.203 F 
ATOM     82  C   UNL     1       8.673  -8.947  11.993  1.00  0.00     0.198 A 
ATOM     83  C   UNL     1      10.293  -8.073  10.451  1.00  0.00     0.198 A 
ATOM     84  F   UNL     1       9.584  -6.927   8.522  1.00  0.00    -0.203 F 
ATOM     85  F   UNL     1       8.384  -9.576  13.142  1.00  0.00    -0.200 F 
ATOM     86  C   UNL     1       9.995  -8.746  11.627  1.00  0.00     0.200 A 
ATOM     87  F   UNL     1      11.571  -7.882  10.095  1.00  0.00    -0.200 F 
ATOM     88  F   UNL     1      10.985  -9.192  12.414  1.00  0.00    -0.200 F 
ENDBRANCH  55  78
ENDBRANCH  29  30
ENDBRANCH  22  24
ENDBRANCH  21  22
ENDBRANCH  20  21
ENDBRANCH  19  20
ENDBRANCH   1  19
TORSDOF 16
