REMARK SMILES Cc1nc(N2CCN(c3ccccc3)CC2)nc(OCC(=O)OCCOC(=O)c2ccc(-c3c4nc(c(-c5c(F)c(F)c(F)c(F)c5F)c5ccc([nH]5)c(-c5c(F)c(F)c(F)c(F)c5F)c5nc(c(-c6c(F)c(F)c(F)c(F)c6F)c6ccc3[nH]6)C=C5)C=C4)cc2)c1C
REMARK SMILES IDX 24 1 23 2 21 3 22 4 20 5 19 6 18 7 1 8 2 9 3 10 92 11 4 12
REMARK SMILES IDX 93 13 17 14 5 15 6 16 16 17 7 18 15 19 8 20 9 21 10 22 14 23
REMARK SMILES IDX 11 24 13 25 12 26 25 27 26 28 27 29 28 30 29 31 30 32 91 33
REMARK SMILES IDX 31 34 90 35 32 36 33 37 34 38 84 39 35 40 89 41 83 42 85 43
REMARK SMILES IDX 36 44 88 45 82 46 81 47 37 49 69 50 49 51 68 52 50 53 53 54
REMARK SMILES IDX 67 55 86 56 51 57 52 58 66 60 87 61 54 62 38 63 39 64 47 65
REMARK SMILES IDX 40 66 41 67 45 68 48 69 42 70 43 71 46 72 44 73 70 74 71 75
REMARK SMILES IDX 79 76 72 77 73 78 77 79 80 80 74 81 75 82 78 83 76 84 55 85
REMARK SMILES IDX 56 86 64 87 57 88 58 89 62 90 65 91 59 92 60 93 63 94 61 95
REMARK H PARENT 85 48 53 59
REMARK Flexibility Score: inf
ROOT
ATOM      1  C   UNL     1       2.717   3.447   4.336  1.00  0.00     0.274 C 
ENDROOT
BRANCH   1   2
ATOM      2  O   UNL     1       1.542   2.626   4.527  1.00  0.00    -0.460 OA
BRANCH   2   3
ATOM      3  C   UNL     1       0.363   3.224   4.219  1.00  0.00     0.344 C 
ATOM      4  O   UNL     1       0.256   4.338   3.712  1.00  0.00    -0.248 OA
BRANCH   3   5
ATOM      5  C   UNL     1      -0.869   2.437   4.675  1.00  0.00     0.353 C 
BRANCH   5   6
ATOM      6  O   UNL     1      -0.975   1.048   4.830  1.00  0.00    -0.465 OA
BRANCH   6   7
ATOM      7  C   UNL     1      -0.577   0.171   3.880  1.00  0.00     0.221 A 
ATOM      8  C   UNL     1       0.312  -0.673   0.326  1.00  0.00     0.067 C 
ATOM      9  C   UNL     1       0.009  -0.715   1.795  1.00  0.00     0.050 A 
ATOM     10  N   UNL     1       0.409  -1.860   2.387  1.00  0.00    -0.218 NA
ATOM     11  C   UNL     1      -0.609   0.315   2.506  1.00  0.00     0.033 A 
ATOM     12  C   UNL     1       0.153  -1.993   3.685  1.00  0.00     0.229 A 
ATOM     13  C   UNL     1      -1.393   1.399   1.851  1.00  0.00     0.052 C 
ATOM     14  N   UNL     1      -0.262  -0.991   4.455  1.00  0.00    -0.177 NA
BRANCH  12  15
ATOM     15  N   UNL     1       0.171  -3.222   4.256  1.00  0.00    -0.337 N 
ATOM     16  C   UNL     1       1.293  -4.133   4.139  1.00  0.00     0.141 C 
ATOM     17  C   UNL     1      -1.110  -3.782   4.679  1.00  0.00     0.141 C 
ATOM     18  C   UNL     1       1.487  -4.842   5.507  1.00  0.00     0.138 C 
ATOM     19  C   UNL     1      -0.940  -4.511   6.021  1.00  0.00     0.138 C 
ATOM     20  N   UNL     1       0.211  -5.425   5.955  1.00  0.00    -0.368 N 
BRANCH  20  21
ATOM     21  C   UNL     1       0.134  -6.684   6.495  1.00  0.00     0.037 A 
ATOM     22  C   UNL     1       1.013  -7.117   7.492  1.00  0.00     0.026 A 
ATOM     23  C   UNL     1      -0.831  -7.588   6.030  1.00  0.00     0.026 A 
ATOM     24  C   UNL     1       0.933  -8.412   8.009  1.00  0.00     0.002 A 
ATOM     25  C   UNL     1      -0.903  -8.890   6.526  1.00  0.00     0.002 A 
ATOM     26  C   UNL     1      -0.020  -9.302   7.519  1.00  0.00     0.000 A 
ENDBRANCH  20  21
ENDBRANCH  12  15
ENDBRANCH   6   7
ENDBRANCH   5   6
ENDBRANCH   3   5
ENDBRANCH   2   3
ENDBRANCH   1   2
BRANCH   1  27
ATOM     27  C   UNL     1       3.380   3.198   2.982  1.00  0.00     0.275 C 
BRANCH  27  28
ATOM     28  O   UNL     1       2.461   3.515   1.922  1.00  0.00    -0.458 OA
BRANCH  28  29
ATOM     29  C   UNL     1       2.509   2.706   0.842  1.00  0.00     0.338 C 
ATOM     30  O   UNL     1       3.302   1.791   0.655  1.00  0.00    -0.246 OA
BRANCH  29  31
ATOM     31  C   UNL     1       1.415   3.019  -0.113  1.00  0.00     0.060 A 
ATOM     32  C   UNL     1       0.301   3.777   0.255  1.00  0.00     0.016 A 
ATOM     33  C   UNL     1       1.457   2.443  -1.387  1.00  0.00     0.016 A 
ATOM     34  C   UNL     1      -0.807   3.853  -0.594  1.00  0.00     0.010 A 
ATOM     35  C   UNL     1       0.385   2.601  -2.272  1.00  0.00     0.010 A 
ATOM     36  C   UNL     1      -0.777   3.277  -1.875  1.00  0.00    -0.014 A 
BRANCH  36  37
ATOM     37  C   UNL     1      -1.935   3.397  -2.807  1.00  0.00     0.031 A 
ATOM     38  C   UNL     1      -2.610   2.174  -3.374  1.00  0.00     0.074 A 
ATOM     39  C   UNL     1      -2.382   4.616  -3.167  1.00  0.00     0.049 A 
ATOM     40  N   UNL     1      -3.485   2.083  -4.346  1.00  0.00    -0.248 NA
ATOM     41  C   UNL     1      -2.254   0.880  -2.774  1.00  0.00     0.031 C 
ATOM     42  C   UNL     1      -1.863   5.890  -2.668  1.00  0.00     0.029 A 
ATOM     43  N   UNL     1      -3.379   4.983  -4.037  1.00  0.00    -0.354 N 
ATOM     44  C   UNL     1      -3.750   0.727  -4.499  1.00  0.00     0.074 A 
ATOM     45  C   UNL     1      -2.946   0.028  -3.520  1.00  0.00     0.031 C 
ATOM     46  C   UNL     1      -2.572   6.894  -3.202  1.00  0.00     0.029 A 
ATOM     47  C   UNL     1      -3.529   6.342  -4.154  1.00  0.00     0.049 A 
ATOM     48  H   UNL     1      -3.933   4.334  -4.528  1.00  0.00     0.167 HD
ATOM     49  C   UNL     1      -4.586   0.123  -5.377  1.00  0.00     0.037 A 
ATOM     50  C   UNL     1      -4.309   7.074  -4.971  1.00  0.00     0.037 A 
ATOM     51  C   UNL     1      -5.417   0.820  -6.326  1.00  0.00     0.049 A 
ATOM     52  C   UNL     1      -5.173   6.386  -5.983  1.00  0.00     0.074 A 
ATOM     53  C   UNL     1      -6.300   0.290  -7.253  1.00  0.00     0.029 A 
ATOM     54  N   UNL     1      -5.479   2.198  -6.459  1.00  0.00    -0.354 N 
ATOM     55  N   UNL     1      -5.347   5.103  -6.181  1.00  0.00    -0.248 NA
ATOM     56  C   UNL     1      -5.922   7.247  -6.908  1.00  0.00     0.031 C 
ATOM     57  C   UNL     1      -6.875   1.348  -7.966  1.00  0.00     0.029 A 
ATOM     58  C   UNL     1      -6.375   2.536  -7.460  1.00  0.00     0.049 A 
ATOM     59  H   UNL     1      -4.962   2.841  -5.922  1.00  0.00     0.167 HD
ATOM     60  C   UNL     1      -6.216   5.000  -7.256  1.00  0.00     0.074 A 
ATOM     61  C   UNL     1      -6.555   6.351  -7.654  1.00  0.00     0.031 C 
ATOM     62  C   UNL     1      -6.686   3.883  -7.861  1.00  0.00     0.037 A 
BRANCH  49  63
ATOM     63  C   UNL     1      -4.646  -1.376  -5.378  1.00  0.00     0.064 A 
ATOM     64  C   UNL     1      -5.354  -2.084  -4.398  1.00  0.00     0.173 A 
ATOM     65  C   UNL     1      -4.066  -2.105  -6.428  1.00  0.00     0.173 A 
ATOM     66  F   UNL     1      -5.916  -1.432  -3.369  1.00  0.00    -0.203 F 
ATOM     67  C   UNL     1      -5.477  -3.470  -4.466  1.00  0.00     0.198 A 
ATOM     68  C   UNL     1      -4.208  -3.488  -6.504  1.00  0.00     0.198 A 
ATOM     69  F   UNL     1      -3.385  -1.472  -7.395  1.00  0.00    -0.203 F 
ATOM     70  F   UNL     1      -6.145  -4.130  -3.510  1.00  0.00    -0.200 F 
ATOM     71  C   UNL     1      -4.913  -4.170  -5.524  1.00  0.00     0.200 A 
ATOM     72  F   UNL     1      -3.673  -4.161  -7.533  1.00  0.00    -0.200 F 
ATOM     73  F   UNL     1      -5.050  -5.501  -5.598  1.00  0.00    -0.200 F 
ENDBRANCH  49  63
BRANCH  50  74
ATOM     74  C   UNL     1      -4.263   8.554  -4.874  1.00  0.00     0.064 A 
ATOM     75  C   UNL     1      -5.320   9.263  -4.291  1.00  0.00     0.173 A 
ATOM     76  C   UNL     1      -3.137   9.277  -5.294  1.00  0.00     0.173 A 
ATOM     77  F   UNL     1      -6.425   8.613  -3.896  1.00  0.00    -0.203 F 
ATOM     78  C   UNL     1      -5.246  10.642  -4.117  1.00  0.00     0.198 A 
ATOM     79  C   UNL     1      -3.054  10.652  -5.098  1.00  0.00     0.198 A 
ATOM     80  F   UNL     1      -2.100   8.638  -5.856  1.00  0.00    -0.203 F 
ATOM     81  F   UNL     1      -6.274  11.302  -3.565  1.00  0.00    -0.200 F 
ATOM     82  C   UNL     1      -4.109  11.334  -4.509  1.00  0.00     0.200 A 
ATOM     83  F   UNL     1      -1.947  11.313  -5.461  1.00  0.00    -0.200 F 
ATOM     84  F   UNL     1      -4.027  12.657  -4.315  1.00  0.00    -0.200 F 
ENDBRANCH  50  74
BRANCH  62  85
ATOM     85  C   UNL     1      -7.611   4.073  -9.022  1.00  0.00     0.064 A 
ATOM     86  C   UNL     1      -7.124   4.440 -10.284  1.00  0.00     0.173 A 
ATOM     87  C   UNL     1      -8.989   3.854  -8.881  1.00  0.00     0.173 A 
ATOM     88  F   UNL     1      -5.815   4.676 -10.460  1.00  0.00    -0.203 F 
ATOM     89  C   UNL     1      -7.989   4.596 -11.364  1.00  0.00     0.198 A 
ATOM     90  C   UNL     1      -9.847   3.992  -9.968  1.00  0.00     0.198 A 
ATOM     91  F   UNL     1      -9.499   3.498  -7.693  1.00  0.00    -0.203 F 
ATOM     92  F   UNL     1      -7.508   4.979 -12.555  1.00  0.00    -0.200 F 
ATOM     93  C   UNL     1      -9.348   4.366 -11.206  1.00  0.00     0.200 A 
ATOM     94  F   UNL     1     -11.159   3.765  -9.816  1.00  0.00    -0.200 F 
ATOM     95  F   UNL     1     -10.178   4.515 -12.248  1.00  0.00    -0.200 F 
ENDBRANCH  62  85
ENDBRANCH  36  37
ENDBRANCH  29  31
ENDBRANCH  28  29
ENDBRANCH  27  28
ENDBRANCH   1  27
TORSDOF 15
