REMARK SMILES CO[C@H]1CCC[C@H]1NC(=O)N[C@](C)(C(=O)OCCOC(=O)c1ccc(-c2c3nc(c(-c4c(F)c(F)c(F)c(F)c4F)c4ccc([nH]4)c(-c4c(F)c(F)c(F)c(F)c4F)c4nc(c(-c5c(F)c(F)c(F)c(F)c5F)c5ccc2[nH]5)C=C4)C=C3)cc1)C(F)(F)F
REMARK SMILES IDX 17 1 16 2 14 3 15 4 12 5 13 6 11 7 8 8 9 9 10 11 7 13 3 14
REMARK SMILES IDX 4 15 5 16 6 17 2 18 1 19 85 20 86 21 87 22 88 23 18 24 19 25
REMARK SMILES IDX 20 26 21 27 22 28 23 29 84 30 24 31 83 32 25 33 26 34 27 35
REMARK SMILES IDX 77 36 28 37 82 38 76 39 78 40 29 41 81 42 75 43 74 44 30 46
REMARK SMILES IDX 62 47 42 48 61 49 43 50 46 51 60 52 79 53 44 54 45 55 59 57
REMARK SMILES IDX 80 58 47 59 31 60 32 61 40 62 33 63 34 64 38 65 41 66 35 67
REMARK SMILES IDX 36 68 39 69 37 70 63 71 64 72 72 73 65 74 66 75 70 76 73 77
REMARK SMILES IDX 67 78 68 79 71 80 69 81 48 82 49 83 57 84 50 85 51 86 55 87
REMARK SMILES IDX 58 88 52 89 53 90 56 91 54 92
REMARK H PARENT 8 10 11 12 78 45 46 56
REMARK Flexibility Score: inf
ROOT
ATOM      1  C   UNL     1      -2.815   0.490  -2.453  1.00  0.00     0.274 C 
ENDROOT
BRANCH   1   2
ATOM      2  O   UNL     1      -2.764  -0.869  -1.948  1.00  0.00    -0.460 OA
BRANCH   2   3
ATOM      3  C   UNL     1      -1.540  -1.274  -1.511  1.00  0.00     0.341 C 
ATOM      4  O   UNL     1      -0.674  -0.452  -1.262  1.00  0.00    -0.249 OA
BRANCH   3   5
ATOM      5  C   UNL     1      -1.297  -2.787  -1.536  1.00  0.00     0.232 C 
ATOM      6  C   UNL     1      -2.653  -3.493  -1.270  1.00  0.00     0.058 C 
BRANCH   5   7
ATOM      7  N   UNL     1      -0.758  -3.273  -2.863  1.00  0.00    -0.315 N 
ATOM      8  N   UNL     1       1.428  -2.440  -3.397  1.00  0.00    -0.333 N 
ATOM      9  C   UNL     1       0.404  -3.290  -3.532  1.00  0.00     0.316 C 
ATOM     10  H   UNL     1       2.280  -2.781  -3.755  1.00  0.00     0.165 HD
ATOM     11  O   UNL     1       0.516  -4.187  -4.373  1.00  0.00    -0.249 OA
ATOM     12  H   UNL     1      -1.469  -3.704  -3.390  1.00  0.00     0.166 HD
BRANCH   8  13
ATOM     13  C   UNL     1       1.521  -1.121  -2.829  1.00  0.00     0.112 C 
ATOM     14  C   UNL     1       2.882  -0.530  -2.415  1.00  0.00     0.140 C 
ATOM     15  C   UNL     1       2.426   0.889  -2.024  1.00  0.00     0.034 C 
ATOM     16  C   UNL     1       1.424   1.286  -3.114  1.00  0.00     0.005 C 
ATOM     17  C   UNL     1       0.955  -0.031  -3.738  1.00  0.00     0.028 C 
BRANCH  14  18
ATOM     18  O   UNL     1       3.798  -0.521  -3.512  1.00  0.00    -0.379 OA
ATOM     19  C   UNL     1       5.022   0.138  -3.199  1.00  0.00     0.195 C 
ENDBRANCH  14  18
ENDBRANCH   8  13
ENDBRANCH   5   7
BRANCH   5  20
ATOM     20  C   UNL     1      -0.403  -3.185  -0.341  1.00  0.00     0.422 C 
ATOM     21  F   UNL     1      -0.976  -2.851   0.841  1.00  0.00    -0.168 F 
ATOM     22  F   UNL     1      -0.234  -4.534  -0.302  1.00  0.00    -0.168 F 
ATOM     23  F   UNL     1       0.833  -2.650  -0.348  1.00  0.00    -0.168 F 
ENDBRANCH   5  20
ENDBRANCH   3   5
ENDBRANCH   2   3
ENDBRANCH   1   2
BRANCH   1  24
ATOM     24  C   UNL     1      -2.844   1.655  -1.437  1.00  0.00     0.275 C 
BRANCH  24  25
ATOM     25  O   UNL     1      -1.623   1.864  -0.688  1.00  0.00    -0.458 OA
BRANCH  25  26
ATOM     26  C   UNL     1      -1.619   1.337   0.564  1.00  0.00     0.338 C 
ATOM     27  O   UNL     1      -2.559   0.780   1.111  1.00  0.00    -0.246 OA
BRANCH  26  28
ATOM     28  C   UNL     1      -0.258   1.316   1.158  1.00  0.00     0.060 A 
ATOM     29  C   UNL     1       0.303   0.056   1.394  1.00  0.00     0.016 A 
ATOM     30  C   UNL     1       0.409   2.450   1.612  1.00  0.00     0.016 A 
ATOM     31  C   UNL     1       1.515  -0.101   2.056  1.00  0.00     0.010 A 
ATOM     32  C   UNL     1       1.614   2.299   2.327  1.00  0.00     0.010 A 
ATOM     33  C   UNL     1       2.161   1.020   2.572  1.00  0.00    -0.014 A 
BRANCH  33  34
ATOM     34  C   UNL     1       3.261   0.806   3.550  1.00  0.00     0.031 A 
ATOM     35  C   UNL     1       2.945   0.925   5.016  1.00  0.00     0.074 A 
ATOM     36  C   UNL     1       4.483   0.391   3.170  1.00  0.00     0.049 A 
ATOM     37  N   UNL     1       3.745   0.886   6.051  1.00  0.00    -0.248 NA
ATOM     38  C   UNL     1       1.525   1.101   5.360  1.00  0.00     0.031 C 
ATOM     39  C   UNL     1       4.887   0.084   1.800  1.00  0.00     0.029 A 
ATOM     40  N   UNL     1       5.612   0.145   3.916  1.00  0.00    -0.354 N 
ATOM     41  C   UNL     1       2.932   1.069   7.162  1.00  0.00     0.074 A 
ATOM     42  C   UNL     1       1.578   1.223   6.677  1.00  0.00     0.031 C 
ATOM     43  C   UNL     1       6.176  -0.299   1.801  1.00  0.00     0.029 A 
ATOM     44  C   UNL     1       6.704  -0.209   3.162  1.00  0.00     0.049 A 
ATOM     45  H   UNL     1       5.635   0.216   4.897  1.00  0.00     0.167 HD
ATOM     46  C   UNL     1       3.284   1.110   8.469  1.00  0.00     0.037 A 
ATOM     47  C   UNL     1       7.989  -0.398   3.526  1.00  0.00     0.037 A 
ATOM     48  C   UNL     1       4.627   0.929   8.953  1.00  0.00     0.049 A 
ATOM     49  C   UNL     1       8.381  -0.233   4.975  1.00  0.00     0.074 A 
ATOM     50  C   UNL     1       5.090   0.979  10.256  1.00  0.00     0.029 A 
ATOM     51  N   UNL     1       5.723   0.654   8.149  1.00  0.00    -0.354 N 
ATOM     52  N   UNL     1       7.624   0.016   6.016  1.00  0.00    -0.248 NA
ATOM     53  C   UNL     1       9.811  -0.362   5.295  1.00  0.00     0.031 C 
ATOM     54  C   UNL     1       6.475   0.785  10.236  1.00  0.00     0.029 A 
ATOM     55  C   UNL     1       6.866   0.556   8.926  1.00  0.00     0.049 A 
ATOM     56  H   UNL     1       5.694   0.545   7.171  1.00  0.00     0.167 HD
ATOM     57  C   UNL     1       8.477   0.044   7.114  1.00  0.00     0.074 A 
ATOM     58  C   UNL     1       9.809  -0.225   6.614  1.00  0.00     0.031 C 
ATOM     59  C   UNL     1       8.184   0.273   8.418  1.00  0.00     0.037 A 
BRANCH  46  60
ATOM     60  C   UNL     1       2.203   1.426   9.461  1.00  0.00     0.064 A 
ATOM     61  C   UNL     1       1.188   0.512   9.778  1.00  0.00     0.173 A 
ATOM     62  C   UNL     1       2.189   2.673  10.107  1.00  0.00     0.173 A 
ATOM     63  F   UNL     1       1.145  -0.685   9.175  1.00  0.00    -0.203 F 
ATOM     64  C   UNL     1       0.180   0.847  10.679  1.00  0.00     0.198 A 
ATOM     65  C   UNL     1       1.198   2.992  11.030  1.00  0.00     0.198 A 
ATOM     66  F   UNL     1       3.139   3.583   9.841  1.00  0.00    -0.203 F 
ATOM     67  F   UNL     1      -0.814  -0.019  10.923  1.00  0.00    -0.200 F 
ATOM     68  C   UNL     1       0.189   2.084  11.308  1.00  0.00     0.200 A 
ATOM     69  F   UNL     1       1.216   4.183  11.644  1.00  0.00    -0.200 F 
ATOM     70  F   UNL     1      -0.782   2.405  12.174  1.00  0.00    -0.200 F 
ENDBRANCH  46  60
BRANCH  47  71
ATOM     71  C   UNL     1       9.021  -0.709   2.499  1.00  0.00     0.064 A 
ATOM     72  C   UNL     1       9.704  -1.933   2.499  1.00  0.00     0.173 A 
ATOM     73  C   UNL     1       9.378   0.233   1.522  1.00  0.00     0.173 A 
ATOM     74  F   UNL     1       9.426  -2.855   3.433  1.00  0.00    -0.203 F 
ATOM     75  C   UNL     1      10.713  -2.196   1.573  1.00  0.00     0.198 A 
ATOM     76  C   UNL     1      10.364  -0.043   0.577  1.00  0.00     0.198 A 
ATOM     77  F   UNL     1       8.766   1.426   1.482  1.00  0.00    -0.203 F 
ATOM     78  F   UNL     1      11.387  -3.353   1.631  1.00  0.00    -0.200 F 
ATOM     79  C   UNL     1      11.038  -1.254   0.609  1.00  0.00     0.200 A 
ATOM     80  F   UNL     1      10.667   0.868  -0.357  1.00  0.00    -0.200 F 
ATOM     81  F   UNL     1      12.008  -1.507  -0.280  1.00  0.00    -0.200 F 
ENDBRANCH  47  71
BRANCH  59  82
ATOM     82  C   UNL     1       9.312   0.199   9.408  1.00  0.00     0.064 A 
ATOM     83  C   UNL     1      10.303   1.188   9.476  1.00  0.00     0.173 A 
ATOM     84  C   UNL     1       9.370  -0.851  10.338  1.00  0.00     0.173 A 
ATOM     85  F   UNL     1      10.302   2.206   8.602  1.00  0.00    -0.203 F 
ATOM     86  C   UNL     1      11.323   1.117  10.422  1.00  0.00     0.198 A 
ATOM     87  C   UNL     1      10.373  -0.903  11.302  1.00  0.00     0.198 A 
ATOM     88  F   UNL     1       8.441  -1.820  10.323  1.00  0.00    -0.203 F 
ATOM     89  F   UNL     1      12.285   2.050  10.438  1.00  0.00    -0.200 F 
ATOM     90  C   UNL     1      11.352   0.077  11.339  1.00  0.00     0.200 A 
ATOM     91  F   UNL     1      10.389  -1.900  12.198  1.00  0.00    -0.200 F 
ATOM     92  F   UNL     1      12.329   0.016  12.255  1.00  0.00    -0.200 F 
ENDBRANCH  59  82
ENDBRANCH  33  34
ENDBRANCH  26  28
ENDBRANCH  25  26
ENDBRANCH  24  25
ENDBRANCH   1  24
TORSDOF 15
