REMARK SMILES CCC[C@H](C)N(C)S(=O)(=O)c1ccc(CC(=O)OCCOC(=O)c2ccc(-c3c4nc(c(-c5c(F)c(F)c(F)c(F)c5F)c5ccc([nH]5)c(-c5c(F)c(F)c(F)c(F)c5F)c5nc(c(-c6c(F)c(F)c(F)c(F)c6F)c6ccc3[nH]6)C=C5)C=C4)cc2)s1
REMARK SMILES IDX 16 1 17 2 15 3 14 4 11 5 12 6 87 7 13 8 8 9 9 10 10 11 6 12
REMARK SMILES IDX 7 13 4 14 5 15 3 16 2 17 1 18 18 19 19 20 20 21 21 22 22 23
REMARK SMILES IDX 23 24 24 25 25 26 86 27 26 28 85 29 27 30 28 31 29 32 79 33
REMARK SMILES IDX 30 34 84 35 78 36 80 37 31 38 83 39 77 40 76 41 32 43 64 44
REMARK SMILES IDX 44 45 63 46 45 47 48 48 62 49 81 50 46 51 47 52 61 54 82 55
REMARK SMILES IDX 49 56 33 57 34 58 42 59 35 60 36 61 40 62 43 63 37 64 38 65
REMARK SMILES IDX 41 66 39 67 65 68 66 69 74 70 67 71 68 72 72 73 75 74 69 75
REMARK SMILES IDX 70 76 73 77 71 78 50 79 51 80 59 81 52 82 53 83 57 84 60 85
REMARK SMILES IDX 54 86 55 87 58 88 56 89
REMARK H PARENT 80 42 48 53
REMARK Flexibility Score: inf
ROOT
ATOM      1  C   UNL     1       1.406   3.336  11.290  1.00  0.00     0.311 C 
ATOM      2  O   UNL     1       1.936   3.268  12.396  1.00  0.00    -0.252 OA
ENDROOT
BRANCH   1   3
ATOM      3  C   UNL     1       2.084   4.054  10.140  1.00  0.00     0.169 C 
BRANCH   3   4
ATOM      4  C   UNL     1       1.472   3.804   8.796  1.00  0.00     0.017 A 
ATOM      5  C   UNL     1       0.741   2.807   6.650  1.00  0.00     0.135 A 
ATOM      6  C   UNL     1       0.183   4.053   6.882  1.00  0.00     0.034 A 
ATOM      7  S   UNL     1       1.822   2.380   7.904  1.00  0.00    -0.127 S 
ATOM      8  C   UNL     1       0.625   4.638   8.098  1.00  0.00     0.017 A 
BRANCH   5   9
ATOM      9  S   UNL     1       0.420   1.608   5.354  1.00  0.00     0.252 S 
ATOM     10  O   UNL     1      -1.024   1.496   5.383  1.00  0.00    -0.206 OA
ATOM     11  O   UNL     1       1.266   0.463   5.603  1.00  0.00    -0.206 OA
BRANCH   9  12
ATOM     12  N   UNL     1       0.866   2.270   3.831  1.00  0.00    -0.197 NA
ATOM     13  C   UNL     1       0.626   3.713   3.638  1.00  0.00     0.124 C 
BRANCH  12  14
ATOM     14  C   UNL     1       0.523   1.474   2.592  1.00  0.00     0.070 C 
ATOM     15  C   UNL     1       1.127   0.071   2.632  1.00  0.00     0.026 C 
BRANCH  14  16
ATOM     16  C   UNL     1      -0.996   1.440   2.308  1.00  0.00     0.020 C 
BRANCH  16  17
ATOM     17  C   UNL     1      -1.414   2.188   1.037  1.00  0.00    -0.002 C 
ATOM     18  C   UNL     1      -0.970   1.497  -0.241  1.00  0.00     0.004 C 
ENDBRANCH  16  17
ENDBRANCH  14  16
ENDBRANCH  12  14
ENDBRANCH   9  12
ENDBRANCH   5   9
ENDBRANCH   3   4
ENDBRANCH   1   3
BRANCH   1  19
ATOM     19  O   UNL     1       0.178   2.832  10.997  1.00  0.00    -0.462 OA
BRANCH  19  20
ATOM     20  C   UNL     1      -0.502   2.145  12.066  1.00  0.00     0.274 C 
BRANCH  20  21
ATOM     21  C   UNL     1      -0.305   0.633  11.976  1.00  0.00     0.275 C 
BRANCH  21  22
ATOM     22  O   UNL     1       1.092   0.305  12.082  1.00  0.00    -0.458 OA
BRANCH  22  23
ATOM     23  C   UNL     1       1.653  -0.188  10.953  1.00  0.00     0.338 C 
ATOM     24  O   UNL     1       1.107  -0.445   9.898  1.00  0.00    -0.246 OA
BRANCH  23  25
ATOM     25  C   UNL     1       3.093  -0.379  11.170  1.00  0.00     0.060 A 
ATOM     26  C   UNL     1       3.960   0.707  11.041  1.00  0.00     0.016 A 
ATOM     27  C   UNL     1       3.591  -1.663  11.380  1.00  0.00     0.016 A 
ATOM     28  C   UNL     1       5.338   0.508  11.087  1.00  0.00     0.010 A 
ATOM     29  C   UNL     1       4.971  -1.855  11.472  1.00  0.00     0.010 A 
ATOM     30  C   UNL     1       5.856  -0.775  11.304  1.00  0.00    -0.014 A 
BRANCH  30  31
ATOM     31  C   UNL     1       7.323  -1.001  11.324  1.00  0.00     0.031 A 
ATOM     32  C   UNL     1       7.972  -1.812  10.237  1.00  0.00     0.074 A 
ATOM     33  C   UNL     1       8.067  -0.492  12.325  1.00  0.00     0.049 A 
ATOM     34  N   UNL     1       9.206  -2.240  10.146  1.00  0.00    -0.248 NA
ATOM     35  C   UNL     1       7.117  -2.199   9.104  1.00  0.00     0.031 C 
ATOM     36  C   UNL     1       7.559   0.343  13.414  1.00  0.00     0.029 A 
ATOM     37  N   UNL     1       9.407  -0.614  12.595  1.00  0.00    -0.354 N 
ATOM     38  C   UNL     1       9.266  -2.975   8.970  1.00  0.00     0.074 A 
ATOM     39  C   UNL     1       7.943  -2.945   8.384  1.00  0.00     0.031 C 
ATOM     40  C   UNL     1       8.575   0.662  14.231  1.00  0.00     0.029 A 
ATOM     41  C   UNL     1       9.789   0.003  13.761  1.00  0.00     0.049 A 
ATOM     42  H   UNL     1      10.034  -1.097  12.009  1.00  0.00     0.167 HD
ATOM     43  C   UNL     1      10.332  -3.616   8.432  1.00  0.00     0.037 A 
ATOM     44  C   UNL     1      10.976   0.004  14.397  1.00  0.00     0.037 A 
ATOM     45  C   UNL     1      11.653  -3.613   9.005  1.00  0.00     0.049 A 
ATOM     46  C   UNL     1      12.126  -0.763  13.803  1.00  0.00     0.074 A 
ATOM     47  C   UNL     1      12.808  -4.199   8.515  1.00  0.00     0.029 A 
ATOM     48  N   UNL     1      11.996  -2.993  10.198  1.00  0.00    -0.354 N 
ATOM     49  N   UNL     1      12.178  -1.448  12.687  1.00  0.00    -0.248 NA
ATOM     50  C   UNL     1      13.383  -0.763  14.565  1.00  0.00     0.031 C 
ATOM     51  C   UNL     1      13.836  -3.978   9.436  1.00  0.00     0.029 A 
ATOM     52  C   UNL     1      13.338  -3.206  10.473  1.00  0.00     0.049 A 
ATOM     53  H   UNL     1      11.378  -2.478  10.765  1.00  0.00     0.167 HD
ATOM     54  C   UNL     1      13.476  -1.931  12.595  1.00  0.00     0.074 A 
ATOM     55  C   UNL     1      14.184  -1.450  13.763  1.00  0.00     0.031 C 
ATOM     56  C   UNL     1      14.032  -2.705  11.631  1.00  0.00     0.037 A 
BRANCH  43  57
ATOM     57  C   UNL     1      10.115  -4.404   7.172  1.00  0.00     0.064 A 
ATOM     58  C   UNL     1       9.907  -3.781   5.933  1.00  0.00     0.173 A 
ATOM     59  C   UNL     1      10.181  -5.806   7.199  1.00  0.00     0.173 A 
ATOM     60  F   UNL     1       9.828  -2.444   5.854  1.00  0.00    -0.203 F 
ATOM     61  C   UNL     1       9.755  -4.534   4.771  1.00  0.00     0.198 A 
ATOM     62  C   UNL     1      10.057  -6.553   6.031  1.00  0.00     0.198 A 
ATOM     63  F   UNL     1      10.388  -6.452   8.357  1.00  0.00    -0.203 F 
ATOM     64  F   UNL     1       9.524  -3.919   3.602  1.00  0.00    -0.200 F 
ATOM     65  C   UNL     1       9.839  -5.917   4.819  1.00  0.00     0.200 A 
ATOM     66  F   UNL     1      10.156  -7.889   6.078  1.00  0.00    -0.200 F 
ATOM     67  F   UNL     1       9.709  -6.638   3.697  1.00  0.00    -0.200 F 
ENDBRANCH  43  57
BRANCH  44  68
ATOM     68  C   UNL     1      11.134   0.735  15.682  1.00  0.00     0.064 A 
ATOM     69  C   UNL     1      11.971   1.856  15.774  1.00  0.00     0.173 A 
ATOM     70  C   UNL     1      10.478   0.315  16.849  1.00  0.00     0.173 A 
ATOM     71  F   UNL     1      12.641   2.281  14.693  1.00  0.00    -0.203 F 
ATOM     72  C   UNL     1      12.164   2.513  16.987  1.00  0.00     0.198 A 
ATOM     73  C   UNL     1      10.646   0.993  18.054  1.00  0.00     0.198 A 
ATOM     74  F   UNL     1       9.667  -0.753  16.817  1.00  0.00    -0.203 F 
ATOM     75  F   UNL     1      13.014   3.547  17.058  1.00  0.00    -0.200 F 
ATOM     76  C   UNL     1      11.497   2.085  18.125  1.00  0.00     0.200 A 
ATOM     77  F   UNL     1       9.989   0.583  19.148  1.00  0.00    -0.200 F 
ATOM     78  F   UNL     1      11.684   2.716  19.291  1.00  0.00    -0.200 F 
ENDBRANCH  44  68
BRANCH  56  79
ATOM     79  C   UNL     1      15.489  -3.037  11.772  1.00  0.00     0.064 A 
ATOM     80  C   UNL     1      15.953  -3.933  12.745  1.00  0.00     0.173 A 
ATOM     81  C   UNL     1      16.430  -2.472  10.897  1.00  0.00     0.173 A 
ATOM     82  F   UNL     1      15.096  -4.486  13.617  1.00  0.00    -0.203 F 
ATOM     83  C   UNL     1      17.309  -4.230  12.856  1.00  0.00     0.198 A 
ATOM     84  C   UNL     1      17.780  -2.796  10.989  1.00  0.00     0.198 A 
ATOM     85  F   UNL     1      16.038  -1.613   9.944  1.00  0.00    -0.203 F 
ATOM     86  F   UNL     1      17.736  -5.049  13.827  1.00  0.00    -0.200 F 
ATOM     87  C   UNL     1      18.220  -3.668  11.974  1.00  0.00     0.200 A 
ATOM     88  F   UNL     1      18.657  -2.263  10.127  1.00  0.00    -0.200 F 
ATOM     89  F   UNL     1      19.523  -3.961  12.078  1.00  0.00    -0.200 F 
ENDBRANCH  56  79
ENDBRANCH  30  31
ENDBRANCH  23  25
ENDBRANCH  22  23
ENDBRANCH  21  22
ENDBRANCH  20  21
ENDBRANCH  19  20
ENDBRANCH   1  19
TORSDOF 17
