REMARK SMILES C[C@@H](CCC(=O)OCCOC(=O)c1ccc(-c2c3nc(c(-c4c(F)c(F)c(F)c(F)c4F)c4ccc([nH]4)c(-c4c(F)c(F)c(F)c(F)c4F)c4nc(c(-c5c(F)c(F)c(F)c(F)c5F)c5ccc2[nH]5)C=C4)C=C3)cc1)NC(=O)Nc1ccc(Cl)c(Br)c1
REMARK SMILES IDX 8 1 7 2 5 3 6 4 4 5 3 6 2 7 1 8 76 9 77 10 78 12 79 13 80 15
REMARK SMILES IDX 81 16 87 17 82 18 85 19 83 20 86 21 84 22 9 23 10 24 11 25
REMARK SMILES IDX 12 26 13 27 14 28 75 29 15 30 74 31 16 32 17 33 18 34 68 35
REMARK SMILES IDX 19 36 73 37 67 38 69 39 20 40 72 41 66 42 65 43 21 45 53 46
REMARK SMILES IDX 33 47 52 48 34 49 37 50 51 51 70 52 35 53 36 54 50 56 71 57
REMARK SMILES IDX 38 58 22 59 23 60 31 61 24 62 25 63 29 64 32 65 26 66 27 67
REMARK SMILES IDX 30 68 28 69 54 70 55 71 63 72 56 73 57 74 61 75 64 76 58 77
REMARK SMILES IDX 59 78 62 79 60 80 39 81 40 82 48 83 41 84 42 85 46 86 49 87
REMARK SMILES IDX 43 88 44 89 47 90 45 91
REMARK H PARENT 76 11 79 14 69 44 37 55
REMARK Flexibility Score: inf
ROOT
ATOM      1  C   UNL     1      -3.235   0.772  -1.892  1.00  0.00     0.274 C 
ENDROOT
BRANCH   1   2
ATOM      2  O   UNL     1      -1.824   0.582  -1.652  1.00  0.00    -0.462 OA
BRANCH   2   3
ATOM      3  C   UNL     1      -0.989   0.684  -2.714  1.00  0.00     0.305 C 
ATOM      4  O   UNL     1      -1.354   0.832  -3.874  1.00  0.00    -0.252 OA
BRANCH   3   5
ATOM      5  C   UNL     1       0.467   0.516  -2.333  1.00  0.00     0.125 C 
BRANCH   5   6
ATOM      6  C   UNL     1       0.978   1.287  -1.111  1.00  0.00     0.036 C 
BRANCH   6   7
ATOM      7  C   UNL     1       0.607   0.746   0.285  1.00  0.00     0.081 C 
ATOM      8  C   UNL     1       0.726  -0.772   0.395  1.00  0.00     0.031 C 
BRANCH   7   9
ATOM      9  N   UNL     1      -0.729   1.194   0.667  1.00  0.00    -0.335 N 
ATOM     10  C   UNL     1      -1.275   1.833   1.715  1.00  0.00     0.319 C 
ATOM     11  H   UNL     1      -1.401   0.970  -0.017  1.00  0.00     0.165 HD
ATOM     12  O   UNL     1      -2.505   1.818   1.819  1.00  0.00    -0.248 OA
ATOM     13  N   UNL     1      -0.544   2.371   2.712  1.00  0.00    -0.308 N 
ATOM     14  H   UNL     1      -1.028   2.471   3.563  1.00  0.00     0.171 HD
BRANCH  13  15
ATOM     15  C   UNL     1       0.779   2.811   2.747  1.00  0.00     0.044 A 
ATOM     16  C   UNL     1       1.515   2.533   3.898  1.00  0.00     0.028 A 
ATOM     17  C   UNL     1       1.376   3.480   1.676  1.00  0.00     0.043 A 
ATOM     18  C   UNL     1       2.885   2.787   3.920  1.00  0.00     0.024 A 
ATOM     19  C   UNL     1       2.748   3.752   1.703  1.00  0.00     0.038 A 
ATOM     20  C   UNL     1       3.510   3.376   2.816  1.00  0.00     0.055 A 
ATOM     21  Br  UNL     1       3.508   4.578   0.172  1.00  0.00    -0.049 Br
ATOM     22  Cl  UNL     1       5.224   3.577   2.889  1.00  0.00    -0.083 Cl
ENDBRANCH  13  15
ENDBRANCH   7   9
ENDBRANCH   6   7
ENDBRANCH   5   6
ENDBRANCH   3   5
ENDBRANCH   2   3
ENDBRANCH   1   2
BRANCH   1  23
ATOM     23  C   UNL     1      -3.664   2.216  -1.614  1.00  0.00     0.275 C 
BRANCH  23  24
ATOM     24  O   UNL     1      -3.212   3.096  -2.658  1.00  0.00    -0.458 OA
BRANCH  24  25
ATOM     25  C   UNL     1      -2.045   3.738  -2.424  1.00  0.00     0.338 C 
ATOM     26  O   UNL     1      -1.359   3.710  -1.419  1.00  0.00    -0.246 OA
BRANCH  25  27
ATOM     27  C   UNL     1      -1.628   4.400  -3.665  1.00  0.00     0.060 A 
ATOM     28  C   UNL     1      -0.447   3.980  -4.285  1.00  0.00     0.016 A 
ATOM     29  C   UNL     1      -2.392   5.437  -4.201  1.00  0.00     0.016 A 
ATOM     30  C   UNL     1      -0.032   4.584  -5.468  1.00  0.00     0.010 A 
ATOM     31  C   UNL     1      -1.973   6.045  -5.382  1.00  0.00     0.010 A 
ATOM     32  C   UNL     1      -0.794   5.620  -6.021  1.00  0.00    -0.014 A 
BRANCH  32  33
ATOM     33  C   UNL     1      -0.360   6.303  -7.258  1.00  0.00     0.031 A 
ATOM     34  C   UNL     1       0.203   7.686  -7.172  1.00  0.00     0.074 A 
ATOM     35  C   UNL     1      -0.545   5.708  -8.448  1.00  0.00     0.049 A 
ATOM     36  N   UNL     1       0.453   8.542  -8.128  1.00  0.00    -0.248 NA
ATOM     37  C   UNL     1       0.512   8.177  -5.821  1.00  0.00     0.031 C 
ATOM     38  C   UNL     1      -1.061   4.353  -8.640  1.00  0.00     0.029 A 
ATOM     39  N   UNL     1      -0.357   6.184  -9.721  1.00  0.00    -0.354 N 
ATOM     40  C   UNL     1       0.916   9.686  -7.494  1.00  0.00     0.074 A 
ATOM     41  C   UNL     1       0.906   9.417  -6.071  1.00  0.00     0.031 C 
ATOM     42  C   UNL     1      -1.183   4.117  -9.957  1.00  0.00     0.029 A 
ATOM     43  C   UNL     1      -0.801   5.321 -10.692  1.00  0.00     0.049 A 
ATOM     44  H   UNL     1       0.055   7.056  -9.918  1.00  0.00     0.167 HD
ATOM     45  C   UNL     1       1.307  10.854  -8.056  1.00  0.00     0.037 A 
ATOM     46  C   UNL     1      -0.933   5.503 -12.019  1.00  0.00     0.037 A 
ATOM     47  C   UNL     1       1.318  11.098  -9.475  1.00  0.00     0.049 A 
ATOM     48  C   UNL     1      -0.528   6.820 -12.621  1.00  0.00     0.074 A 
ATOM     49  C   UNL     1       1.733  12.229 -10.154  1.00  0.00     0.029 A 
ATOM     50  N   UNL     1       0.883  10.192 -10.433  1.00  0.00    -0.354 N 
ATOM     51  N   UNL     1      -0.072   7.895 -12.024  1.00  0.00    -0.248 NA
ATOM     52  C   UNL     1      -0.657   6.953 -14.078  1.00  0.00     0.031 C 
ATOM     53  C   UNL     1       1.503  12.027 -11.519  1.00  0.00     0.029 A 
ATOM     54  C   UNL     1       0.994  10.749 -11.696  1.00  0.00     0.049 A 
ATOM     55  H   UNL     1       0.545   9.287 -10.242  1.00  0.00     0.167 HD
ATOM     56  C   UNL     1       0.160   8.823 -13.029  1.00  0.00     0.074 A 
ATOM     57  C   UNL     1      -0.201   8.182 -14.278  1.00  0.00     0.031 C 
ATOM     58  C   UNL     1       0.633  10.090 -12.927  1.00  0.00     0.037 A 
BRANCH  45  59
ATOM     59  C   UNL     1       1.705  11.964  -7.129  1.00  0.00     0.064 A 
ATOM     60  C   UNL     1       2.889  11.916  -6.378  1.00  0.00     0.173 A 
ATOM     61  C   UNL     1       0.884  13.093  -6.988  1.00  0.00     0.173 A 
ATOM     62  F   UNL     1       3.702  10.853  -6.465  1.00  0.00    -0.203 F 
ATOM     63  C   UNL     1       3.218  12.941  -5.493  1.00  0.00     0.198 A 
ATOM     64  C   UNL     1       1.230  14.129  -6.125  1.00  0.00     0.198 A 
ATOM     65  F   UNL     1      -0.257  13.191  -7.686  1.00  0.00    -0.203 F 
ATOM     66  F   UNL     1       4.324  12.847  -4.742  1.00  0.00    -0.200 F 
ATOM     67  C   UNL     1       2.390  14.047  -5.370  1.00  0.00     0.200 A 
ATOM     68  F   UNL     1       0.435  15.202  -6.016  1.00  0.00    -0.200 F 
ATOM     69  F   UNL     1       2.706  15.030  -4.516  1.00  0.00    -0.200 F 
ENDBRANCH  45  59
BRANCH  46  70
ATOM     70  C   UNL     1      -1.501   4.411 -12.848  1.00  0.00     0.064 A 
ATOM     71  C   UNL     1      -0.694   3.668 -13.718  1.00  0.00     0.173 A 
ATOM     72  C   UNL     1      -2.857   4.059 -12.751  1.00  0.00     0.173 A 
ATOM     73  F   UNL     1       0.602   3.982 -13.861  1.00  0.00    -0.203 F 
ATOM     74  C   UNL     1      -1.220   2.613 -14.461  1.00  0.00     0.198 A 
ATOM     75  C   UNL     1      -3.376   2.988 -13.476  1.00  0.00     0.198 A 
ATOM     76  F   UNL     1      -3.670   4.739 -11.931  1.00  0.00    -0.203 F 
ATOM     77  F   UNL     1      -0.432   1.933 -15.305  1.00  0.00    -0.200 F 
ATOM     78  C   UNL     1      -2.557   2.268 -14.332  1.00  0.00     0.200 A 
ATOM     79  F   UNL     1      -4.665   2.650 -13.337  1.00  0.00    -0.200 F 
ATOM     80  F   UNL     1      -3.058   1.242 -15.034  1.00  0.00    -0.200 F 
ENDBRANCH  46  70
BRANCH  58  81
ATOM     81  C   UNL     1       0.822  10.860 -14.200  1.00  0.00     0.064 A 
ATOM     82  C   UNL     1      -0.265  11.393 -14.906  1.00  0.00     0.173 A 
ATOM     83  C   UNL     1       2.114  11.123 -14.680  1.00  0.00     0.173 A 
ATOM     84  F   UNL     1      -1.520  11.155 -14.495  1.00  0.00    -0.203 F 
ATOM     85  C   UNL     1      -0.065  12.155 -16.054  1.00  0.00     0.198 A 
ATOM     86  C   UNL     1       2.311  11.907 -15.813  1.00  0.00     0.198 A 
ATOM     87  F   UNL     1       3.187  10.638 -14.036  1.00  0.00    -0.203 F 
ATOM     88  F   UNL     1      -1.119  12.631 -16.732  1.00  0.00    -0.200 F 
ATOM     89  C   UNL     1       1.221  12.419 -16.501  1.00  0.00     0.200 A 
ATOM     90  F   UNL     1       3.555  12.171 -16.236  1.00  0.00    -0.200 F 
ATOM     91  F   UNL     1       1.411  13.166 -17.598  1.00  0.00    -0.200 F 
ENDBRANCH  58  81
ENDBRANCH  32  33
ENDBRANCH  25  27
ENDBRANCH  24  25
ENDBRANCH  23  24
ENDBRANCH   1  23
TORSDOF 15
