REMARK SMILES O=C(OCCOC(=O)c1cccn1CC(=O)N1CCc2ccccc2C1)c1ccc(-c2c3nc(c(-c4c(F)c(F)c(F)c(F)c4F)c4ccc([nH]4)c(-c4c(F)c(F)c(F)c(F)c4F)c4nc(c(-c5c(F)c(F)c(F)c(F)c5F)c5ccc2[nH]5)C=C4)C=C3)cc1
REMARK SMILES IDX 5 1 4 2 3 3 2 4 1 5 27 6 28 7 89 8 29 9 88 10 30 11 31 12
REMARK SMILES IDX 32 13 82 14 33 15 87 16 81 17 83 18 34 19 86 20 80 21 79 22
REMARK SMILES IDX 35 24 67 25 47 26 66 27 48 28 51 29 65 30 84 31 49 32 50 33
REMARK SMILES IDX 64 35 85 36 52 37 36 38 37 39 45 40 38 41 39 42 43 43 46 44
REMARK SMILES IDX 40 45 41 46 44 47 42 48 68 49 69 50 77 51 70 52 71 53 75 54
REMARK SMILES IDX 78 55 72 56 73 57 76 58 74 59 53 60 54 61 62 62 55 63 56 64
REMARK SMILES IDX 60 65 63 66 57 67 58 68 61 69 59 70 6 71 7 72 8 73 9 74
REMARK SMILES IDX 10 75 13 76 11 77 12 78 14 79 15 80 16 81 17 82 18 83 26 84
REMARK SMILES IDX 19 85 25 86 20 87 24 88 21 89 23 90 22 91
REMARK H PARENT 83 23 51 34
REMARK Flexibility Score: inf
ROOT
ATOM      1  C   UNL     1       4.416   1.285  -1.592  1.00  0.00     0.275 C 
ENDROOT
BRANCH   1   2
ATOM      2  C   UNL     1       4.594  -0.154  -2.120  1.00  0.00     0.275 C 
BRANCH   2   3
ATOM      3  O   UNL     1       3.376  -0.862  -2.330  1.00  0.00    -0.458 OA
BRANCH   3   4
ATOM      4  C   UNL     1       2.466  -0.982  -1.352  1.00  0.00     0.338 C 
ATOM      5  O   UNL     1       1.278  -0.761  -1.568  1.00  0.00    -0.246 OA
BRANCH   4   6
ATOM      6  C   UNL     1       2.866  -1.525  -0.024  1.00  0.00     0.060 A 
ATOM      7  C   UNL     1       4.115  -1.489   0.610  1.00  0.00     0.016 A 
ATOM      8  C   UNL     1       1.779  -2.020   0.689  1.00  0.00     0.016 A 
ATOM      9  C   UNL     1       4.260  -1.944   1.914  1.00  0.00     0.010 A 
ATOM     10  C   UNL     1       1.879  -2.186   2.050  1.00  0.00     0.010 A 
ATOM     11  C   UNL     1       3.116  -2.063   2.701  1.00  0.00    -0.014 A 
BRANCH  11  12
ATOM     12  C   UNL     1       3.143  -2.147   4.234  1.00  0.00     0.031 A 
ATOM     13  C   UNL     1       3.083  -0.580   5.714  1.00  0.00     0.074 A 
ATOM     14  C   UNL     1       3.073  -3.760   4.285  1.00  0.00     0.049 A 
ATOM     15  N   UNL     1       2.657  -0.737   7.072  1.00  0.00    -0.248 NA
ATOM     16  C   UNL     1       3.437   1.015   5.960  1.00  0.00     0.031 C 
ATOM     17  C   UNL     1       2.837  -4.793   3.181  1.00  0.00     0.029 A 
ATOM     18  N   UNL     1       3.066  -4.800   5.328  1.00  0.00    -0.354 N 
ATOM     19  C   UNL     1       2.962   0.201   8.005  1.00  0.00     0.074 A 
ATOM     20  C   UNL     1       3.259   1.356   7.250  1.00  0.00     0.031 C 
ATOM     21  C   UNL     1       2.948  -6.099   3.589  1.00  0.00     0.029 A 
ATOM     22  C   UNL     1       3.231  -6.189   5.007  1.00  0.00     0.049 A 
ATOM     23  H   UNL     1       2.944  -4.536   6.269  1.00  0.00     0.167 HD
ATOM     24  C   UNL     1       3.094  -0.029   9.346  1.00  0.00     0.037 A 
ATOM     25  C   UNL     1       3.557  -7.257   5.859  1.00  0.00     0.037 A 
ATOM     26  C   UNL     1       3.287  -1.384   9.869  1.00  0.00     0.049 A 
ATOM     27  C   UNL     1       3.506  -6.706   7.258  1.00  0.00     0.074 A 
ATOM     28  C   UNL     1       4.365  -1.988  10.496  1.00  0.00     0.029 A 
ATOM     29  N   UNL     1       2.281  -2.331   9.891  1.00  0.00    -0.354 N 
ATOM     30  N   UNL     1       2.438  -6.439   7.962  1.00  0.00    -0.248 NA
ATOM     31  C   UNL     1       4.778  -6.412   7.914  1.00  0.00     0.031 C 
ATOM     32  C   UNL     1       4.014  -3.322  10.847  1.00  0.00     0.029 A 
ATOM     33  C   UNL     1       2.794  -3.595  10.250  1.00  0.00     0.049 A 
ATOM     34  H   UNL     1       1.336  -2.148   9.685  1.00  0.00     0.167 HD
ATOM     35  C   UNL     1       2.904  -5.757   9.088  1.00  0.00     0.074 A 
ATOM     36  C   UNL     1       4.344  -5.947   9.087  1.00  0.00     0.031 C 
ATOM     37  C   UNL     1       2.147  -4.805   9.726  1.00  0.00     0.037 A 
BRANCH  24  38
ATOM     38  C   UNL     1       2.999   1.054  10.392  1.00  0.00     0.064 A 
ATOM     39  C   UNL     1       3.708   0.903  11.599  1.00  0.00     0.173 A 
ATOM     40  C   UNL     1       1.809   1.790  10.443  1.00  0.00     0.173 A 
ATOM     41  F   UNL     1       4.951   0.401  11.608  1.00  0.00    -0.203 F 
ATOM     42  C   UNL     1       3.106   1.175  12.820  1.00  0.00     0.198 A 
ATOM     43  C   UNL     1       1.240   2.134  11.667  1.00  0.00     0.198 A 
ATOM     44  F   UNL     1       1.130   2.069   9.321  1.00  0.00    -0.203 F 
ATOM     45  F   UNL     1       3.709   0.803  13.959  1.00  0.00    -0.200 F 
ATOM     46  C   UNL     1       1.851   1.753  12.852  1.00  0.00     0.200 A 
ATOM     47  F   UNL     1       0.051   2.750  11.696  1.00  0.00    -0.200 F 
ATOM     48  F   UNL     1       1.222   1.930  14.022  1.00  0.00    -0.200 F 
ENDBRANCH  24  38
BRANCH  25  49
ATOM     49  C   UNL     1       4.054  -8.791   5.831  1.00  0.00     0.064 A 
ATOM     50  C   UNL     1       3.931  -9.726   4.785  1.00  0.00     0.173 A 
ATOM     51  C   UNL     1       4.758  -9.374   6.954  1.00  0.00     0.173 A 
ATOM     52  F   UNL     1       3.153  -9.453   3.730  1.00  0.00    -0.203 F 
ATOM     53  C   UNL     1       4.569 -11.015   4.806  1.00  0.00     0.198 A 
ATOM     54  C   UNL     1       5.445 -10.607   6.950  1.00  0.00     0.198 A 
ATOM     55  F   UNL     1       4.780  -8.791   8.157  1.00  0.00    -0.203 F 
ATOM     56  F   UNL     1       4.397 -11.871   3.786  1.00  0.00    -0.200 F 
ATOM     57  C   UNL     1       5.374 -11.424   5.858  1.00  0.00     0.200 A 
ATOM     58  F   UNL     1       6.166 -10.980   8.022  1.00  0.00    -0.200 F 
ATOM     59  F   UNL     1       6.037 -12.592   5.837  1.00  0.00    -0.200 F 
ENDBRANCH  25  49
BRANCH  37  60
ATOM     60  C   UNL     1       0.685  -4.867   9.404  1.00  0.00     0.064 A 
ATOM     61  C   UNL     1      -0.133  -5.805  10.029  1.00  0.00     0.173 A 
ATOM     62  C   UNL     1       0.074  -4.026   8.464  1.00  0.00     0.173 A 
ATOM     63  F   UNL     1       0.386  -6.651  10.931  1.00  0.00    -0.203 F 
ATOM     64  C   UNL     1      -1.501  -5.857   9.755  1.00  0.00     0.198 A 
ATOM     65  C   UNL     1      -1.280  -4.082   8.172  1.00  0.00     0.198 A 
ATOM     66  F   UNL     1       0.786  -3.078   7.859  1.00  0.00    -0.203 F 
ATOM     67  F   UNL     1      -2.275  -6.730  10.411  1.00  0.00    -0.200 F 
ATOM     68  C   UNL     1      -2.074  -4.994   8.830  1.00  0.00     0.200 A 
ATOM     69  F   UNL     1      -1.806  -3.227   7.283  1.00  0.00    -0.200 F 
ATOM     70  F   UNL     1      -3.392  -5.026   8.593  1.00  0.00    -0.200 F 
ENDBRANCH  37  60
ENDBRANCH  11  12
ENDBRANCH   4   6
ENDBRANCH   3   4
ENDBRANCH   2   3
ENDBRANCH   1   2
BRANCH   1  71
ATOM     71  O   UNL     1       3.836   1.430  -0.257  1.00  0.00    -0.457 OA
BRANCH  71  72
ATOM     72  C   UNL     1       2.542   1.907  -0.152  1.00  0.00     0.355 C 
ATOM     73  O   UNL     1       1.792   2.050  -1.106  1.00  0.00    -0.244 OA
BRANCH  72  74
ATOM     74  C   UNL     1       2.278   2.438   1.188  1.00  0.00     0.128 A 
ATOM     75  C   UNL     1       2.878   3.613   1.645  1.00  0.00     0.035 A 
ATOM     76  N   UNL     1       1.331   2.083   2.175  1.00  0.00    -0.333 N 
ATOM     77  C   UNL     1       2.168   4.077   2.771  1.00  0.00     0.020 A 
ATOM     78  C   UNL     1       1.179   3.159   3.029  1.00  0.00     0.087 A 
BRANCH  76  79
ATOM     79  C   UNL     1       0.482   0.871   2.308  1.00  0.00     0.222 C 
BRANCH  79  80
ATOM     80  C   UNL     1       0.427  -0.005   3.679  1.00  0.00     0.242 C 
ATOM     81  O   UNL     1      -0.682  -0.362   4.098  1.00  0.00    -0.273 OA
BRANCH  80  82
ATOM     82  N   UNL     1       1.597  -0.550   4.280  1.00  0.00    -0.336 N 
ATOM     83  C   UNL     1       3.105   0.193   3.653  1.00  0.00     0.124 C 
ATOM     84  C   UNL     1       1.620  -1.974   5.593  1.00  0.00     0.155 C 
ATOM     85  C   UNL     1       4.772  -0.405   4.311  1.00  0.00     0.057 C 
ATOM     86  C   UNL     1       3.481  -2.480   6.246  1.00  0.00    -0.025 A 
ATOM     87  C   UNL     1       4.888  -1.735   5.539  1.00  0.00    -0.041 A 
ATOM     88  C   UNL     1       3.746  -3.204   7.338  1.00  0.00     0.006 A 
ATOM     89  C   UNL     1       6.170  -1.984   5.950  1.00  0.00     0.004 A 
ATOM     90  C   UNL     1       5.104  -3.331   7.700  1.00  0.00     0.000 A 
ATOM     91  C   UNL     1       6.251  -2.822   7.034  1.00  0.00     0.000 A 
ENDBRANCH  80  82
ENDBRANCH  79  80
ENDBRANCH  76  79
ENDBRANCH  72  74
ENDBRANCH  71  72
ENDBRANCH   1  71
TORSDOF 14
