REMARK SMILES CCN(Cc1ccccn1)C(=O)N1CCC[C@H](C(=O)OCCOC(=O)c2ccc(-c3c4nc(c(-c5c(F)c(F)c(F)c(F)c5F)c5ccc([nH]5)c(-c5c(F)c(F)c(F)c(F)c5F)c5nc(c(-c6c(F)c(F)c(F)c(F)c6F)c6ccc3[nH]6)C=C5)C=C4)cc2)C1
REMARK SMILES IDX 21 1 20 2 18 3 19 4 17 5 13 6 14 7 89 8 15 9 16 10 11 11
REMARK SMILES IDX 12 12 3 13 2 14 1 15 4 16 5 17 6 18 10 19 7 20 9 21 8 22
REMARK SMILES IDX 22 23 23 24 24 25 25 26 26 27 27 28 88 29 28 30 87 31 29 32
REMARK SMILES IDX 30 33 31 34 81 35 32 36 86 37 80 38 82 39 33 40 85 41 79 42
REMARK SMILES IDX 78 43 34 45 66 46 46 47 65 48 47 49 50 50 64 51 83 52 48 53
REMARK SMILES IDX 49 54 63 56 84 57 51 58 35 59 36 60 44 61 37 62 38 63 42 64
REMARK SMILES IDX 45 65 39 66 40 67 43 68 41 69 67 70 68 71 76 72 69 73 70 74
REMARK SMILES IDX 74 75 77 76 71 77 72 78 75 79 73 80 52 81 53 82 61 83 54 84
REMARK SMILES IDX 55 85 59 86 62 87 56 88 57 89 60 90 58 91
REMARK H PARENT 82 44 50 55
REMARK Flexibility Score: inf
ROOT
ATOM      1  C   UNL     1       5.128  -1.307   4.840  1.00  0.00     0.274 C 
ENDROOT
BRANCH   1   2
ATOM      2  O   UNL     1       5.034   0.123   4.723  1.00  0.00    -0.462 OA
BRANCH   2   3
ATOM      3  C   UNL     1       4.019   0.710   5.400  1.00  0.00     0.310 C 
ATOM      4  O   UNL     1       3.210   0.108   6.101  1.00  0.00    -0.252 OA
BRANCH   3   5
ATOM      5  C   UNL     1       3.974   2.222   5.239  1.00  0.00     0.119 C 
ATOM      6  N   UNL     1       2.969   2.476   2.983  1.00  0.00    -0.324 N 
ATOM      7  C   UNL     1       4.123   3.225   2.497  1.00  0.00     0.121 C 
ATOM      8  C   UNL     1       2.745   2.584   4.415  1.00  0.00     0.136 C 
ATOM      9  C   UNL     1       5.405   2.821   3.221  1.00  0.00     0.023 C 
ATOM     10  C   UNL     1       5.244   2.904   4.737  1.00  0.00     0.019 C 
BRANCH   6  11
ATOM     11  C   UNL     1       2.521   1.397   2.243  1.00  0.00     0.320 C 
ATOM     12  O   UNL     1       3.295   0.815   1.479  1.00  0.00    -0.248 OA
BRANCH  11  13
ATOM     13  N   UNL     1       1.188   1.030   2.341  1.00  0.00    -0.319 N 
BRANCH  13  14
ATOM     14  C   UNL     1       0.787  -0.204   1.665  1.00  0.00     0.118 C 
ATOM     15  C   UNL     1       0.638  -0.013   0.159  1.00  0.00     0.027 C 
ENDBRANCH  13  14
BRANCH  13  16
ATOM     16  C   UNL     1       0.089   1.843   2.898  1.00  0.00     0.177 C 
BRANCH  16  17
ATOM     17  C   UNL     1      -0.285   1.496   4.337  1.00  0.00     0.060 A 
ATOM     18  C   UNL     1      -0.566   2.526   5.240  1.00  0.00     0.026 A 
ATOM     19  N   UNL     1      -0.170   0.204   4.737  1.00  0.00    -0.259 NA
ATOM     20  C   UNL     1      -0.613   2.236   6.602  1.00  0.00     0.004 A 
ATOM     21  C   UNL     1      -0.215  -0.047   6.065  1.00  0.00     0.111 A 
ATOM     22  C   UNL     1      -0.413   0.928   7.027  1.00  0.00     0.020 A 
ENDBRANCH  16  17
ENDBRANCH  13  16
ENDBRANCH  11  13
ENDBRANCH   6  11
ENDBRANCH   3   5
ENDBRANCH   2   3
ENDBRANCH   1   2
BRANCH   1  23
ATOM     23  C   UNL     1       6.117  -1.716   5.936  1.00  0.00     0.275 C 
BRANCH  23  24
ATOM     24  O   UNL     1       5.608  -1.446   7.258  1.00  0.00    -0.458 OA
BRANCH  24  25
ATOM     25  C   UNL     1       5.913  -0.224   7.753  1.00  0.00     0.338 C 
ATOM     26  O   UNL     1       6.607   0.636   7.239  1.00  0.00    -0.246 OA
BRANCH  25  27
ATOM     27  C   UNL     1       5.158   0.017   8.992  1.00  0.00     0.060 A 
ATOM     28  C   UNL     1       4.233   1.064   8.997  1.00  0.00     0.016 A 
ATOM     29  C   UNL     1       5.422  -0.697  10.160  1.00  0.00     0.016 A 
ATOM     30  C   UNL     1       3.571   1.416  10.165  1.00  0.00     0.010 A 
ATOM     31  C   UNL     1       4.758  -0.343  11.341  1.00  0.00     0.010 A 
ATOM     32  C   UNL     1       3.842   0.725  11.349  1.00  0.00    -0.014 A 
BRANCH  32  33
ATOM     33  C   UNL     1       3.213   1.189  12.605  1.00  0.00     0.031 A 
ATOM     34  C   UNL     1       4.021   1.985  13.586  1.00  0.00     0.074 A 
ATOM     35  C   UNL     1       1.910   0.946  12.829  1.00  0.00     0.049 A 
ATOM     36  N   UNL     1       3.680   2.441  14.764  1.00  0.00    -0.248 NA
ATOM     37  C   UNL     1       5.397   2.317  13.184  1.00  0.00     0.031 C 
ATOM     38  C   UNL     1       1.016   0.237  11.915  1.00  0.00     0.029 A 
ATOM     39  N   UNL     1       1.113   1.273  13.896  1.00  0.00    -0.354 N 
ATOM     40  C   UNL     1       4.803   3.092  15.255  1.00  0.00     0.074 A 
ATOM     41  C   UNL     1       5.840   2.966  14.252  1.00  0.00     0.031 C 
ATOM     42  C   UNL     1      -0.210   0.180  12.461  1.00  0.00     0.029 A 
ATOM     43  C   UNL     1      -0.173   0.809  13.779  1.00  0.00     0.049 A 
ATOM     44  H   UNL     1       1.432   1.791  14.670  1.00  0.00     0.167 HD
ATOM     45  C   UNL     1       4.951   3.736  16.437  1.00  0.00     0.037 A 
ATOM     46  C   UNL     1      -1.195   0.862  14.653  1.00  0.00     0.037 A 
ATOM     47  C   UNL     1       3.911   3.867  17.422  1.00  0.00     0.049 A 
ATOM     48  C   UNL     1      -0.987   1.537  15.982  1.00  0.00     0.074 A 
ATOM     49  C   UNL     1       3.959   4.500  18.652  1.00  0.00     0.029 A 
ATOM     50  N   UNL     1       2.628   3.355  17.286  1.00  0.00    -0.354 N 
ATOM     51  N   UNL     1       0.082   2.135  16.448  1.00  0.00    -0.248 NA
ATOM     52  C   UNL     1      -2.129   1.541  16.907  1.00  0.00     0.031 C 
ATOM     53  C   UNL     1       2.716   4.338  19.276  1.00  0.00     0.029 A 
ATOM     54  C   UNL     1       1.881   3.643  18.416  1.00  0.00     0.049 A 
ATOM     55  H   UNL     1       2.299   2.860  16.501  1.00  0.00     0.167 HD
ATOM     56  C   UNL     1      -0.259   2.599  17.711  1.00  0.00     0.074 A 
ATOM     57  C   UNL     1      -1.643   2.230  17.930  1.00  0.00     0.031 C 
ATOM     58  C   UNL     1       0.504   3.267  18.611  1.00  0.00     0.037 A 
BRANCH  45  59
ATOM     59  C   UNL     1       6.301   4.312  16.742  1.00  0.00     0.064 A 
ATOM     60  C   UNL     1       6.774   5.467  16.103  1.00  0.00     0.173 A 
ATOM     61  C   UNL     1       7.125   3.710  17.706  1.00  0.00     0.173 A 
ATOM     62  F   UNL     1       6.031   6.070  15.162  1.00  0.00    -0.203 F 
ATOM     63  C   UNL     1       8.032   5.986  16.401  1.00  0.00     0.198 A 
ATOM     64  C   UNL     1       8.371   4.245  18.019  1.00  0.00     0.198 A 
ATOM     65  F   UNL     1       6.718   2.604  18.346  1.00  0.00    -0.203 F 
ATOM     66  F   UNL     1       8.482   7.066  15.747  1.00  0.00    -0.200 F 
ATOM     67  C   UNL     1       8.826   5.378  17.362  1.00  0.00     0.200 A 
ATOM     68  F   UNL     1       9.134   3.661  18.953  1.00  0.00    -0.200 F 
ATOM     69  F   UNL     1      10.035   5.880  17.649  1.00  0.00    -0.200 F 
ENDBRANCH  45  59
BRANCH  46  70
ATOM     70  C   UNL     1      -2.497   0.237  14.308  1.00  0.00     0.064 A 
ATOM     71  C   UNL     1      -3.634   1.019  14.067  1.00  0.00     0.173 A 
ATOM     72  C   UNL     1      -2.630  -1.157  14.217  1.00  0.00     0.173 A 
ATOM     73  F   UNL     1      -3.560   2.354  14.166  1.00  0.00    -0.203 F 
ATOM     74  C   UNL     1      -4.859   0.430  13.760  1.00  0.00     0.198 A 
ATOM     75  C   UNL     1      -3.848  -1.743  13.884  1.00  0.00     0.198 A 
ATOM     76  F   UNL     1      -1.571  -1.949  14.440  1.00  0.00    -0.203 F 
ATOM     77  F   UNL     1      -5.940   1.199  13.573  1.00  0.00    -0.200 F 
ATOM     78  C   UNL     1      -4.963  -0.949  13.662  1.00  0.00     0.200 A 
ATOM     79  F   UNL     1      -3.942  -3.075  13.778  1.00  0.00    -0.200 F 
ATOM     80  F   UNL     1      -6.141  -1.514  13.362  1.00  0.00    -0.200 F 
ENDBRANCH  46  70
BRANCH  58  81
ATOM     81  C   UNL     1      -0.154   3.663  19.899  1.00  0.00     0.064 A 
ATOM     82  C   UNL     1      -0.448   2.718  20.894  1.00  0.00     0.173 A 
ATOM     83  C   UNL     1      -0.472   5.006  20.151  1.00  0.00     0.173 A 
ATOM     84  F   UNL     1      -0.177   1.420  20.692  1.00  0.00    -0.203 F 
ATOM     85  C   UNL     1      -1.061   3.101  22.083  1.00  0.00     0.198 A 
ATOM     86  C   UNL     1      -1.061   5.388  21.353  1.00  0.00     0.198 A 
ATOM     87  F   UNL     1      -0.206   5.947  19.233  1.00  0.00    -0.203 F 
ATOM     88  F   UNL     1      -1.377   2.175  23.000  1.00  0.00    -0.200 F 
ATOM     89  C   UNL     1      -1.362   4.435  22.314  1.00  0.00     0.200 A 
ATOM     90  F   UNL     1      -1.342   6.679  21.578  1.00  0.00    -0.200 F 
ATOM     91  F   UNL     1      -1.952   4.801  23.460  1.00  0.00    -0.200 F 
ENDBRANCH  58  81
ENDBRANCH  32  33
ENDBRANCH  25  27
ENDBRANCH  24  25
ENDBRANCH  23  24
ENDBRANCH   1  23
TORSDOF 16
