REMARK SMILES O=C(CCC(=O)OCCOC(=O)c1ccc(-c2c3nc(c(-c4c(F)c(F)c(F)c(F)c4F)c4ccc([nH]4)c(-c4c(F)c(F)c(F)c(F)c4F)c4nc(c(-c5c(F)c(F)c(F)c(F)c5F)c5ccc2[nH]5)C=C4)C=C3)cc1)Nc1ccc2nc(-c3ccccc3)oc2c1
REMARK SMILES IDX 8 1 7 2 5 3 6 4 4 5 3 6 2 7 1 8 76 9 77 11 78 12 91 13 79 14
REMARK SMILES IDX 90 15 80 16 89 17 81 18 82 19 83 20 84 21 88 22 85 23 87 24
REMARK SMILES IDX 86 25 9 26 10 27 11 28 12 29 13 30 14 31 75 32 15 33 74 34
REMARK SMILES IDX 16 35 17 36 18 37 68 38 19 39 73 40 67 41 69 42 20 43 72 44
REMARK SMILES IDX 66 45 65 46 21 48 53 49 33 50 52 51 34 52 37 53 51 54 70 55
REMARK SMILES IDX 35 56 36 57 50 59 71 60 38 61 22 62 23 63 31 64 24 65 25 66
REMARK SMILES IDX 29 67 32 68 26 69 27 70 30 71 28 72 54 73 55 74 63 75 56 76
REMARK SMILES IDX 57 77 61 78 64 79 58 80 59 81 62 82 60 83 39 84 40 85 48 86
REMARK SMILES IDX 41 87 42 88 46 89 49 90 43 91 44 92 47 93 45 94
REMARK H PARENT 76 10 69 47 37 58
REMARK Flexibility Score: inf
ROOT
ATOM      1  C   UNL     1       5.735  -2.005   1.153  1.00  0.00     0.274 C 
ENDROOT
BRANCH   1   2
ATOM      2  O   UNL     1       4.506  -1.237   1.088  1.00  0.00    -0.462 OA
BRANCH   2   3
ATOM      3  C   UNL     1       4.417  -0.110   1.844  1.00  0.00     0.306 C 
ATOM      4  O   UNL     1       5.309   0.301   2.575  1.00  0.00    -0.252 OA
BRANCH   3   5
ATOM      5  C   UNL     1       3.049   0.549   1.752  1.00  0.00     0.132 C 
BRANCH   5   6
ATOM      6  C   UNL     1       2.523   0.862   0.347  1.00  0.00     0.112 C 
BRANCH   6   7
ATOM      7  C   UNL     1       1.615  -0.232  -0.206  1.00  0.00     0.224 C 
ATOM      8  O   UNL     1       0.417  -0.050  -0.390  1.00  0.00    -0.275 OA
ATOM      9  N   UNL     1       2.295  -1.411  -0.387  1.00  0.00    -0.326 N 
ATOM     10  H   UNL     1       3.275  -1.353  -0.312  1.00  0.00     0.169 HD
BRANCH   9  11
ATOM     11  C   UNL     1       1.783  -2.687  -0.663  1.00  0.00     0.045 A 
ATOM     12  C   UNL     1       2.576  -3.740  -0.172  1.00  0.00     0.028 A 
ATOM     13  C   UNL     1       0.584  -2.937  -1.346  1.00  0.00     0.075 A 
ATOM     14  C   UNL     1       2.207  -5.072  -0.309  1.00  0.00     0.034 A 
ATOM     15  C   UNL     1       0.265  -4.289  -1.501  1.00  0.00     0.157 A 
ATOM     16  C   UNL     1       1.027  -5.333  -0.995  1.00  0.00     0.110 A 
ATOM     17  O   UNL     1      -0.822  -4.855  -2.131  1.00  0.00    -0.436 OA
ATOM     18  N   UNL     1       0.440  -6.528  -1.249  1.00  0.00    -0.209 NA
ATOM     19  C   UNL     1      -0.650  -6.201  -1.912  1.00  0.00     0.227 A 
BRANCH  19  20
ATOM     20  C   UNL     1      -1.704  -7.119  -2.298  1.00  0.00     0.037 A 
ATOM     21  C   UNL     1      -2.199  -7.201  -3.602  1.00  0.00     0.014 A 
ATOM     22  C   UNL     1      -2.135  -8.051  -1.339  1.00  0.00     0.014 A 
ATOM     23  C   UNL     1      -3.094  -8.222  -3.940  1.00  0.00     0.001 A 
ATOM     24  C   UNL     1      -3.037  -9.057  -1.673  1.00  0.00     0.001 A 
ATOM     25  C   UNL     1      -3.508  -9.148  -2.979  1.00  0.00     0.000 A 
ENDBRANCH  19  20
ENDBRANCH   9  11
ENDBRANCH   6   7
ENDBRANCH   5   6
ENDBRANCH   3   5
ENDBRANCH   2   3
ENDBRANCH   1   2
BRANCH   1  26
ATOM     26  C   UNL     1       6.530  -1.880  -0.150  1.00  0.00     0.275 C 
BRANCH  26  27
ATOM     27  O   UNL     1       7.234  -0.629  -0.179  1.00  0.00    -0.458 OA
BRANCH  27  28
ATOM     28  C   UNL     1       6.515   0.414  -0.651  1.00  0.00     0.338 C 
ATOM     29  O   UNL     1       5.410   0.374  -1.158  1.00  0.00    -0.246 OA
BRANCH  28  30
ATOM     30  C   UNL     1       7.204   1.659  -0.287  1.00  0.00     0.060 A 
ATOM     31  C   UNL     1       6.534   2.578   0.527  1.00  0.00     0.016 A 
ATOM     32  C   UNL     1       8.491   1.923  -0.757  1.00  0.00     0.016 A 
ATOM     33  C   UNL     1       7.151   3.774   0.876  1.00  0.00     0.010 A 
ATOM     34  C   UNL     1       9.108   3.123  -0.407  1.00  0.00     0.010 A 
ATOM     35  C   UNL     1       8.438   4.058   0.403  1.00  0.00    -0.014 A 
BRANCH  35  36
ATOM     36  C   UNL     1       9.069   5.364   0.701  1.00  0.00     0.031 A 
ATOM     37  C   UNL     1       9.175   6.392  -0.386  1.00  0.00     0.074 A 
ATOM     38  C   UNL     1       9.545   5.614   1.933  1.00  0.00     0.049 A 
ATOM     39  N   UNL     1       9.784   7.550  -0.375  1.00  0.00    -0.248 NA
ATOM     40  C   UNL     1       8.512   6.071  -1.660  1.00  0.00     0.031 C 
ATOM     41  C   UNL     1       9.463   4.701   3.073  1.00  0.00     0.029 A 
ATOM     42  N   UNL     1      10.207   6.710   2.427  1.00  0.00    -0.354 N 
ATOM     43  C   UNL     1       9.589   8.089  -1.639  1.00  0.00     0.074 A 
ATOM     44  C   UNL     1       8.830   7.122  -2.402  1.00  0.00     0.031 C 
ATOM     45  C   UNL     1      10.061   5.270   4.132  1.00  0.00     0.029 A 
ATOM     46  C   UNL     1      10.606   6.565   3.733  1.00  0.00     0.049 A 
ATOM     47  H   UNL     1      10.378   7.522   1.897  1.00  0.00     0.167 HD
ATOM     48  C   UNL     1      10.001   9.288  -2.113  1.00  0.00     0.037 A 
ATOM     49  C   UNL     1      11.356   7.375   4.504  1.00  0.00     0.037 A 
ATOM     50  C   UNL     1      10.750  10.246  -1.343  1.00  0.00     0.049 A 
ATOM     51  C   UNL     1      11.856   8.675   3.929  1.00  0.00     0.074 A 
ATOM     52  C   UNL     1      11.213  11.492  -1.728  1.00  0.00     0.029 A 
ATOM     53  N   UNL     1      11.146  10.062  -0.025  1.00  0.00    -0.354 N 
ATOM     54  N   UNL     1      11.662   9.183   2.736  1.00  0.00    -0.248 NA
ATOM     55  C   UNL     1      12.680   9.515   4.809  1.00  0.00     0.031 C 
ATOM     56  C   UNL     1      11.927  12.042  -0.659  1.00  0.00     0.029 A 
ATOM     57  C   UNL     1      11.862  11.164   0.411  1.00  0.00     0.049 A 
ATOM     58  H   UNL     1      10.947   9.265   0.518  1.00  0.00     0.167 HD
ATOM     59  C   UNL     1      12.308  10.411   2.733  1.00  0.00     0.074 A 
ATOM     60  C   UNL     1      12.889  10.579   4.049  1.00  0.00     0.031 C 
ATOM     61  C   UNL     1      12.415  11.319   1.732  1.00  0.00     0.037 A 
BRANCH  48  62
ATOM     62  C   UNL     1       9.666   9.629  -3.535  1.00  0.00     0.064 A 
ATOM     63  C   UNL     1       8.356   9.940  -3.928  1.00  0.00     0.173 A 
ATOM     64  C   UNL     1      10.677   9.697  -4.506  1.00  0.00     0.173 A 
ATOM     65  F   UNL     1       7.351   9.874  -3.042  1.00  0.00    -0.203 F 
ATOM     66  C   UNL     1       8.067  10.290  -5.245  1.00  0.00     0.198 A 
ATOM     67  C   UNL     1      10.389  10.075  -5.815  1.00  0.00     0.198 A 
ATOM     68  F   UNL     1      11.947   9.412  -4.182  1.00  0.00    -0.203 F 
ATOM     69  F   UNL     1       6.803  10.546  -5.607  1.00  0.00    -0.200 F 
ATOM     70  C   UNL     1       9.085  10.366  -6.184  1.00  0.00     0.200 A 
ATOM     71  F   UNL     1      11.376  10.160  -6.718  1.00  0.00    -0.200 F 
ATOM     72  F   UNL     1       8.808  10.716  -7.448  1.00  0.00    -0.200 F 
ENDBRANCH  48  62
BRANCH  49  73
ATOM     73  C   UNL     1      11.703   6.976   5.894  1.00  0.00     0.064 A 
ATOM     74  C   UNL     1      11.214   7.692   6.996  1.00  0.00     0.173 A 
ATOM     75  C   UNL     1      12.559   5.894   6.149  1.00  0.00     0.173 A 
ATOM     76  F   UNL     1      10.412   8.750   6.804  1.00  0.00    -0.203 F 
ATOM     77  C   UNL     1      11.591   7.361   8.296  1.00  0.00     0.198 A 
ATOM     78  C   UNL     1      12.908   5.543   7.451  1.00  0.00     0.198 A 
ATOM     79  F   UNL     1      13.055   5.175   5.132  1.00  0.00    -0.203 F 
ATOM     80  F   UNL     1      11.157   8.101   9.325  1.00  0.00    -0.200 F 
ATOM     81  C   UNL     1      12.434   6.284   8.523  1.00  0.00     0.200 A 
ATOM     82  F   UNL     1      13.713   4.494   7.666  1.00  0.00    -0.200 F 
ATOM     83  F   UNL     1      12.800   5.968   9.772  1.00  0.00    -0.200 F 
ENDBRANCH  49  73
BRANCH  61  84
ATOM     84  C   UNL     1      13.142  12.597   2.037  1.00  0.00     0.064 A 
ATOM     85  C   UNL     1      14.534  12.632   2.204  1.00  0.00     0.173 A 
ATOM     86  C   UNL     1      12.438  13.808   2.123  1.00  0.00     0.173 A 
ATOM     87  F   UNL     1      15.251  11.499   2.145  1.00  0.00    -0.203 F 
ATOM     88  C   UNL     1      15.191  13.830   2.474  1.00  0.00     0.198 A 
ATOM     89  C   UNL     1      13.102  15.007   2.362  1.00  0.00     0.198 A 
ATOM     90  F   UNL     1      11.107  13.829   1.963  1.00  0.00    -0.203 F 
ATOM     91  F   UNL     1      16.515  13.833   2.681  1.00  0.00    -0.200 F 
ATOM     92  C   UNL     1      14.476  15.016   2.546  1.00  0.00     0.200 A 
ATOM     93  F   UNL     1      12.412  16.154   2.415  1.00  0.00    -0.200 F 
ATOM     94  F   UNL     1      15.112  16.169   2.798  1.00  0.00    -0.200 F 
ENDBRANCH  61  84
ENDBRANCH  35  36
ENDBRANCH  28  30
ENDBRANCH  27  28
ENDBRANCH  26  27
ENDBRANCH   1  26
TORSDOF 15
