REMARK SMILES COC[C@@H](C)Nc1cnn(-c2ccccc2C(=O)OCCOC(=O)c2ccc(-c3c4nc(c(-c5c(F)c(F)c(F)c(F)c5F)c5ccc([nH]5)c(-c5c(F)c(F)c(F)c(F)c5F)c5nc(c(-c6c(F)c(F)c(F)c(F)c6F)c6ccc3[nH]6)C=C5)C=C4)cc2)c(=O)c1Cl
REMARK SMILES IDX 19 1 17 2 18 3 16 4 11 5 12 6 13 7 15 8 14 9 10 10 7 11 8 12
REMARK SMILES IDX 90 13 9 14 88 15 91 16 89 17 6 18 4 20 5 21 3 22 2 23 1 24
REMARK SMILES IDX 20 25 21 26 22 27 23 28 24 29 25 30 26 31 87 32 27 33 86 34
REMARK SMILES IDX 28 35 29 36 30 37 80 38 31 39 85 40 79 41 81 42 32 43 84 44
REMARK SMILES IDX 78 45 77 46 33 48 65 49 45 50 64 51 46 52 49 53 63 54 82 55
REMARK SMILES IDX 47 56 48 57 62 59 83 60 50 61 34 62 35 63 43 64 36 65 37 66
REMARK SMILES IDX 41 67 44 68 38 69 39 70 42 71 40 72 66 73 67 74 75 75 68 76
REMARK SMILES IDX 69 77 73 78 76 79 70 80 71 81 74 82 72 83 51 84 52 85 60 86
REMARK SMILES IDX 53 87 54 88 58 89 61 90 55 91 56 92 59 93 57 94
REMARK H PARENT 6 19 81 47 49 58
REMARK Flexibility Score: inf
ROOT
ATOM      1  O   UNL     1      -2.421   1.758   7.453  1.00  0.00    -0.458 OA
ENDROOT
BRANCH   1   2
ATOM      2  C   UNL     1      -2.118   1.603   8.768  1.00  0.00     0.340 C 
ATOM      3  O   UNL     1      -1.714   2.475   9.522  1.00  0.00    -0.246 OA
BRANCH   2   4
ATOM      4  C   UNL     1      -2.510   0.245   9.236  1.00  0.00     0.085 A 
ATOM      5  C   UNL     1      -2.340  -0.928   8.473  1.00  0.00     0.083 A 
ATOM      6  C   UNL     1      -2.942  -2.111   8.942  1.00  0.00     0.029 A 
ATOM      7  C   UNL     1      -3.661  -2.139  10.140  1.00  0.00     0.002 A 
ATOM      8  C   UNL     1      -3.191   0.196  10.468  1.00  0.00     0.018 A 
ATOM      9  C   UNL     1      -3.776  -0.988  10.910  1.00  0.00     0.001 A 
BRANCH   5  10
ATOM     10  N   UNL     1      -1.546  -0.954   7.285  1.00  0.00    -0.195 N 
ATOM     11  C   UNL     1       0.040  -0.671   4.957  1.00  0.00     0.079 A 
ATOM     12  C   UNL     1       0.303  -0.081   6.299  1.00  0.00     0.161 A 
ATOM     13  C   UNL     1      -1.015  -1.505   4.959  1.00  0.00     0.132 A 
ATOM     14  N   UNL     1      -0.415  -0.184   7.363  1.00  0.00    -0.171 NA
ATOM     15  C   UNL     1      -1.873  -1.728   6.170  1.00  0.00     0.292 A 
ATOM     16  Cl  UNL     1      -1.503  -2.417   3.563  1.00  0.00    -0.076 Cl
ATOM     17  O   UNL     1      -2.825  -2.507   6.109  1.00  0.00    -0.266 OA
BRANCH  11  18
ATOM     18  N   UNL     1       0.921  -0.274   3.958  1.00  0.00    -0.378 N 
ATOM     19  H   UNL     1       1.774   0.105   4.269  1.00  0.00     0.161 HD
BRANCH  18  20
ATOM     20  C   UNL     1       0.751  -0.344   2.505  1.00  0.00     0.102 C 
ATOM     21  C   UNL     1       1.474  -1.593   1.998  1.00  0.00     0.033 C 
BRANCH  20  22
ATOM     22  C   UNL     1       1.304   0.953   1.860  1.00  0.00     0.184 C 
BRANCH  22  23
ATOM     23  O   UNL     1       0.696   1.306   0.617  1.00  0.00    -0.383 OA
ATOM     24  C   UNL     1       1.080   0.489  -0.478  1.00  0.00     0.194 C 
ENDBRANCH  22  23
ENDBRANCH  20  22
ENDBRANCH  18  20
ENDBRANCH  11  18
ENDBRANCH   5  10
ENDBRANCH   2   4
ENDBRANCH   1   2
BRANCH   1  25
ATOM     25  C   UNL     1      -2.089   3.019   6.843  1.00  0.00     0.275 C 
BRANCH  25  26
ATOM     26  C   UNL     1      -3.277   3.540   6.033  1.00  0.00     0.275 C 
BRANCH  26  27
ATOM     27  O   UNL     1      -4.333   3.942   6.924  1.00  0.00    -0.458 OA
BRANCH  27  28
ATOM     28  C   UNL     1      -5.255   2.989   7.182  1.00  0.00     0.338 C 
ATOM     29  O   UNL     1      -5.387   1.902   6.639  1.00  0.00    -0.246 OA
BRANCH  28  30
ATOM     30  C   UNL     1      -5.992   3.384   8.387  1.00  0.00     0.060 A 
ATOM     31  C   UNL     1      -6.865   4.469   8.391  1.00  0.00     0.016 A 
ATOM     32  C   UNL     1      -5.805   2.615   9.537  1.00  0.00     0.016 A 
ATOM     33  C   UNL     1      -7.542   4.790   9.572  1.00  0.00     0.010 A 
ATOM     34  C   UNL     1      -6.483   2.930  10.711  1.00  0.00     0.010 A 
ATOM     35  C   UNL     1      -7.356   4.024  10.740  1.00  0.00    -0.014 A 
BRANCH  35  36
ATOM     36  C   UNL     1      -8.136   4.324  11.966  1.00  0.00     0.031 A 
ATOM     37  C   UNL     1      -7.478   4.890  13.191  1.00  0.00     0.074 A 
ATOM     38  C   UNL     1      -9.456   4.059  11.973  1.00  0.00     0.049 A 
ATOM     39  N   UNL     1      -8.031   5.312  14.302  1.00  0.00    -0.248 NA
ATOM     40  C   UNL     1      -6.009   4.975  13.183  1.00  0.00     0.031 C 
ATOM     41  C   UNL     1     -10.187   3.423  10.877  1.00  0.00     0.029 A 
ATOM     42  N   UNL     1     -10.418   4.301  12.921  1.00  0.00    -0.354 N 
ATOM     43  C   UNL     1      -6.984   5.725  15.114  1.00  0.00     0.074 A 
ATOM     44  C   UNL     1      -5.758   5.445  14.399  1.00  0.00     0.031 C 
ATOM     45  C   UNL     1     -11.491   3.379  11.188  1.00  0.00     0.029 A 
ATOM     46  C   UNL     1     -11.685   3.967  12.511  1.00  0.00     0.049 A 
ATOM     47  H   UNL     1     -10.219   4.677  13.809  1.00  0.00     0.167 HD
ATOM     48  C   UNL     1      -7.047   6.315  16.332  1.00  0.00     0.037 A 
ATOM     49  C   UNL     1     -12.873   4.143  13.120  1.00  0.00     0.037 A 
ATOM     50  C   UNL     1      -8.273   6.601  17.032  1.00  0.00     0.049 A 
ATOM     51  C   UNL     1     -12.918   4.819  14.462  1.00  0.00     0.074 A 
ATOM     52  C   UNL     1      -8.444   7.255  18.240  1.00  0.00     0.029 A 
ATOM     53  N   UNL     1      -9.538   6.247  16.586  1.00  0.00    -0.354 N 
ATOM     54  N   UNL     1     -11.931   5.304  15.175  1.00  0.00    -0.248 NA
ATOM     55  C   UNL     1     -14.241   4.981  15.081  1.00  0.00     0.031 C 
ATOM     56  C   UNL     1      -9.808   7.262  18.545  1.00  0.00     0.029 A 
ATOM     57  C   UNL     1     -10.492   6.652  17.506  1.00  0.00     0.049 A 
ATOM     58  H   UNL     1      -9.729   5.778  15.742  1.00  0.00     0.167 HD
ATOM     59  C   UNL     1     -12.512   5.845  16.313  1.00  0.00     0.074 A 
ATOM     60  C   UNL     1     -13.941   5.644  16.190  1.00  0.00     0.031 C 
ATOM     61  C   UNL     1     -11.912   6.451  17.366  1.00  0.00     0.037 A 
BRANCH  48  62
ATOM     62  C   UNL     1      -5.759   6.732  16.980  1.00  0.00     0.064 A 
ATOM     63  C   UNL     1      -5.019   7.818  16.488  1.00  0.00     0.173 A 
ATOM     64  C   UNL     1      -5.306   6.109  18.153  1.00  0.00     0.173 A 
ATOM     65  F   UNL     1      -5.408   8.448  15.369  1.00  0.00    -0.203 F 
ATOM     66  C   UNL     1      -3.866   8.254  17.136  1.00  0.00     0.198 A 
ATOM     67  C   UNL     1      -4.168   6.565  18.814  1.00  0.00     0.198 A 
ATOM     68  F   UNL     1      -5.983   5.074  18.674  1.00  0.00    -0.203 F 
ATOM     69  F   UNL     1      -3.163   9.277  16.632  1.00  0.00    -0.200 F 
ATOM     70  C   UNL     1      -3.448   7.634  18.303  1.00  0.00     0.200 A 
ATOM     71  F   UNL     1      -3.774   5.977  19.952  1.00  0.00    -0.200 F 
ATOM     72  F   UNL     1      -2.350   8.070  18.938  1.00  0.00    -0.200 F 
ENDBRANCH  48  62
BRANCH  49  73
ATOM     73  C   UNL     1     -14.120   3.745  12.418  1.00  0.00     0.064 A 
ATOM     74  C   UNL     1     -14.991   4.716  11.905  1.00  0.00     0.173 A 
ATOM     75  C   UNL     1     -14.447   2.397  12.211  1.00  0.00     0.173 A 
ATOM     76  F   UNL     1     -14.727   6.018  12.092  1.00  0.00    -0.203 F 
ATOM     77  C   UNL     1     -16.146   4.354  11.217  1.00  0.00     0.198 A 
ATOM     78  C   UNL     1     -15.590   2.037  11.501  1.00  0.00     0.198 A 
ATOM     79  F   UNL     1     -13.642   1.432  12.676  1.00  0.00    -0.203 F 
ATOM     80  F   UNL     1     -16.977   5.303  10.762  1.00  0.00    -0.200 F 
ATOM     81  C   UNL     1     -16.441   3.016  11.009  1.00  0.00     0.200 A 
ATOM     82  F   UNL     1     -15.865   0.743  11.288  1.00  0.00    -0.200 F 
ATOM     83  F   UNL     1     -17.547   2.668  10.336  1.00  0.00    -0.200 F 
ENDBRANCH  49  73
BRANCH  61  84
ATOM     84  C   UNL     1     -12.789   6.953  18.474  1.00  0.00     0.064 A 
ATOM     85  C   UNL     1     -13.381   6.072  19.390  1.00  0.00     0.173 A 
ATOM     86  C   UNL     1     -12.962   8.330  18.676  1.00  0.00     0.173 A 
ATOM     87  F   UNL     1     -13.254   4.746  19.231  1.00  0.00    -0.203 F 
ATOM     88  C   UNL     1     -14.120   6.553  20.467  1.00  0.00     0.198 A 
ATOM     89  C   UNL     1     -13.680   8.808  19.769  1.00  0.00     0.198 A 
ATOM     90  F   UNL     1     -12.409   9.213  17.831  1.00  0.00    -0.203 F 
ATOM     91  F   UNL     1     -14.697   5.694  21.319  1.00  0.00    -0.200 F 
ATOM     92  C   UNL     1     -14.259   7.920  20.662  1.00  0.00     0.200 A 
ATOM     93  F   UNL     1     -13.801  10.129  19.964  1.00  0.00    -0.200 F 
ATOM     94  F   UNL     1     -14.953   8.381  21.712  1.00  0.00    -0.200 F 
ENDBRANCH  61  84
ENDBRANCH  35  36
ENDBRANCH  28  30
ENDBRANCH  27  28
ENDBRANCH  26  27
ENDBRANCH  25  26
ENDBRANCH   1  25
TORSDOF 16
