REMARK SMILES CSCC[C@H](NC(=O)[C@H]1CC[NH2+][C@H]1C)C(=O)OCCOC(=O)c1ccc(-c2c3nc(c(-c4c(F)c(F)c(F)c(F)c4F)c4ccc([nH]4)c(-c4c(F)c(F)c(F)c(F)c4F)c4nc(c(-c5c(F)c(F)c(F)c(F)c5F)c5ccc2[nH]5)C=C4)C=C3)cc1
REMARK SMILES IDX 18 1 17 2 15 3 16 4 5 5 4 6 3 7 2 8 1 9 6 10 7 11 8 13 9 14
REMARK SMILES IDX 10 15 13 16 11 17 12 18 14 19 19 22 20 23 21 24 22 25 23 26
REMARK SMILES IDX 24 27 85 28 25 29 84 30 26 31 27 32 28 33 78 34 29 35 83 36
REMARK SMILES IDX 77 37 79 38 30 39 82 40 76 41 75 42 31 44 63 45 43 46 62 47
REMARK SMILES IDX 44 48 47 49 61 50 80 51 45 52 46 53 60 55 81 56 48 57 32 58
REMARK SMILES IDX 33 59 41 60 34 61 35 62 39 63 42 64 36 65 37 66 40 67 38 68
REMARK SMILES IDX 64 69 65 70 73 71 66 72 67 73 71 74 74 75 68 76 69 77 72 78
REMARK SMILES IDX 70 79 49 80 50 81 58 82 51 83 52 84 56 85 59 86 53 87 54 88
REMARK SMILES IDX 57 89 55 90
REMARK H PARENT 6 12 12 20 12 21 79 43 47 54
REMARK Flexibility Score: inf
ROOT
ATOM      1  C   UNL     1       0.266  -5.388  -2.892  1.00  0.00     0.274 C 
ENDROOT
BRANCH   1   2
ATOM      2  O   UNL     1       0.311  -4.608  -1.679  1.00  0.00    -0.461 OA
BRANCH   2   3
ATOM      3  C   UNL     1       1.000  -3.441  -1.774  1.00  0.00     0.328 C 
ATOM      4  O   UNL     1       1.475  -2.991  -2.813  1.00  0.00    -0.250 OA
BRANCH   3   5
ATOM      5  C   UNL     1       1.165  -2.708  -0.430  1.00  0.00     0.193 C 
BRANCH   5   6
ATOM      6  C   UNL     1       2.668  -2.581  -0.109  1.00  0.00     0.048 C 
BRANCH   6   7
ATOM      7  C   UNL     1       3.335  -3.734   0.655  1.00  0.00     0.072 C 
BRANCH   7   8
ATOM      8  S   UNL     1       3.260  -5.367  -0.152  1.00  0.00    -0.165 SA
ATOM      9  C   UNL     1       2.022  -6.204   0.882  1.00  0.00     0.085 C 
ENDBRANCH   7   8
ENDBRANCH   6   7
ENDBRANCH   5   6
BRANCH   5  10
ATOM     10  N   UNL     1       0.422  -3.194   0.735  1.00  0.00    -0.342 N 
ATOM     11  C   UNL     1      -0.790  -2.847   1.242  1.00  0.00     0.230 C 
ATOM     12  H   UNL     1       0.884  -3.900   1.242  1.00  0.00     0.164 HD
ATOM     13  O   UNL     1      -1.148  -3.412   2.276  1.00  0.00    -0.275 OA
BRANCH  11  14
ATOM     14  C   UNL     1      -1.640  -1.806   0.536  1.00  0.00     0.142 C 
ATOM     15  C   UNL     1      -3.122  -1.988   0.862  1.00  0.00     0.081 C 
ATOM     16  C   UNL     1      -1.361  -0.339   0.909  1.00  0.00     0.192 C 
ATOM     17  C   UNL     1      -3.356  -0.987   1.973  1.00  0.00     0.261 C 
ATOM     18  N   UNL     1      -2.588   0.186   1.546  1.00  0.00    -0.343 N 
ATOM     19  C   UNL     1      -0.170  -0.054   1.813  1.00  0.00     0.076 C 
ATOM     20  H   UNL     1      -2.349   0.765   2.352  1.00  0.00     0.346 HD
ATOM     21  H   UNL     1      -3.123   0.769   0.903  1.00  0.00     0.346 HD
ENDBRANCH  11  14
ENDBRANCH   5  10
ENDBRANCH   3   5
ENDBRANCH   2   3
ENDBRANCH   1   2
BRANCH   1  22
ATOM     22  C   UNL     1      -1.106  -5.298  -3.550  1.00  0.00     0.275 C 
BRANCH  22  23
ATOM     23  O   UNL     1      -1.461  -3.919  -3.756  1.00  0.00    -0.458 OA
BRANCH  23  24
ATOM     24  C   UNL     1      -2.540  -3.495  -3.062  1.00  0.00     0.338 C 
ATOM     25  O   UNL     1      -3.275  -4.155  -2.349  1.00  0.00    -0.246 OA
BRANCH  24  26
ATOM     26  C   UNL     1      -2.731  -2.046  -3.250  1.00  0.00     0.060 A 
ATOM     27  C   UNL     1      -1.679  -1.156  -3.031  1.00  0.00     0.016 A 
ATOM     28  C   UNL     1      -4.021  -1.568  -3.483  1.00  0.00     0.016 A 
ATOM     29  C   UNL     1      -1.940   0.211  -2.939  1.00  0.00     0.010 A 
ATOM     30  C   UNL     1      -4.257  -0.192  -3.494  1.00  0.00     0.010 A 
ATOM     31  C   UNL     1      -3.228   0.712  -3.181  1.00  0.00    -0.014 A 
BRANCH  31  32
ATOM     32  C   UNL     1      -3.516   2.170  -3.097  1.00  0.00     0.031 A 
ATOM     33  C   UNL     1      -4.564   2.689  -2.147  1.00  0.00     0.074 A 
ATOM     34  C   UNL     1      -2.853   3.037  -3.887  1.00  0.00     0.049 A 
ATOM     35  N   UNL     1      -5.096   3.883  -2.072  1.00  0.00    -0.248 NA
ATOM     36  C   UNL     1      -5.089   1.737  -1.154  1.00  0.00     0.031 C 
ATOM     37  C   UNL     1      -1.788   2.684  -4.827  1.00  0.00     0.029 A 
ATOM     38  N   UNL     1      -2.981   4.397  -4.027  1.00  0.00    -0.354 N 
ATOM     39  C   UNL     1      -6.051   3.813  -1.065  1.00  0.00     0.074 A 
ATOM     40  C   UNL     1      -6.019   2.462  -0.547  1.00  0.00     0.031 C 
ATOM     41  C   UNL     1      -1.339   3.798  -5.422  1.00  0.00     0.029 A 
ATOM     42  C   UNL     1      -2.143   4.930  -4.975  1.00  0.00     0.049 A 
ATOM     43  H   UNL     1      -3.612   4.937  -3.499  1.00  0.00     0.167 HD
ATOM     44  C   UNL     1      -6.885   4.785  -0.624  1.00  0.00     0.037 A 
ATOM     45  C   UNL     1      -2.060   6.178  -5.471  1.00  0.00     0.037 A 
ATOM     46  C   UNL     1      -6.888   6.141  -1.108  1.00  0.00     0.049 A 
ATOM     47  C   UNL     1      -3.013   7.231  -4.986  1.00  0.00     0.074 A 
ATOM     48  C   UNL     1      -7.687   7.199  -0.710  1.00  0.00     0.029 A 
ATOM     49  N   UNL     1      -6.040   6.629  -2.090  1.00  0.00    -0.354 N 
ATOM     50  N   UNL     1      -3.957   7.136  -4.083  1.00  0.00    -0.248 NA
ATOM     51  C   UNL     1      -2.907   8.556  -5.611  1.00  0.00     0.031 C 
ATOM     52  C   UNL     1      -7.339   8.322  -1.470  1.00  0.00     0.029 A 
ATOM     53  C   UNL     1      -6.303   7.970  -2.319  1.00  0.00     0.049 A 
ATOM     54  H   UNL     1      -5.352   6.101  -2.556  1.00  0.00     0.167 HD
ATOM     55  C   UNL     1      -4.559   8.384  -4.030  1.00  0.00     0.074 A 
ATOM     56  C   UNL     1      -3.859   9.227  -4.978  1.00  0.00     0.031 C 
ATOM     57  C   UNL     1      -5.604   8.791  -3.271  1.00  0.00     0.037 A 
BRANCH  44  58
ATOM     58  C   UNL     1      -7.895   4.414   0.420  1.00  0.00     0.064 A 
ATOM     59  C   UNL     1      -7.543   4.251   1.766  1.00  0.00     0.173 A 
ATOM     60  C   UNL     1      -9.248   4.274   0.071  1.00  0.00     0.173 A 
ATOM     61  F   UNL     1      -6.261   4.363   2.145  1.00  0.00    -0.203 F 
ATOM     62  C   UNL     1      -8.506   3.949   2.725  1.00  0.00     0.198 A 
ATOM     63  C   UNL     1     -10.211   3.991   1.035  1.00  0.00     0.198 A 
ATOM     64  F   UNL     1      -9.635   4.423  -1.205  1.00  0.00    -0.203 F 
ATOM     65  F   UNL     1      -8.145   3.770   4.003  1.00  0.00    -0.200 F 
ATOM     66  C   UNL     1      -9.839   3.826   2.361  1.00  0.00     0.200 A 
ATOM     67  F   UNL     1     -11.499   3.881   0.682  1.00  0.00    -0.200 F 
ATOM     68  F   UNL     1     -10.766   3.543   3.287  1.00  0.00    -0.200 F 
ENDBRANCH  44  58
BRANCH  45  69
ATOM     69  C   UNL     1      -1.059   6.479  -6.524  1.00  0.00     0.064 A 
ATOM     70  C   UNL     1       0.071   7.256  -6.239  1.00  0.00     0.173 A 
ATOM     71  C   UNL     1      -1.195   5.969  -7.823  1.00  0.00     0.173 A 
ATOM     72  F   UNL     1       0.230   7.784  -5.016  1.00  0.00    -0.203 F 
ATOM     73  C   UNL     1       1.030   7.511  -7.216  1.00  0.00     0.198 A 
ATOM     74  C   UNL     1      -0.224   6.203  -8.792  1.00  0.00     0.198 A 
ATOM     75  F   UNL     1      -2.261   5.219  -8.142  1.00  0.00    -0.203 F 
ATOM     76  F   UNL     1       2.091   8.277  -6.927  1.00  0.00    -0.200 F 
ATOM     77  C   UNL     1       0.887   6.976  -8.489  1.00  0.00     0.200 A 
ATOM     78  F   UNL     1      -0.359   5.673 -10.015  1.00  0.00    -0.200 F 
ATOM     79  F   UNL     1       1.818   7.209  -9.424  1.00  0.00    -0.200 F 
ENDBRANCH  45  69
BRANCH  57  80
ATOM     80  C   UNL     1      -6.045  10.213  -3.430  1.00  0.00     0.064 A 
ATOM     81  C   UNL     1      -6.801  10.620  -4.539  1.00  0.00     0.173 A 
ATOM     82  C   UNL     1      -5.729  11.171  -2.457  1.00  0.00     0.173 A 
ATOM     83  F   UNL     1      -7.110   9.741  -5.504  1.00  0.00    -0.203 F 
ATOM     84  C   UNL     1      -7.209  11.944  -4.676  1.00  0.00     0.198 A 
ATOM     85  C   UNL     1      -6.156  12.489  -2.588  1.00  0.00     0.198 A 
ATOM     86  F   UNL     1      -5.010  10.827  -1.378  1.00  0.00    -0.203 F 
ATOM     87  F   UNL     1      -7.898  12.321  -5.762  1.00  0.00    -0.200 F 
ATOM     88  C   UNL     1      -6.891  12.875  -3.699  1.00  0.00     0.200 A 
ATOM     89  F   UNL     1      -5.852  13.388  -1.641  1.00  0.00    -0.200 F 
ATOM     90  F   UNL     1      -7.284  14.149  -3.833  1.00  0.00    -0.200 F 
ENDBRANCH  57  80
ENDBRANCH  31  32
ENDBRANCH  24  26
ENDBRANCH  23  24
ENDBRANCH  22  23
ENDBRANCH   1  22
TORSDOF 16
