REMARK SMILES Cc1cccc(NC(=O)[C@H]2CCCCC[C@@H]2[NH3+])c1C(=O)OCCOC(=O)c1ccc(-c2c3nc(c(-c4c(F)c(F)c(F)c(F)c4F)c4ccc([nH]4)c(-c4c(F)c(F)c(F)c(F)c4F)c4nc(c(-c5c(F)c(F)c(F)c(F)c5F)c5ccc2[nH]5)C=C4)C=C3)cc1
REMARK SMILES IDX 21 1 19 2 20 3 18 4 1 5 2 6 3 7 4 8 6 9 5 10 7 11 8 12 9 14
REMARK SMILES IDX 10 15 11 16 12 17 13 18 16 20 15 21 14 22 17 24 22 28 23 29
REMARK SMILES IDX 24 30 25 31 26 32 27 33 28 34 89 35 29 36 88 37 30 38 31 39
REMARK SMILES IDX 32 40 82 41 33 42 87 43 81 44 83 45 34 46 86 47 80 48 79 49
REMARK SMILES IDX 35 51 67 52 47 53 66 54 48 55 51 56 65 57 84 58 49 59 50 60
REMARK SMILES IDX 64 62 85 63 52 64 36 65 37 66 45 67 38 68 39 69 43 70 46 71
REMARK SMILES IDX 40 72 41 73 44 74 42 75 68 76 69 77 77 78 70 79 71 80 75 81
REMARK SMILES IDX 78 82 72 83 73 84 76 85 74 86 53 87 54 88 62 89 55 90 56 91
REMARK SMILES IDX 60 92 63 93 57 94 58 95 61 96 59 97
REMARK H PARENT 7 13 17 25 17 26 17 27 83 50 51 61
REMARK Flexibility Score: 90.00
ROOT
ATOM      1  O   UNL     1      -8.075   5.268   2.296  1.00  0.00    -0.458 OA
ENDROOT
BRANCH   1   2
ATOM      2  C   UNL     1      -6.732   5.514   2.314  1.00  0.00     0.340 C 
ATOM      3  O   UNL     1      -6.123   5.971   3.273  1.00  0.00    -0.246 OA
BRANCH   2   4
ATOM      4  C   UNL     1      -6.031   5.499   1.010  1.00  0.00     0.086 A 
ATOM      5  C   UNL     1      -6.078   8.089   1.223  1.00  0.00     0.045 C 
ATOM      6  C   UNL     1      -5.628   6.798   0.579  1.00  0.00    -0.034 A 
ATOM      7  C   UNL     1      -4.710   6.919  -0.467  1.00  0.00     0.004 A 
ATOM      8  C   UNL     1      -4.204   5.789  -1.083  1.00  0.00     0.002 A 
ATOM      9  C   UNL     1      -5.504   4.325   0.386  1.00  0.00     0.056 A 
ATOM     10  C   UNL     1      -4.612   4.519  -0.673  1.00  0.00     0.027 A 
BRANCH   9  11
ATOM     11  N   UNL     1      -5.861   3.025   0.826  1.00  0.00    -0.325 N 
ATOM     12  C   UNL     1      -5.429   1.735   0.606  1.00  0.00     0.233 C 
ATOM     13  H   UNL     1      -6.618   3.050   1.455  1.00  0.00     0.169 HD
ATOM     14  O   UNL     1      -6.044   0.869   1.236  1.00  0.00    -0.274 OA
BRANCH  12  15
ATOM     15  C   UNL     1      -4.351   1.308  -0.406  1.00  0.00     0.137 C 
BRANCH  15  16
ATOM     16  C   UNL     1      -3.474   0.078  -0.048  1.00  0.00     0.020 C 
BRANCH  16  17
ATOM     17  C   UNL     1      -4.122  -1.271   0.252  1.00  0.00     0.001 C 
BRANCH  17  18
ATOM     18  C   UNL     1      -4.683  -2.093  -0.904  1.00  0.00     0.000 CG0
ATOM     19  G   UNL     1      -5.210  -1.388  -2.144  1.00  0.00     0.000 G0
ENDBRANCH  17  18
ENDBRANCH  16  17
ENDBRANCH  15  16
BRANCH  15  20
ATOM     20  C   UNL     1      -5.056   1.184  -1.771  1.00  0.00     0.193 C 
BRANCH  20  21
ATOM     21  C   UNL     1      -5.940  -0.070  -1.917  1.00  0.00     0.066 C 
BRANCH  21  22
ATOM     22  C   UNL     1      -5.210  -1.388  -2.144  1.00  0.00     0.006 CG0
ATOM     23  G   UNL     1      -4.683  -2.093  -0.904  1.00  0.00     0.000 G0
ENDBRANCH  21  22
ENDBRANCH  20  21
BRANCH  20  24
ATOM     24  N   UNL     1      -4.098   1.322  -2.881  1.00  0.00    -0.354 N 
ATOM     25  H   UNL     1      -3.434   0.548  -2.856  1.00  0.00     0.344 HD
ATOM     26  H   UNL     1      -3.595   2.205  -2.789  1.00  0.00     0.344 HD
ATOM     27  H   UNL     1      -4.602   1.309  -3.768  1.00  0.00     0.344 HD
ENDBRANCH  20  24
ENDBRANCH  15  20
ENDBRANCH  12  15
ENDBRANCH   9  11
ENDBRANCH   2   4
ENDBRANCH   1   2
BRANCH   1  28
ATOM     28  C   UNL     1      -8.757   5.824   3.451  1.00  0.00     0.275 C 
BRANCH  28  29
ATOM     29  C   UNL     1      -9.994   5.059   3.966  1.00  0.00     0.275 C 
BRANCH  29  30
ATOM     30  O   UNL     1      -9.947   3.645   4.280  1.00  0.00    -0.458 OA
BRANCH  30  31
ATOM     31  C   UNL     1      -8.884   2.891   3.950  1.00  0.00     0.338 C 
ATOM     32  O   UNL     1      -8.912   2.016   3.090  1.00  0.00    -0.246 OA
BRANCH  31  33
ATOM     33  C   UNL     1      -7.680   3.227   4.723  1.00  0.00     0.060 A 
ATOM     34  C   UNL     1      -6.434   2.932   4.154  1.00  0.00     0.016 A 
ATOM     35  C   UNL     1      -7.790   4.001   5.879  1.00  0.00     0.016 A 
ATOM     36  C   UNL     1      -5.289   3.536   4.639  1.00  0.00     0.010 A 
ATOM     37  C   UNL     1      -6.673   4.656   6.329  1.00  0.00     0.010 A 
ATOM     38  C   UNL     1      -5.432   4.406   5.715  1.00  0.00    -0.014 A 
BRANCH  38  39
ATOM     39  C   UNL     1      -4.302   4.795   6.526  1.00  0.00     0.031 A 
ATOM     40  C   UNL     1      -3.528   6.014   6.257  1.00  0.00     0.074 A 
ATOM     41  C   UNL     1      -4.225   3.973   7.594  1.00  0.00     0.049 A 
ATOM     42  N   UNL     1      -2.344   6.217   6.716  1.00  0.00    -0.248 NA
ATOM     43  C   UNL     1      -3.970   7.098   5.381  1.00  0.00     0.031 C 
ATOM     44  C   UNL     1      -3.574   4.108   8.877  1.00  0.00     0.029 A 
ATOM     45  N   UNL     1      -4.748   2.664   7.615  1.00  0.00    -0.354 N 
ATOM     46  C   UNL     1      -2.042   7.551   6.516  1.00  0.00     0.074 A 
ATOM     47  C   UNL     1      -2.987   7.995   5.528  1.00  0.00     0.031 C 
ATOM     48  C   UNL     1      -3.482   2.882   9.436  1.00  0.00     0.029 A 
ATOM     49  C   UNL     1      -3.929   1.906   8.444  1.00  0.00     0.049 A 
ATOM     50  H   UNL     1      -5.545   2.346   7.132  1.00  0.00     0.167 HD
ATOM     51  C   UNL     1      -1.163   8.139   7.381  1.00  0.00     0.037 A 
ATOM     52  C   UNL     1      -3.139   0.962   7.850  1.00  0.00     0.037 A 
ATOM     53  C   UNL     1      -0.648   7.112   8.288  1.00  0.00     0.049 A 
ATOM     54  C   UNL     1      -1.691   1.367   7.932  1.00  0.00     0.074 A 
ATOM     55  C   UNL     1      -1.085   6.702   9.537  1.00  0.00     0.029 A 
ATOM     56  N   UNL     1       0.134   6.082   7.778  1.00  0.00    -0.354 N 
ATOM     57  N   UNL     1      -1.272   2.603   7.907  1.00  0.00    -0.248 NA
ATOM     58  C   UNL     1      -0.622   0.398   8.121  1.00  0.00     0.031 C 
ATOM     59  C   UNL     1      -0.640   5.368   9.730  1.00  0.00     0.029 A 
ATOM     60  C   UNL     1       0.075   4.978   8.609  1.00  0.00     0.049 A 
ATOM     61  H   UNL     1       0.655   6.131   6.944  1.00  0.00     0.167 HD
ATOM     62  C   UNL     1       0.072   2.616   8.151  1.00  0.00     0.074 A 
ATOM     63  C   UNL     1       0.435   1.213   8.261  1.00  0.00     0.031 C 
ATOM     64  C   UNL     1       0.800   3.764   8.278  1.00  0.00     0.037 A 
BRANCH  51  65
ATOM     65  C   UNL     1      -1.000   9.624   7.665  1.00  0.00     0.064 A 
ATOM     66  C   UNL     1      -0.390  10.041   8.876  1.00  0.00     0.173 A 
ATOM     67  C   UNL     1      -1.458  10.682   6.857  1.00  0.00     0.173 A 
ATOM     68  F   UNL     1       0.162   9.161   9.722  1.00  0.00    -0.203 F 
ATOM     69  C   UNL     1      -0.321  11.381   9.274  1.00  0.00     0.198 A 
ATOM     70  C   UNL     1      -1.397  12.025   7.261  1.00  0.00     0.198 A 
ATOM     71  F   UNL     1      -1.952  10.476   5.634  1.00  0.00    -0.203 F 
ATOM     72  F   UNL     1       0.244  11.697  10.447  1.00  0.00    -0.200 F 
ATOM     73  C   UNL     1      -0.840  12.373   8.473  1.00  0.00     0.200 A 
ATOM     74  F   UNL     1      -1.887  12.982   6.458  1.00  0.00    -0.200 F 
ATOM     75  F   UNL     1      -0.786  13.656   8.856  1.00  0.00    -0.200 F 
ENDBRANCH  51  65
BRANCH  52  76
ATOM     76  C   UNL     1      -3.770   0.298   6.662  1.00  0.00     0.064 A 
ATOM     77  C   UNL     1      -5.026  -0.327   6.828  1.00  0.00     0.173 A 
ATOM     78  C   UNL     1      -3.347   0.526   5.347  1.00  0.00     0.173 A 
ATOM     79  F   UNL     1      -5.487  -0.585   8.062  1.00  0.00    -0.203 F 
ATOM     80  C   UNL     1      -5.864  -0.594   5.748  1.00  0.00     0.198 A 
ATOM     81  C   UNL     1      -4.182   0.236   4.263  1.00  0.00     0.198 A 
ATOM     82  F   UNL     1      -2.167   1.111   5.100  1.00  0.00    -0.203 F 
ATOM     83  F   UNL     1      -7.103  -1.062   5.960  1.00  0.00    -0.200 F 
ATOM     84  C   UNL     1      -5.446  -0.301   4.466  1.00  0.00     0.200 A 
ATOM     85  F   UNL     1      -3.792   0.579   3.027  1.00  0.00    -0.200 F 
ATOM     86  F   UNL     1      -6.289  -0.491   3.444  1.00  0.00    -0.200 F 
ENDBRANCH  52  76
BRANCH  64  87
ATOM     87  C   UNL     1       2.300   3.817   8.214  1.00  0.00     0.064 A 
ATOM     88  C   UNL     1       3.068   2.893   7.490  1.00  0.00     0.173 A 
ATOM     89  C   UNL     1       3.008   4.912   8.763  1.00  0.00     0.173 A 
ATOM     90  F   UNL     1       2.497   1.904   6.790  1.00  0.00    -0.203 F 
ATOM     91  C   UNL     1       4.455   2.992   7.415  1.00  0.00     0.198 A 
ATOM     92  C   UNL     1       4.382   5.053   8.613  1.00  0.00     0.198 A 
ATOM     93  F   UNL     1       2.385   5.894   9.432  1.00  0.00    -0.203 F 
ATOM     94  F   UNL     1       5.151   2.041   6.779  1.00  0.00    -0.200 F 
ATOM     95  C   UNL     1       5.111   4.077   7.966  1.00  0.00     0.200 A 
ATOM     96  F   UNL     1       4.993   6.150   9.082  1.00  0.00    -0.200 F 
ATOM     97  F   UNL     1       6.439   4.191   7.853  1.00  0.00    -0.200 F 
ENDBRANCH  64  87
ENDBRANCH  38  39
ENDBRANCH  31  33
ENDBRANCH  30  31
ENDBRANCH  29  30
ENDBRANCH  28  29
ENDBRANCH   1  28
TORSDOF 14
