REMARK SMILES Cc1cc(C(=O)OCCOC(=O)c2ccc(-c3c4nc(c(-c5c(F)c(F)c(F)c(F)c5F)c5ccc([nH]5)c(-c5c(F)c(F)c(F)c(F)c5F)c5nc(c(-c6c(F)c(F)c(F)c(F)c6F)c6ccc3[nH]6)C=C5)C=C4)cc2)ccc1NS(=O)(=O)c1ccc(C#N)cc1C
REMARK SMILES IDX 8 1 7 2 5 3 6 4 4 5 1 6 2 7 3 8 78 9 77 10 76 11 79 12 80 14
REMARK SMILES IDX 81 15 82 16 83 17 84 18 90 19 85 20 89 21 91 22 86 23 87 24
REMARK SMILES IDX 88 25 9 26 10 27 11 28 12 29 13 30 14 31 75 32 15 33 74 34
REMARK SMILES IDX 16 35 17 36 18 37 68 38 19 39 73 40 67 41 69 42 20 43 72 44
REMARK SMILES IDX 66 45 65 46 21 48 53 49 33 50 52 51 34 52 37 53 51 54 70 55
REMARK SMILES IDX 35 56 36 57 50 59 71 60 38 61 22 62 23 63 31 64 24 65 25 66
REMARK SMILES IDX 29 67 32 68 26 69 27 70 30 71 28 72 54 73 55 74 63 75 56 76
REMARK SMILES IDX 57 77 61 78 64 79 58 80 59 81 62 82 60 83 39 84 40 85 48 86
REMARK SMILES IDX 41 87 42 88 46 89 49 90 43 91 44 92 47 93 45 94
REMARK H PARENT 79 13 69 47 37 58
REMARK Flexibility Score: inf
ROOT
ATOM      1  C   UNL     1      -3.969  -2.747  -1.976  1.00  0.00     0.275 C 
ENDROOT
BRANCH   1   2
ATOM      2  O   UNL     1      -2.752  -2.021  -2.210  1.00  0.00    -0.458 OA
BRANCH   2   3
ATOM      3  C   UNL     1      -2.427  -1.184  -1.198  1.00  0.00     0.338 C 
ATOM      4  O   UNL     1      -3.045  -1.012  -0.156  1.00  0.00    -0.246 OA
BRANCH   3   5
ATOM      5  C   UNL     1      -1.291  -0.310  -1.520  1.00  0.00     0.060 A 
ATOM      6  C   UNL     1       2.198   0.280  -0.138  1.00  0.00     0.046 C 
ATOM      7  C   UNL     1       0.831   0.554  -0.708  1.00  0.00    -0.026 A 
ATOM      8  C   UNL     1      -0.014  -0.529  -0.991  1.00  0.00     0.021 A 
ATOM      9  C   UNL     1       0.314   1.843  -0.888  1.00  0.00     0.052 A 
ATOM     10  C   UNL     1      -0.807   2.025  -1.706  1.00  0.00     0.028 A 
ATOM     11  C   UNL     1      -1.642   0.950  -1.982  1.00  0.00     0.018 A 
BRANCH   9  12
ATOM     12  N   UNL     1       0.724   2.854   0.032  1.00  0.00    -0.279 N 
ATOM     13  H   UNL     1       1.494   2.649   0.610  1.00  0.00     0.180 HD
BRANCH  12  14
ATOM     14  S   UNL     1       0.012   4.356   0.213  1.00  0.00     0.262 S 
ATOM     15  O   UNL     1       0.556   4.917   1.430  1.00  0.00    -0.201 OA
ATOM     16  O   UNL     1       0.153   5.027  -1.063  1.00  0.00    -0.201 OA
BRANCH  14  17
ATOM     17  C   UNL     1      -1.756   4.123   0.504  1.00  0.00     0.090 A 
ATOM     18  C   UNL     1      -2.256   2.866   0.885  1.00  0.00     0.024 A 
ATOM     19  C   UNL     1      -2.654   5.149   0.140  1.00  0.00    -0.029 A 
ATOM     20  C   UNL     1      -3.622   2.578   0.750  1.00  0.00     0.021 A 
ATOM     21  C   UNL     1      -4.024   4.841   0.018  1.00  0.00     0.024 A 
ATOM     22  C   UNL     1      -2.255   6.584  -0.079  1.00  0.00     0.046 C 
ATOM     23  C   UNL     1      -4.502   3.554   0.278  1.00  0.00     0.052 A 
BRANCH  23  24
ATOM     24  C   UNL     1      -5.886   3.238   0.028  1.00  0.00     0.099 C 
ATOM     25  N   UNL     1      -6.984   2.986  -0.203  1.00  0.00    -0.192 NA
ENDBRANCH  23  24
ENDBRANCH  14  17
ENDBRANCH  12  14
ENDBRANCH   9  12
ENDBRANCH   3   5
ENDBRANCH   2   3
ENDBRANCH   1   2
BRANCH   1  26
ATOM     26  C   UNL     1      -3.975  -4.137  -2.634  1.00  0.00     0.275 C 
BRANCH  26  27
ATOM     27  O   UNL     1      -2.774  -4.963  -2.640  1.00  0.00    -0.458 OA
BRANCH  27  28
ATOM     28  C   UNL     1      -1.648  -4.712  -1.936  1.00  0.00     0.338 C 
ATOM     29  O   UNL     1      -0.531  -4.717  -2.426  1.00  0.00    -0.246 OA
BRANCH  28  30
ATOM     30  C   UNL     1      -1.857  -4.444  -0.507  1.00  0.00     0.060 A 
ATOM     31  C   UNL     1      -0.904  -3.672   0.176  1.00  0.00     0.016 A 
ATOM     32  C   UNL     1      -3.057  -4.816   0.086  1.00  0.00     0.016 A 
ATOM     33  C   UNL     1      -1.190  -3.167   1.430  1.00  0.00     0.010 A 
ATOM     34  C   UNL     1      -3.424  -4.185   1.237  1.00  0.00     0.010 A 
ATOM     35  C   UNL     1      -2.455  -3.443   1.932  1.00  0.00    -0.014 A 
BRANCH  35  36
ATOM     36  C   UNL     1      -2.740  -3.426   3.348  1.00  0.00     0.031 A 
ATOM     37  C   UNL     1      -3.334  -2.216   3.928  1.00  0.00     0.074 A 
ATOM     38  C   UNL     1      -2.624  -4.699   3.804  1.00  0.00     0.049 A 
ATOM     39  N   UNL     1      -3.308  -1.922   5.175  1.00  0.00    -0.248 NA
ATOM     40  C   UNL     1      -3.957  -1.151   3.135  1.00  0.00     0.031 C 
ATOM     41  C   UNL     1      -3.151  -5.418   4.944  1.00  0.00     0.029 A 
ATOM     42  N   UNL     1      -1.809  -5.676   3.174  1.00  0.00    -0.354 N 
ATOM     43  C   UNL     1      -4.289  -0.966   5.372  1.00  0.00     0.074 A 
ATOM     44  C   UNL     1      -4.467  -0.354   4.085  1.00  0.00     0.031 C 
ATOM     45  C   UNL     1      -2.390  -6.518   5.143  1.00  0.00     0.029 A 
ATOM     46  C   UNL     1      -1.288  -6.478   4.184  1.00  0.00     0.049 A 
ATOM     47  H   UNL     1      -1.645  -5.768   2.208  1.00  0.00     0.167 HD
ATOM     48  C   UNL     1      -4.993  -1.019   6.543  1.00  0.00     0.037 A 
ATOM     49  C   UNL     1       0.035  -6.290   4.470  1.00  0.00     0.037 A 
ATOM     50  C   UNL     1      -4.477  -2.145   7.325  1.00  0.00     0.049 A 
ATOM     51  C   UNL     1       0.127  -5.565   5.790  1.00  0.00     0.074 A 
ATOM     52  C   UNL     1      -4.909  -3.456   7.441  1.00  0.00     0.029 A 
ATOM     53  N   UNL     1      -3.149  -2.124   7.733  1.00  0.00    -0.354 N 
ATOM     54  N   UNL     1      -0.696  -4.625   6.183  1.00  0.00    -0.248 NA
ATOM     55  C   UNL     1       1.047  -6.004   6.829  1.00  0.00     0.031 C 
ATOM     56  C   UNL     1      -3.788  -4.238   7.843  1.00  0.00     0.029 A 
ATOM     57  C   UNL     1      -2.678  -3.410   7.925  1.00  0.00     0.049 A 
ATOM     58  H   UNL     1      -2.618  -1.307   7.866  1.00  0.00     0.167 HD
ATOM     59  C   UNL     1      -0.513  -4.422   7.526  1.00  0.00     0.074 A 
ATOM     60  C   UNL     1       0.602  -5.290   7.874  1.00  0.00     0.031 C 
ATOM     61  C   UNL     1      -1.295  -3.624   8.316  1.00  0.00     0.037 A 
BRANCH  48  62
ATOM     62  C   UNL     1      -6.297  -0.329   6.905  1.00  0.00     0.064 A 
ATOM     63  C   UNL     1      -7.001  -0.737   8.067  1.00  0.00     0.173 A 
ATOM     64  C   UNL     1      -6.924   0.705   6.184  1.00  0.00     0.173 A 
ATOM     65  F   UNL     1      -6.507  -1.671   8.892  1.00  0.00    -0.203 F 
ATOM     66  C   UNL     1      -8.237  -0.200   8.439  1.00  0.00     0.198 A 
ATOM     67  C   UNL     1      -8.165   1.245   6.559  1.00  0.00     0.198 A 
ATOM     68  F   UNL     1      -6.361   1.260   5.109  1.00  0.00    -0.203 F 
ATOM     69  F   UNL     1      -8.851  -0.650   9.542  1.00  0.00    -0.200 F 
ATOM     70  C   UNL     1      -8.824   0.788   7.682  1.00  0.00     0.200 A 
ATOM     71  F   UNL     1      -8.714   2.221   5.822  1.00  0.00    -0.200 F 
ATOM     72  F   UNL     1     -10.005   1.308   8.040  1.00  0.00    -0.200 F 
ENDBRANCH  48  62
BRANCH  49  73
ATOM     73  C   UNL     1       0.892  -6.074   3.248  1.00  0.00     0.064 A 
ATOM     74  C   UNL     1       0.791  -7.015   2.191  1.00  0.00     0.173 A 
ATOM     75  C   UNL     1       1.570  -4.885   2.953  1.00  0.00     0.173 A 
ATOM     76  F   UNL     1       0.170  -8.188   2.397  1.00  0.00    -0.203 F 
ATOM     77  C   UNL     1       1.223  -6.733   0.893  1.00  0.00     0.198 A 
ATOM     78  C   UNL     1       2.035  -4.617   1.653  1.00  0.00     0.198 A 
ATOM     79  F   UNL     1       1.711  -3.930   3.882  1.00  0.00    -0.203 F 
ATOM     80  F   UNL     1       0.968  -7.597  -0.100  1.00  0.00    -0.200 F 
ATOM     81  C   UNL     1       1.837  -5.527   0.623  1.00  0.00     0.200 A 
ATOM     82  F   UNL     1       2.575  -3.421   1.369  1.00  0.00    -0.200 F 
ATOM     83  F   UNL     1       2.171  -5.205  -0.636  1.00  0.00    -0.200 F 
ENDBRANCH  49  73
BRANCH  61  84
ATOM     84  C   UNL     1      -0.819  -3.030   9.618  1.00  0.00     0.064 A 
ATOM     85  C   UNL     1       0.541  -2.868   9.929  1.00  0.00     0.173 A 
ATOM     86  C   UNL     1      -1.726  -2.437  10.529  1.00  0.00     0.173 A 
ATOM     87  F   UNL     1       1.508  -3.214   9.068  1.00  0.00    -0.203 F 
ATOM     88  C   UNL     1       0.959  -2.281  11.120  1.00  0.00     0.198 A 
ATOM     89  C   UNL     1      -1.299  -1.756  11.664  1.00  0.00     0.198 A 
ATOM     90  F   UNL     1      -3.052  -2.459  10.333  1.00  0.00    -0.203 F 
ATOM     91  F   UNL     1       2.265  -2.245  11.411  1.00  0.00    -0.200 F 
ATOM     92  C   UNL     1       0.041  -1.714  11.980  1.00  0.00     0.200 A 
ATOM     93  F   UNL     1      -2.196  -1.127  12.435  1.00  0.00    -0.200 F 
ATOM     94  F   UNL     1       0.450  -1.107  13.100  1.00  0.00    -0.200 F 
ENDBRANCH  61  84
ENDBRANCH  35  36
ENDBRANCH  28  30
ENDBRANCH  27  28
ENDBRANCH  26  27
ENDBRANCH   1  26
TORSDOF 15
