REMARK SMILES COc1ccc(OC)c(N2C(=O)c3ccc(C(=O)OCCOC(=O)c4ccc(-c5c6nc(c(-c7c(F)c(F)c(F)c(F)c7F)c7ccc([nH]7)c(-c7c(F)c(F)c(F)c(F)c7F)c7nc(c(-c8c(F)c(F)c(F)c(F)c8F)c8ccc5[nH]8)C=C7)C=C6)cc4)cc3C2=O)c1
REMARK SMILES IDX 20 1 19 2 17 3 18 4 16 5 10 6 11 7 90 8 12 9 13 10 89 11
REMARK SMILES IDX 91 12 14 13 88 14 15 15 9 16 3 17 4 18 92 19 5 20 6 21 2 22
REMARK SMILES IDX 1 23 7 24 8 25 21 26 22 27 23 28 24 29 25 30 26 31 87 32
REMARK SMILES IDX 27 33 86 34 28 35 29 36 30 37 80 38 31 39 85 40 79 41 81 42
REMARK SMILES IDX 32 43 84 44 78 45 77 46 33 48 65 49 45 50 64 51 46 52 49 53
REMARK SMILES IDX 63 54 82 55 47 56 48 57 62 59 83 60 50 61 34 62 35 63 43 64
REMARK SMILES IDX 36 65 37 66 41 67 44 68 38 69 39 70 42 71 40 72 66 73 67 74
REMARK SMILES IDX 75 75 68 76 69 77 73 78 76 79 70 80 71 81 74 82 72 83 51 84
REMARK SMILES IDX 52 85 60 86 53 87 54 88 58 89 61 90 55 91 56 92 59 93 57 94
REMARK H PARENT 81 47 49 58
REMARK Flexibility Score: inf
ROOT
ATOM      1  C   UNL     1      11.833  -5.271   3.110  1.00  0.00     0.275 C 
ENDROOT
BRANCH   1   2
ATOM      2  O   UNL     1      10.466  -4.941   2.787  1.00  0.00    -0.458 OA
BRANCH   2   3
ATOM      3  C   UNL     1      10.011  -3.808   3.358  1.00  0.00     0.338 C 
ATOM      4  O   UNL     1      10.605  -3.054   4.111  1.00  0.00    -0.246 OA
BRANCH   3   5
ATOM      5  C   UNL     1       8.657  -3.487   2.886  1.00  0.00     0.060 A 
ATOM      6  N   UNL     1       4.224  -2.343   3.217  1.00  0.00    -0.238 N 
ATOM      7  C   UNL     1       4.983  -1.665   2.286  1.00  0.00     0.266 C 
ATOM      8  C   UNL     1       5.019  -3.246   3.893  1.00  0.00     0.266 C 
ATOM      9  O   UNL     1       4.747  -0.710   1.565  1.00  0.00    -0.268 OA
ATOM     10  C   UNL     1       6.305  -2.244   2.300  1.00  0.00     0.053 A 
ATOM     11  C   UNL     1       6.371  -3.123   3.355  1.00  0.00     0.054 A 
ATOM     12  O   UNL     1       4.793  -4.155   4.667  1.00  0.00    -0.268 OA
ATOM     13  C   UNL     1       7.356  -2.018   1.444  1.00  0.00     0.015 A 
ATOM     14  C   UNL     1       7.555  -3.747   3.706  1.00  0.00     0.030 A 
ATOM     15  C   UNL     1       8.536  -2.693   1.725  1.00  0.00     0.016 A 
BRANCH   6  16
ATOM     16  C   UNL     1       2.815  -2.123   3.348  1.00  0.00     0.098 A 
ATOM     17  C   UNL     1       0.811  -1.149   2.281  1.00  0.00     0.121 A 
ATOM     18  C   UNL     1       0.074  -1.417   3.426  1.00  0.00     0.050 A 
ATOM     19  C   UNL     1       2.141  -1.557   2.240  1.00  0.00     0.077 A 
ATOM     20  C   UNL     1       0.683  -2.042   4.524  1.00  0.00     0.052 A 
ATOM     21  C   UNL     1       2.051  -2.376   4.498  1.00  0.00     0.143 A 
BRANCH  17  22
ATOM     22  O   UNL     1       0.167  -0.473   1.279  1.00  0.00    -0.497 OA
ATOM     23  C   UNL     1       0.953  -0.100   0.144  1.00  0.00     0.278 C 
ENDBRANCH  17  22
BRANCH  21  24
ATOM     24  O   UNL     1       2.642  -2.672   5.700  1.00  0.00    -0.495 OA
ATOM     25  C   UNL     1       2.526  -4.050   6.061  1.00  0.00     0.278 C 
ENDBRANCH  21  24
ENDBRANCH   6  16
ENDBRANCH   3   5
ENDBRANCH   2   3
ENDBRANCH   1   2
BRANCH   1  26
ATOM     26  C   UNL     1      12.748  -5.014   1.915  1.00  0.00     0.275 C 
BRANCH  26  27
ATOM     27  O   UNL     1      12.774  -3.609   1.592  1.00  0.00    -0.458 OA
BRANCH  27  28
ATOM     28  C   UNL     1      12.133  -3.273   0.452  1.00  0.00     0.338 C 
ATOM     29  O   UNL     1      11.556  -4.016  -0.326  1.00  0.00    -0.246 OA
BRANCH  28  30
ATOM     30  C   UNL     1      12.140  -1.816   0.253  1.00  0.00     0.060 A 
ATOM     31  C   UNL     1      11.392  -1.007   1.106  1.00  0.00     0.016 A 
ATOM     32  C   UNL     1      12.685  -1.287  -0.917  1.00  0.00     0.016 A 
ATOM     33  C   UNL     1      11.059   0.286   0.710  1.00  0.00     0.010 A 
ATOM     34  C   UNL     1      12.475   0.061  -1.230  1.00  0.00     0.010 A 
ATOM     35  C   UNL     1      11.622   0.855  -0.445  1.00  0.00    -0.014 A 
BRANCH  35  36
ATOM     36  C   UNL     1      11.336   2.275  -0.812  1.00  0.00     0.031 A 
ATOM     37  C   UNL     1      10.813   2.635  -2.181  1.00  0.00     0.074 A 
ATOM     38  C   UNL     1      11.565   3.257   0.085  1.00  0.00     0.049 A 
ATOM     39  N   UNL     1      10.705   3.814  -2.744  1.00  0.00    -0.248 NA
ATOM     40  C   UNL     1      10.364   1.526  -3.038  1.00  0.00     0.031 C 
ATOM     41  C   UNL     1      12.044   3.060   1.455  1.00  0.00     0.029 A 
ATOM     42  N   UNL     1      11.426   4.620  -0.018  1.00  0.00    -0.354 N 
ATOM     43  C   UNL     1      10.235   3.586  -4.032  1.00  0.00     0.074 A 
ATOM     44  C   UNL     1      10.074   2.154  -4.171  1.00  0.00     0.031 C 
ATOM     45  C   UNL     1      12.117   4.244   2.075  1.00  0.00     0.029 A 
ATOM     46  C   UNL     1      11.803   5.296   1.119  1.00  0.00     0.049 A 
ATOM     47  H   UNL     1      11.089   5.070  -0.827  1.00  0.00     0.167 HD
ATOM     48  C   UNL     1       9.968   4.489  -5.007  1.00  0.00     0.037 A 
ATOM     49  C   UNL     1      11.944   6.613   1.357  1.00  0.00     0.037 A 
ATOM     50  C   UNL     1      10.073   5.918  -4.844  1.00  0.00     0.049 A 
ATOM     51  C   UNL     1      11.671   7.588   0.249  1.00  0.00     0.074 A 
ATOM     52  C   UNL     1       9.791   6.915  -5.763  1.00  0.00     0.029 A 
ATOM     53  N   UNL     1      10.479   6.554  -3.680  1.00  0.00    -0.354 N 
ATOM     54  N   UNL     1      11.271   7.356  -0.976  1.00  0.00    -0.248 NA
ATOM     55  C   UNL     1      11.892   9.008   0.552  1.00  0.00     0.031 C 
ATOM     56  C   UNL     1      10.068   8.151  -5.170  1.00  0.00     0.029 A 
ATOM     57  C   UNL     1      10.474   7.928  -3.866  1.00  0.00     0.049 A 
ATOM     58  H   UNL     1      10.732   6.097  -2.846  1.00  0.00     0.167 HD
ATOM     59  C   UNL     1      11.180   8.598  -1.587  1.00  0.00     0.074 A 
ATOM     60  C   UNL     1      11.543   9.583  -0.589  1.00  0.00     0.031 C 
ATOM     61  C   UNL     1      10.835   8.895  -2.862  1.00  0.00     0.037 A 
BRANCH  48  62
ATOM     62  C   UNL     1       9.560   3.975  -6.360  1.00  0.00     0.064 A 
ATOM     63  C   UNL     1       8.290   3.434  -6.599  1.00  0.00     0.173 A 
ATOM     64  C   UNL     1      10.433   4.107  -7.453  1.00  0.00     0.173 A 
ATOM     65  F   UNL     1       7.420   3.279  -5.590  1.00  0.00    -0.203 F 
ATOM     66  C   UNL     1       7.913   3.030  -7.880  1.00  0.00     0.198 A 
ATOM     67  C   UNL     1      10.043   3.727  -8.735  1.00  0.00     0.198 A 
ATOM     68  F   UNL     1      11.657   4.627  -7.281  1.00  0.00    -0.203 F 
ATOM     69  F   UNL     1       6.704   2.488  -8.080  1.00  0.00    -0.200 F 
ATOM     70  C   UNL     1       8.785   3.186  -8.947  1.00  0.00     0.200 A 
ATOM     71  F   UNL     1      10.883   3.894  -9.766  1.00  0.00    -0.200 F 
ATOM     72  F   UNL     1       8.414   2.813 -10.179  1.00  0.00    -0.200 F 
ENDBRANCH  48  62
BRANCH  49  73
ATOM     73  C   UNL     1      12.429   7.077   2.684  1.00  0.00     0.064 A 
ATOM     74  C   UNL     1      11.599   7.810   3.541  1.00  0.00     0.173 A 
ATOM     75  C   UNL     1      13.733   6.795   3.121  1.00  0.00     0.173 A 
ATOM     76  F   UNL     1      10.354   8.127   3.158  1.00  0.00    -0.203 F 
ATOM     77  C   UNL     1      12.059   8.256   4.779  1.00  0.00     0.198 A 
ATOM     78  C   UNL     1      14.179   7.208   4.373  1.00  0.00     0.198 A 
ATOM     79  F   UNL     1      14.568   6.095   2.339  1.00  0.00    -0.203 F 
ATOM     80  F   UNL     1      11.261   8.997   5.559  1.00  0.00    -0.200 F 
ATOM     81  C   UNL     1      13.345   7.947   5.198  1.00  0.00     0.200 A 
ATOM     82  F   UNL     1      15.415   6.890   4.780  1.00  0.00    -0.200 F 
ATOM     83  F   UNL     1      13.782   8.368   6.392  1.00  0.00    -0.200 F 
ENDBRANCH  49  73
BRANCH  61  84
ATOM     84  C   UNL     1      10.805  10.347  -3.237  1.00  0.00     0.064 A 
ATOM     85  C   UNL     1      11.984  11.088  -3.400  1.00  0.00     0.173 A 
ATOM     86  C   UNL     1       9.581  11.000  -3.450  1.00  0.00     0.173 A 
ATOM     87  F   UNL     1      13.177  10.512  -3.188  1.00  0.00    -0.203 F 
ATOM     88  C   UNL     1      11.939  12.438  -3.734  1.00  0.00     0.198 A 
ATOM     89  C   UNL     1       9.541  12.343  -3.812  1.00  0.00     0.198 A 
ATOM     90  F   UNL     1       8.425  10.334  -3.311  1.00  0.00    -0.203 F 
ATOM     91  F   UNL     1      13.076  13.140  -3.832  1.00  0.00    -0.200 F 
ATOM     92  C   UNL     1      10.719  13.063  -3.946  1.00  0.00     0.200 A 
ATOM     93  F   UNL     1       8.362  12.942  -4.027  1.00  0.00    -0.200 F 
ATOM     94  F   UNL     1      10.678  14.363  -4.269  1.00  0.00    -0.200 F 
ENDBRANCH  61  84
ENDBRANCH  35  36
ENDBRANCH  28  30
ENDBRANCH  27  28
ENDBRANCH  26  27
ENDBRANCH   1  26
TORSDOF 14
